# generated using pymatgen
data_LiCl
_symmetry_space_group_name_H-M   'P 1'
_cell_length_a   18.73704628
_cell_length_b   18.73704628
_cell_length_c   18.73704628
_cell_angle_alpha   90.00000000
_cell_angle_beta   90.00000000
_cell_angle_gamma   90.00000000
_symmetry_Int_Tables_number   1
_chemical_formula_structural   LiCl
_chemical_formula_sum   'Li192 Cl192'
_cell_volume   6578.14418695
_cell_formula_units_Z   192
loop_
 _symmetry_equiv_pos_site_id
 _symmetry_equiv_pos_as_xyz
  1  'x, y, z'
loop_
 _atom_site_type_symbol
 _atom_site_label
 _atom_site_symmetry_multiplicity
 _atom_site_fract_x
 _atom_site_fract_y
 _atom_site_fract_z
 _atom_site_occupancy
  Cl  Cl0  1  0.44831863  0.11925878  0.33469909  1
  Cl  Cl1  1  -0.44831863  -0.11925878  0.33469909  1
  Cl  Cl2  1  -0.44831863  0.11925878  -0.33469909  1
  Cl  Cl3  1  0.44831863  -0.11925878  -0.33469909  1
  Cl  Cl4  1  0.33469909  0.44831863  0.11925878  1
  Cl  Cl5  1  0.33469909  -0.44831863  -0.11925878  1
  Cl  Cl6  1  -0.33469909  -0.44831863  0.11925878  1
  Cl  Cl7  1  -0.33469909  0.44831863  -0.11925878  1
  Cl  Cl8  1  0.11925878  0.33469909  0.44831863  1
  Cl  Cl9  1  -0.11925878  0.33469909  -0.44831863  1
  Cl  Cl10  1  0.11925878  -0.33469909  -0.44831863  1
  Cl  Cl11  1  -0.11925878  -0.33469909  0.44831863  1
  Cl  Cl12  1  0.11925878  0.44831863  -0.33469909  1
  Cl  Cl13  1  -0.11925878  -0.44831863  -0.33469909  1
  Cl  Cl14  1  0.11925878  -0.44831863  0.33469909  1
  Cl  Cl15  1  -0.11925878  0.44831863  0.33469909  1
  Cl  Cl16  1  0.44831863  0.33469909  -0.11925878  1
  Cl  Cl17  1  -0.44831863  0.33469909  0.11925878  1
  Cl  Cl18  1  -0.44831863  -0.33469909  -0.11925878  1
  Cl  Cl19  1  0.44831863  -0.33469909  0.11925878  1
  Cl  Cl20  1  0.33469909  0.11925878  -0.44831863  1
  Cl  Cl21  1  0.33469909  -0.11925878  0.44831863  1
  Cl  Cl22  1  -0.33469909  0.11925878  0.44831863  1
  Cl  Cl23  1  -0.33469909  -0.11925878  -0.44831863  1
  Cl  Cl24  1  -0.44831863  -0.11925878  -0.33469909  1
  Cl  Cl25  1  0.44831863  0.11925878  -0.33469909  1
  Cl  Cl26  1  0.44831863  -0.11925878  0.33469909  1
  Cl  Cl27  1  -0.44831863  0.11925878  0.33469909  1
  Cl  Cl28  1  -0.33469909  -0.44831863  -0.11925878  1
  Cl  Cl29  1  -0.33469909  0.44831863  0.11925878  1
  Cl  Cl30  1  0.33469909  0.44831863  -0.11925878  1
  Cl  Cl31  1  0.33469909  -0.44831863  0.11925878  1
  Cl  Cl32  1  -0.11925878  -0.33469909  -0.44831863  1
  Cl  Cl33  1  0.11925878  -0.33469909  0.44831863  1
  Cl  Cl34  1  -0.11925878  0.33469909  0.44831863  1
  Cl  Cl35  1  0.11925878  0.33469909  -0.44831863  1
  Cl  Cl36  1  -0.11925878  -0.44831863  0.33469909  1
  Cl  Cl37  1  0.11925878  0.44831863  0.33469909  1
  Cl  Cl38  1  -0.11925878  0.44831863  -0.33469909  1
  Cl  Cl39  1  0.11925878  -0.44831863  -0.33469909  1
  Cl  Cl40  1  -0.44831863  -0.33469909  0.11925878  1
  Cl  Cl41  1  0.44831863  -0.33469909  -0.11925878  1
  Cl  Cl42  1  0.44831863  0.33469909  0.11925878  1
  Cl  Cl43  1  -0.44831863  0.33469909  -0.11925878  1
  Cl  Cl44  1  -0.33469909  -0.11925878  0.44831863  1
  Cl  Cl45  1  -0.33469909  0.11925878  -0.44831863  1
  Cl  Cl46  1  0.33469909  -0.11925878  -0.44831863  1
  Cl  Cl47  1  0.33469909  0.11925878  0.44831863  1
  Cl  Cl48  1  0.44831863  0.61925878  0.83469909  1
  Cl  Cl49  1  -0.44831863  0.38074122  0.83469909  1
  Cl  Cl50  1  -0.44831863  0.61925878  0.16530091  1
  Cl  Cl51  1  0.44831863  0.38074122  0.16530091  1
  Cl  Cl52  1  0.33469909  0.94831863  0.61925878  1
  Cl  Cl53  1  0.33469909  0.05168137  0.38074122  1
  Cl  Cl54  1  -0.33469909  0.05168137  0.61925878  1
  Cl  Cl55  1  -0.33469909  0.94831863  0.38074122  1
  Cl  Cl56  1  0.11925878  0.83469909  0.94831863  1
  Cl  Cl57  1  -0.11925878  0.83469909  0.05168137  1
  Cl  Cl58  1  0.11925878  0.16530091  0.05168137  1
  Cl  Cl59  1  -0.11925878  0.16530091  0.94831863  1
  Cl  Cl60  1  0.11925878  0.94831863  0.16530091  1
  Cl  Cl61  1  -0.11925878  0.05168137  0.16530091  1
  Cl  Cl62  1  0.11925878  0.05168137  0.83469909  1
  Cl  Cl63  1  -0.11925878  0.94831863  0.83469909  1
  Cl  Cl64  1  0.44831863  0.83469909  0.38074122  1
  Cl  Cl65  1  -0.44831863  0.83469909  0.61925878  1
  Cl  Cl66  1  -0.44831863  0.16530091  0.38074122  1
  Cl  Cl67  1  0.44831863  0.16530091  0.61925878  1
  Cl  Cl68  1  0.33469909  0.61925878  0.05168137  1
  Cl  Cl69  1  0.33469909  0.38074122  0.94831863  1
  Cl  Cl70  1  -0.33469909  0.61925878  0.94831863  1
  Cl  Cl71  1  -0.33469909  0.38074122  0.05168137  1
  Cl  Cl72  1  -0.44831863  0.38074122  0.16530091  1
  Cl  Cl73  1  0.44831863  0.61925878  0.16530091  1
  Cl  Cl74  1  0.44831863  0.38074122  0.83469909  1
  Cl  Cl75  1  -0.44831863  0.61925878  0.83469909  1
  Cl  Cl76  1  -0.33469909  0.05168137  0.38074122  1
  Cl  Cl77  1  -0.33469909  0.94831863  0.61925878  1
  Cl  Cl78  1  0.33469909  0.94831863  0.38074122  1
  Cl  Cl79  1  0.33469909  0.05168137  0.61925878  1
  Cl  Cl80  1  -0.11925878  0.16530091  0.05168137  1
  Cl  Cl81  1  0.11925878  0.16530091  0.94831863  1
  Cl  Cl82  1  -0.11925878  0.83469909  0.94831863  1
  Cl  Cl83  1  0.11925878  0.83469909  0.05168137  1
  Cl  Cl84  1  -0.11925878  0.05168137  0.83469909  1
  Cl  Cl85  1  0.11925878  0.94831863  0.83469909  1
  Cl  Cl86  1  -0.11925878  0.94831863  0.16530091  1
  Cl  Cl87  1  0.11925878  0.05168137  0.16530091  1
  Cl  Cl88  1  -0.44831863  0.16530091  0.61925878  1
  Cl  Cl89  1  0.44831863  0.16530091  0.38074122  1
  Cl  Cl90  1  0.44831863  0.83469909  0.61925878  1
  Cl  Cl91  1  -0.44831863  0.83469909  0.38074122  1
  Cl  Cl92  1  -0.33469909  0.38074122  0.94831863  1
  Cl  Cl93  1  -0.33469909  0.61925878  0.05168137  1
  Cl  Cl94  1  0.33469909  0.38074122  0.05168137  1
  Cl  Cl95  1  0.33469909  0.61925878  0.94831863  1
  Cl  Cl96  1  0.94831863  0.11925878  0.83469909  1
  Cl  Cl97  1  0.05168137  -0.11925878  0.83469909  1
  Cl  Cl98  1  0.05168137  0.11925878  0.16530091  1
  Cl  Cl99  1  0.94831863  -0.11925878  0.16530091  1
  Cl  Cl100  1  0.83469909  0.44831863  0.61925878  1
  Cl  Cl101  1  0.83469909  -0.44831863  0.38074122  1
  Cl  Cl102  1  0.16530091  -0.44831863  0.61925878  1
  Cl  Cl103  1  0.16530091  0.44831863  0.38074122  1
  Cl  Cl104  1  0.61925878  0.33469909  0.94831863  1
  Cl  Cl105  1  0.38074122  0.33469909  0.05168137  1
  Cl  Cl106  1  0.61925878  -0.33469909  0.05168137  1
  Cl  Cl107  1  0.38074122  -0.33469909  0.94831863  1
  Cl  Cl108  1  0.61925878  0.44831863  0.16530091  1
  Cl  Cl109  1  0.38074122  -0.44831863  0.16530091  1
  Cl  Cl110  1  0.61925878  -0.44831863  0.83469909  1
  Cl  Cl111  1  0.38074122  0.44831863  0.83469909  1
  Cl  Cl112  1  0.94831863  0.33469909  0.38074122  1
  Cl  Cl113  1  0.05168137  0.33469909  0.61925878  1
  Cl  Cl114  1  0.05168137  -0.33469909  0.38074122  1
  Cl  Cl115  1  0.94831863  -0.33469909  0.61925878  1
  Cl  Cl116  1  0.83469909  0.11925878  0.05168137  1
  Cl  Cl117  1  0.83469909  -0.11925878  0.94831863  1
  Cl  Cl118  1  0.16530091  0.11925878  0.94831863  1
  Cl  Cl119  1  0.16530091  -0.11925878  0.05168137  1
  Cl  Cl120  1  0.05168137  -0.11925878  0.16530091  1
  Cl  Cl121  1  0.94831863  0.11925878  0.16530091  1
  Cl  Cl122  1  0.94831863  -0.11925878  0.83469909  1
  Cl  Cl123  1  0.05168137  0.11925878  0.83469909  1
  Cl  Cl124  1  0.16530091  -0.44831863  0.38074122  1
  Cl  Cl125  1  0.16530091  0.44831863  0.61925878  1
  Cl  Cl126  1  0.83469909  0.44831863  0.38074122  1
  Cl  Cl127  1  0.83469909  -0.44831863  0.61925878  1
  Cl  Cl128  1  0.38074122  -0.33469909  0.05168137  1
  Cl  Cl129  1  0.61925878  -0.33469909  0.94831863  1
  Cl  Cl130  1  0.38074122  0.33469909  0.94831863  1
  Cl  Cl131  1  0.61925878  0.33469909  0.05168137  1
  Cl  Cl132  1  0.38074122  -0.44831863  0.83469909  1
  Cl  Cl133  1  0.61925878  0.44831863  0.83469909  1
  Cl  Cl134  1  0.38074122  0.44831863  0.16530091  1
  Cl  Cl135  1  0.61925878  -0.44831863  0.16530091  1
  Cl  Cl136  1  0.05168137  -0.33469909  0.61925878  1
  Cl  Cl137  1  0.94831863  -0.33469909  0.38074122  1
  Cl  Cl138  1  0.94831863  0.33469909  0.61925878  1
  Cl  Cl139  1  0.05168137  0.33469909  0.38074122  1
  Cl  Cl140  1  0.16530091  -0.11925878  0.94831863  1
  Cl  Cl141  1  0.16530091  0.11925878  0.05168137  1
  Cl  Cl142  1  0.83469909  -0.11925878  0.05168137  1
  Cl  Cl143  1  0.83469909  0.11925878  0.94831863  1
  Cl  Cl144  1  0.94831863  0.61925878  0.33469909  1
  Cl  Cl145  1  0.05168137  0.38074122  0.33469909  1
  Cl  Cl146  1  0.05168137  0.61925878  -0.33469909  1
  Cl  Cl147  1  0.94831863  0.38074122  -0.33469909  1
  Cl  Cl148  1  0.83469909  0.94831863  0.11925878  1
  Cl  Cl149  1  0.83469909  0.05168137  -0.11925878  1
  Cl  Cl150  1  0.16530091  0.05168137  0.11925878  1
  Cl  Cl151  1  0.16530091  0.94831863  -0.11925878  1
  Cl  Cl152  1  0.61925878  0.83469909  0.44831863  1
  Cl  Cl153  1  0.38074122  0.83469909  -0.44831863  1
  Cl  Cl154  1  0.61925878  0.16530091  -0.44831863  1
  Cl  Cl155  1  0.38074122  0.16530091  0.44831863  1
  Cl  Cl156  1  0.61925878  0.94831863  -0.33469909  1
  Cl  Cl157  1  0.38074122  0.05168137  -0.33469909  1
  Cl  Cl158  1  0.61925878  0.05168137  0.33469909  1
  Cl  Cl159  1  0.38074122  0.94831863  0.33469909  1
  Cl  Cl160  1  0.94831863  0.83469909  -0.11925878  1
  Cl  Cl161  1  0.05168137  0.83469909  0.11925878  1
  Cl  Cl162  1  0.05168137  0.16530091  -0.11925878  1
  Cl  Cl163  1  0.94831863  0.16530091  0.11925878  1
  Cl  Cl164  1  0.83469909  0.61925878  -0.44831863  1
  Cl  Cl165  1  0.83469909  0.38074122  0.44831863  1
  Cl  Cl166  1  0.16530091  0.61925878  0.44831863  1
  Cl  Cl167  1  0.16530091  0.38074122  -0.44831863  1
  Cl  Cl168  1  0.05168137  0.38074122  -0.33469909  1
  Cl  Cl169  1  0.94831863  0.61925878  -0.33469909  1
  Cl  Cl170  1  0.94831863  0.38074122  0.33469909  1
  Cl  Cl171  1  0.05168137  0.61925878  0.33469909  1
  Cl  Cl172  1  0.16530091  0.05168137  -0.11925878  1
  Cl  Cl173  1  0.16530091  0.94831863  0.11925878  1
  Cl  Cl174  1  0.83469909  0.94831863  -0.11925878  1
  Cl  Cl175  1  0.83469909  0.05168137  0.11925878  1
  Cl  Cl176  1  0.38074122  0.16530091  -0.44831863  1
  Cl  Cl177  1  0.61925878  0.16530091  0.44831863  1
  Cl  Cl178  1  0.38074122  0.83469909  0.44831863  1
  Cl  Cl179  1  0.61925878  0.83469909  -0.44831863  1
  Cl  Cl180  1  0.38074122  0.05168137  0.33469909  1
  Cl  Cl181  1  0.61925878  0.94831863  0.33469909  1
  Cl  Cl182  1  0.38074122  0.94831863  -0.33469909  1
  Cl  Cl183  1  0.61925878  0.05168137  -0.33469909  1
  Cl  Cl184  1  0.05168137  0.16530091  0.11925878  1
  Cl  Cl185  1  0.94831863  0.16530091  -0.11925878  1
  Cl  Cl186  1  0.94831863  0.83469909  0.11925878  1
  Cl  Cl187  1  0.05168137  0.83469909  -0.11925878  1
  Cl  Cl188  1  0.16530091  0.38074122  0.44831863  1
  Cl  Cl189  1  0.16530091  0.61925878  -0.44831863  1
  Cl  Cl190  1  0.83469909  0.38074122  -0.44831863  1
  Cl  Cl191  1  0.83469909  0.61925878  0.44831863  1
  Li  Li192  1  0.00000000  0.41601652  0.41601652  1
  Li  Li193  1  0.00000000  0.58398348  0.41601652  1
  Li  Li194  1  0.00000000  0.41601652  0.58398348  1
  Li  Li195  1  0.00000000  0.58398348  0.58398348  1
  Li  Li196  1  0.41601652  0.00000000  0.41601652  1
  Li  Li197  1  0.41601652  0.00000000  0.58398348  1
  Li  Li198  1  0.58398348  0.00000000  0.41601652  1
  Li  Li199  1  0.58398348  0.00000000  0.58398348  1
  Li  Li200  1  0.41601652  0.41601652  0.00000000  1
  Li  Li201  1  0.58398348  0.41601652  0.00000000  1
  Li  Li202  1  0.41601652  0.58398348  0.00000000  1
  Li  Li203  1  0.58398348  0.58398348  0.00000000  1
  Li  Li204  1  0.00000000  0.91601652  0.91601652  1
  Li  Li205  1  0.00000000  0.08398348  0.91601652  1
  Li  Li206  1  0.00000000  0.91601652  0.08398348  1
  Li  Li207  1  0.00000000  0.08398348  0.08398348  1
  Li  Li208  1  0.41601652  0.50000000  0.91601652  1
  Li  Li209  1  0.41601652  0.50000000  0.08398348  1
  Li  Li210  1  0.58398348  0.50000000  0.91601652  1
  Li  Li211  1  0.58398348  0.50000000  0.08398348  1
  Li  Li212  1  0.41601652  0.91601652  0.50000000  1
  Li  Li213  1  0.58398348  0.91601652  0.50000000  1
  Li  Li214  1  0.41601652  0.08398348  0.50000000  1
  Li  Li215  1  0.58398348  0.08398348  0.50000000  1
  Li  Li216  1  0.50000000  0.41601652  0.91601652  1
  Li  Li217  1  0.50000000  0.58398348  0.91601652  1
  Li  Li218  1  0.50000000  0.41601652  0.08398348  1
  Li  Li219  1  0.50000000  0.58398348  0.08398348  1
  Li  Li220  1  0.91601652  -0.00000000  0.91601652  1
  Li  Li221  1  0.91601652  -0.00000000  0.08398348  1
  Li  Li222  1  0.08398348  -0.00000000  0.91601652  1
  Li  Li223  1  0.08398348  -0.00000000  0.08398348  1
  Li  Li224  1  0.91601652  0.41601652  0.50000000  1
  Li  Li225  1  0.08398348  0.41601652  0.50000000  1
  Li  Li226  1  0.91601652  0.58398348  0.50000000  1
  Li  Li227  1  0.08398348  0.58398348  0.50000000  1
  Li  Li228  1  0.50000000  0.91601652  0.41601652  1
  Li  Li229  1  0.50000000  0.08398348  0.41601652  1
  Li  Li230  1  0.50000000  0.91601652  0.58398348  1
  Li  Li231  1  0.50000000  0.08398348  0.58398348  1
  Li  Li232  1  0.91601652  0.50000000  0.41601652  1
  Li  Li233  1  0.91601652  0.50000000  0.58398348  1
  Li  Li234  1  0.08398348  0.50000000  0.41601652  1
  Li  Li235  1  0.08398348  0.50000000  0.58398348  1
  Li  Li236  1  0.91601652  0.91601652  -0.00000000  1
  Li  Li237  1  0.08398348  0.91601652  -0.00000000  1
  Li  Li238  1  0.91601652  0.08398348  -0.00000000  1
  Li  Li239  1  0.08398348  0.08398348  -0.00000000  1
  Li  Li240  1  0.00000000  0.00000000  0.00000000  1
  Li  Li241  1  0.00000000  0.50000000  0.50000000  1
  Li  Li242  1  0.50000000  0.00000000  0.50000000  1
  Li  Li243  1  0.50000000  0.50000000  0.00000000  1
  Li  Li244  1  0.00000000  0.32601590  0.32601590  1
  Li  Li245  1  0.00000000  0.67398410  0.32601590  1
  Li  Li246  1  0.00000000  0.32601590  0.67398410  1
  Li  Li247  1  0.00000000  0.67398410  0.67398410  1
  Li  Li248  1  0.32601590  0.00000000  0.32601590  1
  Li  Li249  1  0.32601590  0.00000000  0.67398410  1
  Li  Li250  1  0.67398410  -0.00000000  0.32601590  1
  Li  Li251  1  0.67398410  -0.00000000  0.67398410  1
  Li  Li252  1  0.32601590  0.32601590  0.00000000  1
  Li  Li253  1  0.67398410  0.32601590  -0.00000000  1
  Li  Li254  1  0.32601590  0.67398410  0.00000000  1
  Li  Li255  1  0.67398410  0.67398410  -0.00000000  1
  Li  Li256  1  0.00000000  0.82601590  0.82601590  1
  Li  Li257  1  0.00000000  0.17398410  0.82601590  1
  Li  Li258  1  0.00000000  0.82601590  0.17398410  1
  Li  Li259  1  0.00000000  0.17398410  0.17398410  1
  Li  Li260  1  0.32601590  0.50000000  0.82601590  1
  Li  Li261  1  0.32601590  0.50000000  0.17398410  1
  Li  Li262  1  0.67398410  0.50000000  0.82601590  1
  Li  Li263  1  0.67398410  0.50000000  0.17398410  1
  Li  Li264  1  0.32601590  0.82601590  0.50000000  1
  Li  Li265  1  0.67398410  0.82601590  0.50000000  1
  Li  Li266  1  0.32601590  0.17398410  0.50000000  1
  Li  Li267  1  0.67398410  0.17398410  0.50000000  1
  Li  Li268  1  0.50000000  0.32601590  0.82601590  1
  Li  Li269  1  0.50000000  0.67398410  0.82601590  1
  Li  Li270  1  0.50000000  0.32601590  0.17398410  1
  Li  Li271  1  0.50000000  0.67398410  0.17398410  1
  Li  Li272  1  0.82601590  -0.00000000  0.82601590  1
  Li  Li273  1  0.82601590  -0.00000000  0.17398410  1
  Li  Li274  1  0.17398410  0.00000000  0.82601590  1
  Li  Li275  1  0.17398410  0.00000000  0.17398410  1
  Li  Li276  1  0.82601590  0.32601590  0.50000000  1
  Li  Li277  1  0.17398410  0.32601590  0.50000000  1
  Li  Li278  1  0.82601590  0.67398410  0.50000000  1
  Li  Li279  1  0.17398410  0.67398410  0.50000000  1
  Li  Li280  1  0.50000000  0.82601590  0.32601590  1
  Li  Li281  1  0.50000000  0.17398410  0.32601590  1
  Li  Li282  1  0.50000000  0.82601590  0.67398410  1
  Li  Li283  1  0.50000000  0.17398410  0.67398410  1
  Li  Li284  1  0.82601590  0.50000000  0.32601590  1
  Li  Li285  1  0.82601590  0.50000000  0.67398410  1
  Li  Li286  1  0.17398410  0.50000000  0.32601590  1
  Li  Li287  1  0.17398410  0.50000000  0.67398410  1
  Li  Li288  1  0.82601590  0.82601590  -0.00000000  1
  Li  Li289  1  0.17398410  0.82601590  0.00000000  1
  Li  Li290  1  0.82601590  0.17398410  -0.00000000  1
  Li  Li291  1  0.17398410  0.17398410  0.00000000  1
  Li  Li292  1  0.07632436  0.00000000  0.00000000  1
  Li  Li293  1  0.92367564  0.00000000  0.00000000  1
  Li  Li294  1  0.00000000  0.07632436  0.00000000  1
  Li  Li295  1  0.00000000  0.92367564  0.00000000  1
  Li  Li296  1  0.00000000  0.00000000  0.07632436  1
  Li  Li297  1  0.00000000  0.00000000  0.92367564  1
  Li  Li298  1  0.07632436  0.50000000  0.50000000  1
  Li  Li299  1  0.92367564  0.50000000  0.50000000  1
  Li  Li300  1  0.00000000  0.57632436  0.50000000  1
  Li  Li301  1  0.00000000  0.42367564  0.50000000  1
  Li  Li302  1  0.00000000  0.50000000  0.57632436  1
  Li  Li303  1  0.00000000  0.50000000  0.42367564  1
  Li  Li304  1  0.57632436  0.00000000  0.50000000  1
  Li  Li305  1  0.42367564  -0.00000000  0.50000000  1
  Li  Li306  1  0.50000000  0.07632436  0.50000000  1
  Li  Li307  1  0.50000000  0.92367564  0.50000000  1
  Li  Li308  1  0.50000000  0.00000000  0.57632436  1
  Li  Li309  1  0.50000000  0.00000000  0.42367564  1
  Li  Li310  1  0.57632436  0.50000000  -0.00000000  1
  Li  Li311  1  0.42367564  0.50000000  0.00000000  1
  Li  Li312  1  0.50000000  0.57632436  -0.00000000  1
  Li  Li313  1  0.50000000  0.42367564  0.00000000  1
  Li  Li314  1  0.50000000  0.50000000  0.07632436  1
  Li  Li315  1  0.50000000  0.50000000  0.92367564  1
  Li  Li316  1  0.25000000  0.25000000  0.25000000  1
  Li  Li317  1  0.25000000  0.25000000  0.75000000  1
  Li  Li318  1  0.25000000  0.75000000  0.75000000  1
  Li  Li319  1  0.25000000  0.75000000  0.25000000  1
  Li  Li320  1  0.75000000  0.25000000  0.75000000  1
  Li  Li321  1  0.75000000  0.25000000  0.25000000  1
  Li  Li322  1  0.75000000  0.75000000  0.25000000  1
  Li  Li323  1  0.75000000  0.75000000  0.75000000  1
  Li  Li324  1  0.00000000  0.25000000  0.25000000  1
  Li  Li325  1  0.00000000  0.75000000  0.25000000  1
  Li  Li326  1  0.25000000  0.00000000  0.25000000  1
  Li  Li327  1  0.25000000  0.00000000  0.75000000  1
  Li  Li328  1  0.25000000  0.25000000  0.00000000  1
  Li  Li329  1  0.75000000  0.25000000  -0.00000000  1
  Li  Li330  1  0.00000000  0.75000000  0.75000000  1
  Li  Li331  1  0.00000000  0.25000000  0.75000000  1
  Li  Li332  1  0.25000000  0.50000000  0.75000000  1
  Li  Li333  1  0.25000000  0.50000000  0.25000000  1
  Li  Li334  1  0.25000000  0.75000000  0.50000000  1
  Li  Li335  1  0.75000000  0.75000000  0.50000000  1
  Li  Li336  1  0.50000000  0.25000000  0.75000000  1
  Li  Li337  1  0.50000000  0.75000000  0.75000000  1
  Li  Li338  1  0.75000000  -0.00000000  0.75000000  1
  Li  Li339  1  0.75000000  -0.00000000  0.25000000  1
  Li  Li340  1  0.75000000  0.25000000  0.50000000  1
  Li  Li341  1  0.25000000  0.25000000  0.50000000  1
  Li  Li342  1  0.50000000  0.75000000  0.25000000  1
  Li  Li343  1  0.50000000  0.25000000  0.25000000  1
  Li  Li344  1  0.75000000  0.50000000  0.25000000  1
  Li  Li345  1  0.75000000  0.50000000  0.75000000  1
  Li  Li346  1  0.75000000  0.75000000  -0.00000000  1
  Li  Li347  1  0.25000000  0.75000000  0.00000000  1
  Li  Li348  1  0.83764416  0.83764416  0.83764416  1
  Li  Li349  1  0.16235584  0.16235584  0.83764416  1
  Li  Li350  1  0.16235584  0.83764416  0.16235584  1
  Li  Li351  1  0.83764416  0.16235584  0.16235584  1
  Li  Li352  1  0.83764416  0.83764416  0.16235584  1
  Li  Li353  1  0.16235584  0.16235584  0.16235584  1
  Li  Li354  1  0.83764416  0.16235584  0.83764416  1
  Li  Li355  1  0.16235584  0.83764416  0.83764416  1
  Li  Li356  1  0.83764416  0.33764416  0.33764416  1
  Li  Li357  1  0.16235584  0.66235584  0.33764416  1
  Li  Li358  1  0.16235584  0.33764416  0.66235584  1
  Li  Li359  1  0.83764416  0.66235584  0.66235584  1
  Li  Li360  1  0.83764416  0.33764416  0.66235584  1
  Li  Li361  1  0.16235584  0.66235584  0.66235584  1
  Li  Li362  1  0.83764416  0.66235584  0.33764416  1
  Li  Li363  1  0.16235584  0.33764416  0.33764416  1
  Li  Li364  1  0.33764416  0.83764416  0.33764416  1
  Li  Li365  1  0.66235584  0.16235584  0.33764416  1
  Li  Li366  1  0.66235584  0.83764416  0.66235584  1
  Li  Li367  1  0.33764416  0.16235584  0.66235584  1
  Li  Li368  1  0.33764416  0.83764416  0.66235584  1
  Li  Li369  1  0.66235584  0.16235584  0.66235584  1
  Li  Li370  1  0.33764416  0.16235584  0.33764416  1
  Li  Li371  1  0.66235584  0.83764416  0.33764416  1
  Li  Li372  1  0.33764416  0.33764416  0.83764416  1
  Li  Li373  1  0.66235584  0.66235584  0.83764416  1
  Li  Li374  1  0.66235584  0.33764416  0.16235584  1
  Li  Li375  1  0.33764416  0.66235584  0.16235584  1
  Li  Li376  1  0.33764416  0.33764416  0.16235584  1
  Li  Li377  1  0.66235584  0.66235584  0.16235584  1
  Li  Li378  1  0.33764416  0.66235584  0.83764416  1
  Li  Li379  1  0.66235584  0.33764416  0.83764416  1
  Li  Li380  1  0.50000000  0.50000000  0.50000000  1
  Li  Li381  1  0.50000000  0.00000000  0.00000000  1
  Li  Li382  1  0.00000000  0.50000000  0.00000000  1
  Li  Li383  1  0.00000000  0.00000000  0.50000000  1
