# generated using pymatgen
data_SrLi4(SF)2
_symmetry_space_group_name_H-M   'P 1'
_cell_length_a   15.98532530
_cell_length_b   15.98532530
_cell_length_c   15.31908954
_cell_angle_alpha   90.00000000
_cell_angle_beta   90.00000000
_cell_angle_gamma   90.00000000
_symmetry_Int_Tables_number   1
_chemical_formula_structural   SrLi4(SF)2
_chemical_formula_sum   'Sr24 Li96 S48 F48'
_cell_volume   3914.49652277
_cell_formula_units_Z   24
loop_
 _symmetry_equiv_pos_site_id
 _symmetry_equiv_pos_as_xyz
  1  'x, y, z'
loop_
 _atom_site_type_symbol
 _atom_site_label
 _atom_site_symmetry_multiplicity
 _atom_site_fract_x
 _atom_site_fract_y
 _atom_site_fract_z
 _atom_site_occupancy
  F  F0  1  0.48060664  0.00000000  0.25000000  1
  F  F1  1  0.01939336  0.00000000  0.75000000  1
  F  F2  1  0.25000000  0.23060664  0.50000000  1
  F  F3  1  0.25000000  0.76939336  0.00000000  1
  F  F4  1  0.51939336  0.00000000  0.75000000  1
  F  F5  1  0.98060664  0.00000000  0.25000000  1
  F  F6  1  0.75000000  0.76939336  0.50000000  1
  F  F7  1  0.75000000  0.23060664  0.00000000  1
  F  F8  1  0.98060664  0.50000000  0.75000000  1
  F  F9  1  0.51939336  0.50000000  0.25000000  1
  F  F10  1  0.75000000  0.73060664  0.00000000  1
  F  F11  1  0.75000000  0.26939336  0.50000000  1
  F  F12  1  0.01939336  0.50000000  0.25000000  1
  F  F13  1  0.48060664  0.50000000  0.75000000  1
  F  F14  1  0.25000000  0.26939336  0.00000000  1
  F  F15  1  0.25000000  0.73060664  0.50000000  1
  F  F16  1  0.42862231  0.06182406  0.43269090  1
  F  F17  1  0.07137769  0.93817594  0.93269090  1
  F  F18  1  0.18817594  0.17862231  0.68269090  1
  F  F19  1  0.31182406  0.82137769  0.18269090  1
  F  F20  1  0.07137769  0.06182406  0.56730910  1
  F  F21  1  0.42862231  0.93817594  0.06730910  1
  F  F22  1  0.31182406  0.17862231  0.31730910  1
  F  F23  1  0.18817594  0.82137769  0.81730910  1
  F  F24  1  0.57137769  0.93817594  0.56730910  1
  F  F25  1  0.92862231  0.06182406  0.06730910  1
  F  F26  1  0.81182406  0.82137769  0.31730910  1
  F  F27  1  0.68817594  0.17862231  0.81730910  1
  F  F28  1  0.92862231  0.93817594  0.43269090  1
  F  F29  1  0.57137769  0.06182406  0.93269090  1
  F  F30  1  0.68817594  0.82137769  0.68269090  1
  F  F31  1  0.81182406  0.17862231  0.18269090  1
  F  F32  1  0.92862231  0.56182406  0.93269090  1
  F  F33  1  0.57137769  0.43817594  0.43269090  1
  F  F34  1  0.68817594  0.67862231  0.18269090  1
  F  F35  1  0.81182406  0.32137769  0.68269090  1
  F  F36  1  0.57137769  0.56182406  0.06730910  1
  F  F37  1  0.92862231  0.43817594  0.56730910  1
  F  F38  1  0.81182406  0.67862231  0.81730910  1
  F  F39  1  0.68817594  0.32137769  0.31730910  1
  F  F40  1  0.07137769  0.43817594  0.06730910  1
  F  F41  1  0.42862231  0.56182406  0.56730910  1
  F  F42  1  0.31182406  0.32137769  0.81730910  1
  F  F43  1  0.18817594  0.67862231  0.31730910  1
  F  F44  1  0.42862231  0.43817594  0.93269090  1
  F  F45  1  0.07137769  0.56182406  0.43269090  1
  F  F46  1  0.18817594  0.32137769  0.18269090  1
  F  F47  1  0.31182406  0.67862231  0.68269090  1
  Li  Li48  1  0.85590554  0.89048433  0.19714298  1
  Li  Li49  1  0.64409446  0.10951567  0.69714298  1
  Li  Li50  1  0.35951567  0.60590554  0.44714298  1
  Li  Li51  1  0.14048433  0.39409446  0.94714298  1
  Li  Li52  1  0.64409446  0.89048433  0.80285702  1
  Li  Li53  1  0.85590554  0.10951567  0.30285702  1
  Li  Li54  1  0.14048433  0.60590554  0.55285702  1
  Li  Li55  1  0.35951567  0.39409446  0.05285702  1
  Li  Li56  1  0.14409446  0.10951567  0.80285702  1
  Li  Li57  1  0.35590554  0.89048433  0.30285702  1
  Li  Li58  1  0.64048433  0.39409446  0.55285702  1
  Li  Li59  1  0.85951567  0.60590554  0.05285702  1
  Li  Li60  1  0.35590554  0.10951567  0.19714298  1
  Li  Li61  1  0.14409446  0.89048433  0.69714298  1
  Li  Li62  1  0.85951567  0.39409446  0.44714298  1
  Li  Li63  1  0.64048433  0.60590554  0.94714298  1
  Li  Li64  1  0.35590554  0.39048433  0.69714298  1
  Li  Li65  1  0.14409446  0.60951567  0.19714298  1
  Li  Li66  1  0.85951567  0.10590554  0.94714298  1
  Li  Li67  1  0.64048433  0.89409446  0.44714298  1
  Li  Li68  1  0.14409446  0.39048433  0.30285702  1
  Li  Li69  1  0.35590554  0.60951567  0.80285702  1
  Li  Li70  1  0.64048433  0.10590554  0.05285702  1
  Li  Li71  1  0.85951567  0.89409446  0.55285702  1
  Li  Li72  1  0.64409446  0.60951567  0.30285702  1
  Li  Li73  1  0.85590554  0.39048433  0.80285702  1
  Li  Li74  1  0.14048433  0.89409446  0.05285702  1
  Li  Li75  1  0.35951567  0.10590554  0.55285702  1
  Li  Li76  1  0.85590554  0.60951567  0.69714298  1
  Li  Li77  1  0.64409446  0.39048433  0.19714298  1
  Li  Li78  1  0.35951567  0.89409446  0.94714298  1
  Li  Li79  1  0.14048433  0.10590554  0.44714298  1
  Li  Li80  1  0.09237867  0.84092037  0.45657661  1
  Li  Li81  1  0.40762133  0.15907963  0.95657661  1
  Li  Li82  1  0.40907963  0.84237867  0.70657661  1
  Li  Li83  1  0.09092037  0.15762133  0.20657661  1
  Li  Li84  1  0.40762133  0.84092037  0.54342339  1
  Li  Li85  1  0.09237867  0.15907963  0.04342339  1
  Li  Li86  1  0.09092037  0.84237867  0.29342339  1
  Li  Li87  1  0.40907963  0.15762133  0.79342339  1
  Li  Li88  1  0.90762133  0.15907963  0.54342339  1
  Li  Li89  1  0.59237867  0.84092037  0.04342339  1
  Li  Li90  1  0.59092037  0.15762133  0.29342339  1
  Li  Li91  1  0.90907963  0.84237867  0.79342339  1
  Li  Li92  1  0.59237867  0.15907963  0.45657661  1
  Li  Li93  1  0.90762133  0.84092037  0.95657661  1
  Li  Li94  1  0.90907963  0.15762133  0.70657661  1
  Li  Li95  1  0.59092037  0.84237867  0.20657661  1
  Li  Li96  1  0.59237867  0.34092037  0.95657661  1
  Li  Li97  1  0.90762133  0.65907963  0.45657661  1
  Li  Li98  1  0.90907963  0.34237867  0.20657661  1
  Li  Li99  1  0.59092037  0.65762133  0.70657661  1
  Li  Li100  1  0.90762133  0.34092037  0.04342339  1
  Li  Li101  1  0.59237867  0.65907963  0.54342339  1
  Li  Li102  1  0.59092037  0.34237867  0.79342339  1
  Li  Li103  1  0.90907963  0.65762133  0.29342339  1
  Li  Li104  1  0.40762133  0.65907963  0.04342339  1
  Li  Li105  1  0.09237867  0.34092037  0.54342339  1
  Li  Li106  1  0.09092037  0.65762133  0.79342339  1
  Li  Li107  1  0.40907963  0.34237867  0.29342339  1
  Li  Li108  1  0.09237867  0.65907963  0.95657661  1
  Li  Li109  1  0.40762133  0.34092037  0.45657661  1
  Li  Li110  1  0.40907963  0.65762133  0.20657661  1
  Li  Li111  1  0.09092037  0.34237867  0.70657661  1
  Li  Li112  1  0.54357714  0.12204157  0.60810633  1
  Li  Li113  1  0.95642286  0.87795843  0.10810633  1
  Li  Li114  1  0.12795843  0.29357714  0.85810633  1
  Li  Li115  1  0.37204157  0.70642286  0.35810633  1
  Li  Li116  1  0.95642286  0.12204157  0.39189367  1
  Li  Li117  1  0.54357714  0.87795843  0.89189367  1
  Li  Li118  1  0.37204157  0.29357714  0.14189367  1
  Li  Li119  1  0.12795843  0.70642286  0.64189367  1
  Li  Li120  1  0.45642286  0.87795843  0.39189367  1
  Li  Li121  1  0.04357714  0.12204157  0.89189367  1
  Li  Li122  1  0.87204157  0.70642286  0.14189367  1
  Li  Li123  1  0.62795843  0.29357714  0.64189367  1
  Li  Li124  1  0.04357714  0.87795843  0.60810633  1
  Li  Li125  1  0.45642286  0.12204157  0.10810633  1
  Li  Li126  1  0.62795843  0.70642286  0.85810633  1
  Li  Li127  1  0.87204157  0.29357714  0.35810633  1
  Li  Li128  1  0.04357714  0.62204157  0.10810633  1
  Li  Li129  1  0.45642286  0.37795843  0.60810633  1
  Li  Li130  1  0.62795843  0.79357714  0.35810633  1
  Li  Li131  1  0.87204157  0.20642286  0.85810633  1
  Li  Li132  1  0.45642286  0.62204157  0.89189367  1
  Li  Li133  1  0.04357714  0.37795843  0.39189367  1
  Li  Li134  1  0.87204157  0.79357714  0.64189367  1
  Li  Li135  1  0.62795843  0.20642286  0.14189367  1
  Li  Li136  1  0.95642286  0.37795843  0.89189367  1
  Li  Li137  1  0.54357714  0.62204157  0.39189367  1
  Li  Li138  1  0.37204157  0.20642286  0.64189367  1
  Li  Li139  1  0.12795843  0.79357714  0.14189367  1
  Li  Li140  1  0.54357714  0.37795843  0.10810633  1
  Li  Li141  1  0.95642286  0.62204157  0.60810633  1
  Li  Li142  1  0.12795843  0.20642286  0.35810633  1
  Li  Li143  1  0.37204157  0.79357714  0.85810633  1
  S  S144  1  0.27711057  0.23714998  0.68597100  1
  S  S145  1  0.22288943  -0.23714998  1.18597100  1
  S  S146  1  0.01285002  1.02711057  0.93597100  1
  S  S147  1  0.48714998  -0.02711057  1.43597100  1
  S  S148  1  0.22288943  0.23714998  -0.68597100  1
  S  S149  1  0.27711057  -0.23714998  -0.18597100  1
  S  S150  1  0.48714998  1.02711057  0.06402900  1
  S  S151  1  0.01285002  -0.02711057  -0.43597100  1
  S  S152  1  -0.27711057  -0.23714998  -0.68597100  1
  S  S153  1  0.77711057  0.23714998  -0.18597100  1
  S  S154  1  0.98714998  -0.02711057  0.06402900  1
  S  S155  1  0.51285002  1.02711057  -0.43597100  1
  S  S156  1  0.77711057  -0.23714998  0.68597100  1
  S  S157  1  -0.27711057  0.23714998  1.18597100  1
  S  S158  1  0.51285002  -0.02711057  0.93597100  1
  S  S159  1  0.98714998  1.02711057  1.43597100  1
  S  S160  1  0.77711057  0.73714998  1.18597100  1
  S  S161  1  0.72288943  0.26285002  1.68597100  1
  S  S162  1  0.51285002  1.52711057  1.43597100  1
  S  S163  1  0.98714998  0.47288943  1.93597100  1
  S  S164  1  0.72288943  0.73714998  -0.18597100  1
  S  S165  1  0.77711057  0.26285002  0.31402900  1
  S  S166  1  0.98714998  1.52711057  0.56402900  1
  S  S167  1  0.51285002  0.47288943  0.06402900  1
  S  S168  1  0.22288943  0.26285002  -0.18597100  1
  S  S169  1  1.27711057  0.73714998  0.31402900  1
  S  S170  1  1.48714998  0.47288943  0.56402900  1
  S  S171  1  1.01285002  1.52711057  0.06402900  1
  S  S172  1  1.27711057  0.26285002  1.18597100  1
  S  S173  1  0.22288943  0.73714998  1.68597100  1
  S  S174  1  1.01285002  0.47288943  1.43597100  1
  S  S175  1  1.48714998  1.52711057  1.93597100  1
  S  S176  1  0.13474684  0.38474684  0.12500000  1
  S  S177  1  0.36525316  0.61525316  0.62500000  1
  S  S178  1  0.86525316  0.88474684  0.37500000  1
  S  S179  1  0.63474684  0.11525316  0.87500000  1
  S  S180  1  0.86525316  0.61525316  0.87500000  1
  S  S181  1  0.63474684  0.38474684  0.37500000  1
  S  S182  1  0.13474684  0.11525316  0.62500000  1
  S  S183  1  0.36525316  0.88474684  0.12500000  1
  S  S184  1  0.63474684  0.88474684  0.62500000  1
  S  S185  1  0.86525316  0.11525316  0.12500000  1
  S  S186  1  0.36525316  0.38474684  0.87500000  1
  S  S187  1  0.13474684  0.61525316  0.37500000  1
  S  S188  1  0.36525316  0.11525316  0.37500000  1
  S  S189  1  0.13474684  0.88474684  0.87500000  1
  S  S190  1  0.63474684  0.61525316  0.12500000  1
  S  S191  1  0.86525316  0.38474684  0.62500000  1
  Sr  Sr192  1  0.00000000  0.25000000  0.46927946  1
  Sr  Sr193  1  0.00000000  0.75000000  0.71927946  1
  Sr  Sr194  1  0.50000000  0.25000000  0.53072054  1
  Sr  Sr195  1  0.50000000  0.75000000  0.28072054  1
  Sr  Sr196  1  0.00000000  0.75000000  0.53072054  1
  Sr  Sr197  1  0.00000000  0.25000000  0.28072054  1
  Sr  Sr198  1  0.50000000  0.75000000  0.46927946  1
  Sr  Sr199  1  0.50000000  0.25000000  0.71927946  1
  Sr  Sr200  1  0.50000000  0.75000000  0.96927946  1
  Sr  Sr201  1  0.50000000  0.25000000  0.21927946  1
  Sr  Sr202  1  0.00000000  0.75000000  0.03072054  1
  Sr  Sr203  1  0.00000000  0.25000000  0.78072054  1
  Sr  Sr204  1  0.50000000  0.25000000  0.03072054  1
  Sr  Sr205  1  0.50000000  0.75000000  0.78072054  1
  Sr  Sr206  1  0.00000000  0.25000000  0.96927946  1
  Sr  Sr207  1  0.00000000  0.75000000  0.21927946  1
  Sr  Sr208  1  0.00000000  0.25000000  0.12500000  1
  Sr  Sr209  1  0.00000000  0.75000000  0.37500000  1
  Sr  Sr210  1  0.00000000  0.75000000  0.87500000  1
  Sr  Sr211  1  0.00000000  0.25000000  0.62500000  1
  Sr  Sr212  1  0.50000000  0.75000000  0.62500000  1
  Sr  Sr213  1  0.50000000  0.25000000  0.87500000  1
  Sr  Sr214  1  0.50000000  0.25000000  0.37500000  1
  Sr  Sr215  1  0.50000000  0.75000000  0.12500000  1
