# generated using pymatgen
data_LiI
_symmetry_space_group_name_H-M   'P 1'
_cell_length_a   10.44474730
_cell_length_b   10.44474730
_cell_length_c   10.44474730
_cell_angle_alpha   90.00000000
_cell_angle_beta   90.00000000
_cell_angle_gamma   90.00000000
_symmetry_Int_Tables_number   1
_chemical_formula_structural   LiI
_chemical_formula_sum   'Li32 I32'
_cell_volume   1139.44616645
_cell_formula_units_Z   32
loop_
 _symmetry_equiv_pos_site_id
 _symmetry_equiv_pos_as_xyz
  1  'x, y, z'
loop_
 _atom_site_type_symbol
 _atom_site_label
 _atom_site_symmetry_multiplicity
 _atom_site_fract_x
 _atom_site_fract_y
 _atom_site_fract_z
 _atom_site_occupancy
  I  I0  1  0.12500000  0.75963031  -0.50963031  1
  I  I1  1  0.37500000  -0.75963031  -0.00963031  1
  I  I2  1  0.87500000  1.25963031  1.00963031  1
  I  I3  1  0.62500000  -0.25963031  1.50963031  1
  I  I4  1  -0.50963031  0.12500000  0.75963031  1
  I  I5  1  -0.00963031  0.37500000  -0.75963031  1
  I  I6  1  1.00963031  0.87500000  1.25963031  1
  I  I7  1  1.50963031  0.62500000  -0.25963031  1
  I  I8  1  0.75963031  -0.50963031  0.12500000  1
  I  I9  1  -0.75963031  -0.00963031  0.37500000  1
  I  I10  1  1.25963031  1.00963031  0.87500000  1
  I  I11  1  -0.25963031  1.50963031  0.62500000  1
  I  I12  1  0.62500000  1.25963031  -0.00963031  1
  I  I13  1  0.87500000  -0.25963031  0.49036969  1
  I  I14  1  1.37500000  1.75963031  1.50963031  1
  I  I15  1  1.12500000  0.24036969  2.00963031  1
  I  I16  1  -0.00963031  0.62500000  1.25963031  1
  I  I17  1  0.49036969  0.87500000  -0.25963031  1
  I  I18  1  1.50963031  1.37500000  1.75963031  1
  I  I19  1  2.00963031  1.12500000  0.24036969  1
  I  I20  1  1.25963031  -0.00963031  0.62500000  1
  I  I21  1  -0.25963031  0.49036969  0.87500000  1
  I  I22  1  1.75963031  1.50963031  1.37500000  1
  I  I23  1  0.24036969  2.00963031  1.12500000  1
  I  I24  1  0.12500000  0.12500000  0.12500000  1
  I  I25  1  0.37500000  0.87500000  0.62500000  1
  I  I26  1  0.87500000  0.62500000  0.37500000  1
  I  I27  1  0.62500000  0.37500000  0.87500000  1
  I  I28  1  0.62500000  0.62500000  0.62500000  1
  I  I29  1  0.87500000  0.37500000  0.12500000  1
  I  I30  1  0.37500000  0.12500000  0.87500000  1
  I  I31  1  0.12500000  0.87500000  0.37500000  1
  Li  Li32  1  0.37292069  0.00000000  0.25000000  1
  Li  Li33  1  0.12707931  0.00000000  0.75000000  1
  Li  Li34  1  0.25000000  0.37292069  -0.00000000  1
  Li  Li35  1  0.75000000  0.12707931  -0.00000000  1
  Li  Li36  1  0.00000000  0.25000000  0.37292069  1
  Li  Li37  1  0.00000000  0.75000000  0.12707931  1
  Li  Li38  1  0.75000000  0.62292069  -0.00000000  1
  Li  Li39  1  0.75000000  0.37707931  0.50000000  1
  Li  Li40  1  0.12292069  0.50000000  0.25000000  1
  Li  Li41  1  0.87707931  -0.00000000  0.25000000  1
  Li  Li42  1  0.00000000  0.25000000  0.87707931  1
  Li  Li43  1  0.50000000  0.25000000  0.12292069  1
  Li  Li44  1  0.87292069  0.50000000  0.75000000  1
  Li  Li45  1  0.62707931  0.50000000  0.25000000  1
  Li  Li46  1  0.75000000  0.87292069  0.50000000  1
  Li  Li47  1  0.25000000  0.62707931  0.50000000  1
  Li  Li48  1  0.50000000  0.75000000  0.87292069  1
  Li  Li49  1  0.50000000  0.25000000  0.62707931  1
  Li  Li50  1  0.25000000  0.12292069  0.50000000  1
  Li  Li51  1  0.25000000  0.87707931  0.00000000  1
  Li  Li52  1  0.62292069  -0.00000000  0.75000000  1
  Li  Li53  1  0.37707931  0.50000000  0.75000000  1
  Li  Li54  1  0.50000000  0.75000000  0.37707931  1
  Li  Li55  1  0.00000000  0.75000000  0.62292069  1
  Li  Li56  1  0.87500000  0.87500000  0.87500000  1
  Li  Li57  1  0.62500000  0.12500000  0.37500000  1
  Li  Li58  1  0.12500000  0.37500000  0.62500000  1
  Li  Li59  1  0.37500000  0.62500000  0.12500000  1
  Li  Li60  1  0.37500000  0.37500000  0.37500000  1
  Li  Li61  1  0.12500000  0.62500000  0.87500000  1
  Li  Li62  1  0.62500000  0.87500000  0.12500000  1
  Li  Li63  1  0.87500000  0.12500000  0.62500000  1
