# generated using pymatgen
data_LiAl2As4O5F2
_symmetry_space_group_name_H-M   'P 1'
_cell_length_a   4.43577490
_cell_length_b   4.34986276
_cell_length_c   4.85945374
_cell_angle_alpha   89.94524374
_cell_angle_beta   90.01482296
_cell_angle_gamma   88.14353101
_symmetry_Int_Tables_number   1
_chemical_formula_structural   LiAl2As4O5F2
_chemical_formula_sum   'Li1 Al2 As4 O5 F2'
_cell_volume   93.71395699
_cell_formula_units_Z   1
loop_
 _symmetry_equiv_pos_site_id
 _symmetry_equiv_pos_as_xyz
  1  'x, y, z'
loop_
 _atom_site_type_symbol
 _atom_site_label
 _atom_site_symmetry_multiplicity
 _atom_site_fract_x
 _atom_site_fract_y
 _atom_site_fract_z
 _atom_site_occupancy
  Li  Li0  1  0.00000000  0.00000000  0.00000000  1
  Al  Al1  1  0.50000000  0.50000000  0.50000000  1
  Al  Al2  1  0.50000000  0.50000000  0.00000000  1
  As  As3  1  0.50000000  0.00000000  0.50000000  1
  As  As4  1  0.00000000  0.50000000  0.50000000  1
  As  As5  1  0.61634761  0.29707554  0.59086770  1
  As  As6  1  0.84301679  0.88070473  0.32286513  1
  F  F7  1  0.53726622  0.45277191  0.47383627  1
  F  F8  1  0.78743092  0.12553238  0.92894868  1
  O  O9  1  0.98637016  0.99207971  0.57363048  1
  O  O10  1  0.45436805  0.41851511  0.60498524  1
  O  O11  1  0.88952211  0.09258839  0.05953761  1
  O  O12  1  0.32935222  0.83034198  0.32772879  1
  O  O13  1  0.41883452  0.66137710  0.21524297  1
