# generated using pymatgen
data_SrLi2(Mg2Te3)2
_symmetry_space_group_name_H-M   'P 1'
_cell_length_a   10.83354232
_cell_length_b   10.83354232
_cell_length_c   40.30090905
_cell_angle_alpha   90.00000000
_cell_angle_beta   90.00000000
_cell_angle_gamma   90.00000000
_symmetry_Int_Tables_number   1
_chemical_formula_structural   SrLi2(Mg2Te3)2
_chemical_formula_sum   'Sr16 Li32 Mg64 Te96'
_cell_volume   4729.94194834
_cell_formula_units_Z   16
loop_
 _symmetry_equiv_pos_site_id
 _symmetry_equiv_pos_as_xyz
  1  'x, y, z'
loop_
 _atom_site_type_symbol
 _atom_site_label
 _atom_site_symmetry_multiplicity
 _atom_site_fract_x
 _atom_site_fract_y
 _atom_site_fract_z
 _atom_site_occupancy
  Li  Li0  1  0.53305896  0.85152304  0.25496295  1
  Li  Li1  1  0.96694104  0.14847696  0.75496295  1
  Li  Li2  1  0.39847696  0.28305896  0.50496295  1
  Li  Li3  1  0.10152304  0.71694104  0.00496295  1
  Li  Li4  1  0.96694104  0.85152304  0.74503705  1
  Li  Li5  1  0.53305896  0.14847696  0.24503705  1
  Li  Li6  1  0.10152304  0.28305896  0.49503705  1
  Li  Li7  1  0.39847696  0.71694104  0.99503705  1
  Li  Li8  1  0.46694104  0.14847696  0.74503705  1
  Li  Li9  1  0.03305896  0.85152304  0.24503705  1
  Li  Li10  1  0.60152304  0.71694104  0.49503705  1
  Li  Li11  1  0.89847696  0.28305896  0.99503705  1
  Li  Li12  1  0.03305896  0.14847696  0.25496295  1
  Li  Li13  1  0.46694104  0.85152304  0.75496295  1
  Li  Li14  1  0.89847696  0.71694104  0.50496295  1
  Li  Li15  1  0.60152304  0.28305896  0.00496295  1
  Li  Li16  1  0.03305896  0.35152304  0.75496295  1
  Li  Li17  1  0.46694104  0.64847696  0.25496295  1
  Li  Li18  1  0.89847696  0.78305896  0.00496295  1
  Li  Li19  1  0.60152304  0.21694104  0.50496295  1
  Li  Li20  1  0.46694104  0.35152304  0.24503705  1
  Li  Li21  1  0.03305896  0.64847696  0.74503705  1
  Li  Li22  1  0.60152304  0.78305896  0.99503705  1
  Li  Li23  1  0.89847696  0.21694104  0.49503705  1
  Li  Li24  1  0.96694104  0.64847696  0.24503705  1
  Li  Li25  1  0.53305896  0.35152304  0.74503705  1
  Li  Li26  1  0.10152304  0.21694104  0.99503705  1
  Li  Li27  1  0.39847696  0.78305896  0.49503705  1
  Li  Li28  1  0.53305896  0.64847696  0.75496295  1
  Li  Li29  1  0.96694104  0.35152304  0.25496295  1
  Li  Li30  1  0.39847696  0.21694104  0.00496295  1
  Li  Li31  1  0.10152304  0.78305896  0.50496295  1
  Mg  Mg32  1  0.00000000  0.25000000  0.57025625  1
  Mg  Mg33  1  0.00000000  0.75000000  0.82025625  1
  Mg  Mg34  1  0.50000000  0.25000000  0.42974375  1
  Mg  Mg35  1  0.50000000  0.75000000  0.17974375  1
  Mg  Mg36  1  0.00000000  0.75000000  0.42974375  1
  Mg  Mg37  1  0.00000000  0.25000000  0.17974375  1
  Mg  Mg38  1  0.50000000  0.75000000  0.57025625  1
  Mg  Mg39  1  0.50000000  0.25000000  0.82025625  1
  Mg  Mg40  1  0.50000000  0.75000000  0.07025625  1
  Mg  Mg41  1  0.50000000  0.25000000  0.32025625  1
  Mg  Mg42  1  0.00000000  0.75000000  0.92974375  1
  Mg  Mg43  1  0.00000000  0.25000000  0.67974375  1
  Mg  Mg44  1  0.50000000  0.25000000  0.92974375  1
  Mg  Mg45  1  0.50000000  0.75000000  0.67974375  1
  Mg  Mg46  1  0.00000000  0.25000000  0.07025625  1
  Mg  Mg47  1  0.00000000  0.75000000  0.32025625  1
  Mg  Mg48  1  0.11456191  0.30222085  0.34866343  1
  Mg  Mg49  1  0.38543809  0.69777915  0.84866343  1
  Mg  Mg50  1  0.94777915  0.86456191  0.59866343  1
  Mg  Mg51  1  0.55222085  0.13543809  0.09866343  1
  Mg  Mg52  1  0.38543809  0.30222085  0.65133657  1
  Mg  Mg53  1  0.11456191  0.69777915  0.15133657  1
  Mg  Mg54  1  0.55222085  0.86456191  0.40133657  1
  Mg  Mg55  1  0.94777915  0.13543809  0.90133657  1
  Mg  Mg56  1  0.88543809  0.69777915  0.65133657  1
  Mg  Mg57  1  0.61456191  0.30222085  0.15133657  1
  Mg  Mg58  1  0.05222085  0.13543809  0.40133657  1
  Mg  Mg59  1  0.44777915  0.86456191  0.90133657  1
  Mg  Mg60  1  0.61456191  0.69777915  0.34866343  1
  Mg  Mg61  1  0.88543809  0.30222085  0.84866343  1
  Mg  Mg62  1  0.44777915  0.13543809  0.59866343  1
  Mg  Mg63  1  0.05222085  0.86456191  0.09866343  1
  Mg  Mg64  1  0.61456191  0.80222085  0.84866343  1
  Mg  Mg65  1  0.88543809  0.19777915  0.34866343  1
  Mg  Mg66  1  0.44777915  0.36456191  0.09866343  1
  Mg  Mg67  1  0.05222085  0.63543809  0.59866343  1
  Mg  Mg68  1  0.88543809  0.80222085  0.15133657  1
  Mg  Mg69  1  0.61456191  0.19777915  0.65133657  1
  Mg  Mg70  1  0.05222085  0.36456191  0.90133657  1
  Mg  Mg71  1  0.44777915  0.63543809  0.40133657  1
  Mg  Mg72  1  0.38543809  0.19777915  0.15133657  1
  Mg  Mg73  1  0.11456191  0.80222085  0.65133657  1
  Mg  Mg74  1  0.55222085  0.63543809  0.90133657  1
  Mg  Mg75  1  0.94777915  0.36456191  0.40133657  1
  Mg  Mg76  1  0.11456191  0.19777915  0.84866343  1
  Mg  Mg77  1  0.38543809  0.80222085  0.34866343  1
  Mg  Mg78  1  0.94777915  0.63543809  0.09866343  1
  Mg  Mg79  1  0.55222085  0.36456191  0.59866343  1
  Mg  Mg80  1  0.00000000  0.25000000  0.30817918  1
  Mg  Mg81  1  0.00000000  0.75000000  0.55817918  1
  Mg  Mg82  1  0.50000000  0.25000000  0.69182082  1
  Mg  Mg83  1  0.50000000  0.75000000  0.44182082  1
  Mg  Mg84  1  0.00000000  0.75000000  0.69182082  1
  Mg  Mg85  1  0.00000000  0.25000000  0.44182082  1
  Mg  Mg86  1  0.50000000  0.75000000  0.30817918  1
  Mg  Mg87  1  0.50000000  0.25000000  0.55817918  1
  Mg  Mg88  1  0.50000000  0.75000000  0.80817918  1
  Mg  Mg89  1  0.50000000  0.25000000  0.05817918  1
  Mg  Mg90  1  0.00000000  0.75000000  0.19182082  1
  Mg  Mg91  1  0.00000000  0.25000000  0.94182082  1
  Mg  Mg92  1  0.50000000  0.25000000  0.19182082  1
  Mg  Mg93  1  0.50000000  0.75000000  0.94182082  1
  Mg  Mg94  1  0.00000000  0.25000000  0.80817918  1
  Mg  Mg95  1  0.00000000  0.75000000  0.05817918  1
  Sr  Sr96  1  0.00000000  0.25000000  0.12500000  1
  Sr  Sr97  1  0.00000000  0.75000000  0.37500000  1
  Sr  Sr98  1  0.00000000  0.75000000  0.87500000  1
  Sr  Sr99  1  0.00000000  0.25000000  0.62500000  1
  Sr  Sr100  1  0.50000000  0.75000000  0.62500000  1
  Sr  Sr101  1  0.50000000  0.25000000  0.87500000  1
  Sr  Sr102  1  0.50000000  0.25000000  0.37500000  1
  Sr  Sr103  1  0.50000000  0.75000000  0.12500000  1
  Sr  Sr104  1  0.00000000  0.25000000  0.37500000  1
  Sr  Sr105  1  0.00000000  0.75000000  0.62500000  1
  Sr  Sr106  1  0.50000000  0.25000000  0.62500000  1
  Sr  Sr107  1  0.50000000  0.75000000  0.37500000  1
  Sr  Sr108  1  0.50000000  0.75000000  0.87500000  1
  Sr  Sr109  1  0.50000000  0.25000000  0.12500000  1
  Sr  Sr110  1  0.00000000  0.75000000  0.12500000  1
  Sr  Sr111  1  0.00000000  0.25000000  0.87500000  1
  Te  Te112  1  0.21244559  0.60066954  0.83433683  1
  Te  Te113  1  0.28755441  -0.60066954  1.33433683  1
  Te  Te114  1  -0.35066954  0.96244559  1.08433683  1
  Te  Te115  1  0.85066954  0.03755441  1.58433683  1
  Te  Te116  1  0.28755441  0.60066954  -0.83433683  1
  Te  Te117  1  0.21244559  -0.60066954  -0.33433683  1
  Te  Te118  1  0.85066954  0.96244559  -0.08433683  1
  Te  Te119  1  -0.35066954  0.03755441  -0.58433683  1
  Te  Te120  1  -0.21244559  -0.60066954  -0.83433683  1
  Te  Te121  1  0.71244559  0.60066954  -0.33433683  1
  Te  Te122  1  1.35066954  0.03755441  -0.08433683  1
  Te  Te123  1  0.14933046  0.96244559  -0.58433683  1
  Te  Te124  1  0.71244559  -0.60066954  0.83433683  1
  Te  Te125  1  -0.21244559  0.60066954  1.33433683  1
  Te  Te126  1  0.14933046  0.03755441  1.08433683  1
  Te  Te127  1  1.35066954  0.96244559  1.58433683  1
  Te  Te128  1  0.71244559  1.10066954  1.33433683  1
  Te  Te129  1  0.78755441  -0.10066954  1.83433683  1
  Te  Te130  1  0.14933046  1.46244559  1.58433683  1
  Te  Te131  1  1.35066954  0.53755441  2.08433683  1
  Te  Te132  1  0.78755441  1.10066954  -0.33433683  1
  Te  Te133  1  0.71244559  -0.10066954  0.16566317  1
  Te  Te134  1  1.35066954  1.46244559  0.41566317  1
  Te  Te135  1  0.14933046  0.53755441  -0.08433683  1
  Te  Te136  1  0.28755441  -0.10066954  -0.33433683  1
  Te  Te137  1  1.21244559  1.10066954  0.16566317  1
  Te  Te138  1  1.85066954  0.53755441  0.41566317  1
  Te  Te139  1  0.64933046  1.46244559  -0.08433683  1
  Te  Te140  1  1.21244559  -0.10066954  1.33433683  1
  Te  Te141  1  0.28755441  1.10066954  1.83433683  1
  Te  Te142  1  0.64933046  0.53755441  1.58433683  1
  Te  Te143  1  1.85066954  1.46244559  2.08433683  1
  Te  Te144  1  0.23393025  0.91315931  0.55023734  1
  Te  Te145  1  0.26606975  0.08684069  0.05023734  1
  Te  Te146  1  0.33684069  0.98393025  0.80023734  1
  Te  Te147  1  0.16315931  0.01606975  0.30023734  1
  Te  Te148  1  0.26606975  0.91315931  0.44976266  1
  Te  Te149  1  0.23393025  0.08684069  0.94976266  1
  Te  Te150  1  0.16315931  0.98393025  0.19976266  1
  Te  Te151  1  0.33684069  0.01606975  0.69976266  1
  Te  Te152  1  0.76606975  0.08684069  0.44976266  1
  Te  Te153  1  0.73393025  0.91315931  0.94976266  1
  Te  Te154  1  0.66315931  0.01606975  0.19976266  1
  Te  Te155  1  0.83684069  0.98393025  0.69976266  1
  Te  Te156  1  0.73393025  0.08684069  0.55023734  1
  Te  Te157  1  0.76606975  0.91315931  0.05023734  1
  Te  Te158  1  0.83684069  0.01606975  0.80023734  1
  Te  Te159  1  0.66315931  0.98393025  0.30023734  1
  Te  Te160  1  0.73393025  0.41315931  0.05023734  1
  Te  Te161  1  0.76606975  0.58684069  0.55023734  1
  Te  Te162  1  0.83684069  0.48393025  0.30023734  1
  Te  Te163  1  0.66315931  0.51606975  0.80023734  1
  Te  Te164  1  0.76606975  0.41315931  0.94976266  1
  Te  Te165  1  0.73393025  0.58684069  0.44976266  1
  Te  Te166  1  0.66315931  0.48393025  0.69976266  1
  Te  Te167  1  0.83684069  0.51606975  0.19976266  1
  Te  Te168  1  0.26606975  0.58684069  0.94976266  1
  Te  Te169  1  0.23393025  0.41315931  0.44976266  1
  Te  Te170  1  0.16315931  0.51606975  0.69976266  1
  Te  Te171  1  0.33684069  0.48393025  0.19976266  1
  Te  Te172  1  0.23393025  0.58684069  0.05023734  1
  Te  Te173  1  0.26606975  0.41315931  0.55023734  1
  Te  Te174  1  0.33684069  0.51606975  0.30023734  1
  Te  Te175  1  0.16315931  0.48393025  0.80023734  1
  Te  Te176  1  0.32402820  0.62720881  0.78666727  1
  Te  Te177  1  0.17597180  0.37279119  0.28666727  1
  Te  Te178  1  0.62279119  0.07402820  0.03666727  1
  Te  Te179  1  0.87720881  0.92597180  0.53666727  1
  Te  Te180  1  0.17597180  0.62720881  0.21333273  1
  Te  Te181  1  0.32402820  0.37279119  0.71333273  1
  Te  Te182  1  0.87720881  0.07402820  0.96333273  1
  Te  Te183  1  0.62279119  0.92597180  0.46333273  1
  Te  Te184  1  0.67597180  0.37279119  0.21333273  1
  Te  Te185  1  0.82402820  0.62720881  0.71333273  1
  Te  Te186  1  0.37720881  0.92597180  0.96333273  1
  Te  Te187  1  0.12279119  0.07402820  0.46333273  1
  Te  Te188  1  0.82402820  0.37279119  0.78666727  1
  Te  Te189  1  0.67597180  0.62720881  0.28666727  1
  Te  Te190  1  0.12279119  0.92597180  0.03666727  1
  Te  Te191  1  0.37720881  0.07402820  0.53666727  1
  Te  Te192  1  0.82402820  0.12720881  0.28666727  1
  Te  Te193  1  0.67597180  0.87279119  0.78666727  1
  Te  Te194  1  0.12279119  0.57402820  0.53666727  1
  Te  Te195  1  0.37720881  0.42597180  0.03666727  1
  Te  Te196  1  0.67597180  0.12720881  0.71333273  1
  Te  Te197  1  0.82402820  0.87279119  0.21333273  1
  Te  Te198  1  0.37720881  0.57402820  0.46333273  1
  Te  Te199  1  0.12279119  0.42597180  0.96333273  1
  Te  Te200  1  0.17597180  0.87279119  0.71333273  1
  Te  Te201  1  0.32402820  0.12720881  0.21333273  1
  Te  Te202  1  0.87720881  0.42597180  0.46333273  1
  Te  Te203  1  0.62279119  0.57402820  0.96333273  1
  Te  Te204  1  0.32402820  0.87279119  0.28666727  1
  Te  Te205  1  0.17597180  0.12720881  0.78666727  1
  Te  Te206  1  0.62279119  0.42597180  0.53666727  1
  Te  Te207  1  0.87720881  0.57402820  0.03666727  1
