# generated using pymatgen
data_SrLi2(ClF)2
_symmetry_space_group_name_H-M   'P 1'
_cell_length_a   25.59479485
_cell_length_b   25.59479485
_cell_length_c   4.71653979
_cell_angle_alpha   90.00000000
_cell_angle_beta   90.00000000
_cell_angle_gamma   120.00000000
_symmetry_Int_Tables_number   1
_chemical_formula_structural   SrLi2(ClF)2
_chemical_formula_sum   'Sr18 Li36 Cl36 F36'
_cell_volume   2675.82335781
_cell_formula_units_Z   18
loop_
 _symmetry_equiv_pos_site_id
 _symmetry_equiv_pos_as_xyz
  1  'x, y, z'
loop_
 _atom_site_type_symbol
 _atom_site_label
 _atom_site_symmetry_multiplicity
 _atom_site_fract_x
 _atom_site_fract_y
 _atom_site_fract_z
 _atom_site_occupancy
  Cl  Cl0  1  0.59803748  0.96560072  0.29480493  1
  Cl  Cl1  1  0.03439928  0.63243676  0.29480493  1
  Cl  Cl2  1  0.36756324  0.40196252  0.29480493  1
  Cl  Cl3  1  0.96560072  0.59803748  0.20519507  1
  Cl  Cl4  1  0.63243676  0.03439928  0.20519507  1
  Cl  Cl5  1  0.40196252  0.36756324  0.20519507  1
  Cl  Cl6  1  0.40196252  0.03439928  0.70519507  1
  Cl  Cl7  1  0.96560072  0.36756324  0.70519507  1
  Cl  Cl8  1  0.63243676  0.59803748  0.70519507  1
  Cl  Cl9  1  0.03439928  0.40196252  0.79480493  1
  Cl  Cl10  1  0.36756324  0.96560072  0.79480493  1
  Cl  Cl11  1  0.59803748  0.63243676  0.79480493  1
  Cl  Cl12  1  0.26470414  0.29893405  0.62813826  1
  Cl  Cl13  1  0.70106595  0.96577009  0.62813826  1
  Cl  Cl14  1  0.03422991  0.73529586  0.62813826  1
  Cl  Cl15  1  0.63226738  0.93137081  0.53852840  1
  Cl  Cl16  1  0.29910343  0.36773262  0.53852840  1
  Cl  Cl17  1  0.06862919  0.70089657  0.53852840  1
  Cl  Cl18  1  0.06862919  0.36773262  0.03852840  1
  Cl  Cl19  1  0.63226738  0.70089657  0.03852840  1
  Cl  Cl20  1  0.29910343  0.93137081  0.03852840  1
  Cl  Cl21  1  0.70106595  0.73529586  0.12813826  1
  Cl  Cl22  1  0.03422991  0.29893405  0.12813826  1
  Cl  Cl23  1  0.26470414  0.96577009  0.12813826  1
  Cl  Cl24  1  0.93137081  0.63226738  0.96147160  1
  Cl  Cl25  1  0.36773262  0.29910343  0.96147160  1
  Cl  Cl26  1  0.70089657  0.06862919  0.96147160  1
  Cl  Cl27  1  0.29893405  0.26470414  0.87186174  1
  Cl  Cl28  1  0.96577009  0.70106595  0.87186174  1
  Cl  Cl29  1  0.73529586  0.03422991  0.87186174  1
  Cl  Cl30  1  0.73529586  0.70106595  0.37186174  1
  Cl  Cl31  1  0.29893405  0.03422991  0.37186174  1
  Cl  Cl32  1  0.96577009  0.26470414  0.37186174  1
  Cl  Cl33  1  0.36773262  0.06862919  0.46147160  1
  Cl  Cl34  1  0.70089657  0.63226738  0.46147160  1
  Cl  Cl35  1  0.93137081  0.29910343  0.46147160  1
  F  F36  1  0.50000000  0.00000000  0.00000000  1
  F  F37  1  0.00000000  0.50000000  0.00000000  1
  F  F38  1  0.50000000  0.50000000  0.00000000  1
  F  F39  1  0.00000000  0.50000000  0.50000000  1
  F  F40  1  0.50000000  0.00000000  0.50000000  1
  F  F41  1  0.50000000  0.50000000  0.50000000  1
  F  F42  1  0.16666667  0.33333333  0.33333333  1
  F  F43  1  0.66666667  0.83333333  0.33333333  1
  F  F44  1  0.16666667  0.83333333  0.33333333  1
  F  F45  1  0.66666667  0.83333333  0.83333333  1
  F  F46  1  0.16666667  0.33333333  0.83333333  1
  F  F47  1  0.16666667  0.83333333  0.83333333  1
  F  F48  1  0.83333333  0.66666667  0.66666667  1
  F  F49  1  0.33333333  0.16666667  0.66666667  1
  F  F50  1  0.83333333  0.16666667  0.66666667  1
  F  F51  1  0.33333333  0.16666667  0.16666667  1
  F  F52  1  0.83333333  0.66666667  0.16666667  1
  F  F53  1  0.83333333  0.16666667  0.16666667  1
  F  F54  1  0.00000000  0.00000000  0.00000000  1
  F  F55  1  0.00000000  0.00000000  0.50000000  1
  F  F56  1  0.66666667  0.33333333  0.33333333  1
  F  F57  1  0.66666667  0.33333333  0.83333333  1
  F  F58  1  0.33333333  0.66666667  0.66666667  1
  F  F59  1  0.33333333  0.66666667  0.16666667  1
  F  F60  1  0.00000000  0.00000000  0.65359667  1
  F  F61  1  0.00000000  0.00000000  0.84640333  1
  F  F62  1  0.00000000  0.00000000  0.34640333  1
  F  F63  1  0.00000000  0.00000000  0.15359667  1
  F  F64  1  0.66666667  0.33333333  0.98693000  1
  F  F65  1  0.66666667  0.33333333  0.17973667  1
  F  F66  1  0.66666667  0.33333333  0.67973667  1
  F  F67  1  0.66666667  0.33333333  0.48693000  1
  F  F68  1  0.33333333  0.66666667  0.32026333  1
  F  F69  1  0.33333333  0.66666667  0.51307000  1
  F  F70  1  0.33333333  0.66666667  0.01307000  1
  F  F71  1  0.33333333  0.66666667  0.82026333  1
  Li  Li72  1  0.08199932  0.02608173  0.63917268  1
  Li  Li73  1  -0.02608173  0.05591759  0.63917268  1
  Li  Li74  1  -0.05591759  -0.08199932  0.63917268  1
  Li  Li75  1  0.02608173  0.08199932  -0.13917268  1
  Li  Li76  1  0.05591759  -0.02608173  -0.13917268  1
  Li  Li77  1  -0.08199932  -0.05591759  -0.13917268  1
  Li  Li78  1  -0.08199932  -0.02608173  -0.63917268  1
  Li  Li79  1  0.02608173  -0.05591759  -0.63917268  1
  Li  Li80  1  0.05591759  0.08199932  -0.63917268  1
  Li  Li81  1  -0.02608173  -0.08199932  1.13917268  1
  Li  Li82  1  -0.05591759  0.02608173  1.13917268  1
  Li  Li83  1  0.08199932  0.05591759  1.13917268  1
  Li  Li84  1  0.74866599  0.35941507  0.97250601  1
  Li  Li85  1  0.64058493  0.38925092  0.97250601  1
  Li  Li86  1  0.61074908  0.25133401  0.97250601  1
  Li  Li87  1  0.69274840  0.41533265  0.19416065  1
  Li  Li88  1  0.72258425  0.30725160  0.19416065  1
  Li  Li89  1  0.58466735  0.27741575  0.19416065  1
  Li  Li90  1  0.58466735  0.30725160  -0.30583935  1
  Li  Li91  1  0.69274840  0.27741575  -0.30583935  1
  Li  Li92  1  0.72258425  0.41533265  -0.30583935  1
  Li  Li93  1  0.64058493  0.25133401  1.47250601  1
  Li  Li94  1  0.61074908  0.35941507  1.47250601  1
  Li  Li95  1  0.74866599  0.38925092  1.47250601  1
  Li  Li96  1  0.41533265  0.69274840  1.30583935  1
  Li  Li97  1  0.30725160  0.72258425  1.30583935  1
  Li  Li98  1  0.27741575  0.58466735  1.30583935  1
  Li  Li99  1  0.35941507  0.74866599  0.52749399  1
  Li  Li100  1  0.38925092  0.64058493  0.52749399  1
  Li  Li101  1  0.25133401  0.61074908  0.52749399  1
  Li  Li102  1  0.25133401  0.64058493  0.02749399  1
  Li  Li103  1  0.35941507  0.61074908  0.02749399  1
  Li  Li104  1  0.38925092  0.74866599  0.02749399  1
  Li  Li105  1  0.30725160  0.58466735  1.80583935  1
  Li  Li106  1  0.27741575  0.69274840  1.80583935  1
  Li  Li107  1  0.41533265  0.72258425  1.80583935  1
  Sr  Sr108  1  0.10702944  0.00000000  0.25000000  1
  Sr  Sr109  1  0.00000000  0.10702944  0.25000000  1
  Sr  Sr110  1  0.89297056  0.89297056  0.25000000  1
  Sr  Sr111  1  0.89297056  0.00000000  0.75000000  1
  Sr  Sr112  1  0.00000000  0.89297056  0.75000000  1
  Sr  Sr113  1  0.10702944  0.10702944  0.75000000  1
  Sr  Sr114  1  0.77369611  0.33333333  0.58333333  1
  Sr  Sr115  1  0.66666667  0.44036278  0.58333333  1
  Sr  Sr116  1  0.55963722  0.22630389  0.58333333  1
  Sr  Sr117  1  0.55963722  0.33333333  0.08333333  1
  Sr  Sr118  1  0.66666667  0.22630389  0.08333333  1
  Sr  Sr119  1  0.77369611  0.44036278  0.08333333  1
  Sr  Sr120  1  0.44036278  0.66666667  0.91666667  1
  Sr  Sr121  1  0.33333333  0.77369611  0.91666667  1
  Sr  Sr122  1  0.22630389  0.55963722  0.91666667  1
  Sr  Sr123  1  0.22630389  0.66666667  0.41666667  1
  Sr  Sr124  1  0.33333333  0.55963722  0.41666667  1
  Sr  Sr125  1  0.44036278  0.77369611  0.41666667  1
