# generated using pymatgen
data_LiMgV2(Cl2O)3
_symmetry_space_group_name_H-M   'P 1'
_cell_length_a   8.60862065
_cell_length_b   7.61928783
_cell_length_c   6.93344138
_cell_angle_alpha   90.00000000
_cell_angle_beta   90.00000000
_cell_angle_gamma   90.00000000
_symmetry_Int_Tables_number   1
_chemical_formula_structural   LiMgV2(Cl2O)3
_chemical_formula_sum   'Li1 Mg1 V2 Cl6 O3'
_cell_volume   454.77522660
_cell_formula_units_Z   1
loop_
 _symmetry_equiv_pos_site_id
 _symmetry_equiv_pos_as_xyz
  1  'x, y, z'
loop_
 _atom_site_type_symbol
 _atom_site_label
 _atom_site_symmetry_multiplicity
 _atom_site_fract_x
 _atom_site_fract_y
 _atom_site_fract_z
 _atom_site_occupancy
  Li  Li0  1  0.00000000  0.00000000  0.00000000  1
  V  V1  1  0.50000000  0.50000000  0.50000000  1
  V  V2  1  0.25000000  0.25000000  0.25000000  1
  Mg  Mg3  1  0.75000000  0.25000000  0.00000000  1
  Cl  Cl4  1  0.25000000  0.75000000  0.50000000  1
  Cl  Cl5  1  0.55373544  0.13928685  0.71480019  1
  Cl  Cl6  1  0.68354976  0.10989076  0.90626419  1
  Cl  Cl7  1  0.77973144  0.86537697  0.72090167  1
  Cl  Cl8  1  0.71432770  0.89571403  0.19037926  1
  Cl  Cl9  1  0.69555988  0.00791400  0.18768910  1
  O  O10  1  0.65736653  0.94059537  0.09447421  1
  O  O11  1  0.83670217  0.94474520  0.06228321  1
  O  O12  1  0.90631293  0.99229575  0.80338916  1
