# generated using pymatgen
data_Li2O
_symmetry_space_group_name_H-M   'P 1'
_cell_length_a   15.23454229
_cell_length_b   15.23454229
_cell_length_c   15.23454229
_cell_angle_alpha   90.00000000
_cell_angle_beta   90.00000000
_cell_angle_gamma   90.00000000
_symmetry_Int_Tables_number   1
_chemical_formula_structural   Li2O
_chemical_formula_sum   'Li144 O72'
_cell_volume   3535.80439899
_cell_formula_units_Z   72
loop_
 _symmetry_equiv_pos_site_id
 _symmetry_equiv_pos_as_xyz
  1  'x, y, z'
loop_
 _atom_site_type_symbol
 _atom_site_label
 _atom_site_symmetry_multiplicity
 _atom_site_fract_x
 _atom_site_fract_y
 _atom_site_fract_z
 _atom_site_occupancy
  Li  Li0  1  0.82490783  0.05452623  0.87763489  1
  Li  Li1  1  -0.32490783  -0.05452623  1.37763489  1
  Li  Li2  1  -0.82490783  0.55452623  -0.37763489  1
  Li  Li3  1  1.32490783  0.44547377  -0.87763489  1
  Li  Li4  1  0.87763489  0.82490783  0.05452623  1
  Li  Li5  1  1.37763489  -0.32490783  -0.05452623  1
  Li  Li6  1  -0.37763489  -0.82490783  0.55452623  1
  Li  Li7  1  -0.87763489  1.32490783  0.44547377  1
  Li  Li8  1  0.05452623  0.87763489  0.82490783  1
  Li  Li9  1  -0.05452623  1.37763489  -0.32490783  1
  Li  Li10  1  0.55452623  -0.37763489  -0.82490783  1
  Li  Li11  1  0.44547377  -0.87763489  1.32490783  1
  Li  Li12  1  0.80452623  1.07490783  -0.62763489  1
  Li  Li13  1  0.69547377  -0.07490783  -0.12763489  1
  Li  Li14  1  0.30452623  -0.57490783  1.62763489  1
  Li  Li15  1  0.19547377  1.57490783  1.12763489  1
  Li  Li16  1  1.57490783  1.12763489  0.19547377  1
  Li  Li17  1  -0.57490783  1.62763489  0.30452623  1
  Li  Li18  1  -0.07490783  -0.12763489  0.69547377  1
  Li  Li19  1  1.07490783  -0.62763489  0.80452623  1
  Li  Li20  1  1.62763489  0.30452623  -0.57490783  1
  Li  Li21  1  1.12763489  0.19547377  1.57490783  1
  Li  Li22  1  -0.62763489  0.80452623  1.07490783  1
  Li  Li23  1  -0.12763489  0.69547377  -0.07490783  1
  Li  Li24  1  -0.82490783  -0.05452623  -0.87763489  1
  Li  Li25  1  1.32490783  0.05452623  -0.37763489  1
  Li  Li26  1  0.82490783  0.44547377  1.37763489  1
  Li  Li27  1  -0.32490783  0.55452623  0.87763489  1
  Li  Li28  1  -0.87763489  -0.82490783  -0.05452623  1
  Li  Li29  1  -0.37763489  1.32490783  0.05452623  1
  Li  Li30  1  1.37763489  0.82490783  0.44547377  1
  Li  Li31  1  0.87763489  -0.32490783  0.55452623  1
  Li  Li32  1  -0.05452623  -0.87763489  -0.82490783  1
  Li  Li33  1  0.05452623  -0.37763489  1.32490783  1
  Li  Li34  1  0.44547377  1.37763489  0.82490783  1
  Li  Li35  1  0.55452623  0.87763489  -0.32490783  1
  Li  Li36  1  0.19547377  -0.07490783  1.62763489  1
  Li  Li37  1  0.30452623  1.07490783  1.12763489  1
  Li  Li38  1  0.69547377  1.57490783  -0.62763489  1
  Li  Li39  1  0.80452623  -0.57490783  -0.12763489  1
  Li  Li40  1  -0.57490783  -0.12763489  0.80452623  1
  Li  Li41  1  1.57490783  -0.62763489  0.69547377  1
  Li  Li42  1  1.07490783  1.12763489  0.30452623  1
  Li  Li43  1  -0.07490783  1.62763489  0.19547377  1
  Li  Li44  1  -0.62763489  0.69547377  1.57490783  1
  Li  Li45  1  -0.12763489  0.80452623  -0.57490783  1
  Li  Li46  1  1.62763489  0.19547377  -0.07490783  1
  Li  Li47  1  1.12763489  0.30452623  1.07490783  1
  Li  Li48  1  1.32490783  0.55452623  1.37763489  1
  Li  Li49  1  0.17509217  0.44547377  1.87763489  1
  Li  Li50  1  -0.32490783  1.05452623  0.12236511  1
  Li  Li51  1  1.82490783  0.94547377  -0.37763489  1
  Li  Li52  1  1.37763489  1.32490783  0.55452623  1
  Li  Li53  1  1.87763489  0.17509217  0.44547377  1
  Li  Li54  1  0.12236511  -0.32490783  1.05452623  1
  Li  Li55  1  -0.37763489  1.82490783  0.94547377  1
  Li  Li56  1  0.55452623  1.37763489  1.32490783  1
  Li  Li57  1  0.44547377  1.87763489  0.17509217  1
  Li  Li58  1  1.05452623  0.12236511  -0.32490783  1
  Li  Li59  1  0.94547377  -0.37763489  1.82490783  1
  Li  Li60  1  1.30452623  1.57490783  -0.12763489  1
  Li  Li61  1  1.19547377  0.42509217  0.37236511  1
  Li  Li62  1  0.80452623  -0.07490783  2.12763489  1
  Li  Li63  1  0.69547377  2.07490783  1.62763489  1
  Li  Li64  1  2.07490783  1.62763489  0.69547377  1
  Li  Li65  1  -0.07490783  2.12763489  0.80452623  1
  Li  Li66  1  0.42509217  0.37236511  1.19547377  1
  Li  Li67  1  1.57490783  -0.12763489  1.30452623  1
  Li  Li68  1  2.12763489  0.80452623  -0.07490783  1
  Li  Li69  1  1.62763489  0.69547377  2.07490783  1
  Li  Li70  1  -0.12763489  1.30452623  1.57490783  1
  Li  Li71  1  0.37236511  1.19547377  0.42509217  1
  Li  Li72  1  -0.32490783  0.44547377  -0.37763489  1
  Li  Li73  1  1.82490783  0.55452623  0.12236511  1
  Li  Li74  1  1.32490783  0.94547377  1.87763489  1
  Li  Li75  1  0.17509217  1.05452623  1.37763489  1
  Li  Li76  1  -0.37763489  -0.32490783  0.44547377  1
  Li  Li77  1  0.12236511  1.82490783  0.55452623  1
  Li  Li78  1  1.87763489  1.32490783  0.94547377  1
  Li  Li79  1  1.37763489  0.17509217  1.05452623  1
  Li  Li80  1  0.44547377  -0.37763489  -0.32490783  1
  Li  Li81  1  0.55452623  0.12236511  1.82490783  1
  Li  Li82  1  0.94547377  1.87763489  1.32490783  1
  Li  Li83  1  1.05452623  1.37763489  0.17509217  1
  Li  Li84  1  0.69547377  0.42509217  2.12763489  1
  Li  Li85  1  0.80452623  1.57490783  1.62763489  1
  Li  Li86  1  1.19547377  2.07490783  -0.12763489  1
  Li  Li87  1  1.30452623  -0.07490783  0.37236511  1
  Li  Li88  1  -0.07490783  0.37236511  1.30452623  1
  Li  Li89  1  2.07490783  -0.12763489  1.19547377  1
  Li  Li90  1  1.57490783  1.62763489  0.80452623  1
  Li  Li91  1  0.42509217  2.12763489  0.69547377  1
  Li  Li92  1  -0.12763489  1.19547377  2.07490783  1
  Li  Li93  1  0.37236511  1.30452623  -0.07490783  1
  Li  Li94  1  2.12763489  0.69547377  0.42509217  1
  Li  Li95  1  1.62763489  0.80452623  1.57490783  1
  Li  Li96  1  0.71271452  -0.00000000  0.25000000  1
  Li  Li97  1  0.78728548  0.00000000  0.75000000  1
  Li  Li98  1  0.25000000  0.71271452  0.00000000  1
  Li  Li99  1  0.75000000  0.78728548  0.00000000  1
  Li  Li100  1  0.00000000  0.25000000  0.71271452  1
  Li  Li101  1  0.00000000  0.75000000  0.78728548  1
  Li  Li102  1  0.75000000  0.96271452  -0.00000000  1
  Li  Li103  1  0.75000000  0.03728548  0.50000000  1
  Li  Li104  1  0.46271452  0.50000000  0.25000000  1
  Li  Li105  1  0.53728548  0.00000000  0.25000000  1
  Li  Li106  1  0.00000000  0.25000000  0.53728548  1
  Li  Li107  1  0.50000000  0.25000000  0.46271452  1
  Li  Li108  1  0.28728548  -0.00000000  0.75000000  1
  Li  Li109  1  0.21271452  -0.00000000  0.25000000  1
  Li  Li110  1  0.75000000  0.28728548  -0.00000000  1
  Li  Li111  1  0.25000000  0.21271452  -0.00000000  1
  Li  Li112  1  0.00000000  0.75000000  0.28728548  1
  Li  Li113  1  0.00000000  0.25000000  0.21271452  1
  Li  Li114  1  0.25000000  0.03728548  -0.00000000  1
  Li  Li115  1  0.25000000  0.96271452  0.50000000  1
  Li  Li116  1  0.53728548  0.50000000  0.75000000  1
  Li  Li117  1  0.46271452  0.00000000  0.75000000  1
  Li  Li118  1  0.00000000  0.75000000  0.46271452  1
  Li  Li119  1  0.50000000  0.75000000  0.53728548  1
  Li  Li120  1  0.21271452  0.50000000  0.75000000  1
  Li  Li121  1  0.28728548  0.50000000  0.25000000  1
  Li  Li122  1  0.75000000  0.21271452  0.50000000  1
  Li  Li123  1  0.25000000  0.28728548  0.50000000  1
  Li  Li124  1  0.50000000  0.75000000  0.21271452  1
  Li  Li125  1  0.50000000  0.25000000  0.28728548  1
  Li  Li126  1  0.25000000  0.46271452  0.50000000  1
  Li  Li127  1  0.25000000  0.53728548  0.00000000  1
  Li  Li128  1  0.96271452  0.00000000  0.75000000  1
  Li  Li129  1  0.03728548  0.50000000  0.75000000  1
  Li  Li130  1  0.50000000  0.75000000  0.03728548  1
  Li  Li131  1  0.00000000  0.75000000  0.96271452  1
  Li  Li132  1  0.78728548  0.50000000  0.25000000  1
  Li  Li133  1  0.71271452  0.50000000  0.75000000  1
  Li  Li134  1  0.25000000  0.78728548  0.50000000  1
  Li  Li135  1  0.75000000  0.71271452  0.50000000  1
  Li  Li136  1  0.50000000  0.25000000  0.78728548  1
  Li  Li137  1  0.50000000  0.75000000  0.71271452  1
  Li  Li138  1  0.75000000  0.53728548  0.50000000  1
  Li  Li139  1  0.75000000  0.46271452  -0.00000000  1
  Li  Li140  1  0.03728548  -0.00000000  0.25000000  1
  Li  Li141  1  0.96271452  0.50000000  0.25000000  1
  Li  Li142  1  0.50000000  0.25000000  0.96271452  1
  Li  Li143  1  0.00000000  0.25000000  0.03728548  1
  O  O144  1  0.37500000  -0.00000000  0.25000000  1
  O  O145  1  0.12500000  0.00000000  0.75000000  1
  O  O146  1  0.25000000  0.37500000  -0.00000000  1
  O  O147  1  0.75000000  0.12500000  -0.00000000  1
  O  O148  1  0.00000000  0.25000000  0.37500000  1
  O  O149  1  0.00000000  0.75000000  0.12500000  1
  O  O150  1  0.75000000  0.62500000  -0.00000000  1
  O  O151  1  0.75000000  0.37500000  0.50000000  1
  O  O152  1  0.12500000  0.50000000  0.25000000  1
  O  O153  1  0.87500000  -0.00000000  0.25000000  1
  O  O154  1  0.00000000  0.25000000  0.87500000  1
  O  O155  1  0.50000000  0.25000000  0.12500000  1
  O  O156  1  0.87500000  0.50000000  0.75000000  1
  O  O157  1  0.62500000  0.50000000  0.25000000  1
  O  O158  1  0.75000000  0.87500000  0.50000000  1
  O  O159  1  0.25000000  0.62500000  0.50000000  1
  O  O160  1  0.50000000  0.75000000  0.87500000  1
  O  O161  1  0.50000000  0.25000000  0.62500000  1
  O  O162  1  0.25000000  0.12500000  0.50000000  1
  O  O163  1  0.25000000  0.87500000  0.00000000  1
  O  O164  1  0.62500000  0.00000000  0.75000000  1
  O  O165  1  0.37500000  0.50000000  0.75000000  1
  O  O166  1  0.50000000  0.75000000  0.37500000  1
  O  O167  1  0.00000000  0.75000000  0.62500000  1
  O  O168  1  0.12500000  0.98215617  0.26784383  1
  O  O169  1  0.37500000  0.01784383  0.76784383  1
  O  O170  1  0.87500000  0.48215617  0.23215617  1
  O  O171  1  0.62500000  0.51784383  0.73215617  1
  O  O172  1  0.26784383  0.12500000  0.98215617  1
  O  O173  1  0.76784383  0.37500000  0.01784383  1
  O  O174  1  0.23215617  0.87500000  0.48215617  1
  O  O175  1  0.73215617  0.62500000  0.51784383  1
  O  O176  1  0.98215617  0.26784383  0.12500000  1
  O  O177  1  0.01784383  0.76784383  0.37500000  1
  O  O178  1  0.48215617  0.23215617  0.87500000  1
  O  O179  1  0.51784383  0.73215617  0.62500000  1
  O  O180  1  0.87500000  0.01784383  0.73215617  1
  O  O181  1  0.62500000  0.98215617  0.23215617  1
  O  O182  1  0.12500000  0.51784383  0.76784383  1
  O  O183  1  0.37500000  0.48215617  0.26784383  1
  O  O184  1  0.73215617  0.87500000  0.01784383  1
  O  O185  1  0.23215617  0.62500000  0.98215617  1
  O  O186  1  0.76784383  0.12500000  0.51784383  1
  O  O187  1  0.26784383  0.37500000  0.48215617  1
  O  O188  1  0.01784383  0.73215617  0.87500000  1
  O  O189  1  0.98215617  0.23215617  0.62500000  1
  O  O190  1  0.51784383  0.76784383  0.12500000  1
  O  O191  1  0.48215617  0.26784383  0.37500000  1
  O  O192  1  0.62500000  0.48215617  0.76784383  1
  O  O193  1  0.87500000  0.51784383  0.26784383  1
  O  O194  1  0.37500000  0.98215617  0.73215617  1
  O  O195  1  0.12500000  0.01784383  0.23215617  1
  O  O196  1  0.76784383  0.62500000  0.48215617  1
  O  O197  1  0.26784383  0.87500000  0.51784383  1
  O  O198  1  0.73215617  0.37500000  0.98215617  1
  O  O199  1  0.23215617  0.12500000  0.01784383  1
  O  O200  1  0.48215617  0.76784383  0.62500000  1
  O  O201  1  0.51784383  0.26784383  0.87500000  1
  O  O202  1  0.98215617  0.73215617  0.37500000  1
  O  O203  1  0.01784383  0.23215617  0.12500000  1
  O  O204  1  0.37500000  0.51784383  0.23215617  1
  O  O205  1  0.12500000  0.48215617  0.73215617  1
  O  O206  1  0.62500000  0.01784383  0.26784383  1
  O  O207  1  0.87500000  0.98215617  0.76784383  1
  O  O208  1  0.23215617  0.37500000  0.51784383  1
  O  O209  1  0.73215617  0.12500000  0.48215617  1
  O  O210  1  0.26784383  0.62500000  0.01784383  1
  O  O211  1  0.76784383  0.87500000  0.98215617  1
  O  O212  1  0.51784383  0.23215617  0.37500000  1
  O  O213  1  0.48215617  0.73215617  0.12500000  1
  O  O214  1  0.01784383  0.26784383  0.62500000  1
  O  O215  1  0.98215617  0.76784383  0.87500000  1
