# generated using pymatgen
data_LiTi2TeP3(ICl)4
_symmetry_space_group_name_H-M   'P 1'
_cell_length_a   8.66383290
_cell_length_b   7.31029722
_cell_length_c   10.20885251
_cell_angle_alpha   90.00000000
_cell_angle_beta   90.00000000
_cell_angle_gamma   90.00000000
_symmetry_Int_Tables_number   1
_chemical_formula_structural   LiTi2TeP3(ICl)4
_chemical_formula_sum   'Li1 Ti2 Te1 P3 I4 Cl4'
_cell_volume   646.57964942
_cell_formula_units_Z   1
loop_
 _symmetry_equiv_pos_site_id
 _symmetry_equiv_pos_as_xyz
  1  'x, y, z'
loop_
 _atom_site_type_symbol
 _atom_site_label
 _atom_site_symmetry_multiplicity
 _atom_site_fract_x
 _atom_site_fract_y
 _atom_site_fract_z
 _atom_site_occupancy
  Li  Li0  1  0.00000000  0.00000000  0.00000000  1
  Ti  Ti1  1  0.50000000  0.50000000  0.50000000  1
  Ti  Ti2  1  0.25000000  0.25000000  0.25000000  1
  P  P3  1  0.75000000  0.25000000  0.00000000  1
  P  P4  1  0.25000000  0.75000000  0.50000000  1
  P  P5  1  0.32865077  0.68087817  0.06225480  1
  I  I6  1  0.98385647  0.49086811  0.20051172  1
  I  I7  1  0.28396696  0.53893100  0.42735297  1
  I  I8  1  0.86024965  0.61005635  0.12040357  1
  I  I9  1  0.77695991  0.74848949  0.36016674  1
  Cl  Cl10  1  0.46808585  0.83978233  0.25747856  1
  Cl  Cl11  1  0.72054356  0.47886374  0.40874847  1
  Cl  Cl12  1  0.74292596  0.06476589  0.17283110  1
  Cl  Cl13  1  0.44688838  0.99582490  0.33887899  1
  Te  Te14  1  0.85941041  0.54708464  0.14200193  1
