# generated using pymatgen
data_Li5Ta3As4P2O3
_symmetry_space_group_name_H-M   'P 1'
_cell_length_a   7.60385848
_cell_length_b   7.16291880
_cell_length_c   7.31654465
_cell_angle_alpha   90.00000000
_cell_angle_beta   90.00000000
_cell_angle_gamma   90.00000000
_symmetry_Int_Tables_number   1
_chemical_formula_structural   Li5Ta3As4P2O3
_chemical_formula_sum   'Li5 Ta3 As4 P2 O3'
_cell_volume   398.50161037
_cell_formula_units_Z   1
loop_
 _symmetry_equiv_pos_site_id
 _symmetry_equiv_pos_as_xyz
  1  'x, y, z'
loop_
 _atom_site_type_symbol
 _atom_site_label
 _atom_site_symmetry_multiplicity
 _atom_site_fract_x
 _atom_site_fract_y
 _atom_site_fract_z
 _atom_site_occupancy
  Li  Li0  1  0.12500000  0.12500000  0.12500000  1
  Li  Li1  1  0.50000000  0.50000000  0.50000000  1
  Li  Li2  1  0.25000000  0.25000000  0.25000000  1
  Li  Li3  1  0.75000000  0.75000000  0.75000000  1
  Li  Li4  1  0.81478917  0.92577274  0.94464639  1
  Ta  Ta5  1  0.20681785  0.36150899  0.46312776  1
  Ta  Ta6  1  0.62248463  0.92270063  0.30650731  1
  Ta  Ta7  1  0.58428833  0.55137826  0.02009165  1
  As  As8  1  0.88295968  0.59748390  0.78911661  1
  As  As9  1  0.50776922  0.43011116  0.39364514  1
  As  As10  1  0.32243893  0.31433668  0.61135491  1
  As  As11  1  0.72919271  0.66663965  0.87063855  1
  O  O12  1  0.55562639  0.50486662  0.20143276  1
  O  O13  1  0.54779328  0.27036541  0.29039771  1
  O  O14  1  0.36764515  0.68782954  0.72693148  1
  P  P15  1  0.80972914  0.63844758  0.61445383  1
  P  P16  1  0.75522183  0.53461893  0.62500765  1
