# generated using pymatgen
data_CaO
_symmetry_space_group_name_H-M   'P 1'
_cell_length_a   12.05180086
_cell_length_b   12.05180086
_cell_length_c   12.05180086
_cell_angle_alpha   90.00000000
_cell_angle_beta   90.00000000
_cell_angle_gamma   90.00000000
_symmetry_Int_Tables_number   1
_chemical_formula_structural   CaO
_chemical_formula_sum   'Ca48 O48'
_cell_volume   1750.47471096
_cell_formula_units_Z   48
loop_
 _symmetry_equiv_pos_site_id
 _symmetry_equiv_pos_as_xyz
  1  'x, y, z'
loop_
 _atom_site_type_symbol
 _atom_site_label
 _atom_site_symmetry_multiplicity
 _atom_site_fract_x
 _atom_site_fract_y
 _atom_site_fract_z
 _atom_site_occupancy
  Ca  Ca0  1  0.91931887  0.91931887  0.77696293  1
  Ca  Ca1  1  -0.91931887  -0.91931887  0.77696293  1
  Ca  Ca2  1  -0.91931887  0.91931887  -0.77696293  1
  Ca  Ca3  1  0.91931887  -0.91931887  -0.77696293  1
  Ca  Ca4  1  0.77696293  0.91931887  0.91931887  1
  Ca  Ca5  1  0.77696293  -0.91931887  -0.91931887  1
  Ca  Ca6  1  -0.77696293  -0.91931887  0.91931887  1
  Ca  Ca7  1  -0.77696293  0.91931887  -0.91931887  1
  Ca  Ca8  1  0.91931887  0.77696293  0.91931887  1
  Ca  Ca9  1  -0.91931887  0.77696293  -0.91931887  1
  Ca  Ca10  1  0.91931887  -0.77696293  -0.91931887  1
  Ca  Ca11  1  -0.91931887  -0.77696293  0.91931887  1
  Ca  Ca12  1  0.91931887  1.41931887  1.27696293  1
  Ca  Ca13  1  -0.91931887  -0.41931887  1.27696293  1
  Ca  Ca14  1  -0.91931887  1.41931887  -0.27696293  1
  Ca  Ca15  1  0.91931887  -0.41931887  -0.27696293  1
  Ca  Ca16  1  0.77696293  1.41931887  1.41931887  1
  Ca  Ca17  1  0.77696293  -0.41931887  -0.41931887  1
  Ca  Ca18  1  -0.77696293  -0.41931887  1.41931887  1
  Ca  Ca19  1  -0.77696293  1.41931887  -0.41931887  1
  Ca  Ca20  1  0.91931887  1.27696293  1.41931887  1
  Ca  Ca21  1  -0.91931887  1.27696293  -0.41931887  1
  Ca  Ca22  1  0.91931887  -0.27696293  -0.41931887  1
  Ca  Ca23  1  -0.91931887  -0.27696293  1.41931887  1
  Ca  Ca24  1  1.41931887  0.91931887  1.27696293  1
  Ca  Ca25  1  -0.41931887  -0.91931887  1.27696293  1
  Ca  Ca26  1  -0.41931887  0.91931887  -0.27696293  1
  Ca  Ca27  1  1.41931887  -0.91931887  -0.27696293  1
  Ca  Ca28  1  1.27696293  0.91931887  1.41931887  1
  Ca  Ca29  1  1.27696293  -0.91931887  -0.41931887  1
  Ca  Ca30  1  -0.27696293  -0.91931887  1.41931887  1
  Ca  Ca31  1  -0.27696293  0.91931887  -0.41931887  1
  Ca  Ca32  1  1.41931887  0.77696293  1.41931887  1
  Ca  Ca33  1  -0.41931887  0.77696293  -0.41931887  1
  Ca  Ca34  1  1.41931887  -0.77696293  -0.41931887  1
  Ca  Ca35  1  -0.41931887  -0.77696293  1.41931887  1
  Ca  Ca36  1  1.41931887  1.41931887  0.77696293  1
  Ca  Ca37  1  -0.41931887  -0.41931887  0.77696293  1
  Ca  Ca38  1  -0.41931887  1.41931887  -0.77696293  1
  Ca  Ca39  1  1.41931887  -0.41931887  -0.77696293  1
  Ca  Ca40  1  1.27696293  1.41931887  0.91931887  1
  Ca  Ca41  1  1.27696293  -0.41931887  -0.91931887  1
  Ca  Ca42  1  -0.27696293  -0.41931887  0.91931887  1
  Ca  Ca43  1  -0.27696293  1.41931887  -0.91931887  1
  Ca  Ca44  1  1.41931887  1.27696293  0.91931887  1
  Ca  Ca45  1  -0.41931887  1.27696293  -0.91931887  1
  Ca  Ca46  1  1.41931887  -0.27696293  -0.91931887  1
  Ca  Ca47  1  -0.41931887  -0.27696293  0.91931887  1
  O  O48  1  0.15197750  0.15197750  0.28696140  1
  O  O49  1  0.84802250  0.84802250  0.28696140  1
  O  O50  1  0.84802250  0.15197750  0.71303860  1
  O  O51  1  0.15197750  0.84802250  0.71303860  1
  O  O52  1  0.28696140  0.15197750  0.15197750  1
  O  O53  1  0.28696140  0.84802250  0.84802250  1
  O  O54  1  0.71303860  0.84802250  0.15197750  1
  O  O55  1  0.71303860  0.15197750  0.84802250  1
  O  O56  1  0.15197750  0.28696140  0.15197750  1
  O  O57  1  0.84802250  0.28696140  0.84802250  1
  O  O58  1  0.15197750  0.71303860  0.84802250  1
  O  O59  1  0.84802250  0.71303860  0.15197750  1
  O  O60  1  0.15197750  0.65197750  0.78696140  1
  O  O61  1  0.84802250  0.34802250  0.78696140  1
  O  O62  1  0.84802250  0.65197750  0.21303860  1
  O  O63  1  0.15197750  0.34802250  0.21303860  1
  O  O64  1  0.28696140  0.65197750  0.65197750  1
  O  O65  1  0.28696140  0.34802250  0.34802250  1
  O  O66  1  0.71303860  0.34802250  0.65197750  1
  O  O67  1  0.71303860  0.65197750  0.34802250  1
  O  O68  1  0.15197750  0.78696140  0.65197750  1
  O  O69  1  0.84802250  0.78696140  0.34802250  1
  O  O70  1  0.15197750  0.21303860  0.34802250  1
  O  O71  1  0.84802250  0.21303860  0.65197750  1
  O  O72  1  0.65197750  0.15197750  0.78696140  1
  O  O73  1  0.34802250  0.84802250  0.78696140  1
  O  O74  1  0.34802250  0.15197750  0.21303860  1
  O  O75  1  0.65197750  0.84802250  0.21303860  1
  O  O76  1  0.78696140  0.15197750  0.65197750  1
  O  O77  1  0.78696140  0.84802250  0.34802250  1
  O  O78  1  0.21303860  0.84802250  0.65197750  1
  O  O79  1  0.21303860  0.15197750  0.34802250  1
  O  O80  1  0.65197750  0.28696140  0.65197750  1
  O  O81  1  0.34802250  0.28696140  0.34802250  1
  O  O82  1  0.65197750  0.71303860  0.34802250  1
  O  O83  1  0.34802250  0.71303860  0.65197750  1
  O  O84  1  0.65197750  0.65197750  0.28696140  1
  O  O85  1  0.34802250  0.34802250  0.28696140  1
  O  O86  1  0.34802250  0.65197750  0.71303860  1
  O  O87  1  0.65197750  0.34802250  0.71303860  1
  O  O88  1  0.78696140  0.65197750  0.15197750  1
  O  O89  1  0.78696140  0.34802250  0.84802250  1
  O  O90  1  0.21303860  0.34802250  0.15197750  1
  O  O91  1  0.21303860  0.65197750  0.84802250  1
  O  O92  1  0.65197750  0.78696140  0.15197750  1
  O  O93  1  0.34802250  0.78696140  0.84802250  1
  O  O94  1  0.65197750  0.21303860  0.84802250  1
  O  O95  1  0.34802250  0.21303860  0.15197750  1
