# generated using pymatgen
data_KLi3I4
_symmetry_space_group_name_H-M   'P 1'
_cell_length_a   9.93447375
_cell_length_b   9.93447375
_cell_length_c   7.62797199
_cell_angle_alpha   90.00000000
_cell_angle_beta   90.00000000
_cell_angle_gamma   120.00000000
_symmetry_Int_Tables_number   1
_chemical_formula_structural   KLi3I4
_chemical_formula_sum   'K3 Li9 I12'
_cell_volume   651.97276476
_cell_formula_units_Z   3
loop_
 _symmetry_equiv_pos_site_id
 _symmetry_equiv_pos_as_xyz
  1  'x, y, z'
loop_
 _atom_site_type_symbol
 _atom_site_label
 _atom_site_symmetry_multiplicity
 _atom_site_fract_x
 _atom_site_fract_y
 _atom_site_fract_z
 _atom_site_occupancy
  I  I0  1  0.66666667  0.33333333  0.89197352  1
  I  I1  1  0.66666667  0.33333333  0.10802648  1
  I  I2  1  0.84835617  0.81471136  0.12009467  1
  I  I3  1  -0.81471136  0.03364482  0.12009467  1
  I  I4  1  -0.03364482  -0.84835617  0.12009467  1
  I  I5  1  -0.81471136  -0.84835617  -0.12009467  1
  I  I6  1  -0.03364482  0.81471136  -0.12009467  1
  I  I7  1  0.84835617  0.03364482  -0.12009467  1
  I  I8  1  0.00000000  0.00000000  0.00000000  1
  I  I9  1  0.14597994  0.85402006  0.00000000  1
  I  I10  1  0.14597994  0.29195988  -0.00000000  1
  I  I11  1  0.70804012  0.85402006  0.00000000  1
  K  K12  1  0.00000000  0.00000000  0.36667908  1
  K  K13  1  0.00000000  0.00000000  0.63332092  1
  K  K14  1  0.66666667  0.33333333  0.50000000  1
  Li  Li15  1  0.33333333  0.66666667  0.77175192  1
  Li  Li16  1  0.33333333  0.66666667  0.22824808  1
  Li  Li17  1  0.22104290  0.94652953  0.65801168  1
  Li  Li18  1  0.05347047  0.27451336  0.65801168  1
  Li  Li19  1  0.72548664  0.77895710  0.65801168  1
  Li  Li20  1  0.05347047  0.77895710  0.34198832  1
  Li  Li21  1  0.72548664  0.94652953  0.34198832  1
  Li  Li22  1  0.22104290  0.27451336  0.34198832  1
  Li  Li23  1  0.33333333  0.66666667  0.00000000  1
