# generated using pymatgen
data_SrLi6TiNb2I3
_symmetry_space_group_name_H-M   'P 1'
_cell_length_a   12.82754327
_cell_length_b   10.33889808
_cell_length_c   11.30447675
_cell_angle_alpha   90.00000000
_cell_angle_beta   90.00000000
_cell_angle_gamma   90.00000000
_symmetry_Int_Tables_number   1
_chemical_formula_structural   SrLi6TiNb2I3
_chemical_formula_sum   'Sr1 Li6 Ti1 Nb2 I3'
_cell_volume   1499.22980468
_cell_formula_units_Z   1
loop_
 _symmetry_equiv_pos_site_id
 _symmetry_equiv_pos_as_xyz
  1  'x, y, z'
loop_
 _atom_site_type_symbol
 _atom_site_label
 _atom_site_symmetry_multiplicity
 _atom_site_fract_x
 _atom_site_fract_y
 _atom_site_fract_z
 _atom_site_occupancy
  Li  Li0  1  0.12500000  0.00000000  0.25000000  1
  Li  Li1  1  0.00000000  0.00000000  0.00000000  1
  Li  Li2  1  0.37500000  0.00000000  0.25000000  1
  Li  Li3  1  0.25000000  0.25000000  0.25000000  1
  Li  Li4  1  0.00000000  0.25000000  0.12500000  1
  Li  Li5  1  0.12877005  0.23103254  0.05430885  1
  Nb  Nb6  1  0.73963402  0.35163461  0.46368178  1
  Nb  Nb7  1  0.63966951  0.64109429  0.19612431  1
  Ti  Ti8  1  0.42240344  0.71089027  0.65260232  1
  Sr  Sr9  1  0.63772430  0.51442597  0.99156948  1
  I  I10  1  0.97161788  0.53457382  0.51226362  1
  I  I11  1  0.69692076  0.97471613  0.42188734  1
  I  I12  1  0.29924634  0.60023023  0.99715009  1
