# generated using pymatgen
data_Li4Zr3S4(I3F)2
_symmetry_space_group_name_H-M   'P 1'
_cell_length_a   9.77480794
_cell_length_b   9.77480794
_cell_length_c   30.18480342
_cell_angle_alpha   90.00000000
_cell_angle_beta   90.00000000
_cell_angle_gamma   120.00000000
_symmetry_Int_Tables_number   1
_chemical_formula_structural   Li4Zr3S4(I3F)2
_chemical_formula_sum   'Li24 Zr18 S24 I36 F12'
_cell_volume   2497.67225426
_cell_formula_units_Z   6
loop_
 _symmetry_equiv_pos_site_id
 _symmetry_equiv_pos_as_xyz
  1  'x, y, z'
loop_
 _atom_site_type_symbol
 _atom_site_label
 _atom_site_symmetry_multiplicity
 _atom_site_fract_x
 _atom_site_fract_y
 _atom_site_fract_z
 _atom_site_occupancy
  F  F0  1  0.00000000  0.00000000  0.04043616  1
  F  F1  1  0.00000000  0.00000000  0.45956384  1
  F  F2  1  0.00000000  0.00000000  0.95956384  1
  F  F3  1  0.00000000  0.00000000  0.54043616  1
  F  F4  1  0.66666667  0.33333333  0.37376949  1
  F  F5  1  0.66666667  0.33333333  0.79289717  1
  F  F6  1  0.66666667  0.33333333  0.29289717  1
  F  F7  1  0.66666667  0.33333333  0.87376949  1
  F  F8  1  0.33333333  0.66666667  0.70710283  1
  F  F9  1  0.33333333  0.66666667  0.12623051  1
  F  F10  1  0.33333333  0.66666667  0.62623051  1
  F  F11  1  0.33333333  0.66666667  0.20710283  1
  I  I12  1  0.79614644  0.64326132  0.38308588  1
  I  I13  1  -0.64326132  0.15288512  0.38308588  1
  I  I14  1  -0.15288512  -0.79614644  0.38308588  1
  I  I15  1  0.64326132  0.79614644  0.11691412  1
  I  I16  1  0.15288512  -0.64326132  0.11691412  1
  I  I17  1  -0.79614644  -0.15288512  0.11691412  1
  I  I18  1  -0.79614644  -0.64326132  -0.38308588  1
  I  I19  1  0.64326132  -0.15288512  -0.38308588  1
  I  I20  1  0.15288512  0.79614644  -0.38308588  1
  I  I21  1  -0.64326132  -0.79614644  0.88308588  1
  I  I22  1  -0.15288512  0.64326132  0.88308588  1
  I  I23  1  0.79614644  0.15288512  0.88308588  1
  I  I24  1  1.46281311  0.97659465  0.71641921  1
  I  I25  1  0.02340535  0.48621845  0.71641921  1
  I  I26  1  0.51378155  -0.46281311  0.71641921  1
  I  I27  1  1.30992799  1.12947977  0.45024746  1
  I  I28  1  0.81955179  -0.30992799  0.45024746  1
  I  I29  1  -0.12947977  0.18044821  0.45024746  1
  I  I30  1  -0.12947977  -0.30992799  -0.04975254  1
  I  I31  1  1.30992799  0.18044821  -0.04975254  1
  I  I32  1  0.81955179  1.12947977  -0.04975254  1
  I  I33  1  0.02340535  -0.46281311  1.21641921  1
  I  I34  1  0.51378155  0.97659465  1.21641921  1
  I  I35  1  1.46281311  0.48621845  1.21641921  1
  I  I36  1  1.12947977  1.30992799  1.04975254  1
  I  I37  1  -0.30992799  0.81955179  1.04975254  1
  I  I38  1  0.18044821  -0.12947977  1.04975254  1
  I  I39  1  0.97659465  1.46281311  0.78358079  1
  I  I40  1  0.48621845  0.02340535  0.78358079  1
  I  I41  1  -0.46281311  0.51378155  0.78358079  1
  I  I42  1  -0.46281311  0.02340535  0.28358079  1
  I  I43  1  0.97659465  0.51378155  0.28358079  1
  I  I44  1  0.48621845  1.46281311  0.28358079  1
  I  I45  1  -0.30992799  -0.12947977  1.54975254  1
  I  I46  1  0.18044821  1.30992799  1.54975254  1
  I  I47  1  1.12947977  0.81955179  1.54975254  1
  Li  Li48  1  0.27870073  0.00000000  0.25000000  1
  Li  Li49  1  0.00000000  0.27870073  0.25000000  1
  Li  Li50  1  0.72129927  0.72129927  0.25000000  1
  Li  Li51  1  0.72129927  0.00000000  0.75000000  1
  Li  Li52  1  0.00000000  0.72129927  0.75000000  1
  Li  Li53  1  0.27870073  0.27870073  0.75000000  1
  Li  Li54  1  0.94536740  0.33333333  0.58333333  1
  Li  Li55  1  0.66666667  0.61203407  0.58333333  1
  Li  Li56  1  0.38796593  0.05463260  0.58333333  1
  Li  Li57  1  0.38796593  0.33333333  0.08333333  1
  Li  Li58  1  0.66666667  0.05463260  0.08333333  1
  Li  Li59  1  0.94536740  0.61203407  0.08333333  1
  Li  Li60  1  0.61203407  0.66666667  0.91666667  1
  Li  Li61  1  0.33333333  0.94536740  0.91666667  1
  Li  Li62  1  0.05463260  0.38796593  0.91666667  1
  Li  Li63  1  0.05463260  0.66666667  0.41666667  1
  Li  Li64  1  0.33333333  0.38796593  0.41666667  1
  Li  Li65  1  0.61203407  0.94536740  0.41666667  1
  Li  Li66  1  0.00000000  0.00000000  0.25000000  1
  Li  Li67  1  0.00000000  0.00000000  0.75000000  1
  Li  Li68  1  0.66666667  0.33333333  0.58333333  1
  Li  Li69  1  0.66666667  0.33333333  0.08333333  1
  Li  Li70  1  0.33333333  0.66666667  0.91666667  1
  Li  Li71  1  0.33333333  0.66666667  0.41666667  1
  S  S72  1  0.00000000  0.00000000  0.00000000  1
  S  S73  1  0.00000000  0.00000000  0.50000000  1
  S  S74  1  0.66666667  0.33333333  0.33333333  1
  S  S75  1  0.66666667  0.33333333  0.83333333  1
  S  S76  1  0.33333333  0.66666667  0.66666667  1
  S  S77  1  0.33333333  0.66666667  0.16666667  1
  S  S78  1  0.41099700  0.00000000  0.25000000  1
  S  S79  1  0.00000000  0.41099700  0.25000000  1
  S  S80  1  0.58900300  0.58900300  0.25000000  1
  S  S81  1  0.58900300  0.00000000  0.75000000  1
  S  S82  1  0.00000000  0.58900300  0.75000000  1
  S  S83  1  0.41099700  0.41099700  0.75000000  1
  S  S84  1  0.07766367  0.33333333  0.58333333  1
  S  S85  1  0.66666667  0.74433034  0.58333333  1
  S  S86  1  0.25566966  0.92233633  0.58333333  1
  S  S87  1  0.25566966  0.33333333  0.08333333  1
  S  S88  1  0.66666667  0.92233633  0.08333333  1
  S  S89  1  0.07766367  0.74433034  0.08333333  1
  S  S90  1  0.74433034  0.66666667  0.91666667  1
  S  S91  1  0.33333333  0.07766367  0.91666667  1
  S  S92  1  0.92233633  0.25566966  0.91666667  1
  S  S93  1  0.92233633  0.66666667  0.41666667  1
  S  S94  1  0.33333333  0.25566966  0.41666667  1
  S  S95  1  0.74433034  0.07766367  0.41666667  1
  Zr  Zr96  1  0.50000000  0.00000000  0.00000000  1
  Zr  Zr97  1  0.00000000  0.50000000  0.00000000  1
  Zr  Zr98  1  0.50000000  0.50000000  0.00000000  1
  Zr  Zr99  1  0.00000000  0.50000000  0.50000000  1
  Zr  Zr100  1  0.50000000  0.00000000  0.50000000  1
  Zr  Zr101  1  0.50000000  0.50000000  0.50000000  1
  Zr  Zr102  1  0.16666667  0.33333333  0.33333333  1
  Zr  Zr103  1  0.66666667  0.83333333  0.33333333  1
  Zr  Zr104  1  0.16666667  0.83333333  0.33333333  1
  Zr  Zr105  1  0.66666667  0.83333333  0.83333333  1
  Zr  Zr106  1  0.16666667  0.33333333  0.83333333  1
  Zr  Zr107  1  0.16666667  0.83333333  0.83333333  1
  Zr  Zr108  1  0.83333333  0.66666667  0.66666667  1
  Zr  Zr109  1  0.33333333  0.16666667  0.66666667  1
  Zr  Zr110  1  0.83333333  0.16666667  0.66666667  1
  Zr  Zr111  1  0.33333333  0.16666667  0.16666667  1
  Zr  Zr112  1  0.83333333  0.66666667  0.16666667  1
  Zr  Zr113  1  0.83333333  0.16666667  0.16666667  1
