# generated using pymatgen
data_SnS2
_symmetry_space_group_name_H-M   'P 1'
_cell_length_a   13.25875609
_cell_length_b   13.25875609
_cell_length_c   15.35862709
_cell_angle_alpha   90.00000000
_cell_angle_beta   90.00000000
_cell_angle_gamma   90.00000000
_symmetry_Int_Tables_number   1
_chemical_formula_structural   SnS2
_chemical_formula_sum   'Sn48 S96'
_cell_volume   2699.96390491
_cell_formula_units_Z   48
loop_
 _symmetry_equiv_pos_site_id
 _symmetry_equiv_pos_as_xyz
  1  'x, y, z'
loop_
 _atom_site_type_symbol
 _atom_site_label
 _atom_site_symmetry_multiplicity
 _atom_site_fract_x
 _atom_site_fract_y
 _atom_site_fract_z
 _atom_site_occupancy
  S  S0  1  0.00000000  0.25000000  0.12500000  1
  S  S1  1  0.00000000  0.75000000  0.37500000  1
  S  S2  1  0.00000000  0.75000000  0.87500000  1
  S  S3  1  0.00000000  0.25000000  0.62500000  1
  S  S4  1  0.50000000  0.75000000  0.62500000  1
  S  S5  1  0.50000000  0.25000000  0.87500000  1
  S  S6  1  0.50000000  0.25000000  0.37500000  1
  S  S7  1  0.50000000  0.75000000  0.12500000  1
  S  S8  1  0.00000000  0.25000000  0.37500000  1
  S  S9  1  0.00000000  0.75000000  0.62500000  1
  S  S10  1  0.50000000  0.25000000  0.62500000  1
  S  S11  1  0.50000000  0.75000000  0.37500000  1
  S  S12  1  0.50000000  0.75000000  0.87500000  1
  S  S13  1  0.50000000  0.25000000  0.12500000  1
  S  S14  1  0.00000000  0.75000000  0.12500000  1
  S  S15  1  0.00000000  0.25000000  0.87500000  1
  S  S16  1  0.10249349  0.00000000  0.25000000  1
  S  S17  1  0.39750651  -0.00000000  0.75000000  1
  S  S18  1  0.25000000  0.85249349  0.50000000  1
  S  S19  1  0.25000000  0.14750651  0.00000000  1
  S  S20  1  0.89750651  0.00000000  0.75000000  1
  S  S21  1  0.60249349  0.00000000  0.25000000  1
  S  S22  1  0.75000000  0.14750651  0.50000000  1
  S  S23  1  0.75000000  0.85249349  0.00000000  1
  S  S24  1  0.60249349  0.50000000  0.75000000  1
  S  S25  1  0.89750651  0.50000000  0.25000000  1
  S  S26  1  0.75000000  0.35249349  0.00000000  1
  S  S27  1  0.75000000  0.64750651  0.50000000  1
  S  S28  1  0.39750651  0.50000000  0.25000000  1
  S  S29  1  0.10249349  0.50000000  0.75000000  1
  S  S30  1  0.25000000  0.64750651  -0.00000000  1
  S  S31  1  0.25000000  0.35249349  0.50000000  1
  S  S32  1  0.17834242  0.68737653  0.30937645  1
  S  S33  1  0.32165758  -0.68737653  0.80937645  1
  S  S34  1  -0.43737653  0.92834242  0.55937645  1
  S  S35  1  0.93737653  0.07165758  1.05937645  1
  S  S36  1  0.32165758  0.68737653  -0.30937645  1
  S  S37  1  0.17834242  -0.68737653  0.19062355  1
  S  S38  1  0.93737653  0.92834242  0.44062355  1
  S  S39  1  -0.43737653  0.07165758  -0.05937645  1
  S  S40  1  -0.17834242  -0.68737653  -0.30937645  1
  S  S41  1  0.67834242  0.68737653  0.19062355  1
  S  S42  1  1.43737653  0.07165758  0.44062355  1
  S  S43  1  0.06262347  0.92834242  -0.05937645  1
  S  S44  1  0.67834242  -0.68737653  0.30937645  1
  S  S45  1  -0.17834242  0.68737653  0.80937645  1
  S  S46  1  0.06262347  0.07165758  0.55937645  1
  S  S47  1  1.43737653  0.92834242  1.05937645  1
  S  S48  1  0.67834242  1.18737653  0.80937645  1
  S  S49  1  0.82165758  -0.18737653  1.30937645  1
  S  S50  1  0.06262347  1.42834242  1.05937645  1
  S  S51  1  1.43737653  0.57165758  1.55937645  1
  S  S52  1  0.82165758  1.18737653  0.19062355  1
  S  S53  1  0.67834242  -0.18737653  0.69062355  1
  S  S54  1  1.43737653  1.42834242  0.94062355  1
  S  S55  1  0.06262347  0.57165758  0.44062355  1
  S  S56  1  0.32165758  -0.18737653  0.19062355  1
  S  S57  1  1.17834242  1.18737653  0.69062355  1
  S  S58  1  1.93737653  0.57165758  0.94062355  1
  S  S59  1  0.56262347  1.42834242  0.44062355  1
  S  S60  1  1.17834242  -0.18737653  0.80937645  1
  S  S61  1  0.32165758  1.18737653  1.30937645  1
  S  S62  1  0.56262347  0.57165758  1.05937645  1
  S  S63  1  1.93737653  1.42834242  1.55937645  1
  S  S64  1  0.84785150  0.14112120  0.74504151  1
  S  S65  1  0.65214850  0.85887880  0.24504151  1
  S  S66  1  0.10887880  0.59785150  0.99504151  1
  S  S67  1  0.39112120  0.40214850  0.49504151  1
  S  S68  1  0.65214850  0.14112120  0.25495849  1
  S  S69  1  0.84785150  0.85887880  0.75495849  1
  S  S70  1  0.39112120  0.59785150  0.00495849  1
  S  S71  1  0.10887880  0.40214850  0.50495849  1
  S  S72  1  0.15214850  0.85887880  0.25495849  1
  S  S73  1  0.34785150  0.14112120  0.75495849  1
  S  S74  1  0.89112120  0.40214850  0.00495849  1
  S  S75  1  0.60887880  0.59785150  0.50495849  1
  S  S76  1  0.34785150  0.85887880  0.74504151  1
  S  S77  1  0.15214850  0.14112120  0.24504151  1
  S  S78  1  0.60887880  0.40214850  0.99504151  1
  S  S79  1  0.89112120  0.59785150  0.49504151  1
  S  S80  1  0.34785150  0.64112120  0.24504151  1
  S  S81  1  0.15214850  0.35887880  0.74504151  1
  S  S82  1  0.60887880  0.09785150  0.49504151  1
  S  S83  1  0.89112120  0.90214850  0.99504151  1
  S  S84  1  0.15214850  0.64112120  0.75495849  1
  S  S85  1  0.34785150  0.35887880  0.25495849  1
  S  S86  1  0.89112120  0.09785150  0.50495849  1
  S  S87  1  0.60887880  0.90214850  0.00495849  1
  S  S88  1  0.65214850  0.35887880  0.75495849  1
  S  S89  1  0.84785150  0.64112120  0.25495849  1
  S  S90  1  0.39112120  0.90214850  0.50495849  1
  S  S91  1  0.10887880  0.09785150  0.00495849  1
  S  S92  1  0.84785150  0.35887880  0.24504151  1
  S  S93  1  0.65214850  0.64112120  0.74504151  1
  S  S94  1  0.10887880  0.90214850  0.49504151  1
  S  S95  1  0.39112120  0.09785150  0.99504151  1
  Sn  Sn96  1  0.29460239  0.16390684  0.64843931  1
  Sn  Sn97  1  0.20539761  0.83609316  0.14843931  1
  Sn  Sn98  1  0.08609316  0.04460239  0.89843931  1
  Sn  Sn99  1  0.41390684  0.95539761  0.39843931  1
  Sn  Sn100  1  0.20539761  0.16390684  0.35156069  1
  Sn  Sn101  1  0.29460239  0.83609316  0.85156069  1
  Sn  Sn102  1  0.41390684  0.04460239  0.10156069  1
  Sn  Sn103  1  0.08609316  0.95539761  0.60156069  1
  Sn  Sn104  1  0.70539761  0.83609316  0.35156069  1
  Sn  Sn105  1  0.79460239  0.16390684  0.85156069  1
  Sn  Sn106  1  0.91390684  0.95539761  0.10156069  1
  Sn  Sn107  1  0.58609316  0.04460239  0.60156069  1
  Sn  Sn108  1  0.79460239  0.83609316  0.64843931  1
  Sn  Sn109  1  0.70539761  0.16390684  0.14843931  1
  Sn  Sn110  1  0.58609316  0.95539761  0.89843931  1
  Sn  Sn111  1  0.91390684  0.04460239  0.39843931  1
  Sn  Sn112  1  0.79460239  0.66390684  0.14843931  1
  Sn  Sn113  1  0.70539761  0.33609316  0.64843931  1
  Sn  Sn114  1  0.58609316  0.54460239  0.39843931  1
  Sn  Sn115  1  0.91390684  0.45539761  0.89843931  1
  Sn  Sn116  1  0.70539761  0.66390684  0.85156069  1
  Sn  Sn117  1  0.79460239  0.33609316  0.35156069  1
  Sn  Sn118  1  0.91390684  0.54460239  0.60156069  1
  Sn  Sn119  1  0.58609316  0.45539761  0.10156069  1
  Sn  Sn120  1  0.20539761  0.33609316  0.85156069  1
  Sn  Sn121  1  0.29460239  0.66390684  0.35156069  1
  Sn  Sn122  1  0.41390684  0.45539761  0.60156069  1
  Sn  Sn123  1  0.08609316  0.54460239  0.10156069  1
  Sn  Sn124  1  0.29460239  0.33609316  0.14843931  1
  Sn  Sn125  1  0.20539761  0.66390684  0.64843931  1
  Sn  Sn126  1  0.08609316  0.45539761  0.39843931  1
  Sn  Sn127  1  0.41390684  0.54460239  0.89843931  1
  Sn  Sn128  1  0.36849983  -0.00000000  0.25000000  1
  Sn  Sn129  1  0.13150017  0.00000000  0.75000000  1
  Sn  Sn130  1  0.25000000  0.11849983  0.50000000  1
  Sn  Sn131  1  0.25000000  0.88150017  0.00000000  1
  Sn  Sn132  1  0.63150017  0.00000000  0.75000000  1
  Sn  Sn133  1  0.86849983  0.00000000  0.25000000  1
  Sn  Sn134  1  0.75000000  0.88150017  0.50000000  1
  Sn  Sn135  1  0.75000000  0.11849983  0.00000000  1
  Sn  Sn136  1  0.86849983  0.50000000  0.75000000  1
  Sn  Sn137  1  0.63150017  0.50000000  0.25000000  1
  Sn  Sn138  1  0.75000000  0.61849983  0.00000000  1
  Sn  Sn139  1  0.75000000  0.38150017  0.50000000  1
  Sn  Sn140  1  0.13150017  0.50000000  0.25000000  1
  Sn  Sn141  1  0.36849983  0.50000000  0.75000000  1
  Sn  Sn142  1  0.25000000  0.38150017  0.00000000  1
  Sn  Sn143  1  0.25000000  0.61849983  0.50000000  1
