# generated using pymatgen
data_Li3TiO
_symmetry_space_group_name_H-M   'P 1'
_cell_length_a   3.76262253
_cell_length_b   3.59307201
_cell_length_c   6.85946116
_cell_angle_alpha   109.22192002
_cell_angle_beta   112.77683703
_cell_angle_gamma   92.53984497
_symmetry_Int_Tables_number   1
_chemical_formula_structural   Li3TiO
_chemical_formula_sum   'Li3 Ti1 O1'
_cell_volume   79.15022965
_cell_formula_units_Z   1
loop_
 _symmetry_equiv_pos_site_id
 _symmetry_equiv_pos_as_xyz
  1  'x, y, z'
loop_
 _atom_site_type_symbol
 _atom_site_label
 _atom_site_symmetry_multiplicity
 _atom_site_fract_x
 _atom_site_fract_y
 _atom_site_fract_z
 _atom_site_occupancy
  Li  Li0  1  0.00000000  0.00000000  0.00000000  1
  Li  Li1  1  0.33300000  0.66700000  0.25000000  1
  Li  Li2  1  0.66700000  0.33300000  0.50000000  1
  Ti  Ti3  1  0.00000000  0.00000000  0.75000000  1
  O  O4  1  0.90081193  0.02947798  0.58109956  1
