# generated using pymatgen
data_LiBO2
_symmetry_space_group_name_H-M   'P 1'
_cell_length_a   13.38648212
_cell_length_b   13.38648212
_cell_length_c   13.38648212
_cell_angle_alpha   90.00000000
_cell_angle_beta   90.00000000
_cell_angle_gamma   90.00000000
_symmetry_Int_Tables_number   1
_chemical_formula_structural   LiBO2
_chemical_formula_sum   'Li48 B48 O96'
_cell_volume   2398.82953335
_cell_formula_units_Z   48
loop_
 _symmetry_equiv_pos_site_id
 _symmetry_equiv_pos_as_xyz
  1  'x, y, z'
loop_
 _atom_site_type_symbol
 _atom_site_label
 _atom_site_symmetry_multiplicity
 _atom_site_fract_x
 _atom_site_fract_y
 _atom_site_fract_z
 _atom_site_occupancy
  B  B0  1  0.39309438  0.00000000  0.25000000  1
  B  B1  1  0.10690562  -0.00000000  0.75000000  1
  B  B2  1  0.25000000  0.39309438  0.00000000  1
  B  B3  1  0.75000000  0.10690562  -0.00000000  1
  B  B4  1  0.00000000  0.25000000  0.39309438  1
  B  B5  1  0.00000000  0.75000000  0.10690562  1
  B  B6  1  0.75000000  0.64309438  -0.00000000  1
  B  B7  1  0.75000000  0.35690562  0.50000000  1
  B  B8  1  0.14309438  0.50000000  0.25000000  1
  B  B9  1  0.85690562  -0.00000000  0.25000000  1
  B  B10  1  0.00000000  0.25000000  0.85690562  1
  B  B11  1  0.50000000  0.25000000  0.14309438  1
  B  B12  1  0.89309438  0.50000000  0.75000000  1
  B  B13  1  0.60690562  0.50000000  0.25000000  1
  B  B14  1  0.75000000  0.89309438  0.50000000  1
  B  B15  1  0.25000000  0.60690562  0.50000000  1
  B  B16  1  0.50000000  0.75000000  0.89309438  1
  B  B17  1  0.50000000  0.25000000  0.60690562  1
  B  B18  1  0.25000000  0.14309438  0.50000000  1
  B  B19  1  0.25000000  0.85690562  -0.00000000  1
  B  B20  1  0.64309438  -0.00000000  0.75000000  1
  B  B21  1  0.35690562  0.50000000  0.75000000  1
  B  B22  1  0.50000000  0.75000000  0.35690562  1
  B  B23  1  0.00000000  0.75000000  0.64309438  1
  B  B24  1  0.12500000  0.17263638  0.42263638  1
  B  B25  1  0.37500000  0.82736362  0.92263638  1
  B  B26  1  0.87500000  0.67263638  0.07736362  1
  B  B27  1  0.62500000  0.32736362  0.57736362  1
  B  B28  1  0.42263638  0.12500000  0.17263638  1
  B  B29  1  0.92263638  0.37500000  0.82736362  1
  B  B30  1  0.07736362  0.87500000  0.67263638  1
  B  B31  1  0.57736362  0.62500000  0.32736362  1
  B  B32  1  0.17263638  0.42263638  0.12500000  1
  B  B33  1  0.82736362  0.92263638  0.37500000  1
  B  B34  1  0.67263638  0.07736362  0.87500000  1
  B  B35  1  0.32736362  0.57736362  0.62500000  1
  B  B36  1  0.62500000  0.67263638  0.92263638  1
  B  B37  1  0.87500000  0.32736362  0.42263638  1
  B  B38  1  0.37500000  0.17263638  0.57736362  1
  B  B39  1  0.12500000  0.82736362  0.07736362  1
  B  B40  1  0.92263638  0.62500000  0.67263638  1
  B  B41  1  0.42263638  0.87500000  0.32736362  1
  B  B42  1  0.57736362  0.37500000  0.17263638  1
  B  B43  1  0.07736362  0.12500000  0.82736362  1
  B  B44  1  0.67263638  0.92263638  0.62500000  1
  B  B45  1  0.32736362  0.42263638  0.87500000  1
  B  B46  1  0.17263638  0.57736362  0.37500000  1
  B  B47  1  0.82736362  0.07736362  0.12500000  1
  Li  Li48  1  0.12500000  0.00000000  0.25000000  1
  Li  Li49  1  0.37500000  -0.00000000  0.75000000  1
  Li  Li50  1  0.25000000  0.12500000  -0.00000000  1
  Li  Li51  1  0.75000000  0.37500000  -0.00000000  1
  Li  Li52  1  0.00000000  0.25000000  0.12500000  1
  Li  Li53  1  0.00000000  0.75000000  0.37500000  1
  Li  Li54  1  0.62500000  0.50000000  0.75000000  1
  Li  Li55  1  0.87500000  0.50000000  0.25000000  1
  Li  Li56  1  0.75000000  0.62500000  0.50000000  1
  Li  Li57  1  0.25000000  0.87500000  0.50000000  1
  Li  Li58  1  0.50000000  0.75000000  0.62500000  1
  Li  Li59  1  0.50000000  0.25000000  0.87500000  1
  Li  Li60  1  0.62500000  -0.00000000  0.25000000  1
  Li  Li61  1  0.87500000  -0.00000000  0.75000000  1
  Li  Li62  1  0.25000000  0.62500000  -0.00000000  1
  Li  Li63  1  0.75000000  0.87500000  -0.00000000  1
  Li  Li64  1  0.00000000  0.25000000  0.62500000  1
  Li  Li65  1  0.00000000  0.75000000  0.87500000  1
  Li  Li66  1  0.12500000  0.50000000  0.75000000  1
  Li  Li67  1  0.37500000  0.50000000  0.25000000  1
  Li  Li68  1  0.75000000  0.12500000  0.50000000  1
  Li  Li69  1  0.25000000  0.37500000  0.50000000  1
  Li  Li70  1  0.50000000  0.75000000  0.12500000  1
  Li  Li71  1  0.50000000  0.25000000  0.37500000  1
  Li  Li72  1  0.07947933  0.07947933  0.07947933  1
  Li  Li73  1  0.42052067  0.92052067  0.57947933  1
  Li  Li74  1  0.92052067  0.57947933  0.42052067  1
  Li  Li75  1  0.57947933  0.42052067  0.92052067  1
  Li  Li76  1  0.82947933  0.32947933  0.17052067  1
  Li  Li77  1  0.67052067  0.67052067  0.67052067  1
  Li  Li78  1  0.32947933  0.17052067  0.82947933  1
  Li  Li79  1  0.17052067  0.82947933  0.32947933  1
  Li  Li80  1  0.57947933  0.57947933  0.57947933  1
  Li  Li81  1  0.92052067  0.42052067  0.07947933  1
  Li  Li82  1  0.42052067  0.07947933  0.92052067  1
  Li  Li83  1  0.07947933  0.92052067  0.42052067  1
  Li  Li84  1  0.32947933  0.82947933  0.67052067  1
  Li  Li85  1  0.17052067  0.17052067  0.17052067  1
  Li  Li86  1  0.82947933  0.67052067  0.32947933  1
  Li  Li87  1  0.67052067  0.32947933  0.82947933  1
  Li  Li88  1  0.87500000  0.87500000  0.87500000  1
  Li  Li89  1  0.62500000  0.12500000  0.37500000  1
  Li  Li90  1  0.12500000  0.37500000  0.62500000  1
  Li  Li91  1  0.37500000  0.62500000  0.12500000  1
  Li  Li92  1  0.37500000  0.37500000  0.37500000  1
  Li  Li93  1  0.12500000  0.62500000  0.87500000  1
  Li  Li94  1  0.62500000  0.87500000  0.12500000  1
  Li  Li95  1  0.87500000  0.12500000  0.62500000  1
  O  O96  1  0.76521078  0.76778399  0.91864406  1
  O  O97  1  -0.26521078  -0.76778399  1.41864406  1
  O  O98  1  -0.76521078  1.26778399  -0.41864406  1
  O  O99  1  1.26521078  -0.26778399  -0.91864406  1
  O  O100  1  0.91864406  0.76521078  0.76778399  1
  O  O101  1  1.41864406  -0.26521078  -0.76778399  1
  O  O102  1  -0.41864406  -0.76521078  1.26778399  1
  O  O103  1  -0.91864406  1.26521078  -0.26778399  1
  O  O104  1  0.76778399  0.91864406  0.76521078  1
  O  O105  1  -0.76778399  1.41864406  -0.26521078  1
  O  O106  1  1.26778399  -0.41864406  -0.76521078  1
  O  O107  1  -0.26778399  -0.91864406  1.26521078  1
  O  O108  1  1.51778399  1.01521078  -0.66864406  1
  O  O109  1  -0.01778399  -0.01521078  -0.16864406  1
  O  O110  1  1.01778399  -0.51521078  1.66864406  1
  O  O111  1  -0.51778399  1.51521078  1.16864406  1
  O  O112  1  1.51521078  1.16864406  -0.51778399  1
  O  O113  1  -0.51521078  1.66864406  1.01778399  1
  O  O114  1  -0.01521078  -0.16864406  -0.01778399  1
  O  O115  1  1.01521078  -0.66864406  1.51778399  1
  O  O116  1  1.66864406  1.01778399  -0.51521078  1
  O  O117  1  1.16864406  -0.51778399  1.51521078  1
  O  O118  1  -0.66864406  1.51778399  1.01521078  1
  O  O119  1  -0.16864406  -0.01778399  -0.01521078  1
  O  O120  1  1.26521078  1.26778399  1.41864406  1
  O  O121  1  0.23478922  -0.26778399  1.91864406  1
  O  O122  1  -0.26521078  1.76778399  0.08135594  1
  O  O123  1  1.76521078  0.23221601  -0.41864406  1
  O  O124  1  1.41864406  1.26521078  1.26778399  1
  O  O125  1  1.91864406  0.23478922  -0.26778399  1
  O  O126  1  0.08135594  -0.26521078  1.76778399  1
  O  O127  1  -0.41864406  1.76521078  0.23221601  1
  O  O128  1  1.26778399  1.41864406  1.26521078  1
  O  O129  1  -0.26778399  1.91864406  0.23478922  1
  O  O130  1  1.76778399  0.08135594  -0.26521078  1
  O  O131  1  0.23221601  -0.41864406  1.76521078  1
  O  O132  1  2.01778399  1.51521078  -0.16864406  1
  O  O133  1  0.48221601  0.48478922  0.33135594  1
  O  O134  1  1.51778399  -0.01521078  2.16864406  1
  O  O135  1  -0.01778399  2.01521078  1.66864406  1
  O  O136  1  2.01521078  1.66864406  -0.01778399  1
  O  O137  1  -0.01521078  2.16864406  1.51778399  1
  O  O138  1  0.48478922  0.33135594  0.48221601  1
  O  O139  1  1.51521078  -0.16864406  2.01778399  1
  O  O140  1  2.16864406  1.51778399  -0.01521078  1
  O  O141  1  1.66864406  -0.01778399  2.01521078  1
  O  O142  1  -0.16864406  2.01778399  1.51521078  1
  O  O143  1  0.33135594  0.48221601  0.48478922  1
  O  O144  1  0.70675444  0.27933089  0.60675796  1
  O  O145  1  0.79324556  0.72066911  0.10675796  1
  O  O146  1  0.29324556  0.77933089  0.89324204  1
  O  O147  1  0.20675444  0.22066911  0.39324204  1
  O  O148  1  0.60675796  0.70675444  0.27933089  1
  O  O149  1  0.10675796  0.79324556  0.72066911  1
  O  O150  1  0.89324204  0.29324556  0.77933089  1
  O  O151  1  0.39324204  0.20675444  0.22066911  1
  O  O152  1  0.27933089  0.60675796  0.70675444  1
  O  O153  1  0.72066911  0.10675796  0.79324556  1
  O  O154  1  0.77933089  0.89324204  0.29324556  1
  O  O155  1  0.22066911  0.39324204  0.20675444  1
  O  O156  1  0.02933089  0.95675444  0.64324204  1
  O  O157  1  0.47066911  0.04324556  0.14324204  1
  O  O158  1  0.52933089  0.54324556  0.35675796  1
  O  O159  1  0.97066911  0.45675444  0.85675796  1
  O  O160  1  0.45675444  0.85675796  0.97066911  1
  O  O161  1  0.54324556  0.35675796  0.52933089  1
  O  O162  1  0.04324556  0.14324204  0.47066911  1
  O  O163  1  0.95675444  0.64324204  0.02933089  1
  O  O164  1  0.35675796  0.52933089  0.54324556  1
  O  O165  1  0.85675796  0.97066911  0.45675444  1
  O  O166  1  0.64324204  0.02933089  0.95675444  1
  O  O167  1  0.14324204  0.47066911  0.04324556  1
  O  O168  1  0.20675444  0.77933089  0.10675796  1
  O  O169  1  0.29324556  0.22066911  0.60675796  1
  O  O170  1  0.79324556  0.27933089  0.39324204  1
  O  O171  1  0.70675444  0.72066911  0.89324204  1
  O  O172  1  0.10675796  0.20675444  0.77933089  1
  O  O173  1  0.60675796  0.29324556  0.22066911  1
  O  O174  1  0.39324204  0.79324556  0.27933089  1
  O  O175  1  0.89324204  0.70675444  0.72066911  1
  O  O176  1  0.77933089  0.10675796  0.20675444  1
  O  O177  1  0.22066911  0.60675796  0.29324556  1
  O  O178  1  0.27933089  0.39324204  0.79324556  1
  O  O179  1  0.72066911  0.89324204  0.70675444  1
  O  O180  1  0.52933089  0.45675444  0.14324204  1
  O  O181  1  0.97066911  0.54324556  0.64324204  1
  O  O182  1  0.02933089  0.04324556  0.85675796  1
  O  O183  1  0.47066911  0.95675444  0.35675796  1
  O  O184  1  0.95675444  0.35675796  0.47066911  1
  O  O185  1  0.04324556  0.85675796  0.02933089  1
  O  O186  1  0.54324556  0.64324204  0.97066911  1
  O  O187  1  0.45675444  0.14324204  0.52933089  1
  O  O188  1  0.85675796  0.02933089  0.04324556  1
  O  O189  1  0.35675796  0.47066911  0.95675444  1
  O  O190  1  0.14324204  0.52933089  0.45675444  1
  O  O191  1  0.64324204  0.97066911  0.54324556  1
