# generated using pymatgen
data_LiTiO
_symmetry_space_group_name_H-M   'P 1'
_cell_length_a   3.09023930
_cell_length_b   2.52221411
_cell_length_c   6.87567016
_cell_angle_alpha   113.54925509
_cell_angle_beta   103.24550408
_cell_angle_gamma   95.62657888
_symmetry_Int_Tables_number   1
_chemical_formula_structural   LiTiO
_chemical_formula_sum   'Li1 Ti1 O1'
_cell_volume   46.72874095
_cell_formula_units_Z   1
loop_
 _symmetry_equiv_pos_site_id
 _symmetry_equiv_pos_as_xyz
  1  'x, y, z'
loop_
 _atom_site_type_symbol
 _atom_site_label
 _atom_site_symmetry_multiplicity
 _atom_site_fract_x
 _atom_site_fract_y
 _atom_site_fract_z
 _atom_site_occupancy
  Li  Li0  1  0.00000000  0.00000000  0.00000000  1
  Ti  Ti1  1  0.33300000  0.66700000  0.25000000  1
  O  O2  1  0.66700000  0.33300000  0.50000000  1
