# generated using pymatgen
data_LiB3(Cl3F2)2
_symmetry_space_group_name_H-M   'P 1'
_cell_length_a   8.52939611
_cell_length_b   5.87289538
_cell_length_c   9.45652843
_cell_angle_alpha   90.00000000
_cell_angle_beta   90.00000000
_cell_angle_gamma   90.00000000
_symmetry_Int_Tables_number   1
_chemical_formula_structural   LiB3(Cl3F2)2
_chemical_formula_sum   'Li2 B6 Cl12 F8'
_cell_volume   473.69879528
_cell_formula_units_Z   2
loop_
 _symmetry_equiv_pos_site_id
 _symmetry_equiv_pos_as_xyz
  1  'x, y, z'
loop_
 _atom_site_type_symbol
 _atom_site_label
 _atom_site_symmetry_multiplicity
 _atom_site_fract_x
 _atom_site_fract_y
 _atom_site_fract_z
 _atom_site_occupancy
  B  B0  1  0.00000000  0.00000000  0.00000000  1
  B  B1  1  0.50000000  0.50000000  0.50000000  1
  B  B2  1  0.00000000  0.50000000  0.00000000  1
  B  B3  1  0.50000000  0.00000000  0.50000000  1
  B  B4  1  0.00000000  0.00000000  0.50000000  1
  B  B5  1  0.50000000  0.50000000  -0.00000000  1
  Cl  Cl6  1  0.41080041  0.84507455  0.00000000  1
  Cl  Cl7  1  0.58919959  0.15492545  0.00000000  1
  Cl  Cl8  1  0.08919959  0.34507455  0.50000000  1
  Cl  Cl9  1  0.91080041  0.65492545  0.50000000  1
  Cl  Cl10  1  0.30912029  0.22139794  0.80184881  1
  Cl  Cl11  1  0.69087971  0.77860206  0.80184881  1
  Cl  Cl12  1  0.19087971  0.72139794  0.69815119  1
  Cl  Cl13  1  0.80912029  0.27860206  0.69815119  1
  Cl  Cl14  1  0.69087971  0.77860206  0.19815119  1
  Cl  Cl15  1  0.30912029  0.22139794  0.19815119  1
  Cl  Cl16  1  0.80912029  0.27860206  0.30184881  1
  Cl  Cl17  1  0.19087971  0.72139794  0.30184881  1
  F  F18  1  0.40458123  0.68802362  0.38793174  1
  F  F19  1  -0.40458123  -0.68802362  0.38793174  1
  F  F20  1  0.09541877  1.18802362  0.11206826  1
  F  F21  1  0.90458123  -0.18802362  0.11206826  1
  F  F22  1  -0.40458123  -0.68802362  -0.38793174  1
  F  F23  1  0.40458123  0.68802362  -0.38793174  1
  F  F24  1  0.90458123  -0.18802362  0.88793174  1
  F  F25  1  0.09541877  1.18802362  0.88793174  1
  Li  Li26  1  0.00000000  0.50000000  0.50000000  1
  Li  Li27  1  0.50000000  0.00000000  0.00000000  1
