# generated using pymatgen
data_SnI4
_symmetry_space_group_name_H-M   'P 1'
_cell_length_a   5.86970108
_cell_length_b   11.31519558
_cell_length_c   9.12243649
_cell_angle_alpha   90.00000000
_cell_angle_beta   90.00000000
_cell_angle_gamma   90.00000000
_symmetry_Int_Tables_number   1
_chemical_formula_structural   SnI4
_chemical_formula_sum   'Sn4 I16'
_cell_volume   605.88318352
_cell_formula_units_Z   4
loop_
 _symmetry_equiv_pos_site_id
 _symmetry_equiv_pos_as_xyz
  1  'x, y, z'
loop_
 _atom_site_type_symbol
 _atom_site_label
 _atom_site_symmetry_multiplicity
 _atom_site_fract_x
 _atom_site_fract_y
 _atom_site_fract_z
 _atom_site_occupancy
  I  I0  1  0.53462651  0.61082299  0.80280739  1
  I  I1  1  -0.03462651  -0.61082299  1.30280739  1
  I  I2  1  -0.53462651  1.11082299  -0.80280739  1
  I  I3  1  1.03462651  -0.11082299  -0.30280739  1
  I  I4  1  -0.53462651  -0.61082299  -0.80280739  1
  I  I5  1  1.03462651  0.61082299  -0.30280739  1
  I  I6  1  0.53462651  -0.11082299  0.80280739  1
  I  I7  1  -0.03462651  1.11082299  1.30280739  1
  I  I8  1  0.00000000  0.00000000  0.50000000  1
  I  I9  1  0.50000000  0.00000000  0.00000000  1
  I  I10  1  0.00000000  0.50000000  0.50000000  1
  I  I11  1  0.50000000  0.50000000  0.00000000  1
  I  I12  1  0.00000000  0.00000000  0.00000000  1
  I  I13  1  0.50000000  0.00000000  0.50000000  1
  I  I14  1  0.00000000  0.50000000  0.00000000  1
  I  I15  1  0.50000000  0.50000000  0.50000000  1
  Sn  Sn16  1  0.78558945  0.25000000  0.89626894  1
  Sn  Sn17  1  0.71441055  0.75000000  0.39626894  1
  Sn  Sn18  1  0.21441055  0.75000000  0.10373106  1
  Sn  Sn19  1  0.28558945  0.25000000  0.60373106  1
