# generated using pymatgen
data_Li2S
_symmetry_space_group_name_H-M   'P 1'
_cell_length_a   6.52883142
_cell_length_b   6.52883142
_cell_length_c   15.82765138
_cell_angle_alpha   90.00000000
_cell_angle_beta   90.00000000
_cell_angle_gamma   120.00000000
_symmetry_Int_Tables_number   1
_chemical_formula_structural   Li2S
_chemical_formula_sum   'Li24 S12'
_cell_volume   584.27595881
_cell_formula_units_Z   12
loop_
 _symmetry_equiv_pos_site_id
 _symmetry_equiv_pos_as_xyz
  1  'x, y, z'
loop_
 _atom_site_type_symbol
 _atom_site_label
 _atom_site_symmetry_multiplicity
 _atom_site_fract_x
 _atom_site_fract_y
 _atom_site_fract_z
 _atom_site_occupancy
  Li  Li0  1  0.19663064  0.69521637  0.20013319  1
  Li  Li1  1  0.30478363  0.50141426  0.20013319  1
  Li  Li2  1  0.49858574  0.80336936  0.20013319  1
  Li  Li3  1  0.19663064  0.69521637  0.79986681  1
  Li  Li4  1  0.30478363  0.50141426  0.79986681  1
  Li  Li5  1  0.49858574  0.80336936  0.79986681  1
  Li  Li6  1  0.69521637  0.19663064  0.79986681  1
  Li  Li7  1  0.50141426  0.30478363  0.79986681  1
  Li  Li8  1  0.80336936  0.49858574  0.79986681  1
  Li  Li9  1  0.69521637  0.19663064  0.20013319  1
  Li  Li10  1  0.50141426  0.30478363  0.20013319  1
  Li  Li11  1  0.80336936  0.49858574  0.20013319  1
  Li  Li12  1  0.57117876  0.00000000  0.11066703  1
  Li  Li13  1  0.00000000  0.57117876  0.11066703  1
  Li  Li14  1  0.42882124  0.42882124  0.11066703  1
  Li  Li15  1  0.57117876  0.00000000  0.88933297  1
  Li  Li16  1  0.00000000  0.57117876  0.88933297  1
  Li  Li17  1  0.42882124  0.42882124  0.88933297  1
  Li  Li18  1  0.33333333  0.66666667  0.35871482  1
  Li  Li19  1  0.33333333  0.66666667  0.64128518  1
  Li  Li20  1  0.66666667  0.33333333  0.64128518  1
  Li  Li21  1  0.66666667  0.33333333  0.35871482  1
  Li  Li22  1  0.00000000  0.00000000  0.81605934  1
  Li  Li23  1  0.00000000  0.00000000  0.18394066  1
  S  S24  1  0.85988635  0.31277019  0.63840281  1
  S  S25  1  -0.31277019  0.54711616  0.63840281  1
  S  S26  1  -0.54711616  -0.85988635  0.63840281  1
  S  S27  1  0.85988635  0.31277019  -0.63840281  1
  S  S28  1  -0.31277019  0.54711616  -0.63840281  1
  S  S29  1  -0.54711616  -0.85988635  -0.63840281  1
  S  S30  1  0.31277019  0.85988635  -0.63840281  1
  S  S31  1  0.54711616  -0.31277019  -0.63840281  1
  S  S32  1  -0.85988635  -0.54711616  -0.63840281  1
  S  S33  1  0.31277019  0.85988635  0.63840281  1
  S  S34  1  0.54711616  -0.31277019  0.63840281  1
  S  S35  1  -0.85988635  -0.54711616  0.63840281  1
