# generated using pymatgen
data_Sr2Al8Sb6Te9(SCl12)2
_symmetry_space_group_name_H-M   'P 1'
_cell_length_a   19.15873857
_cell_length_b   19.15873857
_cell_length_c   19.15873857
_cell_angle_alpha   90.00000000
_cell_angle_beta   90.00000000
_cell_angle_gamma   90.00000000
_symmetry_Int_Tables_number   1
_chemical_formula_structural   Sr2Al8Sb6Te9(SCl12)2
_chemical_formula_sum   'Sr16 Al64 Sb48 Te72 S16 Cl192'
_cell_volume   7032.35415704
_cell_formula_units_Z   8
loop_
 _symmetry_equiv_pos_site_id
 _symmetry_equiv_pos_as_xyz
  1  'x, y, z'
loop_
 _atom_site_type_symbol
 _atom_site_label
 _atom_site_symmetry_multiplicity
 _atom_site_fract_x
 _atom_site_fract_y
 _atom_site_fract_z
 _atom_site_occupancy
  Al  Al0  1  0.25000000  0.25000000  0.25000000  1
  Al  Al1  1  0.25000000  0.75000000  0.75000000  1
  Al  Al2  1  0.75000000  0.25000000  0.75000000  1
  Al  Al3  1  0.75000000  0.75000000  0.25000000  1
  Al  Al4  1  0.03362849  0.25000000  0.25000000  1
  Al  Al5  1  0.96637151  0.75000000  0.25000000  1
  Al  Al6  1  0.25000000  0.03362849  0.25000000  1
  Al  Al7  1  0.25000000  0.96637151  0.75000000  1
  Al  Al8  1  0.25000000  0.25000000  0.03362849  1
  Al  Al9  1  0.75000000  0.25000000  0.96637151  1
  Al  Al10  1  0.03362849  0.75000000  0.75000000  1
  Al  Al11  1  0.96637151  0.25000000  0.75000000  1
  Al  Al12  1  0.25000000  0.53362849  0.75000000  1
  Al  Al13  1  0.25000000  0.46637151  0.25000000  1
  Al  Al14  1  0.25000000  0.75000000  0.53362849  1
  Al  Al15  1  0.75000000  0.75000000  0.46637151  1
  Al  Al16  1  0.53362849  0.25000000  0.75000000  1
  Al  Al17  1  0.46637151  0.75000000  0.75000000  1
  Al  Al18  1  0.75000000  0.03362849  0.75000000  1
  Al  Al19  1  0.75000000  0.96637151  0.25000000  1
  Al  Al20  1  0.75000000  0.25000000  0.53362849  1
  Al  Al21  1  0.25000000  0.25000000  0.46637151  1
  Al  Al22  1  0.53362849  0.75000000  0.25000000  1
  Al  Al23  1  0.46637151  0.25000000  0.25000000  1
  Al  Al24  1  0.75000000  0.53362849  0.25000000  1
  Al  Al25  1  0.75000000  0.46637151  0.75000000  1
  Al  Al26  1  0.75000000  0.75000000  0.03362849  1
  Al  Al27  1  0.25000000  0.75000000  0.96637151  1
  Al  Al28  1  0.65118779  0.00000000  0.00000000  1
  Al  Al29  1  0.34881221  -0.00000000  -0.00000000  1
  Al  Al30  1  0.00000000  0.65118779  0.00000000  1
  Al  Al31  1  0.00000000  0.34881221  -0.00000000  1
  Al  Al32  1  0.00000000  0.00000000  0.65118779  1
  Al  Al33  1  0.00000000  0.00000000  0.34881221  1
  Al  Al34  1  0.65118779  0.50000000  0.50000000  1
  Al  Al35  1  0.34881221  0.50000000  0.50000000  1
  Al  Al36  1  0.00000000  0.15118779  0.50000000  1
  Al  Al37  1  0.00000000  0.84881221  0.50000000  1
  Al  Al38  1  0.00000000  0.50000000  0.15118779  1
  Al  Al39  1  0.00000000  0.50000000  0.84881221  1
  Al  Al40  1  0.15118779  0.00000000  0.50000000  1
  Al  Al41  1  0.84881221  0.00000000  0.50000000  1
  Al  Al42  1  0.50000000  0.65118779  0.50000000  1
  Al  Al43  1  0.50000000  0.34881221  0.50000000  1
  Al  Al44  1  0.50000000  0.00000000  0.15118779  1
  Al  Al45  1  0.50000000  0.00000000  0.84881221  1
  Al  Al46  1  0.15118779  0.50000000  0.00000000  1
  Al  Al47  1  0.84881221  0.50000000  0.00000000  1
  Al  Al48  1  0.50000000  0.15118779  0.00000000  1
  Al  Al49  1  0.50000000  0.84881221  0.00000000  1
  Al  Al50  1  0.50000000  0.50000000  0.65118779  1
  Al  Al51  1  0.50000000  0.50000000  0.34881221  1
  Al  Al52  1  0.75000000  0.75000000  0.75000000  1
  Al  Al53  1  0.75000000  0.25000000  0.25000000  1
  Al  Al54  1  0.25000000  0.75000000  0.25000000  1
  Al  Al55  1  0.25000000  0.25000000  0.75000000  1
  Al  Al56  1  0.50000000  0.50000000  0.50000000  1
  Al  Al57  1  0.50000000  0.00000000  0.00000000  1
  Al  Al58  1  0.00000000  0.50000000  0.00000000  1
  Al  Al59  1  0.00000000  0.00000000  0.50000000  1
  Al  Al60  1  0.00000000  0.00000000  0.00000000  1
  Al  Al61  1  0.00000000  0.50000000  0.50000000  1
  Al  Al62  1  0.50000000  0.00000000  0.50000000  1
  Al  Al63  1  0.50000000  0.50000000  0.00000000  1
  Cl  Cl64  1  0.40430827  0.31999059  0.26494153  1
  Cl  Cl65  1  -0.40430827  -0.31999059  0.26494153  1
  Cl  Cl66  1  -0.40430827  0.31999059  -0.26494153  1
  Cl  Cl67  1  0.40430827  -0.31999059  -0.26494153  1
  Cl  Cl68  1  0.26494153  0.40430827  0.31999059  1
  Cl  Cl69  1  0.26494153  -0.40430827  -0.31999059  1
  Cl  Cl70  1  -0.26494153  -0.40430827  0.31999059  1
  Cl  Cl71  1  -0.26494153  0.40430827  -0.31999059  1
  Cl  Cl72  1  0.31999059  0.26494153  0.40430827  1
  Cl  Cl73  1  -0.31999059  0.26494153  -0.40430827  1
  Cl  Cl74  1  0.31999059  -0.26494153  -0.40430827  1
  Cl  Cl75  1  -0.31999059  -0.26494153  0.40430827  1
  Cl  Cl76  1  0.31999059  0.40430827  0.26494153  1
  Cl  Cl77  1  -0.31999059  -0.40430827  0.26494153  1
  Cl  Cl78  1  0.31999059  -0.40430827  -0.26494153  1
  Cl  Cl79  1  -0.31999059  0.40430827  -0.26494153  1
  Cl  Cl80  1  0.40430827  0.26494153  0.31999059  1
  Cl  Cl81  1  -0.40430827  0.26494153  -0.31999059  1
  Cl  Cl82  1  -0.40430827  -0.26494153  0.31999059  1
  Cl  Cl83  1  0.40430827  -0.26494153  -0.31999059  1
  Cl  Cl84  1  0.26494153  0.31999059  0.40430827  1
  Cl  Cl85  1  0.26494153  -0.31999059  -0.40430827  1
  Cl  Cl86  1  -0.26494153  0.31999059  -0.40430827  1
  Cl  Cl87  1  -0.26494153  -0.31999059  0.40430827  1
  Cl  Cl88  1  0.40430827  0.81999059  0.76494153  1
  Cl  Cl89  1  -0.40430827  0.18000941  0.76494153  1
  Cl  Cl90  1  -0.40430827  0.81999059  0.23505847  1
  Cl  Cl91  1  0.40430827  0.18000941  0.23505847  1
  Cl  Cl92  1  0.26494153  0.90430827  0.81999059  1
  Cl  Cl93  1  0.26494153  0.09569173  0.18000941  1
  Cl  Cl94  1  -0.26494153  0.09569173  0.81999059  1
  Cl  Cl95  1  -0.26494153  0.90430827  0.18000941  1
  Cl  Cl96  1  0.31999059  0.76494153  0.90430827  1
  Cl  Cl97  1  -0.31999059  0.76494153  0.09569173  1
  Cl  Cl98  1  0.31999059  0.23505847  0.09569173  1
  Cl  Cl99  1  -0.31999059  0.23505847  0.90430827  1
  Cl  Cl100  1  0.31999059  0.90430827  0.76494153  1
  Cl  Cl101  1  -0.31999059  0.09569173  0.76494153  1
  Cl  Cl102  1  0.31999059  0.09569173  0.23505847  1
  Cl  Cl103  1  -0.31999059  0.90430827  0.23505847  1
  Cl  Cl104  1  0.40430827  0.76494153  0.81999059  1
  Cl  Cl105  1  -0.40430827  0.76494153  0.18000941  1
  Cl  Cl106  1  -0.40430827  0.23505847  0.81999059  1
  Cl  Cl107  1  0.40430827  0.23505847  0.18000941  1
  Cl  Cl108  1  0.26494153  0.81999059  0.90430827  1
  Cl  Cl109  1  0.26494153  0.18000941  0.09569173  1
  Cl  Cl110  1  -0.26494153  0.81999059  0.09569173  1
  Cl  Cl111  1  -0.26494153  0.18000941  0.90430827  1
  Cl  Cl112  1  0.90430827  0.31999059  0.76494153  1
  Cl  Cl113  1  0.09569173  -0.31999059  0.76494153  1
  Cl  Cl114  1  0.09569173  0.31999059  0.23505847  1
  Cl  Cl115  1  0.90430827  -0.31999059  0.23505847  1
  Cl  Cl116  1  0.76494153  0.40430827  0.81999059  1
  Cl  Cl117  1  0.76494153  -0.40430827  0.18000941  1
  Cl  Cl118  1  0.23505847  -0.40430827  0.81999059  1
  Cl  Cl119  1  0.23505847  0.40430827  0.18000941  1
  Cl  Cl120  1  0.81999059  0.26494153  0.90430827  1
  Cl  Cl121  1  0.18000941  0.26494153  0.09569173  1
  Cl  Cl122  1  0.81999059  -0.26494153  0.09569173  1
  Cl  Cl123  1  0.18000941  -0.26494153  0.90430827  1
  Cl  Cl124  1  0.81999059  0.40430827  0.76494153  1
  Cl  Cl125  1  0.18000941  -0.40430827  0.76494153  1
  Cl  Cl126  1  0.81999059  -0.40430827  0.23505847  1
  Cl  Cl127  1  0.18000941  0.40430827  0.23505847  1
  Cl  Cl128  1  0.90430827  0.26494153  0.81999059  1
  Cl  Cl129  1  0.09569173  0.26494153  0.18000941  1
  Cl  Cl130  1  0.09569173  -0.26494153  0.81999059  1
  Cl  Cl131  1  0.90430827  -0.26494153  0.18000941  1
  Cl  Cl132  1  0.76494153  0.31999059  0.90430827  1
  Cl  Cl133  1  0.76494153  -0.31999059  0.09569173  1
  Cl  Cl134  1  0.23505847  0.31999059  0.09569173  1
  Cl  Cl135  1  0.23505847  -0.31999059  0.90430827  1
  Cl  Cl136  1  0.90430827  0.81999059  0.26494153  1
  Cl  Cl137  1  0.09569173  0.18000941  0.26494153  1
  Cl  Cl138  1  0.09569173  0.81999059  -0.26494153  1
  Cl  Cl139  1  0.90430827  0.18000941  -0.26494153  1
  Cl  Cl140  1  0.76494153  0.90430827  0.31999059  1
  Cl  Cl141  1  0.76494153  0.09569173  -0.31999059  1
  Cl  Cl142  1  0.23505847  0.09569173  0.31999059  1
  Cl  Cl143  1  0.23505847  0.90430827  -0.31999059  1
  Cl  Cl144  1  0.81999059  0.76494153  0.40430827  1
  Cl  Cl145  1  0.18000941  0.76494153  -0.40430827  1
  Cl  Cl146  1  0.81999059  0.23505847  -0.40430827  1
  Cl  Cl147  1  0.18000941  0.23505847  0.40430827  1
  Cl  Cl148  1  0.81999059  0.90430827  0.26494153  1
  Cl  Cl149  1  0.18000941  0.09569173  0.26494153  1
  Cl  Cl150  1  0.81999059  0.09569173  -0.26494153  1
  Cl  Cl151  1  0.18000941  0.90430827  -0.26494153  1
  Cl  Cl152  1  0.90430827  0.76494153  0.31999059  1
  Cl  Cl153  1  0.09569173  0.76494153  -0.31999059  1
  Cl  Cl154  1  0.09569173  0.23505847  0.31999059  1
  Cl  Cl155  1  0.90430827  0.23505847  -0.31999059  1
  Cl  Cl156  1  0.76494153  0.81999059  0.40430827  1
  Cl  Cl157  1  0.76494153  0.18000941  -0.40430827  1
  Cl  Cl158  1  0.23505847  0.81999059  -0.40430827  1
  Cl  Cl159  1  0.23505847  0.18000941  0.40430827  1
  Cl  Cl160  1  0.27491478  0.62721081  0.91872433  1
  Cl  Cl161  1  0.72508522  0.37278919  0.91872433  1
  Cl  Cl162  1  0.72508522  0.62721081  0.08127567  1
  Cl  Cl163  1  0.27491478  0.37278919  0.08127567  1
  Cl  Cl164  1  0.91872433  0.27491478  0.62721081  1
  Cl  Cl165  1  0.91872433  0.72508522  0.37278919  1
  Cl  Cl166  1  0.08127567  0.72508522  0.62721081  1
  Cl  Cl167  1  0.08127567  0.27491478  0.37278919  1
  Cl  Cl168  1  0.62721081  0.91872433  0.27491478  1
  Cl  Cl169  1  0.37278919  0.91872433  0.72508522  1
  Cl  Cl170  1  0.62721081  0.08127567  0.72508522  1
  Cl  Cl171  1  0.37278919  0.08127567  0.27491478  1
  Cl  Cl172  1  0.62721081  0.27491478  0.91872433  1
  Cl  Cl173  1  0.37278919  0.72508522  0.91872433  1
  Cl  Cl174  1  0.62721081  0.72508522  0.08127567  1
  Cl  Cl175  1  0.37278919  0.27491478  0.08127567  1
  Cl  Cl176  1  0.27491478  0.91872433  0.62721081  1
  Cl  Cl177  1  0.72508522  0.91872433  0.37278919  1
  Cl  Cl178  1  0.72508522  0.08127567  0.62721081  1
  Cl  Cl179  1  0.27491478  0.08127567  0.37278919  1
  Cl  Cl180  1  0.91872433  0.62721081  0.27491478  1
  Cl  Cl181  1  0.91872433  0.37278919  0.72508522  1
  Cl  Cl182  1  0.08127567  0.62721081  0.72508522  1
  Cl  Cl183  1  0.08127567  0.37278919  0.27491478  1
  Cl  Cl184  1  0.27491478  0.12721081  0.41872433  1
  Cl  Cl185  1  0.72508522  0.87278919  0.41872433  1
  Cl  Cl186  1  0.72508522  0.12721081  0.58127567  1
  Cl  Cl187  1  0.27491478  0.87278919  0.58127567  1
  Cl  Cl188  1  0.91872433  0.77491478  0.12721081  1
  Cl  Cl189  1  0.91872433  0.22508522  0.87278919  1
  Cl  Cl190  1  0.08127567  0.22508522  0.12721081  1
  Cl  Cl191  1  0.08127567  0.77491478  0.87278919  1
  Cl  Cl192  1  0.62721081  0.41872433  0.77491478  1
  Cl  Cl193  1  0.37278919  0.41872433  0.22508522  1
  Cl  Cl194  1  0.62721081  0.58127567  0.22508522  1
  Cl  Cl195  1  0.37278919  0.58127567  0.77491478  1
  Cl  Cl196  1  0.62721081  0.77491478  0.41872433  1
  Cl  Cl197  1  0.37278919  0.22508522  0.41872433  1
  Cl  Cl198  1  0.62721081  0.22508522  0.58127567  1
  Cl  Cl199  1  0.37278919  0.77491478  0.58127567  1
  Cl  Cl200  1  0.27491478  0.41872433  0.12721081  1
  Cl  Cl201  1  0.72508522  0.41872433  0.87278919  1
  Cl  Cl202  1  0.72508522  0.58127567  0.12721081  1
  Cl  Cl203  1  0.27491478  0.58127567  0.87278919  1
  Cl  Cl204  1  0.91872433  0.12721081  0.77491478  1
  Cl  Cl205  1  0.91872433  0.87278919  0.22508522  1
  Cl  Cl206  1  0.08127567  0.12721081  0.22508522  1
  Cl  Cl207  1  0.08127567  0.87278919  0.77491478  1
  Cl  Cl208  1  0.77491478  0.62721081  0.41872433  1
  Cl  Cl209  1  0.22508522  0.37278919  0.41872433  1
  Cl  Cl210  1  0.22508522  0.62721081  0.58127567  1
  Cl  Cl211  1  0.77491478  0.37278919  0.58127567  1
  Cl  Cl212  1  0.41872433  0.27491478  0.12721081  1
  Cl  Cl213  1  0.41872433  0.72508522  0.87278919  1
  Cl  Cl214  1  0.58127567  0.72508522  0.12721081  1
  Cl  Cl215  1  0.58127567  0.27491478  0.87278919  1
  Cl  Cl216  1  0.12721081  0.91872433  0.77491478  1
  Cl  Cl217  1  0.87278919  0.91872433  0.22508522  1
  Cl  Cl218  1  0.12721081  0.08127567  0.22508522  1
  Cl  Cl219  1  0.87278919  0.08127567  0.77491478  1
  Cl  Cl220  1  0.12721081  0.27491478  0.41872433  1
  Cl  Cl221  1  0.87278919  0.72508522  0.41872433  1
  Cl  Cl222  1  0.12721081  0.72508522  0.58127567  1
  Cl  Cl223  1  0.87278919  0.27491478  0.58127567  1
  Cl  Cl224  1  0.77491478  0.91872433  0.12721081  1
  Cl  Cl225  1  0.22508522  0.91872433  0.87278919  1
  Cl  Cl226  1  0.22508522  0.08127567  0.12721081  1
  Cl  Cl227  1  0.77491478  0.08127567  0.87278919  1
  Cl  Cl228  1  0.41872433  0.62721081  0.77491478  1
  Cl  Cl229  1  0.41872433  0.37278919  0.22508522  1
  Cl  Cl230  1  0.58127567  0.62721081  0.22508522  1
  Cl  Cl231  1  0.58127567  0.37278919  0.77491478  1
  Cl  Cl232  1  0.77491478  0.12721081  0.91872433  1
  Cl  Cl233  1  0.22508522  0.87278919  0.91872433  1
  Cl  Cl234  1  0.22508522  0.12721081  0.08127567  1
  Cl  Cl235  1  0.77491478  0.87278919  0.08127567  1
  Cl  Cl236  1  0.41872433  0.77491478  0.62721081  1
  Cl  Cl237  1  0.41872433  0.22508522  0.37278919  1
  Cl  Cl238  1  0.58127567  0.22508522  0.62721081  1
  Cl  Cl239  1  0.58127567  0.77491478  0.37278919  1
  Cl  Cl240  1  0.12721081  0.41872433  0.27491478  1
  Cl  Cl241  1  0.87278919  0.41872433  0.72508522  1
  Cl  Cl242  1  0.12721081  0.58127567  0.72508522  1
  Cl  Cl243  1  0.87278919  0.58127567  0.27491478  1
  Cl  Cl244  1  0.12721081  0.77491478  0.91872433  1
  Cl  Cl245  1  0.87278919  0.22508522  0.91872433  1
  Cl  Cl246  1  0.12721081  0.22508522  0.08127567  1
  Cl  Cl247  1  0.87278919  0.77491478  0.08127567  1
  Cl  Cl248  1  0.77491478  0.41872433  0.62721081  1
  Cl  Cl249  1  0.22508522  0.41872433  0.37278919  1
  Cl  Cl250  1  0.22508522  0.58127567  0.62721081  1
  Cl  Cl251  1  0.77491478  0.58127567  0.37278919  1
  Cl  Cl252  1  0.41872433  0.12721081  0.27491478  1
  Cl  Cl253  1  0.41872433  0.87278919  0.72508522  1
  Cl  Cl254  1  0.58127567  0.12721081  0.72508522  1
  Cl  Cl255  1  0.58127567  0.87278919  0.27491478  1
  S  S256  1  0.06426397  0.06426397  0.06426397  1
  S  S257  1  0.93573603  0.93573603  0.06426397  1
  S  S258  1  0.93573603  0.06426397  0.93573603  1
  S  S259  1  0.06426397  0.93573603  0.93573603  1
  S  S260  1  0.06426397  0.56426397  0.56426397  1
  S  S261  1  0.93573603  0.43573603  0.56426397  1
  S  S262  1  0.93573603  0.56426397  0.43573603  1
  S  S263  1  0.06426397  0.43573603  0.43573603  1
  S  S264  1  0.56426397  0.06426397  0.56426397  1
  S  S265  1  0.43573603  0.93573603  0.56426397  1
  S  S266  1  0.43573603  0.06426397  0.43573603  1
  S  S267  1  0.56426397  0.93573603  0.43573603  1
  S  S268  1  0.56426397  0.56426397  0.06426397  1
  S  S269  1  0.43573603  0.43573603  0.06426397  1
  S  S270  1  0.43573603  0.56426397  0.93573603  1
  S  S271  1  0.56426397  0.43573603  0.93573603  1
  Sb  Sb272  1  0.16780940  0.16780940  0.04207217  1
  Sb  Sb273  1  0.83219060  0.83219060  0.04207217  1
  Sb  Sb274  1  0.83219060  0.16780940  0.95792783  1
  Sb  Sb275  1  0.16780940  0.83219060  0.95792783  1
  Sb  Sb276  1  0.04207217  0.16780940  0.16780940  1
  Sb  Sb277  1  0.04207217  0.83219060  0.83219060  1
  Sb  Sb278  1  0.95792783  0.83219060  0.16780940  1
  Sb  Sb279  1  0.95792783  0.16780940  0.83219060  1
  Sb  Sb280  1  0.16780940  0.04207217  0.16780940  1
  Sb  Sb281  1  0.83219060  0.04207217  0.83219060  1
  Sb  Sb282  1  0.16780940  0.95792783  0.83219060  1
  Sb  Sb283  1  0.83219060  0.95792783  0.16780940  1
  Sb  Sb284  1  0.16780940  0.66780940  0.54207217  1
  Sb  Sb285  1  0.83219060  0.33219060  0.54207217  1
  Sb  Sb286  1  0.83219060  0.66780940  0.45792783  1
  Sb  Sb287  1  0.16780940  0.33219060  0.45792783  1
  Sb  Sb288  1  0.04207217  0.66780940  0.66780940  1
  Sb  Sb289  1  0.04207217  0.33219060  0.33219060  1
  Sb  Sb290  1  0.95792783  0.33219060  0.66780940  1
  Sb  Sb291  1  0.95792783  0.66780940  0.33219060  1
  Sb  Sb292  1  0.16780940  0.54207217  0.66780940  1
  Sb  Sb293  1  0.83219060  0.54207217  0.33219060  1
  Sb  Sb294  1  0.16780940  0.45792783  0.33219060  1
  Sb  Sb295  1  0.83219060  0.45792783  0.66780940  1
  Sb  Sb296  1  0.66780940  0.16780940  0.54207217  1
  Sb  Sb297  1  0.33219060  0.83219060  0.54207217  1
  Sb  Sb298  1  0.33219060  0.16780940  0.45792783  1
  Sb  Sb299  1  0.66780940  0.83219060  0.45792783  1
  Sb  Sb300  1  0.54207217  0.16780940  0.66780940  1
  Sb  Sb301  1  0.54207217  0.83219060  0.33219060  1
  Sb  Sb302  1  0.45792783  0.83219060  0.66780940  1
  Sb  Sb303  1  0.45792783  0.16780940  0.33219060  1
  Sb  Sb304  1  0.66780940  0.04207217  0.66780940  1
  Sb  Sb305  1  0.33219060  0.04207217  0.33219060  1
  Sb  Sb306  1  0.66780940  0.95792783  0.33219060  1
  Sb  Sb307  1  0.33219060  0.95792783  0.66780940  1
  Sb  Sb308  1  0.66780940  0.66780940  0.04207217  1
  Sb  Sb309  1  0.33219060  0.33219060  0.04207217  1
  Sb  Sb310  1  0.33219060  0.66780940  0.95792783  1
  Sb  Sb311  1  0.66780940  0.33219060  0.95792783  1
  Sb  Sb312  1  0.54207217  0.66780940  0.16780940  1
  Sb  Sb313  1  0.54207217  0.33219060  0.83219060  1
  Sb  Sb314  1  0.45792783  0.33219060  0.16780940  1
  Sb  Sb315  1  0.45792783  0.66780940  0.83219060  1
  Sb  Sb316  1  0.66780940  0.54207217  0.16780940  1
  Sb  Sb317  1  0.33219060  0.54207217  0.83219060  1
  Sb  Sb318  1  0.66780940  0.45792783  0.83219060  1
  Sb  Sb319  1  0.33219060  0.45792783  0.16780940  1
  Sr  Sr320  1  0.91112870  0.91112870  0.91112870  1
  Sr  Sr321  1  0.08887130  0.08887130  0.91112870  1
  Sr  Sr322  1  0.08887130  0.91112870  0.08887130  1
  Sr  Sr323  1  0.91112870  0.08887130  0.08887130  1
  Sr  Sr324  1  0.91112870  0.41112870  0.41112870  1
  Sr  Sr325  1  0.08887130  0.58887130  0.41112870  1
  Sr  Sr326  1  0.08887130  0.41112870  0.58887130  1
  Sr  Sr327  1  0.91112870  0.58887130  0.58887130  1
  Sr  Sr328  1  0.41112870  0.91112870  0.41112870  1
  Sr  Sr329  1  0.58887130  0.08887130  0.41112870  1
  Sr  Sr330  1  0.58887130  0.91112870  0.58887130  1
  Sr  Sr331  1  0.41112870  0.08887130  0.58887130  1
  Sr  Sr332  1  0.41112870  0.41112870  0.91112870  1
  Sr  Sr333  1  0.58887130  0.58887130  0.91112870  1
  Sr  Sr334  1  0.58887130  0.41112870  0.08887130  1
  Sr  Sr335  1  0.41112870  0.58887130  0.08887130  1
  Te  Te336  1  0.45596127  0.45596127  0.45596127  1
  Te  Te337  1  0.54403873  0.54403873  0.45596127  1
  Te  Te338  1  0.54403873  0.45596127  0.54403873  1
  Te  Te339  1  0.45596127  0.54403873  0.54403873  1
  Te  Te340  1  0.45596127  0.95596127  0.95596127  1
  Te  Te341  1  0.54403873  0.04403873  0.95596127  1
  Te  Te342  1  0.54403873  0.95596127  0.04403873  1
  Te  Te343  1  0.45596127  0.04403873  0.04403873  1
  Te  Te344  1  0.95596127  0.45596127  0.95596127  1
  Te  Te345  1  0.04403873  0.54403873  0.95596127  1
  Te  Te346  1  0.04403873  0.45596127  0.04403873  1
  Te  Te347  1  0.95596127  0.54403873  0.04403873  1
  Te  Te348  1  0.95596127  0.95596127  0.45596127  1
  Te  Te349  1  0.04403873  0.04403873  0.45596127  1
  Te  Te350  1  0.04403873  0.95596127  0.54403873  1
  Te  Te351  1  0.95596127  0.04403873  0.54403873  1
  Te  Te352  1  0.61089839  0.61089839  0.61089839  1
  Te  Te353  1  0.38910161  0.38910161  0.61089839  1
  Te  Te354  1  0.38910161  0.61089839  0.38910161  1
  Te  Te355  1  0.61089839  0.38910161  0.38910161  1
  Te  Te356  1  0.61089839  0.11089839  0.11089839  1
  Te  Te357  1  0.38910161  0.88910161  0.11089839  1
  Te  Te358  1  0.38910161  0.11089839  0.88910161  1
  Te  Te359  1  0.61089839  0.88910161  0.88910161  1
  Te  Te360  1  0.11089839  0.61089839  0.11089839  1
  Te  Te361  1  0.88910161  0.38910161  0.11089839  1
  Te  Te362  1  0.88910161  0.61089839  0.88910161  1
  Te  Te363  1  0.11089839  0.38910161  0.88910161  1
  Te  Te364  1  0.11089839  0.11089839  0.61089839  1
  Te  Te365  1  0.88910161  0.88910161  0.61089839  1
  Te  Te366  1  0.88910161  0.11089839  0.38910161  1
  Te  Te367  1  0.11089839  0.88910161  0.38910161  1
  Te  Te368  1  0.82109686  0.25000000  0.25000000  1
  Te  Te369  1  0.17890314  0.75000000  0.25000000  1
  Te  Te370  1  0.25000000  0.82109686  0.25000000  1
  Te  Te371  1  0.25000000  0.17890314  0.75000000  1
  Te  Te372  1  0.25000000  0.25000000  0.82109686  1
  Te  Te373  1  0.75000000  0.25000000  0.17890314  1
  Te  Te374  1  0.82109686  0.75000000  0.75000000  1
  Te  Te375  1  0.17890314  0.25000000  0.75000000  1
  Te  Te376  1  0.25000000  0.32109686  0.75000000  1
  Te  Te377  1  0.25000000  0.67890314  0.25000000  1
  Te  Te378  1  0.25000000  0.75000000  0.32109686  1
  Te  Te379  1  0.75000000  0.75000000  0.67890314  1
  Te  Te380  1  0.32109686  0.25000000  0.75000000  1
  Te  Te381  1  0.67890314  0.75000000  0.75000000  1
  Te  Te382  1  0.75000000  0.82109686  0.75000000  1
  Te  Te383  1  0.75000000  0.17890314  0.25000000  1
  Te  Te384  1  0.75000000  0.25000000  0.32109686  1
  Te  Te385  1  0.25000000  0.25000000  0.67890314  1
  Te  Te386  1  0.32109686  0.75000000  0.25000000  1
  Te  Te387  1  0.67890314  0.25000000  0.25000000  1
  Te  Te388  1  0.75000000  0.32109686  0.25000000  1
  Te  Te389  1  0.75000000  0.67890314  0.75000000  1
  Te  Te390  1  0.75000000  0.75000000  0.82109686  1
  Te  Te391  1  0.25000000  0.75000000  0.17890314  1
  Te  Te392  1  0.17039047  0.17039047  0.17039047  1
  Te  Te393  1  0.82960953  0.82960953  0.17039047  1
  Te  Te394  1  0.82960953  0.17039047  0.82960953  1
  Te  Te395  1  0.17039047  0.82960953  0.82960953  1
  Te  Te396  1  0.17039047  0.67039047  0.67039047  1
  Te  Te397  1  0.82960953  0.32960953  0.67039047  1
  Te  Te398  1  0.82960953  0.67039047  0.32960953  1
  Te  Te399  1  0.17039047  0.32960953  0.32960953  1
  Te  Te400  1  0.67039047  0.17039047  0.67039047  1
  Te  Te401  1  0.32960953  0.82960953  0.67039047  1
  Te  Te402  1  0.32960953  0.17039047  0.32960953  1
  Te  Te403  1  0.67039047  0.82960953  0.32960953  1
  Te  Te404  1  0.67039047  0.67039047  0.17039047  1
  Te  Te405  1  0.32960953  0.32960953  0.17039047  1
  Te  Te406  1  0.32960953  0.67039047  0.82960953  1
  Te  Te407  1  0.67039047  0.32960953  0.82960953  1
