# generated using pymatgen
data_Li2O
_symmetry_space_group_name_H-M   'P 1'
_cell_length_a   12.91116386
_cell_length_b   12.91116386
_cell_length_c   6.60803663
_cell_angle_alpha   90.00000000
_cell_angle_beta   90.00000000
_cell_angle_gamma   90.00000000
_symmetry_Int_Tables_number   1
_chemical_formula_structural   Li2O
_chemical_formula_sum   'Li32 O16'
_cell_volume   1101.54749639
_cell_formula_units_Z   16
loop_
 _symmetry_equiv_pos_site_id
 _symmetry_equiv_pos_as_xyz
  1  'x, y, z'
loop_
 _atom_site_type_symbol
 _atom_site_label
 _atom_site_symmetry_multiplicity
 _atom_site_fract_x
 _atom_site_fract_y
 _atom_site_fract_z
 _atom_site_occupancy
  Li  Li0  1  0.65739158  0.43204291  0.50090716  1
  Li  Li1  1  -0.15739158  -0.43204291  1.00090716  1
  Li  Li2  1  -0.18204291  1.40739158  0.75090716  1
  Li  Li3  1  0.68204291  -0.40739158  1.25090716  1
  Li  Li4  1  -0.15739158  0.43204291  -0.50090716  1
  Li  Li5  1  0.65739158  -0.43204291  -0.00090716  1
  Li  Li6  1  0.68204291  1.40739158  0.24909284  1
  Li  Li7  1  -0.18204291  -0.40739158  -0.25090716  1
  Li  Li8  1  -0.65739158  -0.43204291  -0.50090716  1
  Li  Li9  1  1.15739158  0.43204291  -0.00090716  1
  Li  Li10  1  1.18204291  -0.40739158  0.24909284  1
  Li  Li11  1  0.31795709  1.40739158  -0.25090716  1
  Li  Li12  1  1.15739158  -0.43204291  0.50090716  1
  Li  Li13  1  -0.65739158  0.43204291  1.00090716  1
  Li  Li14  1  0.31795709  -0.40739158  0.75090716  1
  Li  Li15  1  1.18204291  1.40739158  1.25090716  1
  Li  Li16  1  1.15739158  0.93204291  1.00090716  1
  Li  Li17  1  0.34260842  0.06795709  1.50090716  1
  Li  Li18  1  0.31795709  1.90739158  1.25090716  1
  Li  Li19  1  1.18204291  0.09260842  1.75090716  1
  Li  Li20  1  0.34260842  0.93204291  -0.00090716  1
  Li  Li21  1  1.15739158  0.06795709  0.49909284  1
  Li  Li22  1  1.18204291  1.90739158  0.74909284  1
  Li  Li23  1  0.31795709  0.09260842  0.24909284  1
  Li  Li24  1  -0.15739158  0.06795709  -0.00090716  1
  Li  Li25  1  1.65739158  0.93204291  0.49909284  1
  Li  Li26  1  1.68204291  0.09260842  0.74909284  1
  Li  Li27  1  0.81795709  1.90739158  0.24909284  1
  Li  Li28  1  1.65739158  0.06795709  1.00090716  1
  Li  Li29  1  -0.15739158  0.93204291  1.50090716  1
  Li  Li30  1  0.81795709  0.09260842  1.25090716  1
  Li  Li31  1  1.68204291  1.90739158  1.75090716  1
  O  O32  1  0.12032470  0.00000000  0.25000000  1
  O  O33  1  0.37967530  0.00000000  0.75000000  1
  O  O34  1  0.25000000  0.87032470  0.50000000  1
  O  O35  1  0.25000000  0.12967530  0.00000000  1
  O  O36  1  0.87967530  0.00000000  0.75000000  1
  O  O37  1  0.62032470  0.00000000  0.25000000  1
  O  O38  1  0.75000000  0.12967530  0.50000000  1
  O  O39  1  0.75000000  0.87032470  0.00000000  1
  O  O40  1  0.62032470  0.50000000  0.75000000  1
  O  O41  1  0.87967530  0.50000000  0.25000000  1
  O  O42  1  0.75000000  0.37032470  0.00000000  1
  O  O43  1  0.75000000  0.62967530  0.50000000  1
  O  O44  1  0.37967530  0.50000000  0.25000000  1
  O  O45  1  0.12032470  0.50000000  0.75000000  1
  O  O46  1  0.25000000  0.62967530  0.00000000  1
  O  O47  1  0.25000000  0.37032470  0.50000000  1
