# generated using pymatgen
data_LiCu3PSeO2
_symmetry_space_group_name_H-M   'P 1'
_cell_length_a   4.01781936
_cell_length_b   4.44288443
_cell_length_c   3.63357847
_cell_angle_alpha   93.64504360
_cell_angle_beta   86.24414046
_cell_angle_gamma   86.30139404
_symmetry_Int_Tables_number   1
_chemical_formula_structural   LiCu3PSeO2
_chemical_formula_sum   'Li1 Cu3 P1 Se1 O2'
_cell_volume   64.43794142
_cell_formula_units_Z   1
loop_
 _symmetry_equiv_pos_site_id
 _symmetry_equiv_pos_as_xyz
  1  'x, y, z'
loop_
 _atom_site_type_symbol
 _atom_site_label
 _atom_site_symmetry_multiplicity
 _atom_site_fract_x
 _atom_site_fract_y
 _atom_site_fract_z
 _atom_site_occupancy
  Li  Li0  1  0.00000000  0.00000000  0.00000000  1
  Cu  Cu1  1  0.50000000  0.50000000  0.50000000  1
  Cu  Cu2  1  0.50000000  0.50000000  0.00000000  1
  Cu  Cu3  1  0.50000000  0.00000000  0.50000000  1
  Se  Se4  1  0.00000000  0.50000000  0.50000000  1
  P  P5  1  0.71015860  0.45817163  0.24537417  1
  O  O6  1  0.55507839  0.99931887  0.37645267  1
  O  O7  1  0.36087516  0.63612587  0.95808119  1
