# generated using pymatgen
data_NaI
_symmetry_space_group_name_H-M   'P 1'
_cell_length_a   12.25118804
_cell_length_b   12.25118804
_cell_length_c   12.25118804
_cell_angle_alpha   90.00000000
_cell_angle_beta   90.00000000
_cell_angle_gamma   90.00000000
_symmetry_Int_Tables_number   1
_chemical_formula_structural   NaI
_chemical_formula_sum   'Na32 I32'
_cell_volume   1838.80051573
_cell_formula_units_Z   32
loop_
 _symmetry_equiv_pos_site_id
 _symmetry_equiv_pos_as_xyz
  1  'x, y, z'
loop_
 _atom_site_type_symbol
 _atom_site_label
 _atom_site_symmetry_multiplicity
 _atom_site_fract_x
 _atom_site_fract_y
 _atom_site_fract_z
 _atom_site_occupancy
  I  I0  1  0.28894776  0.00000000  0.25000000  1
  I  I1  1  0.21105224  -0.00000000  0.75000000  1
  I  I2  1  0.25000000  0.28894776  0.00000000  1
  I  I3  1  0.75000000  0.21105224  0.00000000  1
  I  I4  1  0.00000000  0.25000000  0.28894776  1
  I  I5  1  0.00000000  0.75000000  0.21105224  1
  I  I6  1  0.75000000  0.53894776  -0.00000000  1
  I  I7  1  0.75000000  0.46105224  0.50000000  1
  I  I8  1  1.03894776  0.50000000  0.25000000  1
  I  I9  1  -0.03894776  0.00000000  0.25000000  1
  I  I10  1  0.00000000  0.25000000  -0.03894776  1
  I  I11  1  0.50000000  0.25000000  1.03894776  1
  I  I12  1  0.78894776  0.50000000  0.75000000  1
  I  I13  1  0.71105224  0.50000000  1.25000000  1
  I  I14  1  0.75000000  0.78894776  0.50000000  1
  I  I15  1  1.25000000  0.71105224  0.50000000  1
  I  I16  1  0.50000000  0.75000000  0.78894776  1
  I  I17  1  0.50000000  1.25000000  0.71105224  1
  I  I18  1  1.25000000  1.03894776  0.50000000  1
  I  I19  1  1.25000000  0.96105224  1.00000000  1
  I  I20  1  1.53894776  1.00000000  0.75000000  1
  I  I21  1  0.46105224  0.50000000  0.75000000  1
  I  I22  1  0.50000000  0.75000000  0.46105224  1
  I  I23  1  1.00000000  0.75000000  1.53894776  1
  I  I24  1  0.87500000  0.87500000  0.87500000  1
  I  I25  1  0.62500000  0.12500000  0.37500000  1
  I  I26  1  0.12500000  0.37500000  0.62500000  1
  I  I27  1  0.37500000  0.62500000  0.12500000  1
  I  I28  1  0.37500000  0.37500000  0.37500000  1
  I  I29  1  0.12500000  0.62500000  0.87500000  1
  I  I30  1  0.62500000  0.87500000  0.12500000  1
  I  I31  1  0.87500000  0.12500000  0.62500000  1
  Na  Na32  1  0.12500000  0.12500000  0.12500000  1
  Na  Na33  1  0.37500000  0.87500000  0.62500000  1
  Na  Na34  1  0.87500000  0.62500000  0.37500000  1
  Na  Na35  1  0.62500000  0.37500000  0.87500000  1
  Na  Na36  1  0.62500000  0.62500000  0.62500000  1
  Na  Na37  1  0.87500000  0.37500000  0.12500000  1
  Na  Na38  1  0.37500000  0.12500000  0.87500000  1
  Na  Na39  1  0.12500000  0.87500000  0.37500000  1
  Na  Na40  1  0.62500000  0.00000000  0.25000000  1
  Na  Na41  1  0.87500000  -0.00000000  0.75000000  1
  Na  Na42  1  0.25000000  0.62500000  0.00000000  1
  Na  Na43  1  0.75000000  0.87500000  0.00000000  1
  Na  Na44  1  0.00000000  0.25000000  0.62500000  1
  Na  Na45  1  0.00000000  0.75000000  0.87500000  1
  Na  Na46  1  0.12500000  0.50000000  0.75000000  1
  Na  Na47  1  0.37500000  0.50000000  0.25000000  1
  Na  Na48  1  0.75000000  0.12500000  0.50000000  1
  Na  Na49  1  0.25000000  0.37500000  0.50000000  1
  Na  Na50  1  0.50000000  0.75000000  0.12500000  1
  Na  Na51  1  0.50000000  0.25000000  0.37500000  1
  Na  Na52  1  0.12500000  0.00000000  0.25000000  1
  Na  Na53  1  0.37500000  0.00000000  0.75000000  1
  Na  Na54  1  0.25000000  0.12500000  0.00000000  1
  Na  Na55  1  0.75000000  0.37500000  0.00000000  1
  Na  Na56  1  0.00000000  0.25000000  0.12500000  1
  Na  Na57  1  0.00000000  0.75000000  0.37500000  1
  Na  Na58  1  0.62500000  0.50000000  0.75000000  1
  Na  Na59  1  0.87500000  0.50000000  0.25000000  1
  Na  Na60  1  0.75000000  0.62500000  0.50000000  1
  Na  Na61  1  0.25000000  0.87500000  0.50000000  1
  Na  Na62  1  0.50000000  0.75000000  0.62500000  1
  Na  Na63  1  0.50000000  0.25000000  0.87500000  1
