# generated using pymatgen
data_LiBr
_symmetry_space_group_name_H-M   'P 1'
_cell_length_a   14.04418296
_cell_length_b   14.04418296
_cell_length_c   7.01791730
_cell_angle_alpha   90.00000000
_cell_angle_beta   90.00000000
_cell_angle_gamma   120.00000000
_symmetry_Int_Tables_number   1
_chemical_formula_structural   LiBr
_chemical_formula_sum   'Li24 Br24'
_cell_volume   1198.75887344
_cell_formula_units_Z   24
loop_
 _symmetry_equiv_pos_site_id
 _symmetry_equiv_pos_as_xyz
  1  'x, y, z'
loop_
 _atom_site_type_symbol
 _atom_site_label
 _atom_site_symmetry_multiplicity
 _atom_site_fract_x
 _atom_site_fract_y
 _atom_site_fract_z
 _atom_site_occupancy
  Br  Br0  1  0.40272199  0.24867111  0.13162676  1
  Br  Br1  1  -0.24867111  0.15405089  0.13162676  1
  Br  Br2  1  -0.15405089  -0.40272199  0.13162676  1
  Br  Br3  1  -0.40272199  -0.24867111  0.63162676  1
  Br  Br4  1  0.24867111  -0.15405089  0.63162676  1
  Br  Br5  1  0.15405089  0.40272199  0.63162676  1
  Br  Br6  1  0.24867111  0.40272199  -0.13162676  1
  Br  Br7  1  0.15405089  -0.24867111  -0.13162676  1
  Br  Br8  1  -0.40272199  -0.15405089  -0.13162676  1
  Br  Br9  1  -0.24867111  -0.40272199  0.36837324  1
  Br  Br10  1  -0.15405089  0.24867111  0.36837324  1
  Br  Br11  1  0.40272199  0.15405089  0.36837324  1
  Br  Br12  1  -0.40272199  -0.24867111  -0.13162676  1
  Br  Br13  1  0.24867111  -0.15405089  -0.13162676  1
  Br  Br14  1  0.15405089  0.40272199  -0.13162676  1
  Br  Br15  1  0.40272199  0.24867111  0.36837324  1
  Br  Br16  1  -0.24867111  0.15405089  0.36837324  1
  Br  Br17  1  -0.15405089  -0.40272199  0.36837324  1
  Br  Br18  1  -0.24867111  -0.40272199  0.13162676  1
  Br  Br19  1  -0.15405089  0.24867111  0.13162676  1
  Br  Br20  1  0.40272199  0.15405089  0.13162676  1
  Br  Br21  1  0.24867111  0.40272199  0.63162676  1
  Br  Br22  1  0.15405089  -0.24867111  0.63162676  1
  Br  Br23  1  -0.40272199  -0.15405089  0.63162676  1
  Li  Li24  1  0.33333333  0.66666667  0.64520462  1
  Li  Li25  1  0.66666667  0.33333333  0.14520462  1
  Li  Li26  1  0.66666667  0.33333333  0.35479538  1
  Li  Li27  1  0.33333333  0.66666667  0.85479538  1
  Li  Li28  1  0.11952461  0.00000000  -0.00000000  1
  Li  Li29  1  0.00000000  0.11952461  -0.00000000  1
  Li  Li30  1  0.88047539  0.88047539  0.00000000  1
  Li  Li31  1  0.88047539  -0.00000000  0.50000000  1
  Li  Li32  1  0.00000000  0.88047539  0.50000000  1
  Li  Li33  1  0.11952461  0.11952461  0.50000000  1
  Li  Li34  1  0.88047539  -0.00000000  -0.00000000  1
  Li  Li35  1  0.00000000  0.88047539  0.00000000  1
  Li  Li36  1  0.11952461  0.11952461  -0.00000000  1
  Li  Li37  1  0.11952461  0.00000000  0.50000000  1
  Li  Li38  1  0.00000000  0.11952461  0.50000000  1
  Li  Li39  1  0.88047539  0.88047539  0.50000000  1
  Li  Li40  1  0.58217735  0.16435470  0.25000000  1
  Li  Li41  1  0.83564530  0.41782265  0.25000000  1
  Li  Li42  1  0.58217735  0.41782265  0.25000000  1
  Li  Li43  1  0.41782265  0.83564530  0.75000000  1
  Li  Li44  1  0.16435470  0.58217735  0.75000000  1
  Li  Li45  1  0.41782265  0.58217735  0.75000000  1
  Li  Li46  1  0.33333333  0.66666667  0.25000000  1
  Li  Li47  1  0.66666667  0.33333333  0.75000000  1
