# generated using pymatgen
data_Li2HfO3
_symmetry_space_group_name_H-M   'P 1'
_cell_length_a   6.39838898
_cell_length_b   6.39838898
_cell_length_c   5.65026849
_cell_angle_alpha   90.00000000
_cell_angle_beta   90.00000000
_cell_angle_gamma   120.00000000
_symmetry_Int_Tables_number   1
_chemical_formula_structural   Li2HfO3
_chemical_formula_sum   'Li4 Hf2 O6'
_cell_volume   200.32769508
_cell_formula_units_Z   2
loop_
 _symmetry_equiv_pos_site_id
 _symmetry_equiv_pos_as_xyz
  1  'x, y, z'
loop_
 _atom_site_type_symbol
 _atom_site_label
 _atom_site_symmetry_multiplicity
 _atom_site_fract_x
 _atom_site_fract_y
 _atom_site_fract_z
 _atom_site_occupancy
  Hf  Hf0  1  0.00000000  0.00000000  0.00000000  1
  Hf  Hf1  1  0.33333333  0.66666667  0.00000000  1
  Li  Li2  1  0.74996345  -0.74996345  0.50000000  1
  Li  Li3  1  0.74996345  1.49992689  0.50000000  1
  Li  Li4  1  -1.49992689  -0.74996345  0.50000000  1
  Li  Li5  1  0.33333333  0.66666667  0.50000000  1
  O  O6  1  0.33333333  0.66666667  0.29948636  1
  O  O7  1  0.33333333  0.66666667  0.70051364  1
  O  O8  1  0.66666667  0.33333333  0.00000000  1
  O  O9  1  0.00000000  0.00000000  0.50000000  1
  O  O10  1  0.66666667  0.33333333  0.59825788  1
  O  O11  1  0.66666667  0.33333333  0.40174212  1
