# generated using pymatgen
data_LiI
_symmetry_space_group_name_H-M   'P 1'
_cell_length_a   3.91587768
_cell_length_b   3.91587768
_cell_length_c   14.17728657
_cell_angle_alpha   90.00000000
_cell_angle_beta   90.00000000
_cell_angle_gamma   120.00000000
_symmetry_Int_Tables_number   1
_chemical_formula_structural   LiI
_chemical_formula_sum   'Li6 I6'
_cell_volume   188.27037354
_cell_formula_units_Z   6
loop_
 _symmetry_equiv_pos_site_id
 _symmetry_equiv_pos_as_xyz
  1  'x, y, z'
loop_
 _atom_site_type_symbol
 _atom_site_label
 _atom_site_symmetry_multiplicity
 _atom_site_fract_x
 _atom_site_fract_y
 _atom_site_fract_z
 _atom_site_occupancy
  I  I0  1  0.00000000  0.00000000  0.00000000  1
  I  I1  1  0.33333333  0.66666667  0.55969754  1
  I  I2  1  0.33333333  0.66666667  0.44030246  1
  I  I3  1  0.66666667  0.33333333  0.00000000  1
  I  I4  1  0.00000000  0.00000000  0.81044199  1
  I  I5  1  0.00000000  0.00000000  0.18955801  1
  Li  Li6  1  0.33333333  0.66666667  0.31008815  1
  Li  Li7  1  0.33333333  0.66666667  0.68991185  1
  Li  Li8  1  0.66666667  0.33333333  0.50000000  1
  Li  Li9  1  0.33333333  0.66666667  0.00000000  1
  Li  Li10  1  0.66666667  0.33333333  0.75398186  1
  Li  Li11  1  0.66666667  0.33333333  0.24601814  1
