# generated using pymatgen
data_Li4Mg2TlGaFe2O3
_symmetry_space_group_name_H-M   'P 1'
_cell_length_a   12.74497312
_cell_length_b   11.69090550
_cell_length_c   10.30302114
_cell_angle_alpha   90.00000000
_cell_angle_beta   90.00000000
_cell_angle_gamma   90.00000000
_symmetry_Int_Tables_number   1
_chemical_formula_structural   Li4Mg2TlGaFe2O3
_chemical_formula_sum   'Li4 Mg2 Tl1 Ga1 Fe2 O3'
_cell_volume   1535.15299753
_cell_formula_units_Z   1
loop_
 _symmetry_equiv_pos_site_id
 _symmetry_equiv_pos_as_xyz
  1  'x, y, z'
loop_
 _atom_site_type_symbol
 _atom_site_label
 _atom_site_symmetry_multiplicity
 _atom_site_fract_x
 _atom_site_fract_y
 _atom_site_fract_z
 _atom_site_occupancy
  Li  Li0  1  0.12500000  0.00000000  0.25000000  1
  Li  Li1  1  0.00000000  0.00000000  0.00000000  1
  Li  Li2  1  0.37500000  0.00000000  0.25000000  1
  Li  Li3  1  0.25000000  0.25000000  0.25000000  1
  Mg  Mg4  1  0.00000000  0.25000000  0.12500000  1
  Mg  Mg5  1  0.45373919  0.51450546  0.49891756  1
  Fe  Fe6  1  0.32207456  0.56542297  0.34784403  1
  Fe  Fe7  1  0.16368769  0.37382476  0.03382402  1
  Tl  Tl8  1  0.59127864  0.43045263  0.20971825  1
  O  O9  1  0.70174729  0.31696975  0.49306023  1
  O  O10  1  0.53301409  0.86938979  0.93143993  1
  O  O11  1  0.51247242  0.13285417  0.27703020  1
  Ga  Ga12  1  0.42358139  0.64368070  0.66116503  1
