# generated using pymatgen
data_Li5CuMo3O2
_symmetry_space_group_name_H-M   'P 1'
_cell_length_a   3.66765719
_cell_length_b   3.06127966
_cell_length_c   5.48109065
_cell_angle_alpha   114.13928649
_cell_angle_beta   118.22401160
_cell_angle_gamma   92.02328841
_symmetry_Int_Tables_number   1
_chemical_formula_structural   Li5CuMo3O2
_chemical_formula_sum   'Li5 Cu1 Mo3 O2'
_cell_volume   47.43779131
_cell_formula_units_Z   1
loop_
 _symmetry_equiv_pos_site_id
 _symmetry_equiv_pos_as_xyz
  1  'x, y, z'
loop_
 _atom_site_type_symbol
 _atom_site_label
 _atom_site_symmetry_multiplicity
 _atom_site_fract_x
 _atom_site_fract_y
 _atom_site_fract_z
 _atom_site_occupancy
  Li  Li0  1  0.00000000  0.00000000  0.00000000  1
  Li  Li1  1  0.33300000  0.66700000  0.25000000  1
  Li  Li2  1  0.66700000  0.33300000  0.50000000  1
  Li  Li3  1  0.00000000  0.00000000  0.75000000  1
  Li  Li4  1  0.02976388  0.97138823  0.26892524  1
  Mo  Mo5  1  0.39769967  0.03956756  0.61059963  1
  Mo  Mo6  1  0.99168022  0.38349785  0.02882163  1
  Mo  Mo7  1  0.19970786  0.50335637  0.20684345  1
  O  O8  1  0.37930831  0.65546938  0.78462723  1
  O  O9  1  0.52658390  0.17789019  0.43299623  1
  Cu  Cu10  1  0.85670369  0.34608496  0.98603492  1
