# generated using pymatgen
data_ZrTe2
_symmetry_space_group_name_H-M   'P 1'
_cell_length_a   16.72225213
_cell_length_b   9.32257240
_cell_length_c   10.02832263
_cell_angle_alpha   90.00000000
_cell_angle_beta   90.00000000
_cell_angle_gamma   90.00000000
_symmetry_Int_Tables_number   1
_chemical_formula_structural   ZrTe2
_chemical_formula_sum   'Zr16 Te32'
_cell_volume   1563.35940053
_cell_formula_units_Z   16
loop_
 _symmetry_equiv_pos_site_id
 _symmetry_equiv_pos_as_xyz
  1  'x, y, z'
loop_
 _atom_site_type_symbol
 _atom_site_label
 _atom_site_symmetry_multiplicity
 _atom_site_fract_x
 _atom_site_fract_y
 _atom_site_fract_z
 _atom_site_occupancy
  Te  Te0  1  0.12500000  0.12500000  0.12500000  1
  Te  Te1  1  0.87500000  0.87500000  0.87500000  1
  Te  Te2  1  0.12500000  0.62500000  0.62500000  1
  Te  Te3  1  0.87500000  0.37500000  0.37500000  1
  Te  Te4  1  0.62500000  0.12500000  0.62500000  1
  Te  Te5  1  0.37500000  0.87500000  0.37500000  1
  Te  Te6  1  0.62500000  0.62500000  0.12500000  1
  Te  Te7  1  0.37500000  0.37500000  0.87500000  1
  Te  Te8  1  0.12500000  0.12500000  0.62500000  1
  Te  Te9  1  0.87500000  0.87500000  0.37500000  1
  Te  Te10  1  0.12500000  0.62500000  0.12500000  1
  Te  Te11  1  0.87500000  0.37500000  0.87500000  1
  Te  Te12  1  0.62500000  0.12500000  0.12500000  1
  Te  Te13  1  0.37500000  0.87500000  0.87500000  1
  Te  Te14  1  0.62500000  0.62500000  0.62500000  1
  Te  Te15  1  0.37500000  0.37500000  0.37500000  1
  Te  Te16  1  0.00000000  0.00000000  0.00000000  1
  Te  Te17  1  0.75000000  0.75000000  0.00000000  1
  Te  Te18  1  0.75000000  0.00000000  0.75000000  1
  Te  Te19  1  0.00000000  0.75000000  0.75000000  1
  Te  Te20  1  0.00000000  0.50000000  0.50000000  1
  Te  Te21  1  0.75000000  1.25000000  0.50000000  1
  Te  Te22  1  0.75000000  0.50000000  1.25000000  1
  Te  Te23  1  0.00000000  1.25000000  1.25000000  1
  Te  Te24  1  0.50000000  -0.00000000  0.50000000  1
  Te  Te25  1  1.25000000  0.75000000  0.50000000  1
  Te  Te26  1  1.25000000  0.00000000  1.25000000  1
  Te  Te27  1  0.50000000  0.75000000  1.25000000  1
  Te  Te28  1  0.50000000  0.50000000  0.00000000  1
  Te  Te29  1  1.25000000  1.25000000  0.00000000  1
  Te  Te30  1  1.25000000  0.50000000  0.75000000  1
  Te  Te31  1  0.50000000  1.25000000  0.75000000  1
  Zr  Zr32  1  0.95066888  0.12500000  0.12500000  1
  Zr  Zr33  1  0.79933112  0.62500000  0.12500000  1
  Zr  Zr34  1  0.04933112  0.87500000  0.87500000  1
  Zr  Zr35  1  0.20066888  0.37500000  0.87500000  1
  Zr  Zr36  1  0.95066888  0.62500000  0.62500000  1
  Zr  Zr37  1  0.79933112  0.12500000  0.62500000  1
  Zr  Zr38  1  0.04933112  0.37500000  0.37500000  1
  Zr  Zr39  1  0.20066888  0.87500000  0.37500000  1
  Zr  Zr40  1  0.45066888  0.12500000  0.62500000  1
  Zr  Zr41  1  0.29933112  0.62500000  0.62500000  1
  Zr  Zr42  1  0.54933112  0.87500000  0.37500000  1
  Zr  Zr43  1  0.70066888  0.37500000  0.37500000  1
  Zr  Zr44  1  0.45066888  0.62500000  0.12500000  1
  Zr  Zr45  1  0.29933112  0.12500000  0.12500000  1
  Zr  Zr46  1  0.54933112  0.37500000  0.87500000  1
  Zr  Zr47  1  0.70066888  0.87500000  0.87500000  1
