# generated using pymatgen
data_Li2S
_symmetry_space_group_name_H-M   'P 1'
_cell_length_a   9.47306329
_cell_length_b   9.47306329
_cell_length_c   10.91504720
_cell_angle_alpha   90.00000000
_cell_angle_beta   90.00000000
_cell_angle_gamma   90.00000000
_symmetry_Int_Tables_number   1
_chemical_formula_structural   Li2S
_chemical_formula_sum   'Li64 S32'
_cell_volume   979.50463680
_cell_formula_units_Z   32
loop_
 _symmetry_equiv_pos_site_id
 _symmetry_equiv_pos_as_xyz
  1  'x, y, z'
loop_
 _atom_site_type_symbol
 _atom_site_label
 _atom_site_symmetry_multiplicity
 _atom_site_fract_x
 _atom_site_fract_y
 _atom_site_fract_z
 _atom_site_occupancy
  Li  Li0  1  0.32430143  0.57430143  0.12500000  1
  Li  Li1  1  0.17569857  0.42569857  0.62500000  1
  Li  Li2  1  0.67569857  0.07430143  0.37500000  1
  Li  Li3  1  0.82430143  0.92569857  0.87500000  1
  Li  Li4  1  0.67569857  0.42569857  0.87500000  1
  Li  Li5  1  0.82430143  0.57430143  0.37500000  1
  Li  Li6  1  0.32430143  0.92569857  0.62500000  1
  Li  Li7  1  0.17569857  0.07430143  0.12500000  1
  Li  Li8  1  0.82430143  0.07430143  0.62500000  1
  Li  Li9  1  0.67569857  0.92569857  0.12500000  1
  Li  Li10  1  0.17569857  0.57430143  0.87500000  1
  Li  Li11  1  0.32430143  0.42569857  0.37500000  1
  Li  Li12  1  0.17569857  0.92569857  0.37500000  1
  Li  Li13  1  0.32430143  0.07430143  0.87500000  1
  Li  Li14  1  0.82430143  0.42569857  0.12500000  1
  Li  Li15  1  0.67569857  0.57430143  0.62500000  1
  Li  Li16  1  0.12777734  0.16463348  0.75422933  1
  Li  Li17  1  0.37222266  0.83536652  0.25422933  1
  Li  Li18  1  0.08536652  0.87777734  0.00422933  1
  Li  Li19  1  0.41463348  0.12222266  0.50422933  1
  Li  Li20  1  0.37222266  0.16463348  0.24577067  1
  Li  Li21  1  0.12777734  0.83536652  0.74577067  1
  Li  Li22  1  0.41463348  0.87777734  0.99577067  1
  Li  Li23  1  0.08536652  0.12222266  0.49577067  1
  Li  Li24  1  0.87222266  0.83536652  0.24577067  1
  Li  Li25  1  0.62777734  0.16463348  0.74577067  1
  Li  Li26  1  0.91463348  0.12222266  0.99577067  1
  Li  Li27  1  0.58536652  0.87777734  0.49577067  1
  Li  Li28  1  0.62777734  0.83536652  0.75422933  1
  Li  Li29  1  0.87222266  0.16463348  0.25422933  1
  Li  Li30  1  0.58536652  0.12222266  0.00422933  1
  Li  Li31  1  0.91463348  0.87777734  0.50422933  1
  Li  Li32  1  0.62777734  0.66463348  0.25422933  1
  Li  Li33  1  0.87222266  0.33536652  0.75422933  1
  Li  Li34  1  0.58536652  0.37777734  0.50422933  1
  Li  Li35  1  0.91463348  0.62222266  0.00422933  1
  Li  Li36  1  0.87222266  0.66463348  0.74577067  1
  Li  Li37  1  0.62777734  0.33536652  0.24577067  1
  Li  Li38  1  0.91463348  0.37777734  0.49577067  1
  Li  Li39  1  0.58536652  0.62222266  0.99577067  1
  Li  Li40  1  0.37222266  0.33536652  0.74577067  1
  Li  Li41  1  0.12777734  0.66463348  0.24577067  1
  Li  Li42  1  0.41463348  0.62222266  0.49577067  1
  Li  Li43  1  0.08536652  0.37777734  0.99577067  1
  Li  Li44  1  0.12777734  0.33536652  0.25422933  1
  Li  Li45  1  0.37222266  0.66463348  0.75422933  1
  Li  Li46  1  0.08536652  0.62222266  0.50422933  1
  Li  Li47  1  0.41463348  0.37777734  0.00422933  1
  Li  Li48  1  0.00000000  0.25000000  0.12500000  1
  Li  Li49  1  0.00000000  0.75000000  0.37500000  1
  Li  Li50  1  0.00000000  0.75000000  0.87500000  1
  Li  Li51  1  0.00000000  0.25000000  0.62500000  1
  Li  Li52  1  0.50000000  0.75000000  0.62500000  1
  Li  Li53  1  0.50000000  0.25000000  0.87500000  1
  Li  Li54  1  0.50000000  0.25000000  0.37500000  1
  Li  Li55  1  0.50000000  0.75000000  0.12500000  1
  Li  Li56  1  0.00000000  0.25000000  0.37500000  1
  Li  Li57  1  0.00000000  0.75000000  0.62500000  1
  Li  Li58  1  0.50000000  0.25000000  0.62500000  1
  Li  Li59  1  0.50000000  0.75000000  0.37500000  1
  Li  Li60  1  0.50000000  0.75000000  0.87500000  1
  Li  Li61  1  0.50000000  0.25000000  0.12500000  1
  Li  Li62  1  0.00000000  0.75000000  0.12500000  1
  Li  Li63  1  0.00000000  0.25000000  0.87500000  1
  S  S64  1  0.30382202  0.94474525  0.44376952  1
  S  S65  1  0.19617798  -0.94474525  0.94376952  1
  S  S66  1  -0.69474525  1.05382202  0.69376952  1
  S  S67  1  1.19474525  -0.05382202  1.19376952  1
  S  S68  1  0.19617798  0.94474525  -0.44376952  1
  S  S69  1  0.30382202  -0.94474525  0.05623048  1
  S  S70  1  1.19474525  1.05382202  0.30623048  1
  S  S71  1  -0.69474525  -0.05382202  -0.19376952  1
  S  S72  1  -0.30382202  -0.94474525  -0.44376952  1
  S  S73  1  0.80382202  0.94474525  0.05623048  1
  S  S74  1  1.69474525  -0.05382202  0.30623048  1
  S  S75  1  -0.19474525  1.05382202  -0.19376952  1
  S  S76  1  0.80382202  -0.94474525  0.44376952  1
  S  S77  1  -0.30382202  0.94474525  0.94376952  1
  S  S78  1  -0.19474525  -0.05382202  0.69376952  1
  S  S79  1  1.69474525  1.05382202  1.19376952  1
  S  S80  1  0.80382202  1.44474525  0.94376952  1
  S  S81  1  0.69617798  -0.44474525  1.44376952  1
  S  S82  1  -0.19474525  1.55382202  1.19376952  1
  S  S83  1  1.69474525  0.44617798  1.69376952  1
  S  S84  1  0.69617798  1.44474525  0.05623048  1
  S  S85  1  0.80382202  -0.44474525  0.55623048  1
  S  S86  1  1.69474525  1.55382202  0.80623048  1
  S  S87  1  -0.19474525  0.44617798  0.30623048  1
  S  S88  1  0.19617798  -0.44474525  0.05623048  1
  S  S89  1  1.30382202  1.44474525  0.55623048  1
  S  S90  1  2.19474525  0.44617798  0.80623048  1
  S  S91  1  0.30525475  1.55382202  0.30623048  1
  S  S92  1  1.30382202  -0.44474525  0.94376952  1
  S  S93  1  0.19617798  1.44474525  1.44376952  1
  S  S94  1  0.30525475  0.44617798  1.19376952  1
  S  S95  1  2.19474525  1.55382202  1.69376952  1
