# generated using pymatgen
data_LiCl
_symmetry_space_group_name_H-M   'P 1'
_cell_length_a   18.88492409
_cell_length_b   18.88492409
_cell_length_c   9.69281281
_cell_angle_alpha   90.00000000
_cell_angle_beta   90.00000000
_cell_angle_gamma   120.00000000
_symmetry_Int_Tables_number   1
_chemical_formula_structural   LiCl
_chemical_formula_sum   'Li72 Cl72'
_cell_volume   2993.71838402
_cell_formula_units_Z   72
loop_
 _symmetry_equiv_pos_site_id
 _symmetry_equiv_pos_as_xyz
  1  'x, y, z'
loop_
 _atom_site_type_symbol
 _atom_site_label
 _atom_site_symmetry_multiplicity
 _atom_site_fract_x
 _atom_site_fract_y
 _atom_site_fract_z
 _atom_site_occupancy
  Cl  Cl0  1  0.50000000  0.00000000  -0.00000000  1
  Cl  Cl1  1  0.00000000  0.50000000  0.00000000  1
  Cl  Cl2  1  0.50000000  0.50000000  0.00000000  1
  Cl  Cl3  1  0.00000000  0.50000000  0.50000000  1
  Cl  Cl4  1  0.50000000  0.00000000  0.50000000  1
  Cl  Cl5  1  0.50000000  0.50000000  0.50000000  1
  Cl  Cl6  1  0.16666667  0.33333333  0.33333333  1
  Cl  Cl7  1  0.66666667  0.83333333  0.33333333  1
  Cl  Cl8  1  0.16666667  0.83333333  0.33333333  1
  Cl  Cl9  1  0.66666667  0.83333333  0.83333333  1
  Cl  Cl10  1  0.16666667  0.33333333  0.83333333  1
  Cl  Cl11  1  0.16666667  0.83333333  0.83333333  1
  Cl  Cl12  1  0.83333333  0.66666667  0.66666667  1
  Cl  Cl13  1  0.33333333  0.16666667  0.66666667  1
  Cl  Cl14  1  0.83333333  0.16666667  0.66666667  1
  Cl  Cl15  1  0.33333333  0.16666667  0.16666667  1
  Cl  Cl16  1  0.83333333  0.66666667  0.16666667  1
  Cl  Cl17  1  0.83333333  0.16666667  0.16666667  1
  Cl  Cl18  1  0.77673866  0.65222029  0.03133771  1
  Cl  Cl19  1  0.34777971  0.12451837  0.03133771  1
  Cl  Cl20  1  0.87548163  0.22326134  0.03133771  1
  Cl  Cl21  1  0.65222029  0.77673866  0.46866229  1
  Cl  Cl22  1  0.12451837  0.34777971  0.46866229  1
  Cl  Cl23  1  0.22326134  0.87548163  0.46866229  1
  Cl  Cl24  1  0.22326134  0.34777971  0.96866229  1
  Cl  Cl25  1  0.65222029  0.87548163  0.96866229  1
  Cl  Cl26  1  0.12451837  0.77673866  0.96866229  1
  Cl  Cl27  1  0.34777971  0.22326134  0.53133771  1
  Cl  Cl28  1  0.87548163  0.65222029  0.53133771  1
  Cl  Cl29  1  0.77673866  0.12451837  0.53133771  1
  Cl  Cl30  1  0.44340532  0.98555362  0.36467104  1
  Cl  Cl31  1  0.01444638  0.45785170  0.36467104  1
  Cl  Cl32  1  0.54214830  0.55659468  0.36467104  1
  Cl  Cl33  1  0.31888695  0.11007199  0.80199563  1
  Cl  Cl34  1  0.79118504  0.68111305  0.80199563  1
  Cl  Cl35  1  0.88992801  0.20881496  0.80199563  1
  Cl  Cl36  1  0.88992801  0.68111305  0.30199563  1
  Cl  Cl37  1  0.31888695  0.20881496  0.30199563  1
  Cl  Cl38  1  0.79118504  0.11007199  0.30199563  1
  Cl  Cl39  1  0.01444638  0.55659468  0.86467104  1
  Cl  Cl40  1  0.54214830  0.98555362  0.86467104  1
  Cl  Cl41  1  0.44340532  0.45785170  0.86467104  1
  Cl  Cl42  1  0.11007199  0.31888695  0.69800437  1
  Cl  Cl43  1  0.68111305  0.79118504  0.69800437  1
  Cl  Cl44  1  0.20881496  0.88992801  0.69800437  1
  Cl  Cl45  1  0.98555362  0.44340532  0.13532896  1
  Cl  Cl46  1  0.45785170  0.01444638  0.13532896  1
  Cl  Cl47  1  0.55659468  0.54214830  0.13532896  1
  Cl  Cl48  1  0.55659468  0.01444638  0.63532896  1
  Cl  Cl49  1  0.98555362  0.54214830  0.63532896  1
  Cl  Cl50  1  0.45785170  0.44340532  0.63532896  1
  Cl  Cl51  1  0.68111305  0.88992801  0.19800437  1
  Cl  Cl52  1  0.20881496  0.31888695  0.19800437  1
  Cl  Cl53  1  0.11007199  0.79118504  0.19800437  1
  Cl  Cl54  1  0.69780282  0.00000000  0.25000000  1
  Cl  Cl55  1  0.00000000  0.69780282  0.25000000  1
  Cl  Cl56  1  0.30219718  0.30219718  0.25000000  1
  Cl  Cl57  1  0.30219718  0.00000000  0.75000000  1
  Cl  Cl58  1  0.00000000  0.30219718  0.75000000  1
  Cl  Cl59  1  0.69780282  0.69780282  0.75000000  1
  Cl  Cl60  1  0.36446949  0.33333333  0.58333333  1
  Cl  Cl61  1  0.66666667  0.03113616  0.58333333  1
  Cl  Cl62  1  0.96886384  0.63553051  0.58333333  1
  Cl  Cl63  1  0.96886384  0.33333333  0.08333333  1
  Cl  Cl64  1  0.66666667  0.63553051  0.08333333  1
  Cl  Cl65  1  0.36446949  0.03113616  0.08333333  1
  Cl  Cl66  1  0.03113616  0.66666667  0.91666667  1
  Cl  Cl67  1  0.33333333  0.36446949  0.91666667  1
  Cl  Cl68  1  0.63553051  0.96886384  0.91666667  1
  Cl  Cl69  1  0.63553051  0.66666667  0.41666667  1
  Cl  Cl70  1  0.33333333  0.96886384  0.41666667  1
  Cl  Cl71  1  0.03113616  0.36446949  0.41666667  1
  Li  Li72  1  0.00000000  0.00000000  0.00000000  1
  Li  Li73  1  0.00000000  0.00000000  0.50000000  1
  Li  Li74  1  0.66666667  0.33333333  0.33333333  1
  Li  Li75  1  0.66666667  0.33333333  0.83333333  1
  Li  Li76  1  0.33333333  0.66666667  0.66666667  1
  Li  Li77  1  0.33333333  0.66666667  0.16666667  1
  Li  Li78  1  0.19376062  0.00000000  0.25000000  1
  Li  Li79  1  0.00000000  0.19376062  0.25000000  1
  Li  Li80  1  0.80623938  0.80623938  0.25000000  1
  Li  Li81  1  0.80623938  0.00000000  0.75000000  1
  Li  Li82  1  0.00000000  0.80623938  0.75000000  1
  Li  Li83  1  0.19376062  0.19376062  0.75000000  1
  Li  Li84  1  0.86042728  0.33333333  0.58333333  1
  Li  Li85  1  0.66666667  0.52709395  0.58333333  1
  Li  Li86  1  0.47290605  0.13957272  0.58333333  1
  Li  Li87  1  0.47290605  0.33333333  0.08333333  1
  Li  Li88  1  0.66666667  0.13957272  0.08333333  1
  Li  Li89  1  0.86042728  0.52709395  0.08333333  1
  Li  Li90  1  0.52709395  0.66666667  0.91666667  1
  Li  Li91  1  0.33333333  0.86042728  0.91666667  1
  Li  Li92  1  0.13957272  0.47290605  0.91666667  1
  Li  Li93  1  0.13957272  0.66666667  0.41666667  1
  Li  Li94  1  0.33333333  0.47290605  0.41666667  1
  Li  Li95  1  0.52709395  0.86042728  0.41666667  1
  Li  Li96  1  0.46422534  0.38929831  0.79151500  1
  Li  Li97  1  -0.38929831  0.07492703  0.79151500  1
  Li  Li98  1  -0.07492703  -0.46422534  0.79151500  1
  Li  Li99  1  0.38929831  0.46422534  -0.29151500  1
  Li  Li100  1  0.07492703  -0.38929831  -0.29151500  1
  Li  Li101  1  -0.46422534  -0.07492703  -0.29151500  1
  Li  Li102  1  -0.46422534  -0.38929831  -0.79151500  1
  Li  Li103  1  0.38929831  -0.07492703  -0.79151500  1
  Li  Li104  1  0.07492703  0.46422534  -0.79151500  1
  Li  Li105  1  -0.38929831  -0.46422534  1.29151500  1
  Li  Li106  1  -0.07492703  0.38929831  1.29151500  1
  Li  Li107  1  0.46422534  0.07492703  1.29151500  1
  Li  Li108  1  1.13089201  0.72263164  1.12484833  1
  Li  Li109  1  0.27736836  0.40826037  1.12484833  1
  Li  Li110  1  0.59173963  -0.13089201  1.12484833  1
  Li  Li111  1  1.05596498  0.79755868  0.04181833  1
  Li  Li112  1  0.74159370  -0.05596498  0.04181833  1
  Li  Li113  1  0.20244132  0.25840630  0.04181833  1
  Li  Li114  1  0.20244132  -0.05596498  -0.45818167  1
  Li  Li115  1  1.05596498  0.25840630  -0.45818167  1
  Li  Li116  1  0.74159370  0.79755868  -0.45818167  1
  Li  Li117  1  0.27736836  -0.13089201  1.62484833  1
  Li  Li118  1  0.59173963  0.72263164  1.62484833  1
  Li  Li119  1  1.13089201  0.40826037  1.62484833  1
  Li  Li120  1  0.79755868  1.05596498  1.45818167  1
  Li  Li121  1  -0.05596498  0.74159370  1.45818167  1
  Li  Li122  1  0.25840630  0.20244132  1.45818167  1
  Li  Li123  1  0.72263164  1.13089201  0.37515167  1
  Li  Li124  1  0.40826037  0.27736836  0.37515167  1
  Li  Li125  1  -0.13089201  0.59173963  0.37515167  1
  Li  Li126  1  -0.13089201  0.27736836  -0.12484833  1
  Li  Li127  1  0.72263164  0.59173963  -0.12484833  1
  Li  Li128  1  0.40826037  1.13089201  -0.12484833  1
  Li  Li129  1  -0.05596498  0.20244132  1.95818167  1
  Li  Li130  1  0.25840630  1.05596498  1.95818167  1
  Li  Li131  1  0.79755868  0.74159370  1.95818167  1
  Li  Li132  1  0.00000000  0.00000000  0.34752434  1
  Li  Li133  1  0.00000000  0.00000000  0.15247566  1
  Li  Li134  1  0.00000000  0.00000000  0.65247566  1
  Li  Li135  1  0.00000000  0.00000000  0.84752434  1
  Li  Li136  1  0.66666667  0.33333333  0.68085767  1
  Li  Li137  1  0.66666667  0.33333333  0.48580900  1
  Li  Li138  1  0.66666667  0.33333333  0.98580900  1
  Li  Li139  1  0.66666667  0.33333333  0.18085767  1
  Li  Li140  1  0.33333333  0.66666667  0.01419100  1
  Li  Li141  1  0.33333333  0.66666667  0.81914233  1
  Li  Li142  1  0.33333333  0.66666667  0.31914233  1
  Li  Li143  1  0.33333333  0.66666667  0.51419100  1
