# generated using pymatgen
data_Li5Ti2(PO2)3
_symmetry_space_group_name_H-M   'P 1'
_cell_length_a   8.18244406
_cell_length_b   6.76592609
_cell_length_c   7.62220598
_cell_angle_alpha   90.00000000
_cell_angle_beta   90.00000000
_cell_angle_gamma   90.00000000
_symmetry_Int_Tables_number   1
_chemical_formula_structural   Li5Ti2(PO2)3
_chemical_formula_sum   'Li5 Ti2 P3 O6'
_cell_volume   421.97913282
_cell_formula_units_Z   1
loop_
 _symmetry_equiv_pos_site_id
 _symmetry_equiv_pos_as_xyz
  1  'x, y, z'
loop_
 _atom_site_type_symbol
 _atom_site_label
 _atom_site_symmetry_multiplicity
 _atom_site_fract_x
 _atom_site_fract_y
 _atom_site_fract_z
 _atom_site_occupancy
  Li  Li0  1  0.00000000  0.00000000  0.00000000  1
  Li  Li1  1  0.50000000  0.50000000  0.50000000  1
  Li  Li2  1  0.25000000  0.25000000  0.25000000  1
  Li  Li3  1  0.75000000  0.25000000  0.00000000  1
  Li  Li4  1  0.25000000  0.75000000  0.50000000  1
  Ti  Ti5  1  0.30630913  0.23583096  0.61071508  1
  Ti  Ti6  1  0.55308150  0.33861000  0.99358123  1
  P  P7  1  0.80505095  0.32646988  0.17753685  1
  P  P8  1  0.54462609  0.48343047  0.45352273  1
  P  P9  1  0.05124880  0.16759705  0.71322527  1
  O  O10  1  0.55473592  0.74605005  0.61863285  1
  O  O11  1  0.85187219  0.46209325  0.59639132  1
  O  O12  1  0.80555459  0.06770677  0.00076897  1
  O  O13  1  0.73099718  0.03563674  0.21627051  1
  O  O14  1  0.65313832  0.52120002  0.58191611  1
  O  O15  1  0.60608618  0.93949969  0.14881468  1
