# generated using pymatgen
data_Li2ZrBr6
_symmetry_space_group_name_H-M   'P 1'
_cell_length_a   19.53430922
_cell_length_b   19.53430922
_cell_length_c   10.98464610
_cell_angle_alpha   90.00000000
_cell_angle_beta   90.00000000
_cell_angle_gamma   120.00000000
_symmetry_Int_Tables_number   1
_chemical_formula_structural   Li2ZrBr6
_chemical_formula_sum   'Li36 Zr18 Br108'
_cell_volume   3630.05176011
_cell_formula_units_Z   18
loop_
 _symmetry_equiv_pos_site_id
 _symmetry_equiv_pos_as_xyz
  1  'x, y, z'
loop_
 _atom_site_type_symbol
 _atom_site_label
 _atom_site_symmetry_multiplicity
 _atom_site_fract_x
 _atom_site_fract_y
 _atom_site_fract_z
 _atom_site_occupancy
  Br  Br0  1  0.08054576  0.00000000  0.25000000  1
  Br  Br1  1  0.00000000  0.08054576  0.25000000  1
  Br  Br2  1  0.91945424  0.91945424  0.25000000  1
  Br  Br3  1  0.91945424  -0.00000000  0.75000000  1
  Br  Br4  1  0.00000000  0.91945424  0.75000000  1
  Br  Br5  1  0.08054576  0.08054576  0.75000000  1
  Br  Br6  1  0.74721243  0.33333333  0.58333333  1
  Br  Br7  1  0.66666667  0.41387910  0.58333333  1
  Br  Br8  1  0.58612090  0.25278757  0.58333333  1
  Br  Br9  1  0.58612090  0.33333333  0.08333333  1
  Br  Br10  1  0.66666667  0.25278757  0.08333333  1
  Br  Br11  1  0.74721243  0.41387910  0.08333333  1
  Br  Br12  1  0.41387910  0.66666667  0.91666667  1
  Br  Br13  1  0.33333333  0.74721243  0.91666667  1
  Br  Br14  1  0.25278757  0.58612090  0.91666667  1
  Br  Br15  1  0.25278757  0.66666667  0.41666667  1
  Br  Br16  1  0.33333333  0.58612090  0.41666667  1
  Br  Br17  1  0.41387910  0.74721243  0.41666667  1
  Br  Br18  1  0.75740921  0.15980490  0.42782692  1
  Br  Br19  1  -0.15980490  0.59760431  0.42782692  1
  Br  Br20  1  -0.59760431  -0.75740921  0.42782692  1
  Br  Br21  1  0.15980490  0.75740921  0.07217308  1
  Br  Br22  1  0.59760431  -0.15980490  0.07217308  1
  Br  Br23  1  -0.75740921  -0.59760431  0.07217308  1
  Br  Br24  1  -0.75740921  -0.15980490  -0.42782692  1
  Br  Br25  1  0.15980490  -0.59760431  -0.42782692  1
  Br  Br26  1  0.59760431  0.75740921  -0.42782692  1
  Br  Br27  1  -0.15980490  -0.75740921  0.92782692  1
  Br  Br28  1  -0.59760431  0.15980490  0.92782692  1
  Br  Br29  1  0.75740921  0.59760431  0.92782692  1
  Br  Br30  1  1.42407588  0.49313823  0.76116026  1
  Br  Br31  1  0.50686177  0.93093765  0.76116026  1
  Br  Br32  1  0.06906235  -0.42407588  0.76116026  1
  Br  Br33  1  0.82647156  1.09074254  0.40550641  1
  Br  Br34  1  1.26427098  0.17352844  0.40550641  1
  Br  Br35  1  -0.09074254  -0.26427098  0.40550641  1
  Br  Br36  1  -0.09074254  0.17352844  -0.09449359  1
  Br  Br37  1  0.82647156  -0.26427098  -0.09449359  1
  Br  Br38  1  1.26427098  1.09074254  -0.09449359  1
  Br  Br39  1  0.50686177  -0.42407588  1.26116026  1
  Br  Br40  1  0.06906235  0.49313823  1.26116026  1
  Br  Br41  1  1.42407588  0.93093765  1.26116026  1
  Br  Br42  1  1.09074254  0.82647156  1.09449359  1
  Br  Br43  1  0.17352844  1.26427098  1.09449359  1
  Br  Br44  1  -0.26427098  -0.09074254  1.09449359  1
  Br  Br45  1  0.49313823  1.42407588  0.73883974  1
  Br  Br46  1  0.93093765  0.50686177  0.73883974  1
  Br  Br47  1  -0.42407588  0.06906235  0.73883974  1
  Br  Br48  1  -0.42407588  0.50686177  0.23883974  1
  Br  Br49  1  0.49313823  0.06906235  0.23883974  1
  Br  Br50  1  0.93093765  1.42407588  0.23883974  1
  Br  Br51  1  0.17352844  -0.09074254  1.59449359  1
  Br  Br52  1  -0.26427098  0.82647156  1.59449359  1
  Br  Br53  1  1.09074254  1.26427098  1.59449359  1
  Br  Br54  1  0.91947470  0.12343306  0.72587863  1
  Br  Br55  1  0.87656694  0.79604163  0.72587863  1
  Br  Br56  1  0.20395837  0.08052530  0.72587863  1
  Br  Br57  1  0.12343306  0.91947470  0.77412137  1
  Br  Br58  1  0.79604163  0.87656694  0.77412137  1
  Br  Br59  1  0.08052530  0.20395837  0.77412137  1
  Br  Br60  1  0.08052530  0.87656694  0.27412137  1
  Br  Br61  1  0.12343306  0.20395837  0.27412137  1
  Br  Br62  1  0.79604163  0.91947470  0.27412137  1
  Br  Br63  1  0.87656694  0.08052530  0.22587863  1
  Br  Br64  1  0.20395837  0.12343306  0.22587863  1
  Br  Br65  1  0.91947470  0.79604163  0.22587863  1
  Br  Br66  1  0.58614136  0.45676640  0.05921196  1
  Br  Br67  1  0.54323360  0.12937497  0.05921196  1
  Br  Br68  1  0.87062503  0.41385864  0.05921196  1
  Br  Br69  1  0.79009973  0.25280803  0.10745471  1
  Br  Br70  1  0.46270830  0.20990027  0.10745471  1
  Br  Br71  1  0.74719197  0.53729170  0.10745471  1
  Br  Br72  1  0.74719197  0.20990027  0.60745471  1
  Br  Br73  1  0.79009973  0.53729170  0.60745471  1
  Br  Br74  1  0.46270830  0.25280803  0.60745471  1
  Br  Br75  1  0.54323360  0.41385864  0.55921196  1
  Br  Br76  1  0.87062503  0.45676640  0.55921196  1
  Br  Br77  1  0.58614136  0.12937497  0.55921196  1
  Br  Br78  1  0.25280803  0.79009973  0.39254529  1
  Br  Br79  1  0.20990027  0.46270830  0.39254529  1
  Br  Br80  1  0.53729170  0.74719197  0.39254529  1
  Br  Br81  1  0.45676640  0.58614136  0.44078804  1
  Br  Br82  1  0.12937497  0.54323360  0.44078804  1
  Br  Br83  1  0.41385864  0.87062503  0.44078804  1
  Br  Br84  1  0.41385864  0.54323360  0.94078804  1
  Br  Br85  1  0.45676640  0.87062503  0.94078804  1
  Br  Br86  1  0.12937497  0.58614136  0.94078804  1
  Br  Br87  1  0.20990027  0.74719197  0.89254529  1
  Br  Br88  1  0.53729170  0.79009973  0.89254529  1
  Br  Br89  1  0.25280803  0.46270830  0.89254529  1
  Br  Br90  1  0.54639913  0.00000000  0.25000000  1
  Br  Br91  1  0.00000000  0.54639913  0.25000000  1
  Br  Br92  1  0.45360087  0.45360087  0.25000000  1
  Br  Br93  1  0.45360087  -0.00000000  0.75000000  1
  Br  Br94  1  0.00000000  0.45360087  0.75000000  1
  Br  Br95  1  0.54639913  0.54639913  0.75000000  1
  Br  Br96  1  0.21306579  0.33333333  0.58333333  1
  Br  Br97  1  0.66666667  0.87973246  0.58333333  1
  Br  Br98  1  0.12026754  0.78693421  0.58333333  1
  Br  Br99  1  0.12026754  0.33333333  0.08333333  1
  Br  Br100  1  0.66666667  0.78693421  0.08333333  1
  Br  Br101  1  0.21306579  0.87973246  0.08333333  1
  Br  Br102  1  0.87973246  0.66666667  0.91666667  1
  Br  Br103  1  0.33333333  0.21306579  0.91666667  1
  Br  Br104  1  0.78693421  0.12026754  0.91666667  1
  Br  Br105  1  0.78693421  0.66666667  0.41666667  1
  Br  Br106  1  0.33333333  0.12026754  0.41666667  1
  Br  Br107  1  0.87973246  0.21306579  0.41666667  1
  Li  Li108  1  0.38417529  0.00000000  0.25000000  1
  Li  Li109  1  0.00000000  0.38417529  0.25000000  1
  Li  Li110  1  0.61582471  0.61582471  0.25000000  1
  Li  Li111  1  0.61582471  -0.00000000  0.75000000  1
  Li  Li112  1  0.00000000  0.61582471  0.75000000  1
  Li  Li113  1  0.38417529  0.38417529  0.75000000  1
  Li  Li114  1  0.05084196  0.33333333  0.58333333  1
  Li  Li115  1  0.66666667  0.71750863  0.58333333  1
  Li  Li116  1  0.28249137  0.94915804  0.58333333  1
  Li  Li117  1  0.28249137  0.33333333  0.08333333  1
  Li  Li118  1  0.66666667  0.94915804  0.08333333  1
  Li  Li119  1  0.05084196  0.71750863  0.08333333  1
  Li  Li120  1  0.71750863  0.66666667  0.91666667  1
  Li  Li121  1  0.33333333  0.05084196  0.91666667  1
  Li  Li122  1  0.94915804  0.28249137  0.91666667  1
  Li  Li123  1  0.94915804  0.66666667  0.41666667  1
  Li  Li124  1  0.33333333  0.28249137  0.41666667  1
  Li  Li125  1  0.71750863  0.05084196  0.41666667  1
  Li  Li126  1  0.00000000  0.00000000  0.25000000  1
  Li  Li127  1  0.00000000  0.00000000  0.75000000  1
  Li  Li128  1  0.66666667  0.33333333  0.58333333  1
  Li  Li129  1  0.66666667  0.33333333  0.08333333  1
  Li  Li130  1  0.33333333  0.66666667  0.91666667  1
  Li  Li131  1  0.33333333  0.66666667  0.41666667  1
  Li  Li132  1  0.00000000  0.00000000  0.38885930  1
  Li  Li133  1  0.00000000  0.00000000  0.11114070  1
  Li  Li134  1  0.00000000  0.00000000  0.61114070  1
  Li  Li135  1  0.00000000  0.00000000  0.88885930  1
  Li  Li136  1  0.66666667  0.33333333  0.72219263  1
  Li  Li137  1  0.66666667  0.33333333  0.44447404  1
  Li  Li138  1  0.66666667  0.33333333  0.94447404  1
  Li  Li139  1  0.66666667  0.33333333  0.22219263  1
  Li  Li140  1  0.33333333  0.66666667  0.05552596  1
  Li  Li141  1  0.33333333  0.66666667  0.77780737  1
  Li  Li142  1  0.33333333  0.66666667  0.27780737  1
  Li  Li143  1  0.33333333  0.66666667  0.55552596  1
  Zr  Zr144  1  0.50000000  0.00000000  0.00000000  1
  Zr  Zr145  1  0.00000000  0.50000000  0.00000000  1
  Zr  Zr146  1  0.50000000  0.50000000  0.00000000  1
  Zr  Zr147  1  0.00000000  0.50000000  0.50000000  1
  Zr  Zr148  1  0.50000000  0.00000000  0.50000000  1
  Zr  Zr149  1  0.50000000  0.50000000  0.50000000  1
  Zr  Zr150  1  0.16666667  0.33333333  0.33333333  1
  Zr  Zr151  1  0.66666667  0.83333333  0.33333333  1
  Zr  Zr152  1  0.16666667  0.83333333  0.33333333  1
  Zr  Zr153  1  0.66666667  0.83333333  0.83333333  1
  Zr  Zr154  1  0.16666667  0.33333333  0.83333333  1
  Zr  Zr155  1  0.16666667  0.83333333  0.83333333  1
  Zr  Zr156  1  0.83333333  0.66666667  0.66666667  1
  Zr  Zr157  1  0.33333333  0.16666667  0.66666667  1
  Zr  Zr158  1  0.83333333  0.16666667  0.66666667  1
  Zr  Zr159  1  0.33333333  0.16666667  0.16666667  1
  Zr  Zr160  1  0.83333333  0.66666667  0.16666667  1
  Zr  Zr161  1  0.83333333  0.16666667  0.16666667  1
