# generated using pymatgen
data_Li3ZrN5Cl6O
_symmetry_space_group_name_H-M   'P 1'
_cell_length_a   3.69099052
_cell_length_b   3.50295134
_cell_length_c   3.29122490
_cell_angle_alpha   91.11313579
_cell_angle_beta   87.06586447
_cell_angle_gamma   86.04383674
_symmetry_Int_Tables_number   1
_chemical_formula_structural   Li3ZrN5Cl6O
_chemical_formula_sum   'Li3 Zr1 N5 Cl6 O1'
_cell_volume   42.38512218
_cell_formula_units_Z   1
loop_
 _symmetry_equiv_pos_site_id
 _symmetry_equiv_pos_as_xyz
  1  'x, y, z'
loop_
 _atom_site_type_symbol
 _atom_site_label
 _atom_site_symmetry_multiplicity
 _atom_site_fract_x
 _atom_site_fract_y
 _atom_site_fract_z
 _atom_site_occupancy
  Li  Li0  1  0.00000000  0.00000000  0.00000000  1
  Li  Li1  1  0.50000000  0.50000000  0.50000000  1
  Li  Li2  1  0.50000000  0.50000000  0.00000000  1
  Zr  Zr3  1  0.50000000  0.00000000  0.50000000  1
  N  N4  1  0.00000000  0.50000000  0.50000000  1
  N  N5  1  0.00013735  0.36324226  0.69922689  1
  N  N6  1  0.28188197  0.40562765  0.77898307  1
  N  N7  1  0.83325572  0.34644950  0.00541025  1
  N  N8  1  0.94039234  0.02412713  0.78708975  1
  Cl  Cl9  1  0.29084896  0.85058092  0.79979025  1
  Cl  Cl10  1  0.36035641  0.51886114  0.37264615  1
  Cl  Cl11  1  0.28597693  0.56711038  0.72021498  1
  Cl  Cl12  1  0.28538535  0.09500656  0.52622542  1
  Cl  Cl13  1  0.24548579  0.44767815  0.69349115  1
  Cl  Cl14  1  0.87915328  0.85209126  0.30683317  1
  O  O15  1  0.94845038  0.07715818  0.95701426  1
