# generated using pymatgen
data_Li4PrAl3(IO)3
_symmetry_space_group_name_H-M   'P 1'
_cell_length_a   7.61205601
_cell_length_b   7.53513447
_cell_length_c   8.31584645
_cell_angle_alpha   90.00000000
_cell_angle_beta   90.00000000
_cell_angle_gamma   90.00000000
_symmetry_Int_Tables_number   1
_chemical_formula_structural   Li4PrAl3(IO)3
_chemical_formula_sum   'Li4 Pr1 Al3 I3 O3'
_cell_volume   476.97920284
_cell_formula_units_Z   1
loop_
 _symmetry_equiv_pos_site_id
 _symmetry_equiv_pos_as_xyz
  1  'x, y, z'
loop_
 _atom_site_type_symbol
 _atom_site_label
 _atom_site_symmetry_multiplicity
 _atom_site_fract_x
 _atom_site_fract_y
 _atom_site_fract_z
 _atom_site_occupancy
  Li  Li0  1  0.12500000  0.12500000  0.12500000  1
  Li  Li1  1  0.50000000  0.50000000  0.50000000  1
  Li  Li2  1  0.25000000  0.25000000  0.25000000  1
  Li  Li3  1  0.75000000  0.75000000  0.75000000  1
  Al  Al4  1  0.37791979  0.72235017  0.56745334  1
  Al  Al5  1  0.80384004  0.73015579  0.19377832  1
  Al  Al6  1  0.23353390  0.69406941  0.88049820  1
  O  O7  1  0.45657686  0.56426033  0.83893446  1
  O  O8  1  0.38175129  0.15935060  0.67501168  1
  O  O9  1  0.72657657  0.98011821  0.23155909  1
  I  I10  1  0.46305328  0.72739297  0.42429798  1
  I  I11  1  0.81781580  0.66612220  0.56585310  1
  I  I12  1  0.62047816  0.70397230  0.49266590  1
  Pr  Pr13  1  0.39196754  0.79977855  0.09806506  1
