# generated using pymatgen
data_Li2Mg3Te3Se
_symmetry_space_group_name_H-M   'P 1'
_cell_length_a   16.80434647
_cell_length_b   16.80434647
_cell_length_c   16.80434647
_cell_angle_alpha   90.00000000
_cell_angle_beta   90.00000000
_cell_angle_gamma   90.00000000
_symmetry_Int_Tables_number   1
_chemical_formula_structural   Li2Mg3Te3Se
_chemical_formula_sum   'Li64 Mg96 Te96 Se32'
_cell_volume   4745.31319438
_cell_formula_units_Z   32
loop_
 _symmetry_equiv_pos_site_id
 _symmetry_equiv_pos_as_xyz
  1  'x, y, z'
loop_
 _atom_site_type_symbol
 _atom_site_label
 _atom_site_symmetry_multiplicity
 _atom_site_fract_x
 _atom_site_fract_y
 _atom_site_fract_z
 _atom_site_occupancy
  Li  Li0  1  0.12500000  0.33047732  0.91952268  1
  Li  Li1  1  0.37500000  0.66952268  0.41952268  1
  Li  Li2  1  0.87500000  0.83047732  0.58047732  1
  Li  Li3  1  0.62500000  0.16952268  0.08047732  1
  Li  Li4  1  0.91952268  0.12500000  0.33047732  1
  Li  Li5  1  0.41952268  0.37500000  0.66952268  1
  Li  Li6  1  0.58047732  0.87500000  0.83047732  1
  Li  Li7  1  0.08047732  0.62500000  0.16952268  1
  Li  Li8  1  0.33047732  0.91952268  0.12500000  1
  Li  Li9  1  0.66952268  0.41952268  0.37500000  1
  Li  Li10  1  0.83047732  0.58047732  0.87500000  1
  Li  Li11  1  0.16952268  0.08047732  0.62500000  1
  Li  Li12  1  0.87500000  0.66952268  0.08047732  1
  Li  Li13  1  0.62500000  0.33047732  0.58047732  1
  Li  Li14  1  0.12500000  0.16952268  0.41952268  1
  Li  Li15  1  0.37500000  0.83047732  0.91952268  1
  Li  Li16  1  0.08047732  0.87500000  0.66952268  1
  Li  Li17  1  0.58047732  0.62500000  0.33047732  1
  Li  Li18  1  0.41952268  0.12500000  0.16952268  1
  Li  Li19  1  0.91952268  0.37500000  0.83047732  1
  Li  Li20  1  0.66952268  0.08047732  0.87500000  1
  Li  Li21  1  0.33047732  0.58047732  0.62500000  1
  Li  Li22  1  0.16952268  0.41952268  0.12500000  1
  Li  Li23  1  0.83047732  0.91952268  0.37500000  1
  Li  Li24  1  0.62500000  0.83047732  0.41952268  1
  Li  Li25  1  0.87500000  0.16952268  0.91952268  1
  Li  Li26  1  0.37500000  0.33047732  0.08047732  1
  Li  Li27  1  0.12500000  0.66952268  0.58047732  1
  Li  Li28  1  0.41952268  0.62500000  0.83047732  1
  Li  Li29  1  0.91952268  0.87500000  0.16952268  1
  Li  Li30  1  0.08047732  0.37500000  0.33047732  1
  Li  Li31  1  0.58047732  0.12500000  0.66952268  1
  Li  Li32  1  0.83047732  0.41952268  0.62500000  1
  Li  Li33  1  0.16952268  0.91952268  0.87500000  1
  Li  Li34  1  0.33047732  0.08047732  0.37500000  1
  Li  Li35  1  0.66952268  0.58047732  0.12500000  1
  Li  Li36  1  0.37500000  0.16952268  0.58047732  1
  Li  Li37  1  0.12500000  0.83047732  0.08047732  1
  Li  Li38  1  0.62500000  0.66952268  0.91952268  1
  Li  Li39  1  0.87500000  0.33047732  0.41952268  1
  Li  Li40  1  0.58047732  0.37500000  0.16952268  1
  Li  Li41  1  0.08047732  0.12500000  0.83047732  1
  Li  Li42  1  0.91952268  0.62500000  0.66952268  1
  Li  Li43  1  0.41952268  0.87500000  0.33047732  1
  Li  Li44  1  0.16952268  0.58047732  0.37500000  1
  Li  Li45  1  0.83047732  0.08047732  0.12500000  1
  Li  Li46  1  0.66952268  0.91952268  0.62500000  1
  Li  Li47  1  0.33047732  0.41952268  0.87500000  1
  Li  Li48  1  0.12500000  0.12500000  0.12500000  1
  Li  Li49  1  0.37500000  0.87500000  0.62500000  1
  Li  Li50  1  0.87500000  0.62500000  0.37500000  1
  Li  Li51  1  0.62500000  0.37500000  0.87500000  1
  Li  Li52  1  0.87500000  0.87500000  0.87500000  1
  Li  Li53  1  0.62500000  0.12500000  0.37500000  1
  Li  Li54  1  0.12500000  0.37500000  0.62500000  1
  Li  Li55  1  0.37500000  0.62500000  0.12500000  1
  Li  Li56  1  0.62500000  0.62500000  0.62500000  1
  Li  Li57  1  0.87500000  0.37500000  0.12500000  1
  Li  Li58  1  0.37500000  0.12500000  0.87500000  1
  Li  Li59  1  0.12500000  0.87500000  0.37500000  1
  Li  Li60  1  0.37500000  0.37500000  0.37500000  1
  Li  Li61  1  0.12500000  0.62500000  0.87500000  1
  Li  Li62  1  0.62500000  0.87500000  0.12500000  1
  Li  Li63  1  0.87500000  0.12500000  0.62500000  1
  Mg  Mg64  1  0.12500000  0.00000000  0.25000000  1
  Mg  Mg65  1  0.37500000  0.00000000  0.75000000  1
  Mg  Mg66  1  0.25000000  0.12500000  0.00000000  1
  Mg  Mg67  1  0.75000000  0.37500000  0.00000000  1
  Mg  Mg68  1  0.00000000  0.25000000  0.12500000  1
  Mg  Mg69  1  0.00000000  0.75000000  0.37500000  1
  Mg  Mg70  1  0.87500000  -0.00000000  0.75000000  1
  Mg  Mg71  1  0.62500000  -0.00000000  0.25000000  1
  Mg  Mg72  1  0.75000000  0.87500000  0.00000000  1
  Mg  Mg73  1  0.25000000  0.62500000  -0.00000000  1
  Mg  Mg74  1  0.00000000  0.75000000  0.87500000  1
  Mg  Mg75  1  0.00000000  0.25000000  0.62500000  1
  Mg  Mg76  1  0.62500000  0.50000000  0.75000000  1
  Mg  Mg77  1  0.87500000  0.50000000  0.25000000  1
  Mg  Mg78  1  0.75000000  0.62500000  0.50000000  1
  Mg  Mg79  1  0.25000000  0.87500000  0.50000000  1
  Mg  Mg80  1  0.50000000  0.75000000  0.62500000  1
  Mg  Mg81  1  0.50000000  0.25000000  0.87500000  1
  Mg  Mg82  1  0.37500000  0.50000000  0.25000000  1
  Mg  Mg83  1  0.12500000  0.50000000  0.75000000  1
  Mg  Mg84  1  0.25000000  0.37500000  0.50000000  1
  Mg  Mg85  1  0.75000000  0.12500000  0.50000000  1
  Mg  Mg86  1  0.50000000  0.25000000  0.37500000  1
  Mg  Mg87  1  0.50000000  0.75000000  0.12500000  1
  Mg  Mg88  1  0.12500000  0.81231120  -0.56231120  1
  Mg  Mg89  1  0.37500000  -0.81231120  -0.06231120  1
  Mg  Mg90  1  0.87500000  1.31231120  1.06231120  1
  Mg  Mg91  1  0.62500000  -0.31231120  1.56231120  1
  Mg  Mg92  1  -0.56231120  0.12500000  0.81231120  1
  Mg  Mg93  1  -0.06231120  0.37500000  -0.81231120  1
  Mg  Mg94  1  1.06231120  0.87500000  1.31231120  1
  Mg  Mg95  1  1.56231120  0.62500000  -0.31231120  1
  Mg  Mg96  1  0.81231120  -0.56231120  0.12500000  1
  Mg  Mg97  1  -0.81231120  -0.06231120  0.37500000  1
  Mg  Mg98  1  1.31231120  1.06231120  0.87500000  1
  Mg  Mg99  1  -0.31231120  1.56231120  0.62500000  1
  Mg  Mg100  1  0.87500000  -0.81231120  1.56231120  1
  Mg  Mg101  1  0.62500000  0.81231120  1.06231120  1
  Mg  Mg102  1  0.12500000  -0.31231120  -0.06231120  1
  Mg  Mg103  1  0.37500000  1.31231120  -0.56231120  1
  Mg  Mg104  1  1.56231120  0.87500000  -0.81231120  1
  Mg  Mg105  1  1.06231120  0.62500000  0.81231120  1
  Mg  Mg106  1  -0.06231120  0.12500000  -0.31231120  1
  Mg  Mg107  1  -0.56231120  0.37500000  1.31231120  1
  Mg  Mg108  1  -0.81231120  1.56231120  0.87500000  1
  Mg  Mg109  1  0.81231120  1.06231120  0.62500000  1
  Mg  Mg110  1  -0.31231120  -0.06231120  0.12500000  1
  Mg  Mg111  1  1.31231120  -0.56231120  0.37500000  1
  Mg  Mg112  1  0.62500000  1.31231120  -0.06231120  1
  Mg  Mg113  1  0.87500000  -0.31231120  0.43768880  1
  Mg  Mg114  1  1.37500000  1.81231120  1.56231120  1
  Mg  Mg115  1  1.12500000  0.18768880  2.06231120  1
  Mg  Mg116  1  -0.06231120  0.62500000  1.31231120  1
  Mg  Mg117  1  0.43768880  0.87500000  -0.31231120  1
  Mg  Mg118  1  1.56231120  1.37500000  1.81231120  1
  Mg  Mg119  1  2.06231120  1.12500000  0.18768880  1
  Mg  Mg120  1  1.31231120  -0.06231120  0.62500000  1
  Mg  Mg121  1  -0.31231120  0.43768880  0.87500000  1
  Mg  Mg122  1  1.81231120  1.56231120  1.37500000  1
  Mg  Mg123  1  0.18768880  2.06231120  1.12500000  1
  Mg  Mg124  1  1.37500000  -0.31231120  2.06231120  1
  Mg  Mg125  1  1.12500000  1.31231120  1.56231120  1
  Mg  Mg126  1  0.62500000  0.18768880  0.43768880  1
  Mg  Mg127  1  0.87500000  1.81231120  -0.06231120  1
  Mg  Mg128  1  2.06231120  1.37500000  -0.31231120  1
  Mg  Mg129  1  1.56231120  1.12500000  1.31231120  1
  Mg  Mg130  1  0.43768880  0.62500000  0.18768880  1
  Mg  Mg131  1  -0.06231120  0.87500000  1.81231120  1
  Mg  Mg132  1  -0.31231120  2.06231120  1.37500000  1
  Mg  Mg133  1  1.31231120  1.56231120  1.12500000  1
  Mg  Mg134  1  0.18768880  0.43768880  0.62500000  1
  Mg  Mg135  1  1.81231120  -0.06231120  0.87500000  1
  Mg  Mg136  1  0.37500000  0.00000000  0.25000000  1
  Mg  Mg137  1  0.12500000  0.00000000  0.75000000  1
  Mg  Mg138  1  0.25000000  0.37500000  0.00000000  1
  Mg  Mg139  1  0.75000000  0.12500000  0.00000000  1
  Mg  Mg140  1  0.00000000  0.25000000  0.37500000  1
  Mg  Mg141  1  0.00000000  0.75000000  0.12500000  1
  Mg  Mg142  1  0.75000000  0.62500000  0.00000000  1
  Mg  Mg143  1  0.75000000  0.37500000  0.50000000  1
  Mg  Mg144  1  0.12500000  0.50000000  0.25000000  1
  Mg  Mg145  1  0.87500000  -0.00000000  0.25000000  1
  Mg  Mg146  1  0.00000000  0.25000000  0.87500000  1
  Mg  Mg147  1  0.50000000  0.25000000  0.12500000  1
  Mg  Mg148  1  0.87500000  0.50000000  0.75000000  1
  Mg  Mg149  1  0.62500000  0.50000000  0.25000000  1
  Mg  Mg150  1  0.75000000  0.87500000  0.50000000  1
  Mg  Mg151  1  0.25000000  0.62500000  0.50000000  1
  Mg  Mg152  1  0.50000000  0.75000000  0.87500000  1
  Mg  Mg153  1  0.50000000  0.25000000  0.62500000  1
  Mg  Mg154  1  0.25000000  0.12500000  0.50000000  1
  Mg  Mg155  1  0.25000000  0.87500000  -0.00000000  1
  Mg  Mg156  1  0.62500000  -0.00000000  0.75000000  1
  Mg  Mg157  1  0.37500000  0.50000000  0.75000000  1
  Mg  Mg158  1  0.50000000  0.75000000  0.37500000  1
  Mg  Mg159  1  0.00000000  0.75000000  0.62500000  1
  Se  Se160  1  0.43654978  0.43654978  0.43654978  1
  Se  Se161  1  0.06345022  0.56345022  0.93654978  1
  Se  Se162  1  0.56345022  0.93654978  0.06345022  1
  Se  Se163  1  0.93654978  0.06345022  0.56345022  1
  Se  Se164  1  0.18654978  0.68654978  0.81345022  1
  Se  Se165  1  0.31345022  0.31345022  0.31345022  1
  Se  Se166  1  0.68654978  0.81345022  0.18654978  1
  Se  Se167  1  0.81345022  0.18654978  0.68654978  1
  Se  Se168  1  0.56345022  0.56345022  0.56345022  1
  Se  Se169  1  0.93654978  0.43654978  0.06345022  1
  Se  Se170  1  0.43654978  0.06345022  0.93654978  1
  Se  Se171  1  0.06345022  0.93654978  0.43654978  1
  Se  Se172  1  0.81345022  0.31345022  0.18654978  1
  Se  Se173  1  0.68654978  0.68654978  0.68654978  1
  Se  Se174  1  0.31345022  0.18654978  0.81345022  1
  Se  Se175  1  0.18654978  0.81345022  0.31345022  1
  Se  Se176  1  0.93654978  0.93654978  0.93654978  1
  Se  Se177  1  0.56345022  0.06345022  0.43654978  1
  Se  Se178  1  0.06345022  0.43654978  0.56345022  1
  Se  Se179  1  0.43654978  0.56345022  0.06345022  1
  Se  Se180  1  0.68654978  0.18654978  0.31345022  1
  Se  Se181  1  0.81345022  0.81345022  0.81345022  1
  Se  Se182  1  0.18654978  0.31345022  0.68654978  1
  Se  Se183  1  0.31345022  0.68654978  0.18654978  1
  Se  Se184  1  0.06345022  0.06345022  0.06345022  1
  Se  Se185  1  0.43654978  0.93654978  0.56345022  1
  Se  Se186  1  0.93654978  0.56345022  0.43654978  1
  Se  Se187  1  0.56345022  0.43654978  0.93654978  1
  Se  Se188  1  0.31345022  0.81345022  0.68654978  1
  Se  Se189  1  0.18654978  0.18654978  0.18654978  1
  Se  Se190  1  0.81345022  0.68654978  0.31345022  1
  Se  Se191  1  0.68654978  0.31345022  0.81345022  1
  Te  Te192  1  0.12500000  0.61268450  0.63731550  1
  Te  Te193  1  0.37500000  0.38731550  0.13731550  1
  Te  Te194  1  0.87500000  0.11268450  0.86268450  1
  Te  Te195  1  0.62500000  0.88731550  0.36268450  1
  Te  Te196  1  0.63731550  0.12500000  0.61268450  1
  Te  Te197  1  0.13731550  0.37500000  0.38731550  1
  Te  Te198  1  0.86268450  0.87500000  0.11268450  1
  Te  Te199  1  0.36268450  0.62500000  0.88731550  1
  Te  Te200  1  0.61268450  0.63731550  0.12500000  1
  Te  Te201  1  0.38731550  0.13731550  0.37500000  1
  Te  Te202  1  0.11268450  0.86268450  0.87500000  1
  Te  Te203  1  0.88731550  0.36268450  0.62500000  1
  Te  Te204  1  0.87500000  0.38731550  0.36268450  1
  Te  Te205  1  0.62500000  0.61268450  0.86268450  1
  Te  Te206  1  0.12500000  0.88731550  0.13731550  1
  Te  Te207  1  0.37500000  0.11268450  0.63731550  1
  Te  Te208  1  0.36268450  0.87500000  0.38731550  1
  Te  Te209  1  0.86268450  0.62500000  0.61268450  1
  Te  Te210  1  0.13731550  0.12500000  0.88731550  1
  Te  Te211  1  0.63731550  0.37500000  0.11268450  1
  Te  Te212  1  0.38731550  0.36268450  0.87500000  1
  Te  Te213  1  0.61268450  0.86268450  0.62500000  1
  Te  Te214  1  0.88731550  0.13731550  0.12500000  1
  Te  Te215  1  0.11268450  0.63731550  0.37500000  1
  Te  Te216  1  0.62500000  0.11268450  0.13731550  1
  Te  Te217  1  0.87500000  0.88731550  0.63731550  1
  Te  Te218  1  0.37500000  0.61268450  0.36268450  1
  Te  Te219  1  0.12500000  0.38731550  0.86268450  1
  Te  Te220  1  0.13731550  0.62500000  0.11268450  1
  Te  Te221  1  0.63731550  0.87500000  0.88731550  1
  Te  Te222  1  0.36268450  0.37500000  0.61268450  1
  Te  Te223  1  0.86268450  0.12500000  0.38731550  1
  Te  Te224  1  0.11268450  0.13731550  0.62500000  1
  Te  Te225  1  0.88731550  0.63731550  0.87500000  1
  Te  Te226  1  0.61268450  0.36268450  0.37500000  1
  Te  Te227  1  0.38731550  0.86268450  0.12500000  1
  Te  Te228  1  0.37500000  0.88731550  0.86268450  1
  Te  Te229  1  0.12500000  0.11268450  0.36268450  1
  Te  Te230  1  0.62500000  0.38731550  0.63731550  1
  Te  Te231  1  0.87500000  0.61268450  0.13731550  1
  Te  Te232  1  0.86268450  0.37500000  0.88731550  1
  Te  Te233  1  0.36268450  0.12500000  0.11268450  1
  Te  Te234  1  0.63731550  0.62500000  0.38731550  1
  Te  Te235  1  0.13731550  0.87500000  0.61268450  1
  Te  Te236  1  0.88731550  0.86268450  0.37500000  1
  Te  Te237  1  0.11268450  0.36268450  0.12500000  1
  Te  Te238  1  0.38731550  0.63731550  0.62500000  1
  Te  Te239  1  0.61268450  0.13731550  0.87500000  1
  Te  Te240  1  0.12500000  0.94069700  0.30930300  1
  Te  Te241  1  0.37500000  0.05930300  0.80930300  1
  Te  Te242  1  0.87500000  0.44069700  0.19069700  1
  Te  Te243  1  0.62500000  0.55930300  0.69069700  1
  Te  Te244  1  0.30930300  0.12500000  0.94069700  1
  Te  Te245  1  0.80930300  0.37500000  0.05930300  1
  Te  Te246  1  0.19069700  0.87500000  0.44069700  1
  Te  Te247  1  0.69069700  0.62500000  0.55930300  1
  Te  Te248  1  0.94069700  0.30930300  0.12500000  1
  Te  Te249  1  0.05930300  0.80930300  0.37500000  1
  Te  Te250  1  0.44069700  0.19069700  0.87500000  1
  Te  Te251  1  0.55930300  0.69069700  0.62500000  1
  Te  Te252  1  0.87500000  0.05930300  0.69069700  1
  Te  Te253  1  0.62500000  0.94069700  0.19069700  1
  Te  Te254  1  0.12500000  0.55930300  0.80930300  1
  Te  Te255  1  0.37500000  0.44069700  0.30930300  1
  Te  Te256  1  0.69069700  0.87500000  0.05930300  1
  Te  Te257  1  0.19069700  0.62500000  0.94069700  1
  Te  Te258  1  0.80930300  0.12500000  0.55930300  1
  Te  Te259  1  0.30930300  0.37500000  0.44069700  1
  Te  Te260  1  0.05930300  0.69069700  0.87500000  1
  Te  Te261  1  0.94069700  0.19069700  0.62500000  1
  Te  Te262  1  0.55930300  0.80930300  0.12500000  1
  Te  Te263  1  0.44069700  0.30930300  0.37500000  1
  Te  Te264  1  0.62500000  0.44069700  0.80930300  1
  Te  Te265  1  0.87500000  0.55930300  0.30930300  1
  Te  Te266  1  0.37500000  0.94069700  0.69069700  1
  Te  Te267  1  0.12500000  0.05930300  0.19069700  1
  Te  Te268  1  0.80930300  0.62500000  0.44069700  1
  Te  Te269  1  0.30930300  0.87500000  0.55930300  1
  Te  Te270  1  0.69069700  0.37500000  0.94069700  1
  Te  Te271  1  0.19069700  0.12500000  0.05930300  1
  Te  Te272  1  0.44069700  0.80930300  0.62500000  1
  Te  Te273  1  0.55930300  0.30930300  0.87500000  1
  Te  Te274  1  0.94069700  0.69069700  0.37500000  1
  Te  Te275  1  0.05930300  0.19069700  0.12500000  1
  Te  Te276  1  0.37500000  0.55930300  0.19069700  1
  Te  Te277  1  0.12500000  0.44069700  0.69069700  1
  Te  Te278  1  0.62500000  0.05930300  0.30930300  1
  Te  Te279  1  0.87500000  0.94069700  0.80930300  1
  Te  Te280  1  0.19069700  0.37500000  0.55930300  1
  Te  Te281  1  0.69069700  0.12500000  0.44069700  1
  Te  Te282  1  0.30930300  0.62500000  0.05930300  1
  Te  Te283  1  0.80930300  0.87500000  0.94069700  1
  Te  Te284  1  0.55930300  0.19069700  0.37500000  1
  Te  Te285  1  0.44069700  0.69069700  0.12500000  1
  Te  Te286  1  0.05930300  0.30930300  0.62500000  1
  Te  Te287  1  0.94069700  0.80930300  0.87500000  1
