# generated using pymatgen
data_Li2S
_symmetry_space_group_name_H-M   'P 1'
_cell_length_a   11.45679719
_cell_length_b   11.45679719
_cell_length_c   11.45679719
_cell_angle_alpha   90.00000000
_cell_angle_beta   90.00000000
_cell_angle_gamma   90.00000000
_symmetry_Int_Tables_number   1
_chemical_formula_structural   Li2S
_chemical_formula_sum   'Li48 S24'
_cell_volume   1503.79859811
_cell_formula_units_Z   24
loop_
 _symmetry_equiv_pos_site_id
 _symmetry_equiv_pos_as_xyz
  1  'x, y, z'
loop_
 _atom_site_type_symbol
 _atom_site_label
 _atom_site_symmetry_multiplicity
 _atom_site_fract_x
 _atom_site_fract_y
 _atom_site_fract_z
 _atom_site_occupancy
  Li  Li0  1  0.93005894  0.00000000  0.25000000  1
  Li  Li1  1  -0.43005894  -0.00000000  0.75000000  1
  Li  Li2  1  0.25000000  0.93005894  0.00000000  1
  Li  Li3  1  0.75000000  -0.43005894  -0.00000000  1
  Li  Li4  1  0.00000000  0.25000000  0.93005894  1
  Li  Li5  1  0.00000000  0.75000000  -0.43005894  1
  Li  Li6  1  0.75000000  1.18005894  0.00000000  1
  Li  Li7  1  0.75000000  -0.18005894  0.50000000  1
  Li  Li8  1  1.68005894  0.50000000  0.25000000  1
  Li  Li9  1  -0.68005894  0.00000000  0.25000000  1
  Li  Li10  1  0.00000000  0.25000000  -0.68005894  1
  Li  Li11  1  0.50000000  0.25000000  1.68005894  1
  Li  Li12  1  1.43005894  0.50000000  0.75000000  1
  Li  Li13  1  0.06994106  0.50000000  1.25000000  1
  Li  Li14  1  0.75000000  1.43005894  0.50000000  1
  Li  Li15  1  1.25000000  0.06994106  0.50000000  1
  Li  Li16  1  0.50000000  0.75000000  1.43005894  1
  Li  Li17  1  0.50000000  1.25000000  0.06994106  1
  Li  Li18  1  1.25000000  1.68005894  0.50000000  1
  Li  Li19  1  1.25000000  0.31994106  1.00000000  1
  Li  Li20  1  2.18005894  1.00000000  0.75000000  1
  Li  Li21  1  -0.18005894  0.50000000  0.75000000  1
  Li  Li22  1  0.50000000  0.75000000  -0.18005894  1
  Li  Li23  1  1.00000000  0.75000000  2.18005894  1
  Li  Li24  1  0.87500000  0.87500000  0.87500000  1
  Li  Li25  1  0.62500000  0.12500000  0.37500000  1
  Li  Li26  1  0.12500000  0.37500000  0.62500000  1
  Li  Li27  1  0.37500000  0.62500000  0.12500000  1
  Li  Li28  1  0.37500000  0.37500000  0.37500000  1
  Li  Li29  1  0.12500000  0.62500000  0.87500000  1
  Li  Li30  1  0.62500000  0.87500000  0.12500000  1
  Li  Li31  1  0.87500000  0.12500000  0.62500000  1
  Li  Li32  1  0.27002196  0.27002196  0.27002196  1
  Li  Li33  1  0.22997804  0.72997804  0.77002196  1
  Li  Li34  1  0.72997804  0.77002196  0.22997804  1
  Li  Li35  1  0.77002196  0.22997804  0.72997804  1
  Li  Li36  1  0.02002196  0.52002196  0.97997804  1
  Li  Li37  1  0.47997804  0.47997804  0.47997804  1
  Li  Li38  1  0.52002196  0.97997804  0.02002196  1
  Li  Li39  1  0.97997804  0.02002196  0.52002196  1
  Li  Li40  1  0.77002196  0.77002196  0.77002196  1
  Li  Li41  1  0.72997804  0.22997804  0.27002196  1
  Li  Li42  1  0.22997804  0.27002196  0.72997804  1
  Li  Li43  1  0.27002196  0.72997804  0.22997804  1
  Li  Li44  1  0.52002196  0.02002196  0.47997804  1
  Li  Li45  1  0.97997804  0.97997804  0.97997804  1
  Li  Li46  1  0.02002196  0.47997804  0.52002196  1
  Li  Li47  1  0.47997804  0.52002196  0.02002196  1
  S  S48  1  0.62500000  0.00000000  0.25000000  1
  S  S49  1  0.87500000  0.00000000  0.75000000  1
  S  S50  1  0.25000000  0.62500000  0.00000000  1
  S  S51  1  0.75000000  0.87500000  0.00000000  1
  S  S52  1  0.00000000  0.25000000  0.62500000  1
  S  S53  1  0.00000000  0.75000000  0.87500000  1
  S  S54  1  0.12500000  0.50000000  0.75000000  1
  S  S55  1  0.37500000  0.50000000  0.25000000  1
  S  S56  1  0.75000000  0.12500000  0.50000000  1
  S  S57  1  0.25000000  0.37500000  0.50000000  1
  S  S58  1  0.50000000  0.75000000  0.12500000  1
  S  S59  1  0.50000000  0.25000000  0.37500000  1
  S  S60  1  0.12500000  0.00000000  0.25000000  1
  S  S61  1  0.37500000  0.00000000  0.75000000  1
  S  S62  1  0.25000000  0.12500000  -0.00000000  1
  S  S63  1  0.75000000  0.37500000  -0.00000000  1
  S  S64  1  0.00000000  0.25000000  0.12500000  1
  S  S65  1  0.00000000  0.75000000  0.37500000  1
  S  S66  1  0.62500000  0.50000000  0.75000000  1
  S  S67  1  0.87500000  0.50000000  0.25000000  1
  S  S68  1  0.75000000  0.62500000  0.50000000  1
  S  S69  1  0.25000000  0.87500000  0.50000000  1
  S  S70  1  0.50000000  0.75000000  0.62500000  1
  S  S71  1  0.50000000  0.25000000  0.87500000  1
