# generated using pymatgen
data_Li5TiSb4OF6
_symmetry_space_group_name_H-M   'P 1'
_cell_length_a   4.05799754
_cell_length_b   3.82460939
_cell_length_c   3.65446056
_cell_angle_alpha   89.90332523
_cell_angle_beta   92.13857208
_cell_angle_gamma   94.53397087
_symmetry_Int_Tables_number   1
_chemical_formula_structural   Li5TiSb4OF6
_chemical_formula_sum   'Li5 Ti1 Sb4 O1 F6'
_cell_volume   56.50124407
_cell_formula_units_Z   1
loop_
 _symmetry_equiv_pos_site_id
 _symmetry_equiv_pos_as_xyz
  1  'x, y, z'
loop_
 _atom_site_type_symbol
 _atom_site_label
 _atom_site_symmetry_multiplicity
 _atom_site_fract_x
 _atom_site_fract_y
 _atom_site_fract_z
 _atom_site_occupancy
  Li  Li0  1  0.00000000  0.00000000  0.00000000  1
  Li  Li1  1  0.50000000  0.50000000  0.50000000  1
  Li  Li2  1  0.50000000  0.50000000  0.00000000  1
  Li  Li3  1  0.50000000  0.00000000  0.50000000  1
  Li  Li4  1  0.00000000  0.50000000  0.50000000  1
  Ti  Ti5  1  0.36637754  0.87059473  0.57508738  1
  Sb  Sb6  1  0.26423260  0.84273986  0.28592225  1
  Sb  Sb7  1  0.11788110  0.74063302  0.17178834  1
  Sb  Sb8  1  0.37290083  0.48544947  0.55148889  1
  Sb  Sb9  1  0.04780161  0.79006151  0.69056028  1
  O  O10  1  0.03818092  0.62240742  0.45772179  1
  F  F11  1  0.44389880  0.03682913  0.94205410  1
  F  F12  1  0.81161521  0.77765655  0.51255880  1
  F  F13  1  0.53153132  0.38138207  0.17532329  1
  F  F14  1  0.33991117  0.05386334  0.13548412  1
  F  F15  1  0.72761675  0.72189195  0.52255569  1
  F  F16  1  0.71081335  0.06062556  0.67867167  1
