# generated using pymatgen
data_Li6Zr(SBr3)2
_symmetry_space_group_name_H-M   'P 1'
_cell_length_a   10.33666220
_cell_length_b   10.33666220
_cell_length_c   18.88020595
_cell_angle_alpha   90.00000000
_cell_angle_beta   90.00000000
_cell_angle_gamma   120.00000000
_symmetry_Int_Tables_number   1
_chemical_formula_structural   Li6Zr(SBr3)2
_chemical_formula_sum   'Li36 Zr6 S12 Br36'
_cell_volume   1747.02052147
_cell_formula_units_Z   6
loop_
 _symmetry_equiv_pos_site_id
 _symmetry_equiv_pos_as_xyz
  1  'x, y, z'
loop_
 _atom_site_type_symbol
 _atom_site_label
 _atom_site_symmetry_multiplicity
 _atom_site_fract_x
 _atom_site_fract_y
 _atom_site_fract_z
 _atom_site_occupancy
  Br  Br0  1  0.24798558  0.14246560  0.15419507  1
  Br  Br1  1  0.85753440  0.10551998  0.15419507  1
  Br  Br2  1  0.89448002  0.75201442  0.15419507  1
  Br  Br3  1  0.14246560  0.24798558  0.34580493  1
  Br  Br4  1  0.10551998  0.85753440  0.34580493  1
  Br  Br5  1  0.75201442  0.89448002  0.34580493  1
  Br  Br6  1  0.75201442  0.85753440  0.84580493  1
  Br  Br7  1  0.14246560  0.89448002  0.84580493  1
  Br  Br8  1  0.10551998  0.24798558  0.84580493  1
  Br  Br9  1  0.85753440  0.75201442  0.65419507  1
  Br  Br10  1  0.89448002  0.14246560  0.65419507  1
  Br  Br11  1  0.24798558  0.10551998  0.65419507  1
  Br  Br12  1  0.91465224  0.47579893  0.48752840  1
  Br  Br13  1  0.52420107  0.43885332  0.48752840  1
  Br  Br14  1  0.56114668  0.08534776  0.48752840  1
  Br  Br15  1  0.80913226  0.58131891  0.67913827  1
  Br  Br16  1  0.77218665  0.19086774  0.67913827  1
  Br  Br17  1  0.41868109  0.22781335  0.67913827  1
  Br  Br18  1  0.41868109  0.19086774  0.17913827  1
  Br  Br19  1  0.80913226  0.22781335  0.17913827  1
  Br  Br20  1  0.77218665  0.58131891  0.17913827  1
  Br  Br21  1  0.52420107  0.08534776  0.98752840  1
  Br  Br22  1  0.56114668  0.47579893  0.98752840  1
  Br  Br23  1  0.91465224  0.43885332  0.98752840  1
  Br  Br24  1  0.58131891  0.80913226  0.82086173  1
  Br  Br25  1  0.19086774  0.77218665  0.82086173  1
  Br  Br26  1  0.22781335  0.41868109  0.82086173  1
  Br  Br27  1  0.47579893  0.91465224  0.01247160  1
  Br  Br28  1  0.43885332  0.52420107  0.01247160  1
  Br  Br29  1  0.08534776  0.56114668  0.01247160  1
  Br  Br30  1  0.08534776  0.52420107  0.51247160  1
  Br  Br31  1  0.47579893  0.56114668  0.51247160  1
  Br  Br32  1  0.43885332  0.91465224  0.51247160  1
  Br  Br33  1  0.19086774  0.41868109  0.32086173  1
  Br  Br34  1  0.22781335  0.80913226  0.32086173  1
  Br  Br35  1  0.58131891  0.77218665  0.32086173  1
  Li  Li36  1  0.43896720  0.22572311  0.54215183  1
  Li  Li37  1  -0.22572311  0.21324409  0.54215183  1
  Li  Li38  1  -0.21324409  -0.43896720  0.54215183  1
  Li  Li39  1  0.22572311  0.43896720  -0.04215183  1
  Li  Li40  1  0.21324409  -0.22572311  -0.04215183  1
  Li  Li41  1  -0.43896720  -0.21324409  -0.04215183  1
  Li  Li42  1  -0.43896720  -0.22572311  -0.54215183  1
  Li  Li43  1  0.22572311  -0.21324409  -0.54215183  1
  Li  Li44  1  0.21324409  0.43896720  -0.54215183  1
  Li  Li45  1  -0.22572311  -0.43896720  1.04215183  1
  Li  Li46  1  -0.21324409  0.22572311  1.04215183  1
  Li  Li47  1  0.43896720  0.21324409  1.04215183  1
  Li  Li48  1  1.10563387  0.55905644  0.87548517  1
  Li  Li49  1  0.44094356  0.54657742  0.87548517  1
  Li  Li50  1  0.45342258  -0.10563387  0.87548517  1
  Li  Li51  1  0.89238978  0.77230053  0.29118150  1
  Li  Li52  1  0.87991076  0.10761022  0.29118150  1
  Li  Li53  1  0.22769947  0.12008924  0.29118150  1
  Li  Li54  1  0.22769947  0.10761022  -0.20881850  1
  Li  Li55  1  0.89238978  0.12008924  -0.20881850  1
  Li  Li56  1  0.87991076  0.77230053  -0.20881850  1
  Li  Li57  1  0.44094356  -0.10563387  1.37548517  1
  Li  Li58  1  0.45342258  0.55905644  1.37548517  1
  Li  Li59  1  1.10563387  0.54657742  1.37548517  1
  Li  Li60  1  0.77230053  0.89238978  1.20881850  1
  Li  Li61  1  0.10761022  0.87991076  1.20881850  1
  Li  Li62  1  0.12008924  0.22769947  1.20881850  1
  Li  Li63  1  0.55905644  1.10563387  0.62451483  1
  Li  Li64  1  0.54657742  0.44094356  0.62451483  1
  Li  Li65  1  -0.10563387  0.45342258  0.62451483  1
  Li  Li66  1  -0.10563387  0.44094356  0.12451483  1
  Li  Li67  1  0.55905644  0.45342258  0.12451483  1
  Li  Li68  1  0.54657742  1.10563387  0.12451483  1
  Li  Li69  1  0.10761022  0.22769947  1.70881850  1
  Li  Li70  1  0.12008924  0.89238978  1.70881850  1
  Li  Li71  1  0.77230053  0.87991076  1.70881850  1
  S  S72  1  0.00000000  0.00000000  0.96098511  1
  S  S73  1  0.00000000  0.00000000  0.53901489  1
  S  S74  1  0.00000000  0.00000000  0.03901489  1
  S  S75  1  0.00000000  0.00000000  0.46098511  1
  S  S76  1  0.66666667  0.33333333  0.29431844  1
  S  S77  1  0.66666667  0.33333333  0.87234823  1
  S  S78  1  0.66666667  0.33333333  0.37234823  1
  S  S79  1  0.66666667  0.33333333  0.79431844  1
  S  S80  1  0.33333333  0.66666667  0.62765177  1
  S  S81  1  0.33333333  0.66666667  0.20568156  1
  S  S82  1  0.33333333  0.66666667  0.70568156  1
  S  S83  1  0.33333333  0.66666667  0.12765177  1
  Zr  Zr84  1  0.00000000  0.00000000  0.25000000  1
  Zr  Zr85  1  0.00000000  0.00000000  0.75000000  1
  Zr  Zr86  1  0.66666667  0.33333333  0.58333333  1
  Zr  Zr87  1  0.66666667  0.33333333  0.08333333  1
  Zr  Zr88  1  0.33333333  0.66666667  0.91666667  1
  Zr  Zr89  1  0.33333333  0.66666667  0.41666667  1
