# generated using pymatgen
data_Li8Cr3SeO4
_symmetry_space_group_name_H-M   'P 1'
_cell_length_a   3.30711390
_cell_length_b   3.17631369
_cell_length_c   5.10827896
_cell_angle_alpha   100.63575249
_cell_angle_beta   112.36969146
_cell_angle_gamma   101.82665407
_symmetry_Int_Tables_number   1
_chemical_formula_structural   Li8Cr3SeO4
_chemical_formula_sum   'Li8 Cr3 Se1 O4'
_cell_volume   46.47972728
_cell_formula_units_Z   1
loop_
 _symmetry_equiv_pos_site_id
 _symmetry_equiv_pos_as_xyz
  1  'x, y, z'
loop_
 _atom_site_type_symbol
 _atom_site_label
 _atom_site_symmetry_multiplicity
 _atom_site_fract_x
 _atom_site_fract_y
 _atom_site_fract_z
 _atom_site_occupancy
  Li  Li0  1  0.00000000  0.00000000  0.00000000  1
  Li  Li1  1  0.33300000  0.66700000  0.25000000  1
  Li  Li2  1  0.66700000  0.33300000  0.50000000  1
  Li  Li3  1  0.00000000  0.00000000  0.75000000  1
  Li  Li4  1  0.77001849  0.72339720  0.97893002  1
  Li  Li5  1  0.46133367  0.80692723  0.63964140  1
  Li  Li6  1  0.63884220  0.78568498  0.48275267  1
  Li  Li7  1  0.89004382  0.15687652  0.54187422  1
  Cr  Cr8  1  0.31758201  0.23373403  0.23289298  1
  Cr  Cr9  1  0.84740390  0.79162228  0.15941108  1
  Cr  Cr10  1  0.39226970  0.36370638  0.86179543  1
  O  O11  1  0.18349882  0.08575260  0.52775856  1
  O  O12  1  0.45030779  0.05901057  0.25776350  1
  O  O13  1  0.85370221  0.15125963  0.62932625  1
  O  O14  1  0.81484796  0.13271361  0.86194656  1
  Se  Se15  1  0.65017742  0.75437258  0.42801515  1
