# generated using pymatgen
data_Li5ZnI4
_symmetry_space_group_name_H-M   'P 1'
_cell_length_a   3.09012194
_cell_length_b   3.19310563
_cell_length_c   5.69134315
_cell_angle_alpha   112.09210253
_cell_angle_beta   100.48864693
_cell_angle_gamma   106.93647933
_symmetry_Int_Tables_number   1
_chemical_formula_structural   Li5ZnI4
_chemical_formula_sum   'Li5 Zn1 I4'
_cell_volume   47.00647417
_cell_formula_units_Z   1
loop_
 _symmetry_equiv_pos_site_id
 _symmetry_equiv_pos_as_xyz
  1  'x, y, z'
loop_
 _atom_site_type_symbol
 _atom_site_label
 _atom_site_symmetry_multiplicity
 _atom_site_fract_x
 _atom_site_fract_y
 _atom_site_fract_z
 _atom_site_occupancy
  Li  Li0  1  0.00000000  0.00000000  0.00000000  1
  Li  Li1  1  0.33300000  0.66700000  0.25000000  1
  Li  Li2  1  0.66700000  0.33300000  0.50000000  1
  Li  Li3  1  0.00000000  0.00000000  0.75000000  1
  Li  Li4  1  0.71180743  0.12984763  0.30643955  1
  Zn  Zn5  1  0.41238339  0.82961679  0.96687398  1
  I  I6  1  0.31569191  0.09807894  0.11763399  1
  I  I7  1  0.59647174  0.39375434  0.72309907  1
  I  I8  1  0.67337404  0.28633598  0.43255904  1
  I  I9  1  0.59921474  0.60906956  0.48983996  1
