# generated using pymatgen
data_SrLi6Si(OF2)3
_symmetry_space_group_name_H-M   'P 1'
_cell_length_a   7.35011815
_cell_length_b   10.18695750
_cell_length_c   15.55262826
_cell_angle_alpha   90.00000000
_cell_angle_beta   90.00000000
_cell_angle_gamma   90.00000000
_symmetry_Int_Tables_number   1
_chemical_formula_structural   SrLi6Si(OF2)3
_chemical_formula_sum   'Sr4 Li24 Si4 O12 F24'
_cell_volume   1164.50834753
_cell_formula_units_Z   4
loop_
 _symmetry_equiv_pos_site_id
 _symmetry_equiv_pos_as_xyz
  1  'x, y, z'
loop_
 _atom_site_type_symbol
 _atom_site_label
 _atom_site_symmetry_multiplicity
 _atom_site_fract_x
 _atom_site_fract_y
 _atom_site_fract_z
 _atom_site_occupancy
  F  F0  1  0.00000000  0.00000000  0.50000000  1
  F  F1  1  0.50000000  0.00000000  0.00000000  1
  F  F2  1  0.00000000  0.50000000  0.50000000  1
  F  F3  1  0.50000000  0.50000000  0.00000000  1
  F  F4  1  0.68225736  0.63696089  0.18217401  1
  F  F5  1  -0.18225736  -0.63696089  0.68217401  1
  F  F6  1  -0.68225736  1.13696089  -0.18217401  1
  F  F7  1  1.18225736  -0.13696089  0.31782599  1
  F  F8  1  -0.68225736  -0.63696089  -0.18217401  1
  F  F9  1  1.18225736  0.63696089  0.31782599  1
  F  F10  1  0.68225736  -0.13696089  0.18217401  1
  F  F11  1  -0.18225736  1.13696089  0.68217401  1
  F  F12  1  0.90160336  0.65698951  0.86361704  1
  F  F13  1  0.59839664  0.34301049  0.36361704  1
  F  F14  1  0.09839664  0.15698951  0.13638296  1
  F  F15  1  0.40160336  0.84301049  0.63638296  1
  F  F16  1  0.09839664  0.34301049  0.13638296  1
  F  F17  1  0.40160336  0.65698951  0.63638296  1
  F  F18  1  0.90160336  0.84301049  0.86361704  1
  F  F19  1  0.59839664  0.15698951  0.36361704  1
  F  F20  1  0.93562407  0.25000000  0.42768698  1
  F  F21  1  0.56437593  0.75000000  0.92768698  1
  F  F22  1  0.06437593  0.75000000  0.57231302  1
  F  F23  1  0.43562407  0.25000000  0.07231302  1
  Li  Li24  1  0.18551906  0.25000000  0.50209422  1
  Li  Li25  1  0.31448094  0.75000000  0.00209422  1
  Li  Li26  1  0.81448094  0.75000000  0.49790578  1
  Li  Li27  1  0.68551906  0.25000000  0.99790578  1
  Li  Li28  1  0.34009922  0.85016447  0.09722633  1
  Li  Li29  1  0.15990078  0.14983553  0.59722633  1
  Li  Li30  1  0.65990078  0.35016447  0.90277367  1
  Li  Li31  1  0.84009922  0.64983553  0.40277367  1
  Li  Li32  1  0.65990078  0.14983553  0.90277367  1
  Li  Li33  1  0.84009922  0.85016447  0.40277367  1
  Li  Li34  1  0.34009922  0.64983553  0.09722633  1
  Li  Li35  1  0.15990078  0.35016447  0.59722633  1
  Li  Li36  1  0.51903097  0.25000000  0.74673201  1
  Li  Li37  1  0.98096903  0.75000000  0.24673201  1
  Li  Li38  1  0.48096903  0.75000000  0.25326799  1
  Li  Li39  1  0.01903097  0.25000000  0.75326799  1
  Li  Li40  1  0.08142408  0.94710351  0.58335915  1
  Li  Li41  1  0.41857592  0.05289649  0.08335915  1
  Li  Li42  1  0.91857592  0.44710351  0.41664085  1
  Li  Li43  1  0.58142408  0.55289649  0.91664085  1
  Li  Li44  1  0.91857592  0.05289649  0.41664085  1
  Li  Li45  1  0.58142408  0.94710351  0.91664085  1
  Li  Li46  1  0.08142408  0.55289649  0.58335915  1
  Li  Li47  1  0.41857592  0.44710351  0.08335915  1
  O  O48  1  0.39446380  0.00553949  0.42506262  1
  O  O49  1  0.10553620  0.99446051  0.92506262  1
  O  O50  1  0.60553620  0.50553949  0.57493738  1
  O  O51  1  0.89446380  0.49446051  0.07493738  1
  O  O52  1  0.60553620  0.99446051  0.57493738  1
  O  O53  1  0.89446380  0.00553949  0.07493738  1
  O  O54  1  0.39446380  0.49446051  0.42506262  1
  O  O55  1  0.10553620  0.50553949  0.92506262  1
  O  O56  1  0.69199407  0.25000000  0.32966824  1
  O  O57  1  0.80800593  0.75000000  0.82966824  1
  O  O58  1  0.30800593  0.75000000  0.67033176  1
  O  O59  1  0.19199407  0.25000000  0.17033176  1
  Si  Si60  1  0.20045483  0.25000000  0.97906462  1
  Si  Si61  1  0.29954517  0.75000000  0.47906462  1
  Si  Si62  1  0.79954517  0.75000000  0.02093538  1
  Si  Si63  1  0.70045483  0.25000000  0.52093538  1
  Sr  Sr64  1  0.00000000  0.00000000  0.00000000  1
  Sr  Sr65  1  0.50000000  0.00000000  0.50000000  1
  Sr  Sr66  1  0.00000000  0.50000000  0.00000000  1
  Sr  Sr67  1  0.50000000  0.50000000  0.50000000  1
