# generated using pymatgen
data_KLi18Mg4(ClO4)3
_symmetry_space_group_name_H-M   'P 1'
_cell_length_a   18.46548389
_cell_length_b   18.46548389
_cell_length_c   4.38487444
_cell_angle_alpha   90.00000000
_cell_angle_beta   90.00000000
_cell_angle_gamma   120.00000000
_symmetry_Int_Tables_number   1
_chemical_formula_structural   KLi18Mg4(ClO4)3
_chemical_formula_sum   'K2 Li36 Mg8 Cl6 O24'
_cell_volume   1294.81934404
_cell_formula_units_Z   2
loop_
 _symmetry_equiv_pos_site_id
 _symmetry_equiv_pos_as_xyz
  1  'x, y, z'
loop_
 _atom_site_type_symbol
 _atom_site_label
 _atom_site_symmetry_multiplicity
 _atom_site_fract_x
 _atom_site_fract_y
 _atom_site_fract_z
 _atom_site_occupancy
  Cl  Cl0  1  0.86177032  0.72354063  0.25000000  1
  Cl  Cl1  1  0.27645937  0.13822968  0.25000000  1
  Cl  Cl2  1  0.86177032  0.13822968  0.25000000  1
  Cl  Cl3  1  0.13822968  0.27645937  0.75000000  1
  Cl  Cl4  1  0.72354063  0.86177032  0.75000000  1
  Cl  Cl5  1  0.13822968  0.86177032  0.75000000  1
  K  K6  1  0.33333333  0.66666667  0.75000000  1
  K  K7  1  0.66666667  0.33333333  0.25000000  1
  Li  Li8  1  0.82115546  1.64231092  0.08597195  1
  Li  Li9  1  -1.64231092  -0.82115546  0.08597195  1
  Li  Li10  1  0.82115546  -0.82115546  0.08597195  1
  Li  Li11  1  -0.82115546  -1.64231092  0.58597195  1
  Li  Li12  1  1.64231092  0.82115546  0.58597195  1
  Li  Li13  1  -0.82115546  0.82115546  0.58597195  1
  Li  Li14  1  1.64231092  0.82115546  -0.08597195  1
  Li  Li15  1  -0.82115546  -1.64231092  -0.08597195  1
  Li  Li16  1  -0.82115546  0.82115546  -0.08597195  1
  Li  Li17  1  -1.64231092  -0.82115546  0.41402805  1
  Li  Li18  1  0.82115546  1.64231092  0.41402805  1
  Li  Li19  1  0.82115546  -0.82115546  0.41402805  1
  Li  Li20  1  0.38235414  0.29586662  0.25000000  1
  Li  Li21  1  0.70413338  0.08648752  0.25000000  1
  Li  Li22  1  0.91351248  0.61764586  0.25000000  1
  Li  Li23  1  0.61764586  0.70413338  0.75000000  1
  Li  Li24  1  0.29586662  0.91351248  0.75000000  1
  Li  Li25  1  0.08648752  0.38235414  0.75000000  1
  Li  Li26  1  0.29586662  0.38235414  0.75000000  1
  Li  Li27  1  0.08648752  0.70413338  0.75000000  1
  Li  Li28  1  0.61764586  0.91351248  0.75000000  1
  Li  Li29  1  0.70413338  0.61764586  0.25000000  1
  Li  Li30  1  0.91351248  0.29586662  0.25000000  1
  Li  Li31  1  0.38235414  0.08648752  0.25000000  1
  Li  Li32  1  0.14681557  0.29363114  0.25000000  1
  Li  Li33  1  0.70636886  0.85318443  0.25000000  1
  Li  Li34  1  0.14681557  0.85318443  0.25000000  1
  Li  Li35  1  0.85318443  0.70636886  0.75000000  1
  Li  Li36  1  0.29363114  0.14681557  0.75000000  1
  Li  Li37  1  0.85318443  0.14681557  0.75000000  1
  Li  Li38  1  0.42484389  0.84968778  0.25000000  1
  Li  Li39  1  0.15031222  0.57515611  0.25000000  1
  Li  Li40  1  0.42484389  0.57515611  0.25000000  1
  Li  Li41  1  0.57515611  0.15031222  0.75000000  1
  Li  Li42  1  0.84968778  0.42484389  0.75000000  1
  Li  Li43  1  0.57515611  0.42484389  0.75000000  1
  Mg  Mg44  1  0.50000000  -0.00000000  0.00000000  1
  Mg  Mg45  1  0.00000000  0.50000000  0.00000000  1
  Mg  Mg46  1  0.50000000  0.50000000  0.00000000  1
  Mg  Mg47  1  0.50000000  -0.00000000  0.50000000  1
  Mg  Mg48  1  0.00000000  0.50000000  0.50000000  1
  Mg  Mg49  1  0.50000000  0.50000000  0.50000000  1
  Mg  Mg50  1  0.00000000  0.00000000  0.00000000  1
  Mg  Mg51  1  0.00000000  0.00000000  0.50000000  1
  O  O52  1  0.27839639  0.55679278  0.97069923  1
  O  O53  1  0.44320722  0.72160361  0.97069923  1
  O  O54  1  0.27839639  0.72160361  0.97069923  1
  O  O55  1  0.72160361  0.44320722  0.47069923  1
  O  O56  1  0.55679278  0.27839639  0.47069923  1
  O  O57  1  0.72160361  0.27839639  0.47069923  1
  O  O58  1  0.55679278  0.27839639  0.02930077  1
  O  O59  1  0.72160361  0.44320722  0.02930077  1
  O  O60  1  0.72160361  0.27839639  0.02930077  1
  O  O61  1  0.44320722  0.72160361  0.52930077  1
  O  O62  1  0.27839639  0.55679278  0.52930077  1
  O  O63  1  0.27839639  0.72160361  0.52930077  1
  O  O64  1  0.50414780  0.00829560  0.25000000  1
  O  O65  1  0.99170440  0.49585220  0.25000000  1
  O  O66  1  0.50414780  0.49585220  0.25000000  1
  O  O67  1  0.49585220  0.99170440  0.75000000  1
  O  O68  1  0.00829560  0.50414780  0.75000000  1
  O  O69  1  0.49585220  0.50414780  0.75000000  1
  O  O70  1  0.03032214  0.06064428  0.25000000  1
  O  O71  1  0.93935572  0.96967786  0.25000000  1
  O  O72  1  0.03032214  0.96967786  0.25000000  1
  O  O73  1  0.96967786  0.93935572  0.75000000  1
  O  O74  1  0.06064428  0.03032214  0.75000000  1
  O  O75  1  0.96967786  0.03032214  0.75000000  1
