# generated using pymatgen
data_Al2S3
_symmetry_space_group_name_H-M   'P 1'
_cell_length_a   6.07651592
_cell_length_b   6.07651592
_cell_length_c   4.72456362
_cell_angle_alpha   90.00000000
_cell_angle_beta   90.00000000
_cell_angle_gamma   120.00000000
_symmetry_Int_Tables_number   1
_chemical_formula_structural   Al2S3
_chemical_formula_sum   'Al4 S6'
_cell_volume   151.07813426
_cell_formula_units_Z   2
loop_
 _symmetry_equiv_pos_site_id
 _symmetry_equiv_pos_as_xyz
  1  'x, y, z'
loop_
 _atom_site_type_symbol
 _atom_site_label
 _atom_site_symmetry_multiplicity
 _atom_site_fract_x
 _atom_site_fract_y
 _atom_site_fract_z
 _atom_site_occupancy
  Al  Al0  1  0.90907407  0.09092593  -0.00000000  1
  Al  Al1  1  0.90907407  0.81814814  0.00000000  1
  Al  Al2  1  0.18185186  0.09092593  0.00000000  1
  Al  Al3  1  0.66666667  0.33333333  0.00000000  1
  S  S4  1  0.21524333  0.05662019  0.73626451  1
  S  S5  1  -0.05662019  0.15862314  0.73626451  1
  S  S6  1  -0.15862314  -0.21524333  0.73626451  1
  S  S7  1  -0.05662019  -0.21524333  -0.73626451  1
  S  S8  1  -0.15862314  0.05662019  -0.73626451  1
  S  S9  1  0.21524333  0.15862314  -0.73626451  1
