# generated using pymatgen
data_LiSbS2
_symmetry_space_group_name_H-M   'P 1'
_cell_length_a   12.19179857
_cell_length_b   12.19179857
_cell_length_c   12.19179857
_cell_angle_alpha   90.00000000
_cell_angle_beta   90.00000000
_cell_angle_gamma   90.00000000
_symmetry_Int_Tables_number   1
_chemical_formula_structural   LiSbS2
_chemical_formula_sum   'Li24 Sb24 S48'
_cell_volume   1812.18835695
_cell_formula_units_Z   24
loop_
 _symmetry_equiv_pos_site_id
 _symmetry_equiv_pos_as_xyz
  1  'x, y, z'
loop_
 _atom_site_type_symbol
 _atom_site_label
 _atom_site_symmetry_multiplicity
 _atom_site_fract_x
 _atom_site_fract_y
 _atom_site_fract_z
 _atom_site_occupancy
  Li  Li0  1  0.62500000  0.00000000  0.25000000  1
  Li  Li1  1  0.87500000  -0.00000000  0.75000000  1
  Li  Li2  1  0.25000000  0.62500000  0.00000000  1
  Li  Li3  1  0.75000000  0.87500000  0.00000000  1
  Li  Li4  1  0.00000000  0.25000000  0.62500000  1
  Li  Li5  1  0.00000000  0.75000000  0.87500000  1
  Li  Li6  1  0.12500000  0.50000000  0.75000000  1
  Li  Li7  1  0.37500000  0.50000000  0.25000000  1
  Li  Li8  1  0.75000000  0.12500000  0.50000000  1
  Li  Li9  1  0.25000000  0.37500000  0.50000000  1
  Li  Li10  1  0.50000000  0.75000000  0.12500000  1
  Li  Li11  1  0.50000000  0.25000000  0.37500000  1
  Li  Li12  1  0.12500000  0.00000000  0.25000000  1
  Li  Li13  1  0.37500000  0.00000000  0.75000000  1
  Li  Li14  1  0.25000000  0.12500000  0.00000000  1
  Li  Li15  1  0.75000000  0.37500000  -0.00000000  1
  Li  Li16  1  0.00000000  0.25000000  0.12500000  1
  Li  Li17  1  0.00000000  0.75000000  0.37500000  1
  Li  Li18  1  0.62500000  0.50000000  0.75000000  1
  Li  Li19  1  0.87500000  0.50000000  0.25000000  1
  Li  Li20  1  0.75000000  0.62500000  0.50000000  1
  Li  Li21  1  0.25000000  0.87500000  0.50000000  1
  Li  Li22  1  0.50000000  0.75000000  0.62500000  1
  Li  Li23  1  0.50000000  0.25000000  0.87500000  1
  S  S24  1  0.47026881  0.04680310  0.60880583  1
  S  S25  1  0.02973119  -0.04680310  1.10880583  1
  S  S26  1  -0.47026881  0.54680310  -0.10880583  1
  S  S27  1  0.97026881  0.45319690  -0.60880583  1
  S  S28  1  0.60880583  0.47026881  0.04680310  1
  S  S29  1  1.10880583  0.02973119  -0.04680310  1
  S  S30  1  -0.10880583  -0.47026881  0.54680310  1
  S  S31  1  -0.60880583  0.97026881  0.45319690  1
  S  S32  1  0.04680310  0.60880583  0.47026881  1
  S  S33  1  -0.04680310  1.10880583  0.02973119  1
  S  S34  1  0.54680310  -0.10880583  -0.47026881  1
  S  S35  1  0.45319690  -0.60880583  0.97026881  1
  S  S36  1  0.79680310  0.72026881  -0.35880583  1
  S  S37  1  0.70319690  0.27973119  0.14119417  1
  S  S38  1  0.29680310  -0.22026881  1.35880583  1
  S  S39  1  0.20319690  1.22026881  0.85880583  1
  S  S40  1  1.22026881  0.85880583  0.20319690  1
  S  S41  1  -0.22026881  1.35880583  0.29680310  1
  S  S42  1  0.27973119  0.14119417  0.70319690  1
  S  S43  1  0.72026881  -0.35880583  0.79680310  1
  S  S44  1  1.35880583  0.29680310  -0.22026881  1
  S  S45  1  0.85880583  0.20319690  1.22026881  1
  S  S46  1  -0.35880583  0.79680310  0.72026881  1
  S  S47  1  0.14119417  0.70319690  0.27973119  1
  S  S48  1  0.97026881  0.54680310  1.10880583  1
  S  S49  1  0.52973119  0.45319690  1.60880583  1
  S  S50  1  0.02973119  1.04680310  0.39119417  1
  S  S51  1  1.47026881  0.95319690  -0.10880583  1
  S  S52  1  1.10880583  0.97026881  0.54680310  1
  S  S53  1  1.60880583  0.52973119  0.45319690  1
  S  S54  1  0.39119417  0.02973119  1.04680310  1
  S  S55  1  -0.10880583  1.47026881  0.95319690  1
  S  S56  1  0.54680310  1.10880583  0.97026881  1
  S  S57  1  0.45319690  1.60880583  0.52973119  1
  S  S58  1  1.04680310  0.39119417  0.02973119  1
  S  S59  1  0.95319690  -0.10880583  1.47026881  1
  S  S60  1  1.29680310  1.22026881  0.14119417  1
  S  S61  1  1.20319690  0.77973119  0.64119417  1
  S  S62  1  0.79680310  0.27973119  1.85880583  1
  S  S63  1  0.70319690  1.72026881  1.35880583  1
  S  S64  1  1.72026881  1.35880583  0.70319690  1
  S  S65  1  0.27973119  1.85880583  0.79680310  1
  S  S66  1  0.77973119  0.64119417  1.20319690  1
  S  S67  1  1.22026881  0.14119417  1.29680310  1
  S  S68  1  1.85880583  0.79680310  0.27973119  1
  S  S69  1  1.35880583  0.70319690  1.72026881  1
  S  S70  1  0.14119417  1.29680310  1.22026881  1
  S  S71  1  0.64119417  1.20319690  0.77973119  1
  Sb  Sb72  1  0.04663238  0.04663238  0.04663238  1
  Sb  Sb73  1  0.45336762  0.95336762  0.54663238  1
  Sb  Sb74  1  0.95336762  0.54663238  0.45336762  1
  Sb  Sb75  1  0.54663238  0.45336762  0.95336762  1
  Sb  Sb76  1  0.79663238  0.29663238  0.20336762  1
  Sb  Sb77  1  0.70336762  0.70336762  0.70336762  1
  Sb  Sb78  1  0.29663238  0.20336762  0.79663238  1
  Sb  Sb79  1  0.20336762  0.79663238  0.29663238  1
  Sb  Sb80  1  0.54663238  0.54663238  0.54663238  1
  Sb  Sb81  1  0.95336762  0.45336762  0.04663238  1
  Sb  Sb82  1  0.45336762  0.04663238  0.95336762  1
  Sb  Sb83  1  0.04663238  0.95336762  0.45336762  1
  Sb  Sb84  1  0.29663238  0.79663238  0.70336762  1
  Sb  Sb85  1  0.20336762  0.20336762  0.20336762  1
  Sb  Sb86  1  0.79663238  0.70336762  0.29663238  1
  Sb  Sb87  1  0.70336762  0.29663238  0.79663238  1
  Sb  Sb88  1  0.12500000  0.12500000  0.12500000  1
  Sb  Sb89  1  0.37500000  0.87500000  0.62500000  1
  Sb  Sb90  1  0.87500000  0.62500000  0.37500000  1
  Sb  Sb91  1  0.62500000  0.37500000  0.87500000  1
  Sb  Sb92  1  0.62500000  0.62500000  0.62500000  1
  Sb  Sb93  1  0.87500000  0.37500000  0.12500000  1
  Sb  Sb94  1  0.37500000  0.12500000  0.87500000  1
  Sb  Sb95  1  0.12500000  0.87500000  0.37500000  1
