# generated using pymatgen
data_LiF
_symmetry_space_group_name_H-M   'P 1'
_cell_length_a   5.29732168
_cell_length_b   7.30897261
_cell_length_c   5.70258231
_cell_angle_alpha   90.00000000
_cell_angle_beta   90.00000000
_cell_angle_gamma   90.00000000
_symmetry_Int_Tables_number   1
_chemical_formula_structural   LiF
_chemical_formula_sum   'Li8 F8'
_cell_volume   220.79246245
_cell_formula_units_Z   8
loop_
 _symmetry_equiv_pos_site_id
 _symmetry_equiv_pos_as_xyz
  1  'x, y, z'
loop_
 _atom_site_type_symbol
 _atom_site_label
 _atom_site_symmetry_multiplicity
 _atom_site_fract_x
 _atom_site_fract_y
 _atom_site_fract_z
 _atom_site_occupancy
  F  F0  1  0.03795498  0.96346589  0.59086723  1
  F  F1  1  -0.03795498  -0.96346589  0.59086723  1
  F  F2  1  0.46204502  1.46346589  -0.09086723  1
  F  F3  1  0.53795498  -0.46346589  -0.09086723  1
  F  F4  1  -0.03795498  -0.96346589  -0.59086723  1
  F  F5  1  0.03795498  0.96346589  -0.59086723  1
  F  F6  1  0.53795498  -0.46346589  1.09086723  1
  F  F7  1  0.46204502  1.46346589  1.09086723  1
  Li  Li8  1  0.25348430  0.51939082  0.24490476  1
  Li  Li9  1  0.74651570  0.48060918  0.24490476  1
  Li  Li10  1  0.24651570  0.01939082  0.25509524  1
  Li  Li11  1  0.75348430  0.98060918  0.25509524  1
  Li  Li12  1  0.74651570  0.48060918  0.75509524  1
  Li  Li13  1  0.25348430  0.51939082  0.75509524  1
  Li  Li14  1  0.75348430  0.98060918  0.74490476  1
  Li  Li15  1  0.24651570  0.01939082  0.74490476  1
