# generated using pymatgen
data_LiSi2Cl9
_symmetry_space_group_name_H-M   'P 1'
_cell_length_a   11.67128034
_cell_length_b   11.67128034
_cell_length_c   7.81987707
_cell_angle_alpha   90.00000000
_cell_angle_beta   90.00000000
_cell_angle_gamma   120.00000000
_symmetry_Int_Tables_number   1
_chemical_formula_structural   LiSi2Cl9
_chemical_formula_sum   'Li4 Si8 Cl36'
_cell_volume   922.50251575
_cell_formula_units_Z   4
loop_
 _symmetry_equiv_pos_site_id
 _symmetry_equiv_pos_as_xyz
  1  'x, y, z'
loop_
 _atom_site_type_symbol
 _atom_site_label
 _atom_site_symmetry_multiplicity
 _atom_site_fract_x
 _atom_site_fract_y
 _atom_site_fract_z
 _atom_site_occupancy
  Cl  Cl0  1  0.00000000  0.00000000  0.25000000  1
  Cl  Cl1  1  0.00000000  0.00000000  0.75000000  1
  Cl  Cl2  1  0.38599155  0.65391561  0.86184671  1
  Cl  Cl3  1  -0.65391561  -0.26792406  0.86184671  1
  Cl  Cl4  1  0.26792406  -0.38599155  0.86184671  1
  Cl  Cl5  1  -0.38599155  -0.65391561  1.36184671  1
  Cl  Cl6  1  0.65391561  0.26792406  1.36184671  1
  Cl  Cl7  1  -0.26792406  0.38599155  1.36184671  1
  Cl  Cl8  1  -0.38599155  -0.65391561  -0.86184671  1
  Cl  Cl9  1  0.65391561  0.26792406  -0.86184671  1
  Cl  Cl10  1  -0.26792406  0.38599155  -0.86184671  1
  Cl  Cl11  1  0.38599155  0.65391561  -0.36184671  1
  Cl  Cl12  1  -0.65391561  -0.26792406  -0.36184671  1
  Cl  Cl13  1  0.26792406  -0.38599155  -0.36184671  1
  Cl  Cl14  1  0.04991365  0.70273111  0.25000000  1
  Cl  Cl15  1  0.29726889  0.34718254  0.25000000  1
  Cl  Cl16  1  0.65281746  0.95008635  0.25000000  1
  Cl  Cl17  1  0.95008635  0.29726889  0.75000000  1
  Cl  Cl18  1  0.70273111  0.65281746  0.75000000  1
  Cl  Cl19  1  0.34718254  0.04991365  0.75000000  1
  Cl  Cl20  1  0.76502799  0.75715250  0.11909551  1
  Cl  Cl21  1  0.24284750  0.00787550  0.11909551  1
  Cl  Cl22  1  0.99212450  0.23497201  0.11909551  1
  Cl  Cl23  1  0.23497201  0.24284750  0.61909551  1
  Cl  Cl24  1  0.75715250  0.99212450  0.61909551  1
  Cl  Cl25  1  0.00787550  0.76502799  0.61909551  1
  Cl  Cl26  1  0.23497201  0.24284750  0.88090449  1
  Cl  Cl27  1  0.75715250  0.99212450  0.88090449  1
  Cl  Cl28  1  0.00787550  0.76502799  0.88090449  1
  Cl  Cl29  1  0.76502799  0.75715250  0.38090449  1
  Cl  Cl30  1  0.24284750  0.00787550  0.38090449  1
  Cl  Cl31  1  0.99212450  0.23497201  0.38090449  1
  Cl  Cl32  1  0.00000000  0.00000000  0.00000000  1
  Cl  Cl33  1  0.00000000  0.00000000  0.50000000  1
  Cl  Cl34  1  0.66666667  0.33333333  0.25000000  1
  Cl  Cl35  1  0.33333333  0.66666667  0.75000000  1
  Li  Li36  1  0.33333333  0.66666667  0.03489289  1
  Li  Li37  1  0.66666667  0.33333333  0.53489289  1
  Li  Li38  1  0.66666667  0.33333333  0.96510711  1
  Li  Li39  1  0.33333333  0.66666667  0.46510711  1
  Si  Si40  1  0.33333333  0.66666667  0.25000000  1
  Si  Si41  1  0.66666667  0.33333333  0.75000000  1
  Si  Si42  1  0.50000000  0.00000000  0.00000000  1
  Si  Si43  1  0.00000000  0.50000000  0.00000000  1
  Si  Si44  1  0.50000000  0.50000000  0.00000000  1
  Si  Si45  1  0.50000000  0.00000000  0.50000000  1
  Si  Si46  1  0.00000000  0.50000000  0.50000000  1
  Si  Si47  1  0.50000000  0.50000000  0.50000000  1
