# generated using pymatgen
data_Li2AlSb2PF6
_symmetry_space_group_name_H-M   'P 1'
_cell_length_a   7.57444439
_cell_length_b   6.45607262
_cell_length_c   7.54628295
_cell_angle_alpha   90.00000000
_cell_angle_beta   90.00000000
_cell_angle_gamma   90.00000000
_symmetry_Int_Tables_number   1
_chemical_formula_structural   Li2AlSb2PF6
_chemical_formula_sum   'Li2 Al1 Sb2 P1 F6'
_cell_volume   369.02201243
_cell_formula_units_Z   1
loop_
 _symmetry_equiv_pos_site_id
 _symmetry_equiv_pos_as_xyz
  1  'x, y, z'
loop_
 _atom_site_type_symbol
 _atom_site_label
 _atom_site_symmetry_multiplicity
 _atom_site_fract_x
 _atom_site_fract_y
 _atom_site_fract_z
 _atom_site_occupancy
  Li  Li0  1  0.12500000  0.12500000  0.12500000  1
  Li  Li1  1  0.50000000  0.50000000  0.50000000  1
  Al  Al2  1  0.25000000  0.25000000  0.25000000  1
  F  F3  1  0.75000000  0.75000000  0.75000000  1
  F  F4  1  0.75044023  0.64691088  0.88440478  1
  F  F5  1  0.10022739  0.92663732  0.91792340  1
  F  F6  1  0.06724141  0.07117299  0.26342152  1
  F  F7  1  0.54899430  0.14601382  0.40310732  1
  F  F8  1  0.01037445  0.55588477  0.06628476  1
  Sb  Sb9  1  0.95038037  0.20591489  0.31795204  1
  Sb  Sb10  1  0.75456020  0.85187797  0.75818696  1
  P  P11  1  0.24950392  0.24534312  0.05652385  1
