# generated using pymatgen
data_Li4TiS2
_symmetry_space_group_name_H-M   'P 1'
_cell_length_a   3.84507217
_cell_length_b   4.15749336
_cell_length_c   6.80821281
_cell_angle_alpha   119.33375780
_cell_angle_beta   92.28995305
_cell_angle_gamma   100.53906568
_symmetry_Int_Tables_number   1
_chemical_formula_structural   Li4TiS2
_chemical_formula_sum   'Li4 Ti1 S2'
_cell_volume   92.20784972
_cell_formula_units_Z   1
loop_
 _symmetry_equiv_pos_site_id
 _symmetry_equiv_pos_as_xyz
  1  'x, y, z'
loop_
 _atom_site_type_symbol
 _atom_site_label
 _atom_site_symmetry_multiplicity
 _atom_site_fract_x
 _atom_site_fract_y
 _atom_site_fract_z
 _atom_site_occupancy
  Li  Li0  1  0.00000000  0.00000000  0.00000000  1
  Li  Li1  1  0.33300000  0.66700000  0.25000000  1
  Li  Li2  1  0.66700000  0.33300000  0.50000000  1
  Li  Li3  1  0.00000000  0.00000000  0.75000000  1
  Ti  Ti4  1  0.86193552  0.09326358  0.36553291  1
  S  S5  1  0.43730685  0.58486914  0.65894466  1
  S  S6  1  0.70151213  0.77864032  0.28593609  1
