# generated using pymatgen
data_Na4LiB9(SeCl6)4
_symmetry_space_group_name_H-M   'P 1'
_cell_length_a   8.87193097
_cell_length_b   8.87193097
_cell_length_c   12.59876183
_cell_angle_alpha   90.00000000
_cell_angle_beta   90.00000000
_cell_angle_gamma   120.00000000
_symmetry_Int_Tables_number   1
_chemical_formula_structural   Na4LiB9(SeCl6)4
_chemical_formula_sum   'Na4 Li1 B9 Se4 Cl24'
_cell_volume   858.80547818
_cell_formula_units_Z   1
loop_
 _symmetry_equiv_pos_site_id
 _symmetry_equiv_pos_as_xyz
  1  'x, y, z'
loop_
 _atom_site_type_symbol
 _atom_site_label
 _atom_site_symmetry_multiplicity
 _atom_site_fract_x
 _atom_site_fract_y
 _atom_site_fract_z
 _atom_site_occupancy
  B  B0  1  0.33333333  0.66666667  0.75145773  1
  B  B1  1  0.33333333  0.66666667  0.24854227  1
  B  B2  1  0.66666667  0.33333333  0.24854227  1
  B  B3  1  0.66666667  0.33333333  0.75145773  1
  B  B4  1  0.33333333  0.66666667  0.41538333  1
  B  B5  1  0.33333333  0.66666667  0.58461667  1
  B  B6  1  0.66666667  0.33333333  0.58461667  1
  B  B7  1  0.66666667  0.33333333  0.41538333  1
  B  B8  1  0.00000000  0.00000000  0.00000000  1
  Cl  Cl9  1  0.77410631  0.10112028  0.23664538  1
  Cl  Cl10  1  -0.10112028  0.67298602  0.23664538  1
  Cl  Cl11  1  -0.67298602  -0.77410631  0.23664538  1
  Cl  Cl12  1  0.77410631  0.10112028  -0.23664538  1
  Cl  Cl13  1  -0.10112028  0.67298602  -0.23664538  1
  Cl  Cl14  1  -0.67298602  -0.77410631  -0.23664538  1
  Cl  Cl15  1  0.10112028  0.77410631  -0.23664538  1
  Cl  Cl16  1  0.67298602  -0.10112028  -0.23664538  1
  Cl  Cl17  1  -0.77410631  -0.67298602  -0.23664538  1
  Cl  Cl18  1  0.10112028  0.77410631  0.23664538  1
  Cl  Cl19  1  0.67298602  -0.10112028  0.23664538  1
  Cl  Cl20  1  -0.77410631  -0.67298602  0.23664538  1
  Cl  Cl21  1  0.79212613  0.39030181  0.50000000  1
  Cl  Cl22  1  0.60969819  0.40182433  0.50000000  1
  Cl  Cl23  1  0.59817567  0.20787387  0.50000000  1
  Cl  Cl24  1  0.39030181  0.79212613  0.50000000  1
  Cl  Cl25  1  0.40182433  0.60969819  0.50000000  1
  Cl  Cl26  1  0.20787387  0.59817567  0.50000000  1
  Cl  Cl27  1  0.08205746  0.00000000  0.42588102  1
  Cl  Cl28  1  0.00000000  0.08205746  0.42588102  1
  Cl  Cl29  1  0.91794254  0.91794254  0.42588102  1
  Cl  Cl30  1  0.08205746  0.00000000  0.57411898  1
  Cl  Cl31  1  0.00000000  0.08205746  0.57411898  1
  Cl  Cl32  1  0.91794254  0.91794254  0.57411898  1
  Li  Li33  1  0.00000000  0.00000000  0.50000000  1
  Na  Na34  1  0.33333333  0.66666667  0.00000000  1
  Na  Na35  1  0.66666667  0.33333333  0.00000000  1
  Na  Na36  1  0.00000000  0.00000000  0.79368556  1
  Na  Na37  1  0.00000000  0.00000000  0.20631444  1
  Se  Se38  1  0.33333333  0.66666667  0.87617046  1
  Se  Se39  1  0.33333333  0.66666667  0.12382954  1
  Se  Se40  1  0.66666667  0.33333333  0.12382954  1
  Se  Se41  1  0.66666667  0.33333333  0.87617046  1
