# generated using pymatgen
data_KLiTiTe3
_symmetry_space_group_name_H-M   'P 1'
_cell_length_a   12.83285679
_cell_length_b   12.83285679
_cell_length_c   8.30566110
_cell_angle_alpha   90.00000000
_cell_angle_beta   90.00000000
_cell_angle_gamma   120.00000000
_symmetry_Int_Tables_number   1
_chemical_formula_structural   KLiTiTe3
_chemical_formula_sum   'K6 Li6 Ti6 Te18'
_cell_volume   1184.54491676
_cell_formula_units_Z   6
loop_
 _symmetry_equiv_pos_site_id
 _symmetry_equiv_pos_as_xyz
  1  'x, y, z'
loop_
 _atom_site_type_symbol
 _atom_site_label
 _atom_site_symmetry_multiplicity
 _atom_site_fract_x
 _atom_site_fract_y
 _atom_site_fract_z
 _atom_site_occupancy
  K  K0  1  0.50000000  0.00000000  0.00000000  1
  K  K1  1  0.00000000  0.50000000  0.00000000  1
  K  K2  1  0.50000000  0.50000000  0.00000000  1
  K  K3  1  0.50000000  0.00000000  0.50000000  1
  K  K4  1  0.00000000  0.50000000  0.50000000  1
  K  K5  1  0.50000000  0.50000000  0.50000000  1
  Li  Li6  1  0.00000000  0.00000000  0.00000000  1
  Li  Li7  1  0.00000000  0.00000000  0.50000000  1
  Li  Li8  1  0.33333333  0.66666667  0.25000000  1
  Li  Li9  1  0.66666667  0.33333333  0.75000000  1
  Li  Li10  1  0.00000000  0.00000000  0.25000000  1
  Li  Li11  1  0.00000000  0.00000000  0.75000000  1
  Te  Te12  1  0.21665237  0.30429266  0.16356129  1
  Te  Te13  1  -0.30429266  -0.08764028  0.16356129  1
  Te  Te14  1  0.08764028  -0.21665237  0.16356129  1
  Te  Te15  1  -0.21665237  -0.30429266  0.66356129  1
  Te  Te16  1  0.30429266  0.08764028  0.66356129  1
  Te  Te17  1  -0.08764028  0.21665237  0.66356129  1
  Te  Te18  1  -0.21665237  -0.30429266  -0.16356129  1
  Te  Te19  1  0.30429266  0.08764028  -0.16356129  1
  Te  Te20  1  -0.08764028  0.21665237  -0.16356129  1
  Te  Te21  1  0.21665237  0.30429266  0.33643871  1
  Te  Te22  1  -0.30429266  -0.08764028  0.33643871  1
  Te  Te23  1  0.08764028  -0.21665237  0.33643871  1
  Te  Te24  1  0.66666667  0.33333333  0.25000000  1
  Te  Te25  1  0.33333333  0.66666667  0.75000000  1
  Te  Te26  1  0.33333333  0.66666667  0.92319994  1
  Te  Te27  1  0.66666667  0.33333333  0.42319994  1
  Te  Te28  1  0.66666667  0.33333333  0.07680006  1
  Te  Te29  1  0.33333333  0.66666667  0.57680006  1
  Ti  Ti30  1  0.53041761  0.21740156  0.25000000  1
  Ti  Ti31  1  0.78259844  0.31301605  0.25000000  1
  Ti  Ti32  1  0.68698395  0.46958239  0.25000000  1
  Ti  Ti33  1  0.46958239  0.78259844  0.75000000  1
  Ti  Ti34  1  0.21740156  0.68698395  0.75000000  1
  Ti  Ti35  1  0.31301605  0.53041761  0.75000000  1
