# generated using pymatgen
data_LiCl
_symmetry_space_group_name_H-M   'P 1'
_cell_length_a   9.11304023
_cell_length_b   9.11304023
_cell_length_c   7.07076929
_cell_angle_alpha   90.00000000
_cell_angle_beta   90.00000000
_cell_angle_gamma   120.00000000
_symmetry_Int_Tables_number   1
_chemical_formula_structural   LiCl
_chemical_formula_sum   'Li12 Cl12'
_cell_volume   508.53854196
_cell_formula_units_Z   12
loop_
 _symmetry_equiv_pos_site_id
 _symmetry_equiv_pos_as_xyz
  1  'x, y, z'
loop_
 _atom_site_type_symbol
 _atom_site_label
 _atom_site_symmetry_multiplicity
 _atom_site_fract_x
 _atom_site_fract_y
 _atom_site_fract_z
 _atom_site_occupancy
  Cl  Cl0  1  0.56444047  0.00000000  0.14049181  1
  Cl  Cl1  1  0.00000000  0.56444047  0.14049181  1
  Cl  Cl2  1  -0.56444047  -0.56444047  0.14049181  1
  Cl  Cl3  1  0.56444047  0.00000000  -0.14049181  1
  Cl  Cl4  1  0.00000000  0.56444047  -0.14049181  1
  Cl  Cl5  1  -0.56444047  -0.56444047  -0.14049181  1
  Cl  Cl6  1  0.76638495  0.10401616  -0.00000000  1
  Cl  Cl7  1  0.89598384  0.66236879  0.00000000  1
  Cl  Cl8  1  0.33763121  0.23361505  -0.00000000  1
  Cl  Cl9  1  0.10401616  0.76638495  -0.00000000  1
  Cl  Cl10  1  0.66236879  0.89598384  -0.00000000  1
  Cl  Cl11  1  0.23361505  0.33763121  0.00000000  1
  Li  Li12  1  0.73354899  0.00000000  0.24429484  1
  Li  Li13  1  0.00000000  0.73354899  0.24429484  1
  Li  Li14  1  0.26645101  0.26645101  0.24429484  1
  Li  Li15  1  0.73354899  0.00000000  0.75570516  1
  Li  Li16  1  0.00000000  0.73354899  0.75570516  1
  Li  Li17  1  0.26645101  0.26645101  0.75570516  1
  Li  Li18  1  0.90178121  0.00000000  0.50000000  1
  Li  Li19  1  0.00000000  0.90178121  0.50000000  1
  Li  Li20  1  0.09821879  0.09821879  0.50000000  1
  Li  Li21  1  0.23777482  0.00000000  0.50000000  1
  Li  Li22  1  0.00000000  0.23777482  0.50000000  1
  Li  Li23  1  0.76222518  0.76222518  0.50000000  1
