# generated using pymatgen
data_Li6TaS2I11O3
_symmetry_space_group_name_H-M   'P 1'
_cell_length_a   4.43829172
_cell_length_b   3.76131952
_cell_length_c   4.19683637
_cell_angle_alpha   88.46012020
_cell_angle_beta   86.05318308
_cell_angle_gamma   94.90669260
_symmetry_Int_Tables_number   1
_chemical_formula_structural   Li6TaS2I11O3
_chemical_formula_sum   'Li6 Ta1 S2 I11 O3'
_cell_volume   69.60114971
_cell_formula_units_Z   1
loop_
 _symmetry_equiv_pos_site_id
 _symmetry_equiv_pos_as_xyz
  1  'x, y, z'
loop_
 _atom_site_type_symbol
 _atom_site_label
 _atom_site_symmetry_multiplicity
 _atom_site_fract_x
 _atom_site_fract_y
 _atom_site_fract_z
 _atom_site_occupancy
  Li  Li0  1  0.00000000  0.00000000  0.00000000  1
  Li  Li1  1  0.50000000  0.50000000  0.50000000  1
  Li  Li2  1  0.50000000  0.50000000  0.00000000  1
  Li  Li3  1  0.50000000  0.00000000  0.50000000  1
  Li  Li4  1  0.00000000  0.50000000  0.50000000  1
  Li  Li5  1  0.85729444  0.82839014  0.49856642  1
  Ta  Ta6  1  0.59774696  0.96805910  0.52825230  1
  S  S7  1  0.15678775  0.14280293  0.96641559  1
  S  S8  1  0.92771656  0.13466041  0.83030360  1
  I  I9  1  0.51695311  0.52976018  0.84704041  1
  I  I10  1  0.25365376  0.29367404  0.95810031  1
  I  I11  1  0.49347112  0.49367703  0.78955308  1
  I  I12  1  0.36363700  0.90120305  0.70147719  1
  I  I13  1  0.06873118  0.46379356  0.82695484  1
  I  I14  1  0.92621393  0.37537922  0.42708822  1
  I  I15  1  0.18054388  0.24819026  0.22627180  1
  I  I16  1  0.03785397  0.77950443  0.50181469  1
  I  I17  1  0.98691898  0.35254653  0.49987431  1
  I  I18  1  0.56712912  0.88535937  0.16014712  1
  I  I19  1  0.54127424  0.45306289  0.56803794  1
  O  O20  1  0.85102968  0.48788701  0.70070171  1
  O  O21  1  0.68509326  0.59456756  0.44356151  1
  O  O22  1  0.85730225  0.05710513  0.48574472  1
