# generated using pymatgen
data_Li4Ca3(SBr3)2
_symmetry_space_group_name_H-M   'P 1'
_cell_length_a   6.95677486
_cell_length_b   9.76165017
_cell_length_c   18.24184291
_cell_angle_alpha   90.00000000
_cell_angle_beta   90.00000000
_cell_angle_gamma   90.00000000
_symmetry_Int_Tables_number   1
_chemical_formula_structural   Li4Ca3(SBr3)2
_chemical_formula_sum   'Li16 Ca12 S8 Br24'
_cell_volume   1238.79630198
_cell_formula_units_Z   4
loop_
 _symmetry_equiv_pos_site_id
 _symmetry_equiv_pos_as_xyz
  1  'x, y, z'
loop_
 _atom_site_type_symbol
 _atom_site_label
 _atom_site_symmetry_multiplicity
 _atom_site_fract_x
 _atom_site_fract_y
 _atom_site_fract_z
 _atom_site_occupancy
  Br  Br0  1  0.39366464  0.41986697  0.10334557  1
  Br  Br1  1  0.10633536  0.58013303  0.60334557  1
  Br  Br2  1  0.60633536  0.91986697  0.89665443  1
  Br  Br3  1  0.89366464  0.08013303  0.39665443  1
  Br  Br4  1  0.60633536  0.58013303  0.89665443  1
  Br  Br5  1  0.89366464  0.41986697  0.39665443  1
  Br  Br6  1  0.39366464  0.08013303  0.10334557  1
  Br  Br7  1  0.10633536  0.91986697  0.60334557  1
  Br  Br8  1  0.24117171  0.25000000  0.77316630  1
  Br  Br9  1  0.25882829  0.75000000  0.27316630  1
  Br  Br10  1  0.75882829  0.75000000  0.22683370  1
  Br  Br11  1  0.74117171  0.25000000  0.72683370  1
  Br  Br12  1  0.35487921  0.86026355  0.94687816  1
  Br  Br13  1  0.14512079  0.13973645  0.44687816  1
  Br  Br14  1  0.64512079  0.36026355  0.05312184  1
  Br  Br15  1  0.85487921  0.63973645  0.55312184  1
  Br  Br16  1  0.64512079  0.13973645  0.05312184  1
  Br  Br17  1  0.85487921  0.86026355  0.55312184  1
  Br  Br18  1  0.35487921  0.63973645  0.94687816  1
  Br  Br19  1  0.14512079  0.36026355  0.44687816  1
  Br  Br20  1  0.29447108  0.25000000  0.14063851  1
  Br  Br21  1  0.20552892  0.75000000  0.64063851  1
  Br  Br22  1  0.70552892  0.75000000  0.85936149  1
  Br  Br23  1  0.79447108  0.25000000  0.35936149  1
  Ca  Ca24  1  0.64492993  0.62431436  0.99187101  1
  Ca  Ca25  1  0.85507007  0.37568564  0.49187101  1
  Ca  Ca26  1  0.35507007  0.12431436  0.00812899  1
  Ca  Ca27  1  0.14492993  0.87568564  0.50812899  1
  Ca  Ca28  1  0.35507007  0.37568564  0.00812899  1
  Ca  Ca29  1  0.14492993  0.62431436  0.50812899  1
  Ca  Ca30  1  0.64492993  0.87568564  0.99187101  1
  Ca  Ca31  1  0.85507007  0.12431436  0.49187101  1
  Ca  Ca32  1  0.76558988  0.25000000  0.89975576  1
  Ca  Ca33  1  0.73441012  0.75000000  0.39975576  1
  Ca  Ca34  1  0.23441012  0.75000000  0.10024424  1
  Ca  Ca35  1  0.26558988  0.25000000  0.60024424  1
  Li  Li36  1  0.02632435  0.25000000  0.46728695  1
  Li  Li37  1  0.47367565  0.75000000  0.96728695  1
  Li  Li38  1  0.97367565  0.75000000  0.53271305  1
  Li  Li39  1  0.52632435  0.25000000  0.03271305  1
  Li  Li40  1  0.07883866  0.94382124  0.91319710  1
  Li  Li41  1  0.42116134  -0.94382124  1.41319710  1
  Li  Li42  1  -0.07883866  1.44382124  -0.91319710  1
  Li  Li43  1  0.57883866  -0.44382124  -0.41319710  1
  Li  Li44  1  -0.07883866  -0.94382124  -0.91319710  1
  Li  Li45  1  0.57883866  0.94382124  -0.41319710  1
  Li  Li46  1  0.07883866  -0.44382124  0.91319710  1
  Li  Li47  1  0.42116134  1.44382124  1.41319710  1
  Li  Li48  1  0.48835342  0.25000000  0.10753486  1
  Li  Li49  1  0.01164658  0.75000000  0.60753486  1
  Li  Li50  1  0.51164658  0.75000000  0.89246514  1
  Li  Li51  1  0.98835342  0.25000000  0.39246514  1
  S  S52  1  0.00000000  0.00000000  0.00000000  1
  S  S53  1  0.50000000  -0.00000000  0.50000000  1
  S  S54  1  0.00000000  0.50000000  0.00000000  1
  S  S55  1  0.50000000  0.50000000  0.50000000  1
  S  S56  1  0.00000000  0.00000000  0.50000000  1
  S  S57  1  0.50000000  -0.00000000  -0.00000000  1
  S  S58  1  0.00000000  0.50000000  0.50000000  1
  S  S59  1  0.50000000  0.50000000  -0.00000000  1
