# generated using pymatgen
data_Li3TiSb4P2O
_symmetry_space_group_name_H-M   'P 1'
_cell_length_a   8.68109432
_cell_length_b   9.69058296
_cell_length_c   7.46231440
_cell_angle_alpha   90.00000000
_cell_angle_beta   90.00000000
_cell_angle_gamma   90.00000000
_symmetry_Int_Tables_number   1
_chemical_formula_structural   Li3TiSb4P2O
_chemical_formula_sum   'Li3 Ti1 Sb4 P2 O1'
_cell_volume   627.76618938
_cell_formula_units_Z   1
loop_
 _symmetry_equiv_pos_site_id
 _symmetry_equiv_pos_as_xyz
  1  'x, y, z'
loop_
 _atom_site_type_symbol
 _atom_site_label
 _atom_site_symmetry_multiplicity
 _atom_site_fract_x
 _atom_site_fract_y
 _atom_site_fract_z
 _atom_site_occupancy
  Li  Li0  1  0.00000000  0.00000000  0.00000000  1
  Li  Li1  1  0.50000000  0.50000000  0.50000000  1
  Li  Li2  1  0.25000000  0.25000000  0.25000000  1
  Ti  Ti3  1  0.75000000  0.25000000  0.00000000  1
  P  P4  1  0.25000000  0.75000000  0.50000000  1
  P  P5  1  0.82300371  0.77314634  0.18459615  1
  Sb  Sb6  1  0.72114822  0.73690852  0.95864008  1
  Sb  Sb7  1  0.50552288  0.16953303  0.76885328  1
  Sb  Sb8  1  0.01911141  0.97092832  0.94246635  1
  Sb  Sb9  1  0.38550524  0.81659425  0.37459395  1
  O  O10  1  0.50421665  0.89471527  0.22026587  1
