# generated using pymatgen
data_Li3SCl
_symmetry_space_group_name_H-M   'P 1'
_cell_length_a   21.43090739
_cell_length_b   8.68917516
_cell_length_c   10.88807101
_cell_angle_alpha   90.00000000
_cell_angle_beta   90.00000000
_cell_angle_gamma   90.00000000
_symmetry_Int_Tables_number   1
_chemical_formula_structural   Li3SCl
_chemical_formula_sum   'Li96 S32 Cl32'
_cell_volume   2027.54291846
_cell_formula_units_Z   32
loop_
 _symmetry_equiv_pos_site_id
 _symmetry_equiv_pos_as_xyz
  1  'x, y, z'
loop_
 _atom_site_type_symbol
 _atom_site_label
 _atom_site_symmetry_multiplicity
 _atom_site_fract_x
 _atom_site_fract_y
 _atom_site_fract_z
 _atom_site_occupancy
  Cl  Cl0  1  0.29483402  0.10659254  0.32966974  1
  Cl  Cl1  1  0.45516598  0.64340746  0.32966974  1
  Cl  Cl2  1  0.45516598  0.10659254  0.42033026  1
  Cl  Cl3  1  0.29483402  0.64340746  0.42033026  1
  Cl  Cl4  1  -0.29483402  -0.10659254  -0.32966974  1
  Cl  Cl5  1  0.54483402  0.35659254  -0.32966974  1
  Cl  Cl6  1  0.54483402  -0.10659254  0.57966974  1
  Cl  Cl7  1  -0.29483402  0.35659254  0.57966974  1
  Cl  Cl8  1  0.29483402  0.60659254  0.82966974  1
  Cl  Cl9  1  0.45516598  1.14340746  0.82966974  1
  Cl  Cl10  1  0.45516598  0.60659254  0.92033026  1
  Cl  Cl11  1  0.29483402  1.14340746  0.92033026  1
  Cl  Cl12  1  -0.29483402  0.39340746  0.17033026  1
  Cl  Cl13  1  0.54483402  0.85659254  0.17033026  1
  Cl  Cl14  1  0.54483402  0.39340746  1.07966974  1
  Cl  Cl15  1  -0.29483402  0.85659254  1.07966974  1
  Cl  Cl16  1  0.79483402  0.10659254  0.82966974  1
  Cl  Cl17  1  0.95516598  0.64340746  0.82966974  1
  Cl  Cl18  1  0.95516598  0.10659254  0.92033026  1
  Cl  Cl19  1  0.79483402  0.64340746  0.92033026  1
  Cl  Cl20  1  0.20516598  -0.10659254  0.17033026  1
  Cl  Cl21  1  1.04483402  0.35659254  0.17033026  1
  Cl  Cl22  1  1.04483402  -0.10659254  1.07966974  1
  Cl  Cl23  1  0.20516598  0.35659254  1.07966974  1
  Cl  Cl24  1  0.79483402  0.60659254  0.32966974  1
  Cl  Cl25  1  0.95516598  1.14340746  0.32966974  1
  Cl  Cl26  1  0.95516598  0.60659254  0.42033026  1
  Cl  Cl27  1  0.79483402  1.14340746  0.42033026  1
  Cl  Cl28  1  0.20516598  0.39340746  -0.32966974  1
  Cl  Cl29  1  1.04483402  0.85659254  -0.32966974  1
  Cl  Cl30  1  1.04483402  0.39340746  0.57966974  1
  Cl  Cl31  1  0.20516598  0.85659254  0.57966974  1
  Li  Li32  1  0.85396723  0.45118627  0.16653958  1
  Li  Li33  1  0.89603277  0.29881373  0.16653958  1
  Li  Li34  1  0.89603277  0.45118627  0.58346042  1
  Li  Li35  1  0.85396723  0.29881373  0.58346042  1
  Li  Li36  1  0.14603277  0.54881373  0.83346042  1
  Li  Li37  1  0.10396723  0.70118627  0.83346042  1
  Li  Li38  1  0.10396723  0.54881373  0.41653958  1
  Li  Li39  1  0.14603277  0.70118627  0.41653958  1
  Li  Li40  1  0.85396723  0.95118627  0.66653958  1
  Li  Li41  1  0.89603277  0.79881373  0.66653958  1
  Li  Li42  1  0.89603277  0.95118627  0.08346042  1
  Li  Li43  1  0.85396723  0.79881373  0.08346042  1
  Li  Li44  1  0.14603277  0.04881373  0.33346042  1
  Li  Li45  1  0.10396723  0.20118627  0.33346042  1
  Li  Li46  1  0.10396723  0.04881373  0.91653958  1
  Li  Li47  1  0.14603277  0.20118627  0.91653958  1
  Li  Li48  1  0.35396723  0.45118627  0.66653958  1
  Li  Li49  1  0.39603277  0.29881373  0.66653958  1
  Li  Li50  1  0.39603277  0.45118627  0.08346042  1
  Li  Li51  1  0.35396723  0.29881373  0.08346042  1
  Li  Li52  1  0.64603277  0.54881373  0.33346042  1
  Li  Li53  1  0.60396723  0.70118627  0.33346042  1
  Li  Li54  1  0.60396723  0.54881373  0.91653958  1
  Li  Li55  1  0.64603277  0.70118627  0.91653958  1
  Li  Li56  1  0.35396723  0.95118627  0.16653958  1
  Li  Li57  1  0.39603277  0.79881373  0.16653958  1
  Li  Li58  1  0.39603277  0.95118627  0.58346042  1
  Li  Li59  1  0.35396723  0.79881373  0.58346042  1
  Li  Li60  1  0.64603277  0.04881373  0.83346042  1
  Li  Li61  1  0.60396723  0.20118627  0.83346042  1
  Li  Li62  1  0.60396723  0.04881373  0.41653958  1
  Li  Li63  1  0.64603277  0.20118627  0.41653958  1
  Li  Li64  1  0.27426461  0.29824044  0.04639136  1
  Li  Li65  1  0.47573539  0.45175956  0.04639136  1
  Li  Li66  1  0.47573539  0.29824044  0.70360864  1
  Li  Li67  1  0.27426461  0.45175956  0.70360864  1
  Li  Li68  1  0.72573539  0.70175956  0.95360864  1
  Li  Li69  1  0.52426461  0.54824044  0.95360864  1
  Li  Li70  1  0.52426461  0.70175956  0.29639136  1
  Li  Li71  1  0.72573539  0.54824044  0.29639136  1
  Li  Li72  1  0.27426461  0.79824044  0.54639136  1
  Li  Li73  1  0.47573539  0.95175956  0.54639136  1
  Li  Li74  1  0.47573539  0.79824044  0.20360864  1
  Li  Li75  1  0.27426461  0.95175956  0.20360864  1
  Li  Li76  1  0.72573539  0.20175956  0.45360864  1
  Li  Li77  1  0.52426461  0.04824044  0.45360864  1
  Li  Li78  1  0.52426461  0.20175956  0.79639136  1
  Li  Li79  1  0.72573539  0.04824044  0.79639136  1
  Li  Li80  1  0.77426461  0.29824044  0.54639136  1
  Li  Li81  1  0.97573539  0.45175956  0.54639136  1
  Li  Li82  1  0.97573539  0.29824044  0.20360864  1
  Li  Li83  1  0.77426461  0.45175956  0.20360864  1
  Li  Li84  1  0.22573539  0.70175956  0.45360864  1
  Li  Li85  1  0.02426461  0.54824044  0.45360864  1
  Li  Li86  1  0.02426461  0.70175956  0.79639136  1
  Li  Li87  1  0.22573539  0.54824044  0.79639136  1
  Li  Li88  1  0.77426461  0.79824044  0.04639136  1
  Li  Li89  1  0.97573539  0.95175956  0.04639136  1
  Li  Li90  1  0.97573539  0.79824044  0.70360864  1
  Li  Li91  1  0.77426461  0.95175956  0.70360864  1
  Li  Li92  1  0.22573539  0.20175956  0.95360864  1
  Li  Li93  1  0.02426461  0.04824044  0.95360864  1
  Li  Li94  1  0.02426461  0.20175956  0.29639136  1
  Li  Li95  1  0.22573539  0.04824044  0.29639136  1
  Li  Li96  1  0.28710217  0.49062745  0.94904561  1
  Li  Li97  1  0.46289783  0.25937255  0.94904561  1
  Li  Li98  1  0.46289783  0.49062745  0.80095439  1
  Li  Li99  1  0.28710217  0.25937255  0.80095439  1
  Li  Li100  1  0.71289783  0.50937255  0.05095439  1
  Li  Li101  1  0.53710217  0.74062745  0.05095439  1
  Li  Li102  1  0.53710217  0.50937255  0.19904561  1
  Li  Li103  1  0.71289783  0.74062745  0.19904561  1
  Li  Li104  1  0.28710217  0.99062745  0.44904561  1
  Li  Li105  1  0.46289783  0.75937255  0.44904561  1
  Li  Li106  1  0.46289783  0.99062745  0.30095439  1
  Li  Li107  1  0.28710217  0.75937255  0.30095439  1
  Li  Li108  1  0.71289783  0.00937255  0.55095439  1
  Li  Li109  1  0.53710217  0.24062745  0.55095439  1
  Li  Li110  1  0.53710217  0.00937255  0.69904561  1
  Li  Li111  1  0.71289783  0.24062745  0.69904561  1
  Li  Li112  1  0.78710217  0.49062745  0.44904561  1
  Li  Li113  1  0.96289783  0.25937255  0.44904561  1
  Li  Li114  1  0.96289783  0.49062745  0.30095439  1
  Li  Li115  1  0.78710217  0.25937255  0.30095439  1
  Li  Li116  1  0.21289783  0.50937255  0.55095439  1
  Li  Li117  1  0.03710217  0.74062745  0.55095439  1
  Li  Li118  1  0.03710217  0.50937255  0.69904561  1
  Li  Li119  1  0.21289783  0.74062745  0.69904561  1
  Li  Li120  1  0.78710217  0.99062745  0.94904561  1
  Li  Li121  1  0.96289783  0.75937255  0.94904561  1
  Li  Li122  1  0.96289783  0.99062745  0.80095439  1
  Li  Li123  1  0.78710217  0.75937255  0.80095439  1
  Li  Li124  1  0.21289783  0.00937255  0.05095439  1
  Li  Li125  1  0.03710217  0.24062745  0.05095439  1
  Li  Li126  1  0.03710217  0.00937255  0.19904561  1
  Li  Li127  1  0.21289783  0.24062745  0.19904561  1
  S  S128  1  0.24045330  0.12500000  0.12500000  1
  S  S129  1  0.50954670  0.62500000  0.12500000  1
  S  S130  1  0.75954670  0.87500000  0.87500000  1
  S  S131  1  0.49045330  0.37500000  0.87500000  1
  S  S132  1  0.24045330  0.62500000  0.62500000  1
  S  S133  1  0.50954670  0.12500000  0.62500000  1
  S  S134  1  0.75954670  0.37500000  0.37500000  1
  S  S135  1  0.49045330  0.87500000  0.37500000  1
  S  S136  1  0.74045330  0.12500000  0.62500000  1
  S  S137  1  0.00954670  0.62500000  0.62500000  1
  S  S138  1  0.25954670  0.87500000  0.37500000  1
  S  S139  1  0.99045330  0.37500000  0.37500000  1
  S  S140  1  0.74045330  0.62500000  0.12500000  1
  S  S141  1  0.00954670  0.12500000  0.12500000  1
  S  S142  1  0.25954670  0.37500000  0.87500000  1
  S  S143  1  0.99045330  0.87500000  0.87500000  1
  S  S144  1  0.12500000  0.12500000  0.62500000  1
  S  S145  1  0.87500000  0.87500000  0.37500000  1
  S  S146  1  0.12500000  0.62500000  0.12500000  1
  S  S147  1  0.87500000  0.37500000  0.87500000  1
  S  S148  1  0.62500000  0.12500000  0.12500000  1
  S  S149  1  0.37500000  0.87500000  0.87500000  1
  S  S150  1  0.62500000  0.62500000  0.62500000  1
  S  S151  1  0.37500000  0.37500000  0.37500000  1
  S  S152  1  0.12500000  0.12500000  0.12500000  1
  S  S153  1  0.87500000  0.87500000  0.87500000  1
  S  S154  1  0.12500000  0.62500000  0.62500000  1
  S  S155  1  0.87500000  0.37500000  0.37500000  1
  S  S156  1  0.62500000  0.12500000  0.62500000  1
  S  S157  1  0.37500000  0.87500000  0.37500000  1
  S  S158  1  0.62500000  0.62500000  0.12500000  1
  S  S159  1  0.37500000  0.37500000  0.87500000  1
