# generated using pymatgen
data_SiO2
_symmetry_space_group_name_H-M   'P 1'
_cell_length_a   15.12572617
_cell_length_b   15.12572617
_cell_length_c   15.12572617
_cell_angle_alpha   90.00000000
_cell_angle_beta   90.00000000
_cell_angle_gamma   90.00000000
_symmetry_Int_Tables_number   1
_chemical_formula_structural   SiO2
_chemical_formula_sum   'Si96 O192'
_cell_volume   3460.57847058
_cell_formula_units_Z   96
loop_
 _symmetry_equiv_pos_site_id
 _symmetry_equiv_pos_as_xyz
  1  'x, y, z'
loop_
 _atom_site_type_symbol
 _atom_site_label
 _atom_site_symmetry_multiplicity
 _atom_site_fract_x
 _atom_site_fract_y
 _atom_site_fract_z
 _atom_site_occupancy
  O  O0  1  0.34527519  0.63161189  0.57553183  1
  O  O1  1  0.15472481  0.36838811  0.07553183  1
  O  O2  1  0.65472481  0.13161189  0.92446817  1
  O  O3  1  0.84527519  0.86838811  0.42446817  1
  O  O4  1  0.57553183  0.34527519  0.63161189  1
  O  O5  1  0.07553183  0.15472481  0.36838811  1
  O  O6  1  0.92446817  0.65472481  0.13161189  1
  O  O7  1  0.42446817  0.84527519  0.86838811  1
  O  O8  1  0.63161189  0.57553183  0.34527519  1
  O  O9  1  0.36838811  0.07553183  0.15472481  1
  O  O10  1  0.13161189  0.92446817  0.65472481  1
  O  O11  1  0.86838811  0.42446817  0.84527519  1
  O  O12  1  0.38161189  0.59527519  0.67446817  1
  O  O13  1  0.11838811  0.40472481  0.17446817  1
  O  O14  1  0.88161189  0.90472481  0.32553183  1
  O  O15  1  0.61838811  0.09527519  0.82553183  1
  O  O16  1  0.09527519  0.82553183  0.61838811  1
  O  O17  1  0.90472481  0.32553183  0.88161189  1
  O  O18  1  0.40472481  0.17446817  0.11838811  1
  O  O19  1  0.59527519  0.67446817  0.38161189  1
  O  O20  1  0.32553183  0.88161189  0.90472481  1
  O  O21  1  0.82553183  0.61838811  0.09527519  1
  O  O22  1  0.67446817  0.38161189  0.59527519  1
  O  O23  1  0.17446817  0.11838811  0.40472481  1
  O  O24  1  0.65472481  0.36838811  0.42446817  1
  O  O25  1  0.84527519  0.63161189  0.92446817  1
  O  O26  1  0.34527519  0.86838811  0.07553183  1
  O  O27  1  0.15472481  0.13161189  0.57553183  1
  O  O28  1  0.42446817  0.65472481  0.36838811  1
  O  O29  1  0.92446817  0.84527519  0.63161189  1
  O  O30  1  0.07553183  0.34527519  0.86838811  1
  O  O31  1  0.57553183  0.15472481  0.13161189  1
  O  O32  1  0.36838811  0.42446817  0.65472481  1
  O  O33  1  0.63161189  0.92446817  0.84527519  1
  O  O34  1  0.86838811  0.07553183  0.34527519  1
  O  O35  1  0.13161189  0.57553183  0.15472481  1
  O  O36  1  0.61838811  0.40472481  0.32553183  1
  O  O37  1  0.88161189  0.59527519  0.82553183  1
  O  O38  1  0.11838811  0.09527519  0.67446817  1
  O  O39  1  0.38161189  0.90472481  0.17446817  1
  O  O40  1  0.90472481  0.17446817  0.38161189  1
  O  O41  1  0.09527519  0.67446817  0.11838811  1
  O  O42  1  0.59527519  0.82553183  0.88161189  1
  O  O43  1  0.40472481  0.32553183  0.61838811  1
  O  O44  1  0.67446817  0.11838811  0.09527519  1
  O  O45  1  0.17446817  0.38161189  0.90472481  1
  O  O46  1  0.32553183  0.61838811  0.40472481  1
  O  O47  1  0.82553183  0.88161189  0.59527519  1
  O  O48  1  0.84527519  0.13161189  0.07553183  1
  O  O49  1  0.65472481  0.86838811  0.57553183  1
  O  O50  1  0.15472481  0.63161189  0.42446817  1
  O  O51  1  0.34527519  0.36838811  0.92446817  1
  O  O52  1  0.07553183  0.84527519  0.13161189  1
  O  O53  1  0.57553183  0.65472481  0.86838811  1
  O  O54  1  0.42446817  0.15472481  0.63161189  1
  O  O55  1  0.92446817  0.34527519  0.36838811  1
  O  O56  1  0.13161189  0.07553183  0.84527519  1
  O  O57  1  0.86838811  0.57553183  0.65472481  1
  O  O58  1  0.63161189  0.42446817  0.15472481  1
  O  O59  1  0.36838811  0.92446817  0.34527519  1
  O  O60  1  0.88161189  0.09527519  0.17446817  1
  O  O61  1  0.61838811  0.90472481  0.67446817  1
  O  O62  1  0.38161189  0.40472481  0.82553183  1
  O  O63  1  0.11838811  0.59527519  0.32553183  1
  O  O64  1  0.59527519  0.32553183  0.11838811  1
  O  O65  1  0.40472481  0.82553183  0.38161189  1
  O  O66  1  0.90472481  0.67446817  0.61838811  1
  O  O67  1  0.09527519  0.17446817  0.88161189  1
  O  O68  1  0.82553183  0.38161189  0.40472481  1
  O  O69  1  0.32553183  0.11838811  0.59527519  1
  O  O70  1  0.17446817  0.88161189  0.09527519  1
  O  O71  1  0.67446817  0.61838811  0.90472481  1
  O  O72  1  0.15472481  0.86838811  0.92446817  1
  O  O73  1  0.34527519  0.13161189  0.42446817  1
  O  O74  1  0.84527519  0.36838811  0.57553183  1
  O  O75  1  0.65472481  0.63161189  0.07553183  1
  O  O76  1  0.92446817  0.15472481  0.86838811  1
  O  O77  1  0.42446817  0.34527519  0.13161189  1
  O  O78  1  0.57553183  0.84527519  0.36838811  1
  O  O79  1  0.07553183  0.65472481  0.63161189  1
  O  O80  1  0.86838811  0.92446817  0.15472481  1
  O  O81  1  0.13161189  0.42446817  0.34527519  1
  O  O82  1  0.36838811  0.57553183  0.84527519  1
  O  O83  1  0.63161189  0.07553183  0.65472481  1
  O  O84  1  0.11838811  0.90472481  0.82553183  1
  O  O85  1  0.38161189  0.09527519  0.32553183  1
  O  O86  1  0.61838811  0.59527519  0.17446817  1
  O  O87  1  0.88161189  0.40472481  0.67446817  1
  O  O88  1  0.40472481  0.67446817  0.88161189  1
  O  O89  1  0.59527519  0.17446817  0.61838811  1
  O  O90  1  0.09527519  0.32553183  0.38161189  1
  O  O91  1  0.90472481  0.82553183  0.11838811  1
  O  O92  1  0.17446817  0.61838811  0.59527519  1
  O  O93  1  0.67446817  0.88161189  0.40472481  1
  O  O94  1  0.82553183  0.11838811  0.90472481  1
  O  O95  1  0.32553183  0.38161189  0.09527519  1
  O  O96  1  0.82014617  0.71216853  0.99507112  1
  O  O97  1  0.67985383  0.28783147  0.49507112  1
  O  O98  1  0.17985383  0.21216853  0.50492888  1
  O  O99  1  0.32014617  0.78783147  0.00492888  1
  O  O100  1  0.99507112  0.82014617  0.71216853  1
  O  O101  1  0.49507112  0.67985383  0.28783147  1
  O  O102  1  0.50492888  0.17985383  0.21216853  1
  O  O103  1  0.00492888  0.32014617  0.78783147  1
  O  O104  1  0.71216853  0.99507112  0.82014617  1
  O  O105  1  0.28783147  0.49507112  0.67985383  1
  O  O106  1  0.21216853  0.50492888  0.17985383  1
  O  O107  1  0.78783147  0.00492888  0.32014617  1
  O  O108  1  0.46216853  0.07014617  0.25492888  1
  O  O109  1  0.03783147  0.92985383  0.75492888  1
  O  O110  1  0.96216853  0.42985383  0.74507112  1
  O  O111  1  0.53783147  0.57014617  0.24507112  1
  O  O112  1  0.57014617  0.24507112  0.53783147  1
  O  O113  1  0.42985383  0.74507112  0.96216853  1
  O  O114  1  0.92985383  0.75492888  0.03783147  1
  O  O115  1  0.07014617  0.25492888  0.46216853  1
  O  O116  1  0.74507112  0.96216853  0.42985383  1
  O  O117  1  0.24507112  0.53783147  0.57014617  1
  O  O118  1  0.25492888  0.46216853  0.07014617  1
  O  O119  1  0.75492888  0.03783147  0.92985383  1
  O  O120  1  0.17985383  0.28783147  0.00492888  1
  O  O121  1  0.32014617  0.71216853  0.50492888  1
  O  O122  1  0.82014617  0.78783147  0.49507112  1
  O  O123  1  0.67985383  0.21216853  0.99507112  1
  O  O124  1  0.00492888  0.17985383  0.28783147  1
  O  O125  1  0.50492888  0.32014617  0.71216853  1
  O  O126  1  0.49507112  0.82014617  0.78783147  1
  O  O127  1  0.99507112  0.67985383  0.21216853  1
  O  O128  1  0.28783147  0.00492888  0.17985383  1
  O  O129  1  0.71216853  0.50492888  0.32014617  1
  O  O130  1  0.78783147  0.49507112  0.82014617  1
  O  O131  1  0.21216853  0.99507112  0.67985383  1
  O  O132  1  0.53783147  0.92985383  0.74507112  1
  O  O133  1  0.96216853  0.07014617  0.24507112  1
  O  O134  1  0.03783147  0.57014617  0.25492888  1
  O  O135  1  0.46216853  0.42985383  0.75492888  1
  O  O136  1  0.42985383  0.75492888  0.46216853  1
  O  O137  1  0.57014617  0.25492888  0.03783147  1
  O  O138  1  0.07014617  0.24507112  0.96216853  1
  O  O139  1  0.92985383  0.74507112  0.53783147  1
  O  O140  1  0.25492888  0.03783147  0.57014617  1
  O  O141  1  0.75492888  0.46216853  0.42985383  1
  O  O142  1  0.74507112  0.53783147  0.92985383  1
  O  O143  1  0.24507112  0.96216853  0.07014617  1
  O  O144  1  0.32014617  0.21216853  0.49507112  1
  O  O145  1  0.17985383  0.78783147  0.99507112  1
  O  O146  1  0.67985383  0.71216853  0.00492888  1
  O  O147  1  0.82014617  0.28783147  0.50492888  1
  O  O148  1  0.49507112  0.32014617  0.21216853  1
  O  O149  1  0.99507112  0.17985383  0.78783147  1
  O  O150  1  0.00492888  0.67985383  0.71216853  1
  O  O151  1  0.50492888  0.82014617  0.28783147  1
  O  O152  1  0.21216853  0.49507112  0.32014617  1
  O  O153  1  0.78783147  0.99507112  0.17985383  1
  O  O154  1  0.71216853  0.00492888  0.67985383  1
  O  O155  1  0.28783147  0.50492888  0.82014617  1
  O  O156  1  0.96216853  0.57014617  0.75492888  1
  O  O157  1  0.53783147  0.42985383  0.25492888  1
  O  O158  1  0.46216853  0.92985383  0.24507112  1
  O  O159  1  0.03783147  0.07014617  0.74507112  1
  O  O160  1  0.07014617  0.74507112  0.03783147  1
  O  O161  1  0.92985383  0.24507112  0.46216853  1
  O  O162  1  0.42985383  0.25492888  0.53783147  1
  O  O163  1  0.57014617  0.75492888  0.96216853  1
  O  O164  1  0.24507112  0.46216853  0.92985383  1
  O  O165  1  0.74507112  0.03783147  0.07014617  1
  O  O166  1  0.75492888  0.96216853  0.57014617  1
  O  O167  1  0.25492888  0.53783147  0.42985383  1
  O  O168  1  0.67985383  0.78783147  0.50492888  1
  O  O169  1  0.82014617  0.21216853  0.00492888  1
  O  O170  1  0.32014617  0.28783147  0.99507112  1
  O  O171  1  0.17985383  0.71216853  0.49507112  1
  O  O172  1  0.50492888  0.67985383  0.78783147  1
  O  O173  1  0.00492888  0.82014617  0.21216853  1
  O  O174  1  0.99507112  0.32014617  0.28783147  1
  O  O175  1  0.49507112  0.17985383  0.71216853  1
  O  O176  1  0.78783147  0.50492888  0.67985383  1
  O  O177  1  0.21216853  0.00492888  0.82014617  1
  O  O178  1  0.28783147  0.99507112  0.32014617  1
  O  O179  1  0.71216853  0.49507112  0.17985383  1
  O  O180  1  0.03783147  0.42985383  0.24507112  1
  O  O181  1  0.46216853  0.57014617  0.74507112  1
  O  O182  1  0.53783147  0.07014617  0.75492888  1
  O  O183  1  0.96216853  0.92985383  0.25492888  1
  O  O184  1  0.92985383  0.25492888  0.96216853  1
  O  O185  1  0.07014617  0.75492888  0.53783147  1
  O  O186  1  0.57014617  0.74507112  0.46216853  1
  O  O187  1  0.42985383  0.24507112  0.03783147  1
  O  O188  1  0.75492888  0.53783147  0.07014617  1
  O  O189  1  0.25492888  0.96216853  0.92985383  1
  O  O190  1  0.24507112  0.03783147  0.42985383  1
  O  O191  1  0.74507112  0.46216853  0.57014617  1
  Si  Si192  1  0.94328446  0.18256788  0.30040258  1
  Si  Si193  1  -0.44328446  -0.18256788  0.80040258  1
  Si  Si194  1  -0.94328446  0.68256788  0.19959742  1
  Si  Si195  1  1.44328446  0.31743212  -0.30040258  1
  Si  Si196  1  0.30040258  0.94328446  0.18256788  1
  Si  Si197  1  0.80040258  -0.44328446  -0.18256788  1
  Si  Si198  1  0.19959742  -0.94328446  0.68256788  1
  Si  Si199  1  -0.30040258  1.44328446  0.31743212  1
  Si  Si200  1  0.18256788  0.30040258  0.94328446  1
  Si  Si201  1  -0.18256788  0.80040258  -0.44328446  1
  Si  Si202  1  0.68256788  0.19959742  -0.94328446  1
  Si  Si203  1  0.31743212  -0.30040258  1.44328446  1
  Si  Si204  1  0.93256788  1.19328446  -0.05040258  1
  Si  Si205  1  0.56743212  -0.19328446  0.44959742  1
  Si  Si206  1  0.43256788  -0.69328446  1.05040258  1
  Si  Si207  1  0.06743212  1.69328446  0.55040258  1
  Si  Si208  1  1.69328446  0.55040258  0.06743212  1
  Si  Si209  1  -0.69328446  1.05040258  0.43256788  1
  Si  Si210  1  -0.19328446  0.44959742  0.56743212  1
  Si  Si211  1  1.19328446  -0.05040258  0.93256788  1
  Si  Si212  1  1.05040258  0.43256788  -0.69328446  1
  Si  Si213  1  0.55040258  0.06743212  1.69328446  1
  Si  Si214  1  -0.05040258  0.93256788  1.19328446  1
  Si  Si215  1  0.44959742  0.56743212  -0.19328446  1
  Si  Si216  1  -0.94328446  -0.18256788  -0.30040258  1
  Si  Si217  1  1.44328446  0.18256788  0.19959742  1
  Si  Si218  1  0.94328446  0.31743212  0.80040258  1
  Si  Si219  1  -0.44328446  0.68256788  0.30040258  1
  Si  Si220  1  -0.30040258  -0.94328446  -0.18256788  1
  Si  Si221  1  0.19959742  1.44328446  0.18256788  1
  Si  Si222  1  0.80040258  0.94328446  0.31743212  1
  Si  Si223  1  0.30040258  -0.44328446  0.68256788  1
  Si  Si224  1  -0.18256788  -0.30040258  -0.94328446  1
  Si  Si225  1  0.18256788  0.19959742  1.44328446  1
  Si  Si226  1  0.31743212  0.80040258  0.94328446  1
  Si  Si227  1  0.68256788  0.30040258  -0.44328446  1
  Si  Si228  1  0.06743212  -0.19328446  1.05040258  1
  Si  Si229  1  0.43256788  1.19328446  0.55040258  1
  Si  Si230  1  0.56743212  1.69328446  -0.05040258  1
  Si  Si231  1  0.93256788  -0.69328446  0.44959742  1
  Si  Si232  1  -0.69328446  0.44959742  0.93256788  1
  Si  Si233  1  1.69328446  -0.05040258  0.56743212  1
  Si  Si234  1  1.19328446  0.55040258  0.43256788  1
  Si  Si235  1  -0.19328446  1.05040258  0.06743212  1
  Si  Si236  1  -0.05040258  0.56743212  1.69328446  1
  Si  Si237  1  0.44959742  0.93256788  -0.69328446  1
  Si  Si238  1  1.05040258  0.06743212  -0.19328446  1
  Si  Si239  1  0.55040258  0.43256788  1.19328446  1
  Si  Si240  1  1.44328446  0.68256788  0.80040258  1
  Si  Si241  1  0.05671554  0.31743212  1.30040258  1
  Si  Si242  1  -0.44328446  1.18256788  0.69959742  1
  Si  Si243  1  1.94328446  0.81743212  0.19959742  1
  Si  Si244  1  0.80040258  1.44328446  0.68256788  1
  Si  Si245  1  1.30040258  0.05671554  0.31743212  1
  Si  Si246  1  0.69959742  -0.44328446  1.18256788  1
  Si  Si247  1  0.19959742  1.94328446  0.81743212  1
  Si  Si248  1  0.68256788  0.80040258  1.44328446  1
  Si  Si249  1  0.31743212  1.30040258  0.05671554  1
  Si  Si250  1  1.18256788  0.69959742  -0.44328446  1
  Si  Si251  1  0.81743212  0.19959742  1.94328446  1
  Si  Si252  1  1.43256788  1.69328446  0.44959742  1
  Si  Si253  1  1.06743212  0.30671554  0.94959742  1
  Si  Si254  1  0.93256788  -0.19328446  1.55040258  1
  Si  Si255  1  0.56743212  2.19328446  1.05040258  1
  Si  Si256  1  2.19328446  1.05040258  0.56743212  1
  Si  Si257  1  -0.19328446  1.55040258  0.93256788  1
  Si  Si258  1  0.30671554  0.94959742  1.06743212  1
  Si  Si259  1  1.69328446  0.44959742  1.43256788  1
  Si  Si260  1  1.55040258  0.93256788  -0.19328446  1
  Si  Si261  1  1.05040258  0.56743212  2.19328446  1
  Si  Si262  1  0.44959742  1.43256788  1.69328446  1
  Si  Si263  1  0.94959742  1.06743212  0.30671554  1
  Si  Si264  1  -0.44328446  0.31743212  0.19959742  1
  Si  Si265  1  1.94328446  0.68256788  0.69959742  1
  Si  Si266  1  1.44328446  0.81743212  1.30040258  1
  Si  Si267  1  0.05671554  1.18256788  0.80040258  1
  Si  Si268  1  0.19959742  -0.44328446  0.31743212  1
  Si  Si269  1  0.69959742  1.94328446  0.68256788  1
  Si  Si270  1  1.30040258  1.44328446  0.81743212  1
  Si  Si271  1  0.80040258  0.05671554  1.18256788  1
  Si  Si272  1  0.31743212  0.19959742  -0.44328446  1
  Si  Si273  1  0.68256788  0.69959742  1.94328446  1
  Si  Si274  1  0.81743212  1.30040258  1.44328446  1
  Si  Si275  1  1.18256788  0.80040258  0.05671554  1
  Si  Si276  1  0.56743212  0.30671554  1.55040258  1
  Si  Si277  1  0.93256788  1.69328446  1.05040258  1
  Si  Si278  1  1.06743212  2.19328446  0.44959742  1
  Si  Si279  1  1.43256788  -0.19328446  0.94959742  1
  Si  Si280  1  -0.19328446  0.94959742  1.43256788  1
  Si  Si281  1  2.19328446  0.44959742  1.06743212  1
  Si  Si282  1  1.69328446  1.05040258  0.93256788  1
  Si  Si283  1  0.30671554  1.55040258  0.56743212  1
  Si  Si284  1  0.44959742  1.06743212  2.19328446  1
  Si  Si285  1  0.94959742  1.43256788  -0.19328446  1
  Si  Si286  1  1.55040258  0.56743212  0.30671554  1
  Si  Si287  1  1.05040258  0.93256788  1.69328446  1
