# generated using pymatgen
data_Li2Ti2VTe2(OF)3
_symmetry_space_group_name_H-M   'P 1'
_cell_length_a   3.60728189
_cell_length_b   3.36661603
_cell_length_c   2.95209813
_cell_angle_alpha   87.03316809
_cell_angle_beta   86.39750097
_cell_angle_gamma   92.37245121
_symmetry_Int_Tables_number   1
_chemical_formula_structural   Li2Ti2VTe2(OF)3
_chemical_formula_sum   'Li2 Ti2 V1 Te2 O3 F3'
_cell_volume   35.69659293
_cell_formula_units_Z   1
loop_
 _symmetry_equiv_pos_site_id
 _symmetry_equiv_pos_as_xyz
  1  'x, y, z'
loop_
 _atom_site_type_symbol
 _atom_site_label
 _atom_site_symmetry_multiplicity
 _atom_site_fract_x
 _atom_site_fract_y
 _atom_site_fract_z
 _atom_site_occupancy
  Li  Li0  1  0.00000000  0.00000000  0.00000000  1
  Li  Li1  1  0.50000000  0.50000000  0.50000000  1
  Ti  Ti2  1  0.50000000  0.50000000  0.00000000  1
  Ti  Ti3  1  0.50000000  0.00000000  0.50000000  1
  O  O4  1  0.00000000  0.50000000  0.50000000  1
  O  O5  1  0.39018760  0.36469348  0.36940109  1
  O  O6  1  0.78016303  0.49044588  0.43897192  1
  F  F7  1  0.33828739  0.30187008  0.97830951  1
  F  F8  1  0.50317909  0.53264580  0.71531091  1
  F  F9  1  0.24204096  0.40044377  0.72841722  1
  Te  Te10  1  0.20999591  0.57683086  0.13682752  1
  Te  Te11  1  0.96418565  0.68233669  0.42765239  1
  V  V12  1  0.85844609  0.76242738  0.87923909  1
