# generated using pymatgen
data_LiSb2I6Cl
_symmetry_space_group_name_H-M   'P 1'
_cell_length_a   8.21494906
_cell_length_b   11.15876977
_cell_length_c   13.70594547
_cell_angle_alpha   90.00000000
_cell_angle_beta   90.00000000
_cell_angle_gamma   90.00000000
_symmetry_Int_Tables_number   1
_chemical_formula_structural   LiSb2I6Cl
_chemical_formula_sum   'Li4 Sb8 I24 Cl4'
_cell_volume   1256.40654832
_cell_formula_units_Z   4
loop_
 _symmetry_equiv_pos_site_id
 _symmetry_equiv_pos_as_xyz
  1  'x, y, z'
loop_
 _atom_site_type_symbol
 _atom_site_label
 _atom_site_symmetry_multiplicity
 _atom_site_fract_x
 _atom_site_fract_y
 _atom_site_fract_z
 _atom_site_occupancy
  Cl  Cl0  1  0.03128215  0.25000000  0.61885338  1
  Cl  Cl1  1  0.46871785  0.75000000  0.11885338  1
  Cl  Cl2  1  0.96871785  0.75000000  0.38114662  1
  Cl  Cl3  1  0.53128215  0.25000000  0.88114662  1
  I  I4  1  0.31296728  0.25000000  0.49651222  1
  I  I5  1  0.18703272  0.75000000  0.99651222  1
  I  I6  1  0.68703272  0.75000000  0.50348778  1
  I  I7  1  0.81296728  0.25000000  0.00348778  1
  I  I8  1  0.01176486  0.59675059  0.90028329  1
  I  I9  1  0.48823514  -0.59675059  1.40028329  1
  I  I10  1  -0.01176486  1.09675059  -0.90028329  1
  I  I11  1  0.51176486  -0.09675059  -0.40028329  1
  I  I12  1  -0.01176486  -0.59675059  -0.90028329  1
  I  I13  1  0.51176486  0.59675059  -0.40028329  1
  I  I14  1  0.01176486  -0.09675059  0.90028329  1
  I  I15  1  0.48823514  1.09675059  1.40028329  1
  I  I16  1  0.29008115  0.25000000  0.27665605  1
  I  I17  1  0.20991885  0.75000000  0.77665605  1
  I  I18  1  0.70991885  0.75000000  0.72334395  1
  I  I19  1  0.79008115  0.25000000  0.22334395  1
  I  I20  1  0.07221679  0.51309474  0.22003484  1
  I  I21  1  0.42778321  0.48690526  0.72003484  1
  I  I22  1  0.92778321  0.01309474  0.77996516  1
  I  I23  1  0.57221679  0.98690526  0.27996516  1
  I  I24  1  0.92778321  0.48690526  0.77996516  1
  I  I25  1  0.57221679  0.51309474  0.27996516  1
  I  I26  1  0.07221679  0.98690526  0.22003484  1
  I  I27  1  0.42778321  0.01309474  0.72003484  1
  Li  Li28  1  0.00000000  0.00000000  0.00000000  1
  Li  Li29  1  0.50000000  0.00000000  0.50000000  1
  Li  Li30  1  0.00000000  0.50000000  0.00000000  1
  Li  Li31  1  0.50000000  0.50000000  0.50000000  1
  Sb  Sb32  1  0.35820604  0.25000000  0.84949710  1
  Sb  Sb33  1  0.14179396  0.75000000  0.34949710  1
  Sb  Sb34  1  0.64179396  0.75000000  0.15050290  1
  Sb  Sb35  1  0.85820604  0.25000000  0.65050290  1
  Sb  Sb36  1  0.00000000  0.00000000  0.50000000  1
  Sb  Sb37  1  0.50000000  0.00000000  0.00000000  1
  Sb  Sb38  1  0.00000000  0.50000000  0.50000000  1
  Sb  Sb39  1  0.50000000  0.50000000  -0.00000000  1
