# generated using pymatgen
data_Li2Sn3(Te2Cl3)2
_symmetry_space_group_name_H-M   'P 1'
_cell_length_a   13.74073421
_cell_length_b   13.74073421
_cell_length_c   6.38217904
_cell_angle_alpha   90.00000000
_cell_angle_beta   90.00000000
_cell_angle_gamma   120.00000000
_symmetry_Int_Tables_number   1
_chemical_formula_structural   Li2Sn3(Te2Cl3)2
_chemical_formula_sum   'Li6 Sn9 Te12 Cl18'
_cell_volume   1043.56497266
_cell_formula_units_Z   3
loop_
 _symmetry_equiv_pos_site_id
 _symmetry_equiv_pos_as_xyz
  1  'x, y, z'
loop_
 _atom_site_type_symbol
 _atom_site_label
 _atom_site_symmetry_multiplicity
 _atom_site_fract_x
 _atom_site_fract_y
 _atom_site_fract_z
 _atom_site_occupancy
  Cl  Cl0  1  0.77398698  -0.77398698  0.88247617  1
  Cl  Cl1  1  0.77398698  1.54797395  0.88247617  1
  Cl  Cl2  1  -1.54797395  -0.77398698  0.88247617  1
  Cl  Cl3  1  -0.77398698  0.77398698  -0.88247617  1
  Cl  Cl4  1  1.54797395  0.77398698  -0.88247617  1
  Cl  Cl5  1  -0.77398698  -1.54797395  -0.88247617  1
  Cl  Cl6  1  1.44065364  -0.44065364  1.21580950  1
  Cl  Cl7  1  1.44065364  1.88130728  1.21580950  1
  Cl  Cl8  1  -0.88130728  -0.44065364  1.21580950  1
  Cl  Cl9  1  -0.10732031  1.10732031  -0.54914284  1
  Cl  Cl10  1  2.21464062  1.10732031  -0.54914284  1
  Cl  Cl11  1  -0.10732031  -1.21464062  -0.54914284  1
  Cl  Cl12  1  1.10732031  -0.10732031  1.54914284  1
  Cl  Cl13  1  1.10732031  2.21464062  1.54914284  1
  Cl  Cl14  1  -1.21464062  -0.10732031  1.54914284  1
  Cl  Cl15  1  -0.44065364  1.44065364  -0.21580950  1
  Cl  Cl16  1  1.88130728  1.44065364  -0.21580950  1
  Cl  Cl17  1  -0.44065364  -0.88130728  -0.21580950  1
  Li  Li18  1  0.00000000  0.00000000  0.35728624  1
  Li  Li19  1  0.00000000  0.00000000  0.64271376  1
  Li  Li20  1  0.66666667  0.33333333  0.69061957  1
  Li  Li21  1  0.66666667  0.33333333  0.97604710  1
  Li  Li22  1  0.33333333  0.66666667  0.02395290  1
  Li  Li23  1  0.33333333  0.66666667  0.30938043  1
  Sn  Sn24  1  0.50000000  0.00000000  0.50000000  1
  Sn  Sn25  1  0.00000000  0.50000000  0.50000000  1
  Sn  Sn26  1  0.50000000  0.50000000  0.50000000  1
  Sn  Sn27  1  0.16666667  0.33333333  0.83333333  1
  Sn  Sn28  1  0.66666667  0.83333333  0.83333333  1
  Sn  Sn29  1  0.16666667  0.83333333  0.83333333  1
  Sn  Sn30  1  0.83333333  0.66666667  0.16666667  1
  Sn  Sn31  1  0.33333333  0.16666667  0.16666667  1
  Sn  Sn32  1  0.83333333  0.16666667  0.16666667  1
  Te  Te33  1  0.50000000  0.00000000  0.00000000  1
  Te  Te34  1  0.00000000  0.50000000  0.00000000  1
  Te  Te35  1  0.50000000  0.50000000  0.00000000  1
  Te  Te36  1  0.16666667  0.33333333  0.33333333  1
  Te  Te37  1  0.66666667  0.83333333  0.33333333  1
  Te  Te38  1  0.16666667  0.83333333  0.33333333  1
  Te  Te39  1  0.83333333  0.66666667  0.66666667  1
  Te  Te40  1  0.33333333  0.16666667  0.66666667  1
  Te  Te41  1  0.83333333  0.16666667  0.66666667  1
  Te  Te42  1  0.00000000  0.00000000  0.00000000  1
  Te  Te43  1  0.66666667  0.33333333  0.33333333  1
  Te  Te44  1  0.33333333  0.66666667  0.66666667  1
