# generated using pymatgen
data_Li3CoSe2I3O2F
_symmetry_space_group_name_H-M   'P 1'
_cell_length_a   8.95245843
_cell_length_b   10.11248751
_cell_length_c   7.73907761
_cell_angle_alpha   90.00000000
_cell_angle_beta   90.00000000
_cell_angle_gamma   90.00000000
_symmetry_Int_Tables_number   1
_chemical_formula_structural   Li3CoSe2I3O2F
_chemical_formula_sum   'Li3 Co1 Se2 I3 O2 F1'
_cell_volume   700.63126482
_cell_formula_units_Z   1
loop_
 _symmetry_equiv_pos_site_id
 _symmetry_equiv_pos_as_xyz
  1  'x, y, z'
loop_
 _atom_site_type_symbol
 _atom_site_label
 _atom_site_symmetry_multiplicity
 _atom_site_fract_x
 _atom_site_fract_y
 _atom_site_fract_z
 _atom_site_occupancy
  Li  Li0  1  0.00000000  0.00000000  0.00000000  1
  Li  Li1  1  0.50000000  0.50000000  0.50000000  1
  Li  Li2  1  0.25000000  0.25000000  0.25000000  1
  Co  Co3  1  0.75000000  0.25000000  0.00000000  1
  Se  Se4  1  0.25000000  0.75000000  0.50000000  1
  Se  Se5  1  0.20796254  0.24761018  0.22835931  1
  F  F6  1  0.86492679  0.22993352  0.87296877  1
  O  O7  1  0.38435931  0.28560547  0.31684255  1
  O  O8  1  0.05242054  0.95560046  0.63287601  1
  I  I9  1  0.05722148  0.52477005  0.40769468  1
  I  I10  1  0.16327117  0.40864097  0.05499093  1
  I  I11  1  0.05571356  0.05957372  0.18617126  1
