# generated using pymatgen
data_LiI
_symmetry_space_group_name_H-M   'P 1'
_cell_length_a   6.99846761
_cell_length_b   6.99846761
_cell_length_c   12.56823150
_cell_angle_alpha   90.00000000
_cell_angle_beta   90.00000000
_cell_angle_gamma   120.00000000
_symmetry_Int_Tables_number   1
_chemical_formula_structural   LiI
_chemical_formula_sum   'Li12 I12'
_cell_volume   533.10249713
_cell_formula_units_Z   12
loop_
 _symmetry_equiv_pos_site_id
 _symmetry_equiv_pos_as_xyz
  1  'x, y, z'
loop_
 _atom_site_type_symbol
 _atom_site_label
 _atom_site_symmetry_multiplicity
 _atom_site_fract_x
 _atom_site_fract_y
 _atom_site_fract_z
 _atom_site_occupancy
  I  I0  1  0.00000000  0.00000000  0.00000000  1
  I  I1  1  0.00000000  0.00000000  0.50000000  1
  I  I2  1  0.93184230  1.86368460  0.25000000  1
  I  I3  1  -1.86368460  -0.93184230  0.25000000  1
  I  I4  1  0.93184230  -0.93184230  0.25000000  1
  I  I5  1  -0.93184230  -1.86368460  0.75000000  1
  I  I6  1  1.86368460  0.93184230  0.75000000  1
  I  I7  1  -0.93184230  0.93184230  0.75000000  1
  I  I8  1  0.00000000  0.00000000  0.85739855  1
  I  I9  1  0.00000000  0.00000000  0.35739855  1
  I  I10  1  0.00000000  0.00000000  0.14260145  1
  I  I11  1  0.00000000  0.00000000  0.64260145  1
  Li  Li12  1  0.33333333  0.66666667  0.17679292  1
  Li  Li13  1  0.66666667  0.33333333  0.67679292  1
  Li  Li14  1  0.66666667  0.33333333  0.82320708  1
  Li  Li15  1  0.33333333  0.66666667  0.32320708  1
  Li  Li16  1  0.50000000  -0.00000000  0.00000000  1
  Li  Li17  1  0.00000000  0.50000000  0.00000000  1
  Li  Li18  1  0.50000000  0.50000000  0.00000000  1
  Li  Li19  1  0.50000000  -0.00000000  0.50000000  1
  Li  Li20  1  0.00000000  0.50000000  0.50000000  1
  Li  Li21  1  0.50000000  0.50000000  0.50000000  1
  Li  Li22  1  0.33333333  0.66666667  0.75000000  1
  Li  Li23  1  0.66666667  0.33333333  0.25000000  1
