# generated using pymatgen
data_Li2ScWN
_symmetry_space_group_name_H-M   'P 1'
_cell_length_a   3.10905250
_cell_length_b   3.35860318
_cell_length_c   6.44967859
_cell_angle_alpha   101.20025989
_cell_angle_beta   105.72519079
_cell_angle_gamma   101.60075312
_symmetry_Int_Tables_number   1
_chemical_formula_structural   Li2ScWN
_chemical_formula_sum   'Li2 Sc1 W1 N1'
_cell_volume   61.25367174
_cell_formula_units_Z   1
loop_
 _symmetry_equiv_pos_site_id
 _symmetry_equiv_pos_as_xyz
  1  'x, y, z'
loop_
 _atom_site_type_symbol
 _atom_site_label
 _atom_site_symmetry_multiplicity
 _atom_site_fract_x
 _atom_site_fract_y
 _atom_site_fract_z
 _atom_site_occupancy
  Li  Li0  1  0.00000000  0.00000000  0.00000000  1
  Li  Li1  1  0.33300000  0.66700000  0.25000000  1
  W  W2  1  0.66700000  0.33300000  0.50000000  1
  Sc  Sc3  1  0.00000000  0.00000000  0.75000000  1
  N  N4  1  0.05104631  0.81509111  0.34720775  1
