# generated using pymatgen
data_Li3Al2As4PO4
_symmetry_space_group_name_H-M   'P 1'
_cell_length_a   7.71582038
_cell_length_b   6.58085705
_cell_length_c   6.44999831
_cell_angle_alpha   90.00000000
_cell_angle_beta   90.00000000
_cell_angle_gamma   90.00000000
_symmetry_Int_Tables_number   1
_chemical_formula_structural   Li3Al2As4PO4
_chemical_formula_sum   'Li3 Al2 As4 P1 O4'
_cell_volume   327.50970006
_cell_formula_units_Z   1
loop_
 _symmetry_equiv_pos_site_id
 _symmetry_equiv_pos_as_xyz
  1  'x, y, z'
loop_
 _atom_site_type_symbol
 _atom_site_label
 _atom_site_symmetry_multiplicity
 _atom_site_fract_x
 _atom_site_fract_y
 _atom_site_fract_z
 _atom_site_occupancy
  Li  Li0  1  0.12500000  0.12500000  0.12500000  1
  Li  Li1  1  0.50000000  0.50000000  0.50000000  1
  Li  Li2  1  0.25000000  0.25000000  0.25000000  1
  Al  Al3  1  0.75000000  0.75000000  0.75000000  1
  Al  Al4  1  0.98613002  0.62230622  0.22970655  1
  O  O5  1  0.68795701  0.91994535  0.51841180  1
  O  O6  1  0.31027055  0.36652488  0.18268908  1
  O  O7  1  0.44656293  0.59705851  0.46300092  1
  O  O8  1  0.14903990  0.42924798  0.54105661  1
  As  As9  1  0.45524026  0.53381205  0.62760075  1
  As  As10  1  0.50145711  0.39977414  0.93874386  1
  As  As11  1  0.57746218  0.64962889  0.94525704  1
  As  As12  1  0.31733952  0.95133527  0.05028465  1
  P  P13  1  0.63015152  0.68846944  0.36117396  1
