# generated using pymatgen
data_Li4Hf3I6(Br3F2)2
_symmetry_space_group_name_H-M   'P 1'
_cell_length_a   15.26068076
_cell_length_b   15.26068076
_cell_length_c   15.26068076
_cell_angle_alpha   90.00000000
_cell_angle_beta   90.00000000
_cell_angle_gamma   90.00000000
_symmetry_Int_Tables_number   1
_chemical_formula_structural   Li4Hf3I6(Br3F2)2
_chemical_formula_sum   'Li32 Hf24 I48 Br48 F32'
_cell_volume   3554.03517621
_cell_formula_units_Z   8
loop_
 _symmetry_equiv_pos_site_id
 _symmetry_equiv_pos_as_xyz
  1  'x, y, z'
loop_
 _atom_site_type_symbol
 _atom_site_label
 _atom_site_symmetry_multiplicity
 _atom_site_fract_x
 _atom_site_fract_y
 _atom_site_fract_z
 _atom_site_occupancy
  Br  Br0  1  0.57314085  0.96903481  0.35963382  1
  Br  Br1  1  -0.07314085  -0.96903481  0.85963382  1
  Br  Br2  1  -0.57314085  1.46903481  0.14036618  1
  Br  Br3  1  1.07314085  -0.46903481  -0.35963382  1
  Br  Br4  1  0.35963382  0.57314085  0.96903481  1
  Br  Br5  1  0.85963382  -0.07314085  -0.96903481  1
  Br  Br6  1  0.14036618  -0.57314085  1.46903481  1
  Br  Br7  1  -0.35963382  1.07314085  -0.46903481  1
  Br  Br8  1  0.96903481  0.35963382  0.57314085  1
  Br  Br9  1  -0.96903481  0.85963382  -0.07314085  1
  Br  Br10  1  1.46903481  0.14036618  -0.57314085  1
  Br  Br11  1  -0.46903481  -0.35963382  1.07314085  1
  Br  Br12  1  1.71903481  0.82314085  -0.10963382  1
  Br  Br13  1  -0.21903481  0.17685915  0.39036618  1
  Br  Br14  1  1.21903481  -0.32314085  1.10963382  1
  Br  Br15  1  -0.71903481  1.32314085  0.60963382  1
  Br  Br16  1  1.32314085  0.60963382  -0.71903481  1
  Br  Br17  1  -0.32314085  1.10963382  1.21903481  1
  Br  Br18  1  0.17685915  0.39036618  -0.21903481  1
  Br  Br19  1  0.82314085  -0.10963382  1.71903481  1
  Br  Br20  1  1.10963382  1.21903481  -0.32314085  1
  Br  Br21  1  0.60963382  -0.71903481  1.32314085  1
  Br  Br22  1  -0.10963382  1.71903481  0.82314085  1
  Br  Br23  1  0.39036618  -0.21903481  0.17685915  1
  Br  Br24  1  1.07314085  1.46903481  0.85963382  1
  Br  Br25  1  0.42685915  -0.46903481  1.35963382  1
  Br  Br26  1  -0.07314085  1.96903481  0.64036618  1
  Br  Br27  1  1.57314085  0.03096519  0.14036618  1
  Br  Br28  1  0.85963382  1.07314085  1.46903481  1
  Br  Br29  1  1.35963382  0.42685915  -0.46903481  1
  Br  Br30  1  0.64036618  -0.07314085  1.96903481  1
  Br  Br31  1  0.14036618  1.57314085  0.03096519  1
  Br  Br32  1  1.46903481  0.85963382  1.07314085  1
  Br  Br33  1  -0.46903481  1.35963382  0.42685915  1
  Br  Br34  1  1.96903481  0.64036618  -0.07314085  1
  Br  Br35  1  0.03096519  0.14036618  1.57314085  1
  Br  Br36  1  2.21903481  1.32314085  0.39036618  1
  Br  Br37  1  0.28096519  0.67685915  0.89036618  1
  Br  Br38  1  1.71903481  0.17685915  1.60963382  1
  Br  Br39  1  -0.21903481  1.82314085  1.10963382  1
  Br  Br40  1  1.82314085  1.10963382  -0.21903481  1
  Br  Br41  1  0.17685915  1.60963382  1.71903481  1
  Br  Br42  1  0.67685915  0.89036618  0.28096519  1
  Br  Br43  1  1.32314085  0.39036618  2.21903481  1
  Br  Br44  1  1.60963382  1.71903481  0.17685915  1
  Br  Br45  1  1.10963382  -0.21903481  1.82314085  1
  Br  Br46  1  0.39036618  2.21903481  1.32314085  1
  Br  Br47  1  0.89036618  0.28096519  0.67685915  1
  F  F48  1  0.51764061  0.00000000  0.25000000  1
  F  F49  1  0.98235939  -0.00000000  0.75000000  1
  F  F50  1  0.25000000  0.51764061  -0.00000000  1
  F  F51  1  0.75000000  0.98235939  -0.00000000  1
  F  F52  1  0.00000000  0.25000000  0.51764061  1
  F  F53  1  0.00000000  0.75000000  0.98235939  1
  F  F54  1  0.75000000  0.76764061  -0.00000000  1
  F  F55  1  0.75000000  0.23235939  0.50000000  1
  F  F56  1  0.26764061  0.50000000  0.25000000  1
  F  F57  1  0.73235939  -0.00000000  0.25000000  1
  F  F58  1  0.00000000  0.25000000  0.73235939  1
  F  F59  1  0.50000000  0.25000000  0.26764061  1
  F  F60  1  0.01764061  0.50000000  0.75000000  1
  F  F61  1  0.48235939  0.50000000  0.25000000  1
  F  F62  1  0.75000000  0.01764061  0.50000000  1
  F  F63  1  0.25000000  0.48235939  0.50000000  1
  F  F64  1  0.50000000  0.75000000  0.01764061  1
  F  F65  1  0.50000000  0.25000000  0.48235939  1
  F  F66  1  0.25000000  0.26764061  0.50000000  1
  F  F67  1  0.25000000  0.73235939  -0.00000000  1
  F  F68  1  0.76764061  -0.00000000  0.75000000  1
  F  F69  1  0.23235939  0.50000000  0.75000000  1
  F  F70  1  0.50000000  0.75000000  0.23235939  1
  F  F71  1  0.00000000  0.75000000  0.76764061  1
  F  F72  1  0.12500000  0.12500000  0.12500000  1
  F  F73  1  0.37500000  0.87500000  0.62500000  1
  F  F74  1  0.87500000  0.62500000  0.37500000  1
  F  F75  1  0.62500000  0.37500000  0.87500000  1
  F  F76  1  0.62500000  0.62500000  0.62500000  1
  F  F77  1  0.87500000  0.37500000  0.12500000  1
  F  F78  1  0.37500000  0.12500000  0.87500000  1
  F  F79  1  0.12500000  0.87500000  0.37500000  1
  Hf  Hf80  1  0.12500000  -0.00000000  0.25000000  1
  Hf  Hf81  1  0.37500000  0.00000000  0.75000000  1
  Hf  Hf82  1  0.25000000  0.12500000  -0.00000000  1
  Hf  Hf83  1  0.75000000  0.37500000  0.00000000  1
  Hf  Hf84  1  0.00000000  0.25000000  0.12500000  1
  Hf  Hf85  1  0.00000000  0.75000000  0.37500000  1
  Hf  Hf86  1  0.62500000  0.50000000  0.75000000  1
  Hf  Hf87  1  0.87500000  0.50000000  0.25000000  1
  Hf  Hf88  1  0.75000000  0.62500000  0.50000000  1
  Hf  Hf89  1  0.25000000  0.87500000  0.50000000  1
  Hf  Hf90  1  0.50000000  0.75000000  0.62500000  1
  Hf  Hf91  1  0.50000000  0.25000000  0.87500000  1
  Hf  Hf92  1  0.62500000  -0.00000000  0.25000000  1
  Hf  Hf93  1  0.87500000  -0.00000000  0.75000000  1
  Hf  Hf94  1  0.25000000  0.62500000  -0.00000000  1
  Hf  Hf95  1  0.75000000  0.87500000  0.00000000  1
  Hf  Hf96  1  0.00000000  0.25000000  0.62500000  1
  Hf  Hf97  1  0.00000000  0.75000000  0.87500000  1
  Hf  Hf98  1  0.12500000  0.50000000  0.75000000  1
  Hf  Hf99  1  0.37500000  0.50000000  0.25000000  1
  Hf  Hf100  1  0.75000000  0.12500000  0.50000000  1
  Hf  Hf101  1  0.25000000  0.37500000  0.50000000  1
  Hf  Hf102  1  0.50000000  0.75000000  0.12500000  1
  Hf  Hf103  1  0.50000000  0.25000000  0.37500000  1
  I  I104  1  0.12500000  0.71572969  0.96572969  1
  I  I105  1  0.37500000  0.28427031  0.46572969  1
  I  I106  1  0.87500000  0.21572969  0.53427031  1
  I  I107  1  0.62500000  0.78427031  0.03427031  1
  I  I108  1  0.96572969  0.12500000  0.71572969  1
  I  I109  1  0.46572969  0.37500000  0.28427031  1
  I  I110  1  0.53427031  0.87500000  0.21572969  1
  I  I111  1  0.03427031  0.62500000  0.78427031  1
  I  I112  1  0.71572969  0.96572969  0.12500000  1
  I  I113  1  0.28427031  0.46572969  0.37500000  1
  I  I114  1  0.21572969  0.53427031  0.87500000  1
  I  I115  1  0.78427031  0.03427031  0.62500000  1
  I  I116  1  0.62500000  0.21572969  0.46572969  1
  I  I117  1  0.87500000  0.78427031  0.96572969  1
  I  I118  1  0.37500000  0.71572969  0.03427031  1
  I  I119  1  0.12500000  0.28427031  0.53427031  1
  I  I120  1  0.46572969  0.62500000  0.21572969  1
  I  I121  1  0.96572969  0.87500000  0.78427031  1
  I  I122  1  0.03427031  0.37500000  0.71572969  1
  I  I123  1  0.53427031  0.12500000  0.28427031  1
  I  I124  1  0.21572969  0.46572969  0.62500000  1
  I  I125  1  0.78427031  0.96572969  0.87500000  1
  I  I126  1  0.71572969  0.03427031  0.37500000  1
  I  I127  1  0.28427031  0.53427031  0.12500000  1
  I  I128  1  0.12500000  0.13218859  0.38218859  1
  I  I129  1  0.37500000  0.86781141  0.88218859  1
  I  I130  1  0.87500000  0.63218859  0.11781141  1
  I  I131  1  0.62500000  0.36781141  0.61781141  1
  I  I132  1  0.38218859  0.12500000  0.13218859  1
  I  I133  1  0.88218859  0.37500000  0.86781141  1
  I  I134  1  0.11781141  0.87500000  0.63218859  1
  I  I135  1  0.61781141  0.62500000  0.36781141  1
  I  I136  1  0.13218859  0.38218859  0.12500000  1
  I  I137  1  0.86781141  0.88218859  0.37500000  1
  I  I138  1  0.63218859  0.11781141  0.87500000  1
  I  I139  1  0.36781141  0.61781141  0.62500000  1
  I  I140  1  0.62500000  0.63218859  0.88218859  1
  I  I141  1  0.87500000  0.36781141  0.38218859  1
  I  I142  1  0.37500000  0.13218859  0.61781141  1
  I  I143  1  0.12500000  0.86781141  0.11781141  1
  I  I144  1  0.88218859  0.62500000  0.63218859  1
  I  I145  1  0.38218859  0.87500000  0.36781141  1
  I  I146  1  0.61781141  0.37500000  0.13218859  1
  I  I147  1  0.11781141  0.12500000  0.86781141  1
  I  I148  1  0.63218859  0.88218859  0.62500000  1
  I  I149  1  0.36781141  0.38218859  0.87500000  1
  I  I150  1  0.13218859  0.61781141  0.37500000  1
  I  I151  1  0.86781141  0.11781141  0.12500000  1
  Li  Li152  1  0.12500000  0.62092984  0.62907016  1
  Li  Li153  1  0.37500000  0.37907016  0.12907016  1
  Li  Li154  1  0.87500000  0.12092984  0.87092984  1
  Li  Li155  1  0.62500000  0.87907016  0.37092984  1
  Li  Li156  1  0.62907016  0.12500000  0.62092984  1
  Li  Li157  1  0.12907016  0.37500000  0.37907016  1
  Li  Li158  1  0.87092984  0.87500000  0.12092984  1
  Li  Li159  1  0.37092984  0.62500000  0.87907016  1
  Li  Li160  1  0.62092984  0.62907016  0.12500000  1
  Li  Li161  1  0.37907016  0.12907016  0.37500000  1
  Li  Li162  1  0.12092984  0.87092984  0.87500000  1
  Li  Li163  1  0.87907016  0.37092984  0.62500000  1
  Li  Li164  1  0.62500000  0.12092984  0.12907016  1
  Li  Li165  1  0.87500000  0.87907016  0.62907016  1
  Li  Li166  1  0.37500000  0.62092984  0.37092984  1
  Li  Li167  1  0.12500000  0.37907016  0.87092984  1
  Li  Li168  1  0.12907016  0.62500000  0.12092984  1
  Li  Li169  1  0.62907016  0.87500000  0.87907016  1
  Li  Li170  1  0.37092984  0.37500000  0.62092984  1
  Li  Li171  1  0.87092984  0.12500000  0.37907016  1
  Li  Li172  1  0.12092984  0.12907016  0.62500000  1
  Li  Li173  1  0.87907016  0.62907016  0.87500000  1
  Li  Li174  1  0.62092984  0.37092984  0.37500000  1
  Li  Li175  1  0.37907016  0.87092984  0.12500000  1
  Li  Li176  1  0.87500000  0.87500000  0.87500000  1
  Li  Li177  1  0.62500000  0.12500000  0.37500000  1
  Li  Li178  1  0.12500000  0.37500000  0.62500000  1
  Li  Li179  1  0.37500000  0.62500000  0.12500000  1
  Li  Li180  1  0.37500000  0.37500000  0.37500000  1
  Li  Li181  1  0.12500000  0.62500000  0.87500000  1
  Li  Li182  1  0.62500000  0.87500000  0.12500000  1
  Li  Li183  1  0.87500000  0.12500000  0.62500000  1
