# generated using pymatgen
data_Li4Ta3(Cl2O)2
_symmetry_space_group_name_H-M   'P 1'
_cell_length_a   8.07284438
_cell_length_b   7.67255230
_cell_length_c   7.03270706
_cell_angle_alpha   90.00000000
_cell_angle_beta   90.00000000
_cell_angle_gamma   90.00000000
_symmetry_Int_Tables_number   1
_chemical_formula_structural   Li4Ta3(Cl2O)2
_chemical_formula_sum   'Li4 Ta3 Cl4 O2'
_cell_volume   435.60109812
_cell_formula_units_Z   1
loop_
 _symmetry_equiv_pos_site_id
 _symmetry_equiv_pos_as_xyz
  1  'x, y, z'
loop_
 _atom_site_type_symbol
 _atom_site_label
 _atom_site_symmetry_multiplicity
 _atom_site_fract_x
 _atom_site_fract_y
 _atom_site_fract_z
 _atom_site_occupancy
  Li  Li0  1  0.12500000  0.12500000  0.12500000  1
  Li  Li1  1  0.50000000  0.50000000  0.50000000  1
  Li  Li2  1  0.25000000  0.25000000  0.25000000  1
  Li  Li3  1  0.75000000  0.75000000  0.75000000  1
  Ta  Ta4  1  0.58902561  0.97333820  0.29723797  1
  Ta  Ta5  1  0.02446353  0.55183147  0.63234582  1
  Ta  Ta6  1  0.92693905  0.77016486  0.25460855  1
  Cl  Cl7  1  0.97194824  0.03322942  0.10485518  1
  Cl  Cl8  1  0.17109223  0.61043097  0.23445985  1
  Cl  Cl9  1  0.95569370  0.19914352  0.86508259  1
  Cl  Cl10  1  0.22709402  0.28595247  0.37364529  1
  O  O11  1  0.87552360  0.67698763  0.84538213  1
  O  O12  1  0.30151551  0.26827504  0.14834168  1
