# generated using pymatgen
data_Ca3Zr6Te(Br4F3)4
_symmetry_space_group_name_H-M   'P 1'
_cell_length_a   16.51878585
_cell_length_b   16.51878585
_cell_length_c   19.42296451
_cell_angle_alpha   90.00000000
_cell_angle_beta   90.00000000
_cell_angle_gamma   90.00000000
_symmetry_Int_Tables_number   1
_chemical_formula_structural   Ca3Zr6Te(Br4F3)4
_chemical_formula_sum   'Ca24 Zr48 Te8 Br128 F96'
_cell_volume   5299.94988220
_cell_formula_units_Z   8
loop_
 _symmetry_equiv_pos_site_id
 _symmetry_equiv_pos_as_xyz
  1  'x, y, z'
loop_
 _atom_site_type_symbol
 _atom_site_label
 _atom_site_symmetry_multiplicity
 _atom_site_fract_x
 _atom_site_fract_y
 _atom_site_fract_z
 _atom_site_occupancy
  Br  Br0  1  0.00000000  0.08875811  0.82013174  1
  Br  Br1  1  0.50000000  0.91124189  0.32013174  1
  Br  Br2  1  0.16124189  0.75000000  0.07013174  1
  Br  Br3  1  0.33875811  0.25000000  0.57013174  1
  Br  Br4  1  0.50000000  0.08875811  0.67986826  1
  Br  Br5  1  0.00000000  0.91124189  0.17986826  1
  Br  Br6  1  0.33875811  0.75000000  0.42986826  1
  Br  Br7  1  0.16124189  0.25000000  0.92986826  1
  Br  Br8  1  0.50000000  0.58875811  0.32013174  1
  Br  Br9  1  0.00000000  0.41124189  0.82013174  1
  Br  Br10  1  0.66124189  0.25000000  0.57013174  1
  Br  Br11  1  0.83875811  0.75000000  0.07013174  1
  Br  Br12  1  0.00000000  0.58875811  0.17986826  1
  Br  Br13  1  0.50000000  0.41124189  0.67986826  1
  Br  Br14  1  0.83875811  0.25000000  0.92986826  1
  Br  Br15  1  0.66124189  0.75000000  0.42986826  1
  Br  Br16  1  0.00000000  0.15343368  0.39897526  1
  Br  Br17  1  0.50000000  0.84656632  0.89897526  1
  Br  Br18  1  0.09656632  0.75000000  0.64897526  1
  Br  Br19  1  0.40343368  0.25000000  0.14897526  1
  Br  Br20  1  0.50000000  0.15343368  0.10102474  1
  Br  Br21  1  0.00000000  0.84656632  0.60102474  1
  Br  Br22  1  0.40343368  0.75000000  0.85102474  1
  Br  Br23  1  0.09656632  0.25000000  0.35102474  1
  Br  Br24  1  0.50000000  0.65343368  0.89897526  1
  Br  Br25  1  0.00000000  0.34656632  0.39897526  1
  Br  Br26  1  0.59656632  0.25000000  0.14897526  1
  Br  Br27  1  0.90343368  0.75000000  0.64897526  1
  Br  Br28  1  0.00000000  0.65343368  0.60102474  1
  Br  Br29  1  0.50000000  0.34656632  0.10102474  1
  Br  Br30  1  0.90343368  0.25000000  0.35102474  1
  Br  Br31  1  0.59656632  0.75000000  0.85102474  1
  Br  Br32  1  0.78420209  0.94908746  0.81379307  1
  Br  Br33  1  0.71579791  0.05091254  0.31379307  1
  Br  Br34  1  0.30091254  0.53420209  0.06379307  1
  Br  Br35  1  0.19908746  0.46579791  0.56379307  1
  Br  Br36  1  0.71579791  0.94908746  0.68620693  1
  Br  Br37  1  0.78420209  0.05091254  0.18620693  1
  Br  Br38  1  0.19908746  0.53420209  0.43620693  1
  Br  Br39  1  0.30091254  0.46579791  0.93620693  1
  Br  Br40  1  0.21579791  0.05091254  0.18620693  1
  Br  Br41  1  0.28420209  0.94908746  0.68620693  1
  Br  Br42  1  0.69908746  0.46579791  0.93620693  1
  Br  Br43  1  0.80091254  0.53420209  0.43620693  1
  Br  Br44  1  0.28420209  0.05091254  0.31379307  1
  Br  Br45  1  0.21579791  0.94908746  0.81379307  1
  Br  Br46  1  0.80091254  0.46579791  0.56379307  1
  Br  Br47  1  0.69908746  0.53420209  0.06379307  1
  Br  Br48  1  0.28420209  0.44908746  0.31379307  1
  Br  Br49  1  0.21579791  0.55091254  0.81379307  1
  Br  Br50  1  0.80091254  0.03420209  0.56379307  1
  Br  Br51  1  0.69908746  0.96579791  0.06379307  1
  Br  Br52  1  0.21579791  0.44908746  0.18620693  1
  Br  Br53  1  0.28420209  0.55091254  0.68620693  1
  Br  Br54  1  0.69908746  0.03420209  0.93620693  1
  Br  Br55  1  0.80091254  0.96579791  0.43620693  1
  Br  Br56  1  0.71579791  0.55091254  0.68620693  1
  Br  Br57  1  0.78420209  0.44908746  0.18620693  1
  Br  Br58  1  0.19908746  0.96579791  0.43620693  1
  Br  Br59  1  0.30091254  0.03420209  0.93620693  1
  Br  Br60  1  0.78420209  0.55091254  0.81379307  1
  Br  Br61  1  0.71579791  0.44908746  0.31379307  1
  Br  Br62  1  0.30091254  0.96579791  0.06379307  1
  Br  Br63  1  0.19908746  0.03420209  0.56379307  1
  Br  Br64  1  0.41874225  0.79111507  0.14338590  1
  Br  Br65  1  0.08125775  0.20888493  0.64338590  1
  Br  Br66  1  0.45888493  0.16874225  0.39338590  1
  Br  Br67  1  0.04111507  0.83125775  0.89338590  1
  Br  Br68  1  0.08125775  0.79111507  0.35661410  1
  Br  Br69  1  0.41874225  0.20888493  0.85661410  1
  Br  Br70  1  0.04111507  0.16874225  0.10661410  1
  Br  Br71  1  0.45888493  0.83125775  0.60661410  1
  Br  Br72  1  0.58125775  0.20888493  0.85661410  1
  Br  Br73  1  0.91874225  0.79111507  0.35661410  1
  Br  Br74  1  0.54111507  0.83125775  0.60661410  1
  Br  Br75  1  0.95888493  0.16874225  0.10661410  1
  Br  Br76  1  0.91874225  0.20888493  0.64338590  1
  Br  Br77  1  0.58125775  0.79111507  0.14338590  1
  Br  Br78  1  0.95888493  0.83125775  0.89338590  1
  Br  Br79  1  0.54111507  0.16874225  0.39338590  1
  Br  Br80  1  0.91874225  0.29111507  0.64338590  1
  Br  Br81  1  0.58125775  0.70888493  0.14338590  1
  Br  Br82  1  0.95888493  0.66874225  0.89338590  1
  Br  Br83  1  0.54111507  0.33125775  0.39338590  1
  Br  Br84  1  0.58125775  0.29111507  0.85661410  1
  Br  Br85  1  0.91874225  0.70888493  0.35661410  1
  Br  Br86  1  0.54111507  0.66874225  0.60661410  1
  Br  Br87  1  0.95888493  0.33125775  0.10661410  1
  Br  Br88  1  0.08125775  0.70888493  0.35661410  1
  Br  Br89  1  0.41874225  0.29111507  0.85661410  1
  Br  Br90  1  0.04111507  0.33125775  0.10661410  1
  Br  Br91  1  0.45888493  0.66874225  0.60661410  1
  Br  Br92  1  0.41874225  0.70888493  0.14338590  1
  Br  Br93  1  0.08125775  0.29111507  0.64338590  1
  Br  Br94  1  0.45888493  0.33125775  0.39338590  1
  Br  Br95  1  0.04111507  0.66874225  0.89338590  1
  Br  Br96  1  0.19155623  0.63571717  0.80744730  1
  Br  Br97  1  0.30844377  0.36428283  0.30744730  1
  Br  Br98  1  0.61428283  0.94155623  0.05744730  1
  Br  Br99  1  0.88571717  0.05844377  0.55744730  1
  Br  Br100  1  0.30844377  0.63571717  0.69255270  1
  Br  Br101  1  0.19155623  0.36428283  0.19255270  1
  Br  Br102  1  0.88571717  0.94155623  0.44255270  1
  Br  Br103  1  0.61428283  0.05844377  0.94255270  1
  Br  Br104  1  0.80844377  0.36428283  0.19255270  1
  Br  Br105  1  0.69155623  0.63571717  0.69255270  1
  Br  Br106  1  0.38571717  0.05844377  0.94255270  1
  Br  Br107  1  0.11428283  0.94155623  0.44255270  1
  Br  Br108  1  0.69155623  0.36428283  0.30744730  1
  Br  Br109  1  0.80844377  0.63571717  0.80744730  1
  Br  Br110  1  0.11428283  0.05844377  0.55744730  1
  Br  Br111  1  0.38571717  0.94155623  0.05744730  1
  Br  Br112  1  0.69155623  0.13571717  0.30744730  1
  Br  Br113  1  0.80844377  0.86428283  0.80744730  1
  Br  Br114  1  0.11428283  0.44155623  0.55744730  1
  Br  Br115  1  0.38571717  0.55844377  0.05744730  1
  Br  Br116  1  0.80844377  0.13571717  0.19255270  1
  Br  Br117  1  0.69155623  0.86428283  0.69255270  1
  Br  Br118  1  0.38571717  0.44155623  0.94255270  1
  Br  Br119  1  0.11428283  0.55844377  0.44255270  1
  Br  Br120  1  0.30844377  0.86428283  0.69255270  1
  Br  Br121  1  0.19155623  0.13571717  0.19255270  1
  Br  Br122  1  0.88571717  0.55844377  0.44255270  1
  Br  Br123  1  0.61428283  0.44155623  0.94255270  1
  Br  Br124  1  0.19155623  0.86428283  0.80744730  1
  Br  Br125  1  0.30844377  0.13571717  0.30744730  1
  Br  Br126  1  0.61428283  0.55844377  0.05744730  1
  Br  Br127  1  0.88571717  0.44155623  0.55744730  1
  Ca  Ca128  1  0.18760288  0.43760288  0.87500000  1
  Ca  Ca129  1  0.31239712  0.56239712  0.37500000  1
  Ca  Ca130  1  0.81239712  0.93760288  0.12500000  1
  Ca  Ca131  1  0.68760288  0.06239712  0.62500000  1
  Ca  Ca132  1  0.81239712  0.56239712  0.12500000  1
  Ca  Ca133  1  0.68760288  0.43760288  0.62500000  1
  Ca  Ca134  1  0.18760288  0.06239712  0.87500000  1
  Ca  Ca135  1  0.31239712  0.93760288  0.37500000  1
  Ca  Ca136  1  0.68760288  0.93760288  0.37500000  1
  Ca  Ca137  1  0.81239712  0.06239712  0.87500000  1
  Ca  Ca138  1  0.31239712  0.43760288  0.62500000  1
  Ca  Ca139  1  0.18760288  0.56239712  0.12500000  1
  Ca  Ca140  1  0.31239712  0.06239712  0.62500000  1
  Ca  Ca141  1  0.18760288  0.93760288  0.12500000  1
  Ca  Ca142  1  0.68760288  0.56239712  0.37500000  1
  Ca  Ca143  1  0.81239712  0.43760288  0.87500000  1
  Ca  Ca144  1  0.00000000  0.25000000  0.37500000  1
  Ca  Ca145  1  0.00000000  0.75000000  0.62500000  1
  Ca  Ca146  1  0.50000000  0.75000000  0.87500000  1
  Ca  Ca147  1  0.50000000  0.25000000  0.12500000  1
  Ca  Ca148  1  0.00000000  0.75000000  0.12500000  1
  Ca  Ca149  1  0.50000000  0.75000000  0.37500000  1
  Ca  Ca150  1  0.50000000  0.25000000  0.62500000  1
  Ca  Ca151  1  0.00000000  0.25000000  0.87500000  1
  F  F152  1  0.31820081  -0.00000000  0.00000000  1
  F  F153  1  0.18179919  -0.00000000  0.50000000  1
  F  F154  1  0.25000000  0.06820081  0.25000000  1
  F  F155  1  0.25000000  0.93179919  0.75000000  1
  F  F156  1  0.68179919  -0.00000000  0.00000000  1
  F  F157  1  0.81820081  0.00000000  0.50000000  1
  F  F158  1  0.75000000  0.93179919  0.75000000  1
  F  F159  1  0.75000000  0.06820081  0.25000000  1
  F  F160  1  0.81820081  0.50000000  0.50000000  1
  F  F161  1  0.68179919  0.50000000  0.00000000  1
  F  F162  1  0.75000000  0.56820081  0.75000000  1
  F  F163  1  0.75000000  0.43179919  0.25000000  1
  F  F164  1  0.18179919  0.50000000  0.50000000  1
  F  F165  1  0.31820081  0.50000000  0.00000000  1
  F  F166  1  0.25000000  0.43179919  0.25000000  1
  F  F167  1  0.25000000  0.56820081  0.75000000  1
  F  F168  1  0.77178677  0.60936371  0.74731662  1
  F  F169  1  0.72821323  0.39063629  0.24731662  1
  F  F170  1  0.64063629  0.52178677  0.99731662  1
  F  F171  1  0.85936371  0.47821323  0.49731662  1
  F  F172  1  0.72821323  0.60936371  0.75268338  1
  F  F173  1  0.77178677  0.39063629  0.25268338  1
  F  F174  1  0.85936371  0.52178677  0.50268338  1
  F  F175  1  0.64063629  0.47821323  0.00268338  1
  F  F176  1  0.22821323  0.39063629  0.25268338  1
  F  F177  1  0.27178677  0.60936371  0.75268338  1
  F  F178  1  0.35936371  0.47821323  0.00268338  1
  F  F179  1  0.14063629  0.52178677  0.50268338  1
  F  F180  1  0.27178677  0.39063629  0.24731662  1
  F  F181  1  0.22821323  0.60936371  0.74731662  1
  F  F182  1  0.14063629  0.47821323  0.49731662  1
  F  F183  1  0.35936371  0.52178677  0.99731662  1
  F  F184  1  0.27178677  0.10936371  0.24731662  1
  F  F185  1  0.22821323  0.89063629  0.74731662  1
  F  F186  1  0.14063629  0.02178677  0.49731662  1
  F  F187  1  0.35936371  0.97821323  0.99731662  1
  F  F188  1  0.22821323  0.10936371  0.25268338  1
  F  F189  1  0.27178677  0.89063629  0.75268338  1
  F  F190  1  0.35936371  0.02178677  0.00268338  1
  F  F191  1  0.14063629  0.97821323  0.50268338  1
  F  F192  1  0.72821323  0.89063629  0.75268338  1
  F  F193  1  0.77178677  0.10936371  0.25268338  1
  F  F194  1  0.85936371  0.97821323  0.50268338  1
  F  F195  1  0.64063629  0.02178677  0.00268338  1
  F  F196  1  0.77178677  0.89063629  0.74731662  1
  F  F197  1  0.72821323  0.10936371  0.24731662  1
  F  F198  1  0.64063629  0.97821323  0.99731662  1
  F  F199  1  0.85936371  0.02178677  0.49731662  1
  F  F200  1  0.00000000  0.25000000  0.58543065  1
  F  F201  1  0.00000000  0.75000000  0.83543065  1
  F  F202  1  0.50000000  0.25000000  0.91456935  1
  F  F203  1  0.50000000  0.75000000  0.66456935  1
  F  F204  1  0.50000000  0.75000000  0.08543065  1
  F  F205  1  0.50000000  0.25000000  0.33543065  1
  F  F206  1  0.00000000  0.75000000  0.41456935  1
  F  F207  1  0.00000000  0.25000000  0.16456935  1
  F  F208  1  0.00000000  0.00000000  0.50000000  1
  F  F209  1  0.50000000  0.00000000  0.00000000  1
  F  F210  1  0.25000000  0.75000000  0.75000000  1
  F  F211  1  0.25000000  0.25000000  0.25000000  1
  F  F212  1  0.50000000  0.50000000  0.00000000  1
  F  F213  1  0.00000000  0.50000000  0.50000000  1
  F  F214  1  0.75000000  0.25000000  0.25000000  1
  F  F215  1  0.75000000  0.75000000  0.75000000  1
  F  F216  1  0.12946766  0.03556971  0.81142959  1
  F  F217  1  0.37053234  0.96443029  0.31142959  1
  F  F218  1  0.21443029  0.87946766  0.06142959  1
  F  F219  1  0.28556971  0.12053234  0.56142959  1
  F  F220  1  0.37053234  0.03556971  0.68857041  1
  F  F221  1  0.12946766  0.96443029  0.18857041  1
  F  F222  1  0.28556971  0.87946766  0.43857041  1
  F  F223  1  0.21443029  0.12053234  0.93857041  1
  F  F224  1  0.87053234  0.96443029  0.18857041  1
  F  F225  1  0.62946766  0.03556971  0.68857041  1
  F  F226  1  0.78556971  0.12053234  0.93857041  1
  F  F227  1  0.71443029  0.87946766  0.43857041  1
  F  F228  1  0.62946766  0.96443029  0.31142959  1
  F  F229  1  0.87053234  0.03556971  0.81142959  1
  F  F230  1  0.71443029  0.12053234  0.56142959  1
  F  F231  1  0.78556971  0.87946766  0.06142959  1
  F  F232  1  0.62946766  0.53556971  0.31142959  1
  F  F233  1  0.87053234  0.46443029  0.81142959  1
  F  F234  1  0.71443029  0.37946766  0.56142959  1
  F  F235  1  0.78556971  0.62053234  0.06142959  1
  F  F236  1  0.87053234  0.53556971  0.18857041  1
  F  F237  1  0.62946766  0.46443029  0.68857041  1
  F  F238  1  0.78556971  0.37946766  0.93857041  1
  F  F239  1  0.71443029  0.62053234  0.43857041  1
  F  F240  1  0.37053234  0.46443029  0.68857041  1
  F  F241  1  0.12946766  0.53556971  0.18857041  1
  F  F242  1  0.28556971  0.62053234  0.43857041  1
  F  F243  1  0.21443029  0.37946766  0.93857041  1
  F  F244  1  0.12946766  0.46443029  0.81142959  1
  F  F245  1  0.37053234  0.53556971  0.31142959  1
  F  F246  1  0.21443029  0.62053234  0.06142959  1
  F  F247  1  0.28556971  0.37946766  0.56142959  1
  Te  Te248  1  0.00000000  0.00000000  0.00000000  1
  Te  Te249  1  0.50000000  0.00000000  0.50000000  1
  Te  Te250  1  0.25000000  0.75000000  0.25000000  1
  Te  Te251  1  0.25000000  0.25000000  0.75000000  1
  Te  Te252  1  0.50000000  0.50000000  0.50000000  1
  Te  Te253  1  0.00000000  0.50000000  0.00000000  1
  Te  Te254  1  0.75000000  0.25000000  0.75000000  1
  Te  Te255  1  0.75000000  0.75000000  0.25000000  1
  Zr  Zr256  1  0.29468432  0.67663281  0.30073723  1
  Zr  Zr257  1  0.20531568  -0.67663281  0.80073723  1
  Zr  Zr258  1  -0.42663281  1.04468432  0.55073723  1
  Zr  Zr259  1  0.92663281  -0.04468432  1.05073723  1
  Zr  Zr260  1  0.20531568  0.67663281  0.19926277  1
  Zr  Zr261  1  0.29468432  -0.67663281  -0.30073723  1
  Zr  Zr262  1  0.92663281  1.04468432  -0.05073723  1
  Zr  Zr263  1  -0.42663281  -0.04468432  0.44926277  1
  Zr  Zr264  1  -0.29468432  -0.67663281  -0.30073723  1
  Zr  Zr265  1  0.79468432  0.67663281  0.19926277  1
  Zr  Zr266  1  1.42663281  -0.04468432  0.44926277  1
  Zr  Zr267  1  0.07336719  1.04468432  -0.05073723  1
  Zr  Zr268  1  0.79468432  -0.67663281  0.80073723  1
  Zr  Zr269  1  -0.29468432  0.67663281  0.30073723  1
  Zr  Zr270  1  0.07336719  -0.04468432  1.05073723  1
  Zr  Zr271  1  1.42663281  1.04468432  0.55073723  1
  Zr  Zr272  1  0.79468432  1.17663281  0.80073723  1
  Zr  Zr273  1  0.70531568  -0.17663281  1.30073723  1
  Zr  Zr274  1  0.07336719  1.54468432  1.05073723  1
  Zr  Zr275  1  1.42663281  0.45531568  1.55073723  1
  Zr  Zr276  1  0.70531568  1.17663281  0.69926277  1
  Zr  Zr277  1  0.79468432  -0.17663281  0.19926277  1
  Zr  Zr278  1  1.42663281  1.54468432  0.44926277  1
  Zr  Zr279  1  0.07336719  0.45531568  0.94926277  1
  Zr  Zr280  1  0.20531568  -0.17663281  0.19926277  1
  Zr  Zr281  1  1.29468432  1.17663281  0.69926277  1
  Zr  Zr282  1  1.92663281  0.45531568  0.94926277  1
  Zr  Zr283  1  0.57336719  1.54468432  0.44926277  1
  Zr  Zr284  1  1.29468432  -0.17663281  1.30073723  1
  Zr  Zr285  1  0.20531568  1.17663281  0.80073723  1
  Zr  Zr286  1  0.57336719  0.45531568  1.55073723  1
  Zr  Zr287  1  1.92663281  1.54468432  1.05073723  1
  Zr  Zr288  1  0.17418254  0.00000000  0.00000000  1
  Zr  Zr289  1  0.32581746  -0.00000000  0.50000000  1
  Zr  Zr290  1  0.25000000  0.92418254  0.25000000  1
  Zr  Zr291  1  0.25000000  0.07581746  0.75000000  1
  Zr  Zr292  1  0.82581746  -0.00000000  0.00000000  1
  Zr  Zr293  1  0.67418254  0.00000000  0.50000000  1
  Zr  Zr294  1  0.75000000  0.07581746  0.75000000  1
  Zr  Zr295  1  0.75000000  0.92418254  0.25000000  1
  Zr  Zr296  1  0.67418254  0.50000000  0.50000000  1
  Zr  Zr297  1  0.82581746  0.50000000  0.00000000  1
  Zr  Zr298  1  0.75000000  0.42418254  0.75000000  1
  Zr  Zr299  1  0.75000000  0.57581746  0.25000000  1
  Zr  Zr300  1  0.32581746  0.50000000  0.50000000  1
  Zr  Zr301  1  0.17418254  0.50000000  0.00000000  1
  Zr  Zr302  1  0.25000000  0.57581746  0.25000000  1
  Zr  Zr303  1  0.25000000  0.42418254  0.75000000  1
