# generated using pymatgen
data_Li2O
_symmetry_space_group_name_H-M   'P 1'
_cell_length_a   5.62661007
_cell_length_b   7.93974243
_cell_length_c   5.50353581
_cell_angle_alpha   90.00000000
_cell_angle_beta   90.00000000
_cell_angle_gamma   90.00000000
_symmetry_Int_Tables_number   1
_chemical_formula_structural   Li2O
_chemical_formula_sum   'Li8 O4'
_cell_volume   245.86404907
_cell_formula_units_Z   4
loop_
 _symmetry_equiv_pos_site_id
 _symmetry_equiv_pos_as_xyz
  1  'x, y, z'
loop_
 _atom_site_type_symbol
 _atom_site_label
 _atom_site_symmetry_multiplicity
 _atom_site_fract_x
 _atom_site_fract_y
 _atom_site_fract_z
 _atom_site_occupancy
  Li  Li0  1  0.25600385  0.19670565  -0.00000000  1
  Li  Li1  1  0.74399615  0.80329435  0.00000000  1
  Li  Li2  1  0.24399615  0.69670565  0.50000000  1
  Li  Li3  1  0.75600385  0.30329435  0.50000000  1
  Li  Li4  1  0.00000000  0.50000000  0.18555941  1
  Li  Li5  1  0.50000000  -0.00000000  0.31444059  1
  Li  Li6  1  0.00000000  0.50000000  0.81444059  1
  Li  Li7  1  0.50000000  -0.00000000  0.68555941  1
  O  O8  1  0.00000000  0.00000000  0.31464094  1
  O  O9  1  0.50000000  0.50000000  0.18535906  1
  O  O10  1  0.00000000  0.00000000  -0.31464094  1
  O  O11  1  0.50000000  0.50000000  0.81464094  1
