# generated using pymatgen
data_Ca4ZrB8S4(IO3)4
_symmetry_space_group_name_H-M   'P 1'
_cell_length_a   12.32089597
_cell_length_b   12.32089597
_cell_length_c   45.88352891
_cell_angle_alpha   90.00000000
_cell_angle_beta   90.00000000
_cell_angle_gamma   120.00000000
_symmetry_Int_Tables_number   1
_chemical_formula_structural   Ca4ZrB8S4(IO3)4
_chemical_formula_sum   'Ca36 Zr9 B72 S36 I36 O108'
_cell_volume   6032.14851024
_cell_formula_units_Z   9
loop_
 _symmetry_equiv_pos_site_id
 _symmetry_equiv_pos_as_xyz
  1  'x, y, z'
loop_
 _atom_site_type_symbol
 _atom_site_label
 _atom_site_symmetry_multiplicity
 _atom_site_fract_x
 _atom_site_fract_y
 _atom_site_fract_z
 _atom_site_occupancy
  B  B0  1  0.37102694  0.38974041  0.10428290  1
  B  B1  1  -0.38974041  -0.01871347  0.10428290  1
  B  B2  1  0.01871347  -0.37102694  0.10428290  1
  B  B3  1  0.38974041  0.37102694  -0.10428290  1
  B  B4  1  -0.01871347  -0.38974041  -0.10428290  1
  B  B5  1  -0.37102694  0.01871347  -0.10428290  1
  B  B6  1  -0.37102694  -0.38974041  -0.10428290  1
  B  B7  1  0.38974041  0.01871347  -0.10428290  1
  B  B8  1  -0.01871347  0.37102694  -0.10428290  1
  B  B9  1  -0.38974041  -0.37102694  0.10428290  1
  B  B10  1  0.01871347  0.38974041  0.10428290  1
  B  B11  1  0.37102694  -0.01871347  0.10428290  1
  B  B12  1  1.03769360  0.72307374  0.43761624  1
  B  B13  1  0.27692626  0.31461986  0.43761624  1
  B  B14  1  0.68538014  -0.03769360  0.43761624  1
  B  B15  1  1.05640708  0.70436027  0.22905043  1
  B  B16  1  0.64795319  -0.05640708  0.22905043  1
  B  B17  1  0.29563973  0.35204681  0.22905043  1
  B  B18  1  0.29563973  -0.05640708  0.22905043  1
  B  B19  1  1.05640708  0.35204681  0.22905043  1
  B  B20  1  0.64795319  0.70436027  0.22905043  1
  B  B21  1  0.27692626  -0.03769360  0.43761624  1
  B  B22  1  0.68538014  0.72307374  0.43761624  1
  B  B23  1  1.03769360  0.31461986  0.43761624  1
  B  B24  1  0.70436027  1.05640708  0.77094957  1
  B  B25  1  -0.05640708  0.64795319  0.77094957  1
  B  B26  1  0.35204681  0.29563973  0.77094957  1
  B  B27  1  0.72307374  1.03769360  0.56238376  1
  B  B28  1  0.31461986  0.27692626  0.56238376  1
  B  B29  1  -0.03769360  0.68538014  0.56238376  1
  B  B30  1  -0.03769360  0.27692626  0.56238376  1
  B  B31  1  0.72307374  0.68538014  0.56238376  1
  B  B32  1  0.31461986  1.03769360  0.56238376  1
  B  B33  1  -0.05640708  0.29563973  0.77094957  1
  B  B34  1  0.35204681  1.05640708  0.77094957  1
  B  B35  1  0.70436027  0.64795319  0.77094957  1
  B  B36  1  0.16702345  -0.00000000  0.50000000  1
  B  B37  1  0.00000000  0.16702345  0.50000000  1
  B  B38  1  0.83297655  0.83297655  0.50000000  1
  B  B39  1  0.83297655  0.00000000  0.50000000  1
  B  B40  1  0.00000000  0.83297655  0.50000000  1
  B  B41  1  0.16702345  0.16702345  0.50000000  1
  B  B42  1  0.83369012  0.33333333  0.83333333  1
  B  B43  1  0.66666667  0.50035679  0.83333333  1
  B  B44  1  0.49964321  0.16630988  0.83333333  1
  B  B45  1  0.49964321  0.33333333  0.83333333  1
  B  B46  1  0.66666667  0.16630988  0.83333333  1
  B  B47  1  0.83369012  0.50035679  0.83333333  1
  B  B48  1  0.50035679  0.66666667  0.16666667  1
  B  B49  1  0.33333333  0.83369012  0.16666667  1
  B  B50  1  0.16630988  0.49964321  0.16666667  1
  B  B51  1  0.16630988  0.66666667  0.16666667  1
  B  B52  1  0.33333333  0.49964321  0.16666667  1
  B  B53  1  0.50035679  0.83369012  0.16666667  1
  B  B54  1  0.50000000  0.00000000  0.50000000  1
  B  B55  1  0.00000000  0.50000000  0.50000000  1
  B  B56  1  0.50000000  0.50000000  0.50000000  1
  B  B57  1  0.16666667  0.33333333  0.83333333  1
  B  B58  1  0.66666667  0.83333333  0.83333333  1
  B  B59  1  0.16666667  0.83333333  0.83333333  1
  B  B60  1  0.83333333  0.66666667  0.16666667  1
  B  B61  1  0.33333333  0.16666667  0.16666667  1
  B  B62  1  0.83333333  0.16666667  0.16666667  1
  B  B63  1  0.50000000  0.00000000  0.00000000  1
  B  B64  1  0.00000000  0.50000000  0.00000000  1
  B  B65  1  0.50000000  0.50000000  0.00000000  1
  B  B66  1  0.16666667  0.33333333  0.33333333  1
  B  B67  1  0.66666667  0.83333333  0.33333333  1
  B  B68  1  0.16666667  0.83333333  0.33333333  1
  B  B69  1  0.83333333  0.66666667  0.66666667  1
  B  B70  1  0.33333333  0.16666667  0.66666667  1
  B  B71  1  0.83333333  0.16666667  0.66666667  1
  Ca  Ca72  1  0.15450443  0.84549557  0.90460858  1
  Ca  Ca73  1  0.15450443  0.30900885  0.90460858  1
  Ca  Ca74  1  0.69099115  0.84549557  0.90460858  1
  Ca  Ca75  1  0.84549557  0.15450443  0.09539142  1
  Ca  Ca76  1  0.30900885  0.15450443  0.09539142  1
  Ca  Ca77  1  0.84549557  0.69099115  0.09539142  1
  Ca  Ca78  1  0.82117109  0.17882891  0.23794191  1
  Ca  Ca79  1  0.82117109  0.64234219  0.23794191  1
  Ca  Ca80  1  0.35765781  0.17882891  0.23794191  1
  Ca  Ca81  1  0.51216224  0.48783776  0.42872476  1
  Ca  Ca82  1  0.97567552  0.48783776  0.42872476  1
  Ca  Ca83  1  0.51216224  0.02432448  0.42872476  1
  Ca  Ca84  1  0.48783776  0.51216224  0.57127524  1
  Ca  Ca85  1  0.48783776  0.97567552  0.57127524  1
  Ca  Ca86  1  0.02432448  0.51216224  0.57127524  1
  Ca  Ca87  1  0.17882891  0.82117109  0.76205809  1
  Ca  Ca88  1  0.64234219  0.82117109  0.76205809  1
  Ca  Ca89  1  0.17882891  0.35765781  0.76205809  1
  Ca  Ca90  1  0.27097071  0.72902929  0.25761112  1
  Ca  Ca91  1  0.27097071  0.54194143  0.25761112  1
  Ca  Ca92  1  0.45805857  0.72902929  0.25761112  1
  Ca  Ca93  1  0.72902929  0.27097071  0.74238888  1
  Ca  Ca94  1  0.54194143  0.27097071  0.74238888  1
  Ca  Ca95  1  0.72902929  0.45805857  0.74238888  1
  Ca  Ca96  1  0.93763738  0.06236262  0.59094445  1
  Ca  Ca97  1  0.93763738  0.87527476  0.59094445  1
  Ca  Ca98  1  0.12472524  0.06236262  0.59094445  1
  Ca  Ca99  1  0.39569595  0.60430405  0.07572222  1
  Ca  Ca100  1  0.20860809  0.60430405  0.07572222  1
  Ca  Ca101  1  0.39569595  0.79139191  0.07572222  1
  Ca  Ca102  1  0.60430405  0.39569595  0.92427778  1
  Ca  Ca103  1  0.60430405  0.20860809  0.92427778  1
  Ca  Ca104  1  0.79139191  0.39569595  0.92427778  1
  Ca  Ca105  1  0.06236262  0.93763738  0.40905555  1
  Ca  Ca106  1  0.87527476  0.93763738  0.40905555  1
  Ca  Ca107  1  0.06236262  0.12472524  0.40905555  1
  I  I108  1  0.31803975  0.96497344  0.25318340  1
  I  I109  1  0.03502656  0.35306631  0.25318340  1
  I  I110  1  0.64693369  0.68196025  0.25318340  1
  I  I111  1  0.96497344  0.31803975  0.74681660  1
  I  I112  1  0.35306631  0.03502656  0.74681660  1
  I  I113  1  0.68196025  0.64693369  0.74681660  1
  I  I114  1  0.68196025  0.03502656  0.74681660  1
  I  I115  1  0.96497344  0.64693369  0.74681660  1
  I  I116  1  0.35306631  0.31803975  0.74681660  1
  I  I117  1  0.03502656  0.68196025  0.25318340  1
  I  I118  1  0.64693369  0.96497344  0.25318340  1
  I  I119  1  0.31803975  0.35306631  0.25318340  1
  I  I120  1  0.98470642  0.29830678  0.58651673  1
  I  I121  1  0.70169322  0.68639964  0.58651673  1
  I  I122  1  0.31360036  0.01529358  0.58651673  1
  I  I123  1  0.63164011  0.65137309  0.08014994  1
  I  I124  1  0.01973298  0.36835989  0.08014994  1
  I  I125  1  0.34862691  0.98026702  0.08014994  1
  I  I126  1  0.34862691  0.36835989  0.08014994  1
  I  I127  1  0.63164011  0.98026702  0.08014994  1
  I  I128  1  0.01973298  0.65137309  0.08014994  1
  I  I129  1  0.70169322  0.01529358  0.58651673  1
  I  I130  1  0.31360036  0.29830678  0.58651673  1
  I  I131  1  0.98470642  0.68639964  0.58651673  1
  I  I132  1  0.65137309  0.63164011  0.91985006  1
  I  I133  1  0.36835989  0.01973298  0.91985006  1
  I  I134  1  0.98026702  0.34862691  0.91985006  1
  I  I135  1  0.29830678  0.98470642  0.41348327  1
  I  I136  1  0.68639964  0.70169322  0.41348327  1
  I  I137  1  0.01529358  0.31360036  0.41348327  1
  I  I138  1  0.01529358  0.70169322  0.41348327  1
  I  I139  1  0.29830678  0.31360036  0.41348327  1
  I  I140  1  0.68639964  0.98470642  0.41348327  1
  I  I141  1  0.36835989  0.34862691  0.91985006  1
  I  I142  1  0.98026702  0.63164011  0.91985006  1
  I  I143  1  0.65137309  0.01973298  0.91985006  1
  O  O144  1  0.12495609  0.87504391  0.79974694  1
  O  O145  1  0.12495609  0.24991219  0.79974694  1
  O  O146  1  0.75008781  0.87504391  0.79974694  1
  O  O147  1  0.87504391  0.12495609  0.20025306  1
  O  O148  1  0.24991219  0.12495609  0.20025306  1
  O  O149  1  0.87504391  0.75008781  0.20025306  1
  O  O150  1  0.79162276  0.20837724  0.13308027  1
  O  O151  1  0.79162276  0.58324552  0.13308027  1
  O  O152  1  0.41675448  0.20837724  0.13308027  1
  O  O153  1  0.54171057  0.45828943  0.53358640  1
  O  O154  1  0.91657886  0.45828943  0.53358640  1
  O  O155  1  0.54171057  0.08342114  0.53358640  1
  O  O156  1  0.45828943  0.54171057  0.46641360  1
  O  O157  1  0.45828943  0.91657886  0.46641360  1
  O  O158  1  0.08342114  0.54171057  0.46641360  1
  O  O159  1  0.20837724  0.79162276  0.86691973  1
  O  O160  1  0.58324552  0.79162276  0.86691973  1
  O  O161  1  0.20837724  0.41675448  0.86691973  1
  O  O162  1  0.58467538  0.59522671  0.73592395  1
  O  O163  1  0.40477329  0.98944867  0.73592395  1
  O  O164  1  0.01055133  0.41532462  0.73592395  1
  O  O165  1  0.59522671  0.58467538  0.26407605  1
  O  O166  1  0.98944867  0.40477329  0.26407605  1
  O  O167  1  0.41532462  0.01055133  0.26407605  1
  O  O168  1  0.41532462  0.40477329  0.26407605  1
  O  O169  1  0.59522671  0.01055133  0.26407605  1
  O  O170  1  0.98944867  0.58467538  0.26407605  1
  O  O171  1  0.40477329  0.41532462  0.73592395  1
  O  O172  1  0.01055133  0.59522671  0.73592395  1
  O  O173  1  0.58467538  0.98944867  0.73592395  1
  O  O174  1  0.25134205  0.92856004  0.06925728  1
  O  O175  1  0.07143996  0.32278201  0.06925728  1
  O  O176  1  0.67721799  0.74865795  0.06925728  1
  O  O177  1  0.26189337  0.91800871  0.59740939  1
  O  O178  1  0.65611534  0.73810663  0.59740939  1
  O  O179  1  0.08199129  0.34388466  0.59740939  1
  O  O180  1  0.08199129  0.73810663  0.59740939  1
  O  O181  1  0.26189337  0.34388466  0.59740939  1
  O  O182  1  0.65611534  0.91800871  0.59740939  1
  O  O183  1  0.07143996  0.74865795  0.06925728  1
  O  O184  1  0.67721799  0.92856004  0.06925728  1
  O  O185  1  0.25134205  0.32278201  0.06925728  1
  O  O186  1  0.91800871  0.26189337  0.40259061  1
  O  O187  1  0.73810663  0.65611534  0.40259061  1
  O  O188  1  0.34388466  0.08199129  0.40259061  1
  O  O189  1  0.92856004  0.25134205  0.93074272  1
  O  O190  1  0.32278201  0.07143996  0.93074272  1
  O  O191  1  0.74865795  0.67721799  0.93074272  1
  O  O192  1  0.74865795  0.07143996  0.93074272  1
  O  O193  1  0.92856004  0.67721799  0.93074272  1
  O  O194  1  0.32278201  0.25134205  0.93074272  1
  O  O195  1  0.73810663  0.08199129  0.40259061  1
  O  O196  1  0.34388466  0.26189337  0.40259061  1
  O  O197  1  0.91800871  0.65611534  0.40259061  1
  O  O198  1  0.12364080  0.73275923  0.46734789  1
  O  O199  1  0.26724077  0.39088157  0.46734789  1
  O  O200  1  0.60911843  0.87635920  0.46734789  1
  O  O201  1  0.73275923  0.12364080  0.53265211  1
  O  O202  1  0.39088157  0.26724077  0.53265211  1
  O  O203  1  0.87635920  0.60911843  0.53265211  1
  O  O204  1  0.87635920  0.26724077  0.53265211  1
  O  O205  1  0.73275923  0.60911843  0.53265211  1
  O  O206  1  0.39088157  0.12364080  0.53265211  1
  O  O207  1  0.26724077  0.87635920  0.46734789  1
  O  O208  1  0.60911843  0.73275923  0.46734789  1
  O  O209  1  0.12364080  0.39088157  0.46734789  1
  O  O210  1  0.79030747  0.06609257  0.80068122  1
  O  O211  1  0.93390743  0.72421490  0.80068122  1
  O  O212  1  0.27578510  0.20969253  0.80068122  1
  O  O213  1  0.39942590  0.45697413  0.86598544  1
  O  O214  1  0.05754823  0.60057410  0.86598544  1
  O  O215  1  0.54302587  0.94245177  0.86598544  1
  O  O216  1  0.54302587  0.60057410  0.86598544  1
  O  O217  1  0.39942590  0.94245177  0.86598544  1
  O  O218  1  0.05754823  0.45697413  0.86598544  1
  O  O219  1  0.93390743  0.20969253  0.80068122  1
  O  O220  1  0.27578510  0.06609257  0.80068122  1
  O  O221  1  0.79030747  0.72421490  0.80068122  1
  O  O222  1  0.45697413  0.39942590  0.13401456  1
  O  O223  1  0.60057410  0.05754823  0.13401456  1
  O  O224  1  0.94245177  0.54302587  0.13401456  1
  O  O225  1  0.06609257  0.79030747  0.19931878  1
  O  O226  1  0.72421490  0.93390743  0.19931878  1
  O  O227  1  0.20969253  0.27578510  0.19931878  1
  O  O228  1  0.20969253  0.93390743  0.19931878  1
  O  O229  1  0.06609257  0.27578510  0.19931878  1
  O  O230  1  0.72421490  0.79030747  0.19931878  1
  O  O231  1  0.60057410  0.54302587  0.13401456  1
  O  O232  1  0.94245177  0.39942590  0.13401456  1
  O  O233  1  0.45697413  0.05754823  0.13401456  1
  O  O234  1  0.86974301  0.13025699  0.46747722  1
  O  O235  1  0.86974301  0.73948601  0.46747722  1
  O  O236  1  0.26051399  0.13025699  0.46747722  1
  O  O237  1  0.13025699  0.86974301  0.53252278  1
  O  O238  1  0.73948601  0.86974301  0.53252278  1
  O  O239  1  0.13025699  0.26051399  0.53252278  1
  O  O240  1  0.53640967  0.46359033  0.80081055  1
  O  O241  1  0.53640967  0.07281934  0.80081055  1
  O  O242  1  0.92718066  0.46359033  0.80081055  1
  O  O243  1  0.79692366  0.20307634  0.86585612  1
  O  O244  1  0.40615268  0.20307634  0.86585612  1
  O  O245  1  0.79692366  0.59384732  0.86585612  1
  O  O246  1  0.20307634  0.79692366  0.13414388  1
  O  O247  1  0.20307634  0.40615268  0.13414388  1
  O  O248  1  0.59384732  0.79692366  0.13414388  1
  O  O249  1  0.46359033  0.53640967  0.19918945  1
  O  O250  1  0.07281934  0.53640967  0.19918945  1
  O  O251  1  0.46359033  0.92718066  0.19918945  1
  S  S252  1  0.68352285  -0.00000000  0.50000000  1
  S  S253  1  0.00000000  0.68352285  0.50000000  1
  S  S254  1  0.31647715  0.31647715  0.50000000  1
  S  S255  1  0.31647715  -0.00000000  0.50000000  1
  S  S256  1  0.00000000  0.31647715  0.50000000  1
  S  S257  1  0.68352285  0.68352285  0.50000000  1
  S  S258  1  0.35018952  0.33333333  0.83333333  1
  S  S259  1  0.66666667  0.01685619  0.83333333  1
  S  S260  1  0.98314381  0.64981048  0.83333333  1
  S  S261  1  0.98314381  0.33333333  0.83333333  1
  S  S262  1  0.66666667  0.64981048  0.83333333  1
  S  S263  1  0.35018952  0.01685619  0.83333333  1
  S  S264  1  0.01685619  0.66666667  0.16666667  1
  S  S265  1  0.33333333  0.35018952  0.16666667  1
  S  S266  1  0.64981048  0.98314381  0.16666667  1
  S  S267  1  0.64981048  0.66666667  0.16666667  1
  S  S268  1  0.33333333  0.98314381  0.16666667  1
  S  S269  1  0.01685619  0.35018952  0.16666667  1
  S  S270  1  0.76384791  0.00000000  0.00000000  1
  S  S271  1  0.00000000  0.76384791  0.00000000  1
  S  S272  1  0.23615209  0.23615209  -0.00000000  1
  S  S273  1  0.23615209  0.00000000  -0.00000000  1
  S  S274  1  0.00000000  0.23615209  0.00000000  1
  S  S275  1  0.76384791  0.76384791  0.00000000  1
  S  S276  1  0.43051458  0.33333333  0.33333333  1
  S  S277  1  0.66666667  0.09718125  0.33333333  1
  S  S278  1  0.90281875  0.56948542  0.33333333  1
  S  S279  1  0.90281875  0.33333333  0.33333333  1
  S  S280  1  0.66666667  0.56948542  0.33333333  1
  S  S281  1  0.43051458  0.09718125  0.33333333  1
  S  S282  1  0.09718125  0.66666667  0.66666667  1
  S  S283  1  0.33333333  0.43051458  0.66666667  1
  S  S284  1  0.56948542  0.90281875  0.66666667  1
  S  S285  1  0.56948542  0.66666667  0.66666667  1
  S  S286  1  0.33333333  0.90281875  0.66666667  1
  S  S287  1  0.09718125  0.43051458  0.66666667  1
  Zr  Zr288  1  0.00000000  0.00000000  0.50000000  1
  Zr  Zr289  1  0.66666667  0.33333333  0.83333333  1
  Zr  Zr290  1  0.33333333  0.66666667  0.16666667  1
  Zr  Zr291  1  0.00000000  0.00000000  0.21238738  1
  Zr  Zr292  1  0.00000000  0.00000000  0.78761262  1
  Zr  Zr293  1  0.66666667  0.33333333  0.54572072  1
  Zr  Zr294  1  0.66666667  0.33333333  0.12094595  1
  Zr  Zr295  1  0.33333333  0.66666667  0.87905405  1
  Zr  Zr296  1  0.33333333  0.66666667  0.45427928  1
