# generated using pymatgen
data_Sr(LiTe)2
_symmetry_space_group_name_H-M   'P 1'
_cell_length_a   20.55086585
_cell_length_b   13.70686500
_cell_length_c   18.18399881
_cell_angle_alpha   90.00000000
_cell_angle_beta   90.00000000
_cell_angle_gamma   90.00000000
_symmetry_Int_Tables_number   1
_chemical_formula_structural   Sr(LiTe)2
_chemical_formula_sum   'Sr32 Li64 Te64'
_cell_volume   5122.21323567
_cell_formula_units_Z   32
loop_
 _symmetry_equiv_pos_site_id
 _symmetry_equiv_pos_as_xyz
  1  'x, y, z'
loop_
 _atom_site_type_symbol
 _atom_site_label
 _atom_site_symmetry_multiplicity
 _atom_site_fract_x
 _atom_site_fract_y
 _atom_site_fract_z
 _atom_site_occupancy
  Li  Li0  1  0.54019208  0.10059709  0.97201571  1
  Li  Li1  1  0.20980792  0.64940291  0.97201571  1
  Li  Li2  1  0.20980792  0.10059709  0.77798429  1
  Li  Li3  1  0.54019208  0.64940291  0.77798429  1
  Li  Li4  1  0.45980792  0.89940291  0.02798429  1
  Li  Li5  1  0.79019208  0.35059709  0.02798429  1
  Li  Li6  1  0.79019208  0.89940291  0.22201571  1
  Li  Li7  1  0.45980792  0.35059709  0.22201571  1
  Li  Li8  1  0.54019208  0.60059709  0.47201571  1
  Li  Li9  1  0.20980792  0.14940291  0.47201571  1
  Li  Li10  1  0.20980792  0.60059709  0.27798429  1
  Li  Li11  1  0.54019208  0.14940291  0.27798429  1
  Li  Li12  1  0.45980792  0.39940291  0.52798429  1
  Li  Li13  1  0.79019208  0.85059709  0.52798429  1
  Li  Li14  1  0.79019208  0.39940291  0.72201571  1
  Li  Li15  1  0.45980792  0.85059709  0.72201571  1
  Li  Li16  1  0.04019208  0.10059709  0.47201571  1
  Li  Li17  1  0.70980792  0.64940291  0.47201571  1
  Li  Li18  1  0.70980792  0.10059709  0.27798429  1
  Li  Li19  1  0.04019208  0.64940291  0.27798429  1
  Li  Li20  1  0.95980792  0.89940291  0.52798429  1
  Li  Li21  1  0.29019208  0.35059709  0.52798429  1
  Li  Li22  1  0.29019208  0.89940291  0.72201571  1
  Li  Li23  1  0.95980792  0.35059709  0.72201571  1
  Li  Li24  1  0.04019208  0.60059709  0.97201571  1
  Li  Li25  1  0.70980792  0.14940291  0.97201571  1
  Li  Li26  1  0.70980792  0.60059709  0.77798429  1
  Li  Li27  1  0.04019208  0.14940291  0.77798429  1
  Li  Li28  1  0.95980792  0.39940291  0.02798429  1
  Li  Li29  1  0.29019208  0.85059709  0.02798429  1
  Li  Li30  1  0.29019208  0.39940291  0.22201571  1
  Li  Li31  1  0.95980792  0.85059709  0.22201571  1
  Li  Li32  1  0.96031509  0.12500000  0.12500000  1
  Li  Li33  1  0.78968491  0.62500000  0.12500000  1
  Li  Li34  1  0.03968491  0.87500000  0.87500000  1
  Li  Li35  1  0.21031509  0.37500000  0.87500000  1
  Li  Li36  1  0.96031509  0.62500000  0.62500000  1
  Li  Li37  1  0.78968491  0.12500000  0.62500000  1
  Li  Li38  1  0.03968491  0.37500000  0.37500000  1
  Li  Li39  1  0.21031509  0.87500000  0.37500000  1
  Li  Li40  1  0.46031509  0.12500000  0.62500000  1
  Li  Li41  1  0.28968491  0.62500000  0.62500000  1
  Li  Li42  1  0.53968491  0.87500000  0.37500000  1
  Li  Li43  1  0.71031509  0.37500000  0.37500000  1
  Li  Li44  1  0.46031509  0.62500000  0.12500000  1
  Li  Li45  1  0.28968491  0.12500000  0.12500000  1
  Li  Li46  1  0.53968491  0.37500000  0.87500000  1
  Li  Li47  1  0.71031509  0.87500000  0.87500000  1
  Li  Li48  1  0.00000000  0.00000000  0.00000000  1
  Li  Li49  1  0.75000000  0.75000000  -0.00000000  1
  Li  Li50  1  0.75000000  -0.00000000  0.75000000  1
  Li  Li51  1  0.00000000  0.75000000  0.75000000  1
  Li  Li52  1  0.00000000  0.50000000  0.50000000  1
  Li  Li53  1  0.75000000  0.25000000  0.50000000  1
  Li  Li54  1  0.75000000  0.50000000  0.25000000  1
  Li  Li55  1  0.00000000  0.25000000  0.25000000  1
  Li  Li56  1  0.50000000  -0.00000000  0.50000000  1
  Li  Li57  1  0.25000000  0.75000000  0.50000000  1
  Li  Li58  1  0.25000000  -0.00000000  0.25000000  1
  Li  Li59  1  0.50000000  0.75000000  0.25000000  1
  Li  Li60  1  0.50000000  0.50000000  0.00000000  1
  Li  Li61  1  0.25000000  0.25000000  0.00000000  1
  Li  Li62  1  0.25000000  0.50000000  0.75000000  1
  Li  Li63  1  0.50000000  0.25000000  0.75000000  1
  Sr  Sr64  1  0.50000000  0.50000000  0.50000000  1
  Sr  Sr65  1  0.25000000  0.25000000  0.50000000  1
  Sr  Sr66  1  0.25000000  0.50000000  0.25000000  1
  Sr  Sr67  1  0.50000000  0.25000000  0.25000000  1
  Sr  Sr68  1  0.50000000  -0.00000000  0.00000000  1
  Sr  Sr69  1  0.25000000  0.75000000  -0.00000000  1
  Sr  Sr70  1  0.25000000  -0.00000000  0.75000000  1
  Sr  Sr71  1  0.50000000  0.75000000  0.75000000  1
  Sr  Sr72  1  0.00000000  0.50000000  0.00000000  1
  Sr  Sr73  1  0.75000000  0.25000000  0.00000000  1
  Sr  Sr74  1  0.75000000  0.50000000  0.75000000  1
  Sr  Sr75  1  0.00000000  0.25000000  0.75000000  1
  Sr  Sr76  1  0.00000000  0.00000000  0.50000000  1
  Sr  Sr77  1  0.75000000  0.75000000  0.50000000  1
  Sr  Sr78  1  0.75000000  -0.00000000  0.25000000  1
  Sr  Sr79  1  0.00000000  0.75000000  0.25000000  1
  Sr  Sr80  1  0.12500000  0.12500000  0.62500000  1
  Sr  Sr81  1  0.87500000  0.87500000  0.37500000  1
  Sr  Sr82  1  0.12500000  0.62500000  0.12500000  1
  Sr  Sr83  1  0.87500000  0.37500000  0.87500000  1
  Sr  Sr84  1  0.62500000  0.12500000  0.12500000  1
  Sr  Sr85  1  0.37500000  0.87500000  0.87500000  1
  Sr  Sr86  1  0.62500000  0.62500000  0.62500000  1
  Sr  Sr87  1  0.37500000  0.37500000  0.37500000  1
  Sr  Sr88  1  0.12500000  0.12500000  0.12500000  1
  Sr  Sr89  1  0.87500000  0.87500000  0.87500000  1
  Sr  Sr90  1  0.12500000  0.62500000  0.62500000  1
  Sr  Sr91  1  0.87500000  0.37500000  0.37500000  1
  Sr  Sr92  1  0.62500000  0.12500000  0.62500000  1
  Sr  Sr93  1  0.37500000  0.87500000  0.37500000  1
  Sr  Sr94  1  0.62500000  0.62500000  0.12500000  1
  Sr  Sr95  1  0.37500000  0.37500000  0.87500000  1
  Te  Te96  1  0.56926828  0.81313097  0.69884510  1
  Te  Te97  1  0.18073172  -0.06313097  0.69884510  1
  Te  Te98  1  0.18073172  0.81313097  0.05115490  1
  Te  Te99  1  0.56926828  -0.06313097  0.05115490  1
  Te  Te100  1  -0.56926828  -0.81313097  -0.69884510  1
  Te  Te101  1  0.81926828  1.06313097  -0.69884510  1
  Te  Te102  1  0.81926828  -0.81313097  0.94884510  1
  Te  Te103  1  -0.56926828  1.06313097  0.94884510  1
  Te  Te104  1  0.56926828  1.31313097  1.19884510  1
  Te  Te105  1  0.18073172  0.43686903  1.19884510  1
  Te  Te106  1  0.18073172  1.31313097  0.55115490  1
  Te  Te107  1  0.56926828  0.43686903  0.55115490  1
  Te  Te108  1  -0.56926828  -0.31313097  -0.19884510  1
  Te  Te109  1  0.81926828  1.56313097  -0.19884510  1
  Te  Te110  1  0.81926828  -0.31313097  1.44884510  1
  Te  Te111  1  -0.56926828  1.56313097  1.44884510  1
  Te  Te112  1  1.06926828  0.81313097  1.19884510  1
  Te  Te113  1  0.68073172  -0.06313097  1.19884510  1
  Te  Te114  1  0.68073172  0.81313097  0.55115490  1
  Te  Te115  1  1.06926828  -0.06313097  0.55115490  1
  Te  Te116  1  -0.06926828  -0.81313097  -0.19884510  1
  Te  Te117  1  1.31926828  1.06313097  -0.19884510  1
  Te  Te118  1  1.31926828  -0.81313097  1.44884510  1
  Te  Te119  1  -0.06926828  1.06313097  1.44884510  1
  Te  Te120  1  1.06926828  1.31313097  0.69884510  1
  Te  Te121  1  0.68073172  0.43686903  0.69884510  1
  Te  Te122  1  0.68073172  1.31313097  0.05115490  1
  Te  Te123  1  1.06926828  0.43686903  0.05115490  1
  Te  Te124  1  -0.06926828  -0.31313097  -0.69884510  1
  Te  Te125  1  1.31926828  1.56313097  -0.69884510  1
  Te  Te126  1  1.31926828  -0.31313097  0.94884510  1
  Te  Te127  1  -0.06926828  1.56313097  0.94884510  1
  Te  Te128  1  0.45805547  0.98952177  0.17733744  1
  Te  Te129  1  0.29194453  0.76047823  0.17733744  1
  Te  Te130  1  0.29194453  0.98952177  0.57266256  1
  Te  Te131  1  0.45805547  0.76047823  0.57266256  1
  Te  Te132  1  0.54194453  0.01047823  0.82266256  1
  Te  Te133  1  0.70805547  0.23952177  0.82266256  1
  Te  Te134  1  0.70805547  0.01047823  0.42733744  1
  Te  Te135  1  0.54194453  0.23952177  0.42733744  1
  Te  Te136  1  0.45805547  0.48952177  0.67733744  1
  Te  Te137  1  0.29194453  0.26047823  0.67733744  1
  Te  Te138  1  0.29194453  0.48952177  0.07266256  1
  Te  Te139  1  0.45805547  0.26047823  0.07266256  1
  Te  Te140  1  0.54194453  0.51047823  0.32266256  1
  Te  Te141  1  0.70805547  0.73952177  0.32266256  1
  Te  Te142  1  0.70805547  0.51047823  0.92733744  1
  Te  Te143  1  0.54194453  0.73952177  0.92733744  1
  Te  Te144  1  0.95805547  0.98952177  0.67733744  1
  Te  Te145  1  0.79194453  0.76047823  0.67733744  1
  Te  Te146  1  0.79194453  0.98952177  0.07266256  1
  Te  Te147  1  0.95805547  0.76047823  0.07266256  1
  Te  Te148  1  0.04194453  0.01047823  0.32266256  1
  Te  Te149  1  0.20805547  0.23952177  0.32266256  1
  Te  Te150  1  0.20805547  0.01047823  0.92733744  1
  Te  Te151  1  0.04194453  0.23952177  0.92733744  1
  Te  Te152  1  0.95805547  0.48952177  0.17733744  1
  Te  Te153  1  0.79194453  0.26047823  0.17733744  1
  Te  Te154  1  0.79194453  0.48952177  0.57266256  1
  Te  Te155  1  0.95805547  0.26047823  0.57266256  1
  Te  Te156  1  0.04194453  0.51047823  0.82266256  1
  Te  Te157  1  0.20805547  0.73952177  0.82266256  1
  Te  Te158  1  0.20805547  0.51047823  0.42733744  1
  Te  Te159  1  0.04194453  0.73952177  0.42733744  1
