# generated using pymatgen
data_LiBr
_symmetry_space_group_name_H-M   'P 1'
_cell_length_a   14.44018244
_cell_length_b   19.50437943
_cell_length_c   11.35999174
_cell_angle_alpha   90.00000000
_cell_angle_beta   90.00000000
_cell_angle_gamma   90.00000000
_symmetry_Int_Tables_number   1
_chemical_formula_structural   LiBr
_chemical_formula_sum   'Li128 Br128'
_cell_volume   3199.50529151
_cell_formula_units_Z   128
loop_
 _symmetry_equiv_pos_site_id
 _symmetry_equiv_pos_as_xyz
  1  'x, y, z'
loop_
 _atom_site_type_symbol
 _atom_site_label
 _atom_site_symmetry_multiplicity
 _atom_site_fract_x
 _atom_site_fract_y
 _atom_site_fract_z
 _atom_site_occupancy
  Br  Br0  1  0.00000000  0.00000000  0.00000000  1
  Br  Br1  1  0.75000000  0.75000000  0.00000000  1
  Br  Br2  1  0.75000000  0.00000000  0.75000000  1
  Br  Br3  1  0.00000000  0.75000000  0.75000000  1
  Br  Br4  1  0.00000000  0.50000000  0.50000000  1
  Br  Br5  1  0.75000000  0.25000000  0.50000000  1
  Br  Br6  1  0.75000000  0.50000000  0.25000000  1
  Br  Br7  1  0.00000000  0.25000000  0.25000000  1
  Br  Br8  1  0.50000000  0.00000000  0.50000000  1
  Br  Br9  1  0.25000000  0.75000000  0.50000000  1
  Br  Br10  1  0.25000000  0.00000000  0.25000000  1
  Br  Br11  1  0.50000000  0.75000000  0.25000000  1
  Br  Br12  1  0.50000000  0.50000000  0.00000000  1
  Br  Br13  1  0.25000000  0.25000000  0.00000000  1
  Br  Br14  1  0.25000000  0.50000000  0.75000000  1
  Br  Br15  1  0.50000000  0.25000000  0.75000000  1
  Br  Br16  1  0.82657015  0.12500000  0.12500000  1
  Br  Br17  1  0.92342985  0.62500000  0.12500000  1
  Br  Br18  1  0.17342985  0.87500000  0.87500000  1
  Br  Br19  1  0.07657015  0.37500000  0.87500000  1
  Br  Br20  1  0.82657015  0.62500000  0.62500000  1
  Br  Br21  1  0.92342985  0.12500000  0.62500000  1
  Br  Br22  1  0.17342985  0.37500000  0.37500000  1
  Br  Br23  1  0.07657015  0.87500000  0.37500000  1
  Br  Br24  1  0.32657015  0.12500000  0.62500000  1
  Br  Br25  1  0.42342985  0.62500000  0.62500000  1
  Br  Br26  1  0.67342985  0.87500000  0.37500000  1
  Br  Br27  1  0.57657015  0.37500000  0.37500000  1
  Br  Br28  1  0.32657015  0.62500000  0.12500000  1
  Br  Br29  1  0.42342985  0.12500000  0.12500000  1
  Br  Br30  1  0.67342985  0.37500000  0.87500000  1
  Br  Br31  1  0.57657015  0.87500000  0.87500000  1
  Br  Br32  1  0.57234092  0.99895481  0.35398220  1
  Br  Br33  1  0.17765908  -0.24895481  0.35398220  1
  Br  Br34  1  0.17765908  0.99895481  0.39601780  1
  Br  Br35  1  0.57234092  -0.24895481  0.39601780  1
  Br  Br36  1  -0.57234092  -0.99895481  -0.35398220  1
  Br  Br37  1  0.82234092  1.24895481  -0.35398220  1
  Br  Br38  1  0.82234092  -0.99895481  0.60398220  1
  Br  Br39  1  -0.57234092  1.24895481  0.60398220  1
  Br  Br40  1  0.57234092  1.49895481  0.85398220  1
  Br  Br41  1  0.17765908  0.25104519  0.85398220  1
  Br  Br42  1  0.17765908  1.49895481  0.89601780  1
  Br  Br43  1  0.57234092  0.25104519  0.89601780  1
  Br  Br44  1  -0.57234092  -0.49895481  0.14601780  1
  Br  Br45  1  0.82234092  1.74895481  0.14601780  1
  Br  Br46  1  0.82234092  -0.49895481  1.10398220  1
  Br  Br47  1  -0.57234092  1.74895481  1.10398220  1
  Br  Br48  1  1.07234092  0.99895481  0.85398220  1
  Br  Br49  1  0.67765908  -0.24895481  0.85398220  1
  Br  Br50  1  0.67765908  0.99895481  0.89601780  1
  Br  Br51  1  1.07234092  -0.24895481  0.89601780  1
  Br  Br52  1  -0.07234092  -0.99895481  0.14601780  1
  Br  Br53  1  1.32234092  1.24895481  0.14601780  1
  Br  Br54  1  1.32234092  -0.99895481  1.10398220  1
  Br  Br55  1  -0.07234092  1.24895481  1.10398220  1
  Br  Br56  1  1.07234092  1.49895481  0.35398220  1
  Br  Br57  1  0.67765908  0.25104519  0.35398220  1
  Br  Br58  1  0.67765908  1.49895481  0.39601780  1
  Br  Br59  1  1.07234092  0.25104519  0.39601780  1
  Br  Br60  1  -0.07234092  -0.49895481  -0.35398220  1
  Br  Br61  1  1.32234092  1.74895481  -0.35398220  1
  Br  Br62  1  1.32234092  -0.49895481  0.60398220  1
  Br  Br63  1  -0.07234092  1.74895481  0.60398220  1
  Br  Br64  1  0.12500000  0.12500000  0.62500000  1
  Br  Br65  1  0.87500000  0.87500000  0.37500000  1
  Br  Br66  1  0.12500000  0.62500000  0.12500000  1
  Br  Br67  1  0.87500000  0.37500000  0.87500000  1
  Br  Br68  1  0.62500000  0.12500000  0.12500000  1
  Br  Br69  1  0.37500000  0.87500000  0.87500000  1
  Br  Br70  1  0.62500000  0.62500000  0.62500000  1
  Br  Br71  1  0.37500000  0.37500000  0.37500000  1
  Br  Br72  1  0.78915521  0.66554123  0.32521961  1
  Br  Br73  1  0.96084479  0.08445877  0.32521961  1
  Br  Br74  1  0.96084479  0.66554123  0.42478039  1
  Br  Br75  1  0.78915521  0.08445877  0.42478039  1
  Br  Br76  1  0.21084479  0.33445877  0.67478039  1
  Br  Br77  1  0.03915521  0.91554123  0.67478039  1
  Br  Br78  1  0.03915521  0.33445877  0.57521961  1
  Br  Br79  1  0.21084479  0.91554123  0.57521961  1
  Br  Br80  1  0.78915521  0.16554123  0.82521961  1
  Br  Br81  1  0.96084479  0.58445877  0.82521961  1
  Br  Br82  1  0.96084479  0.16554123  0.92478039  1
  Br  Br83  1  0.78915521  0.58445877  0.92478039  1
  Br  Br84  1  0.21084479  0.83445877  0.17478039  1
  Br  Br85  1  0.03915521  0.41554123  0.17478039  1
  Br  Br86  1  0.03915521  0.83445877  0.07521961  1
  Br  Br87  1  0.21084479  0.41554123  0.07521961  1
  Br  Br88  1  0.28915521  0.66554123  0.82521961  1
  Br  Br89  1  0.46084479  0.08445877  0.82521961  1
  Br  Br90  1  0.46084479  0.66554123  0.92478039  1
  Br  Br91  1  0.28915521  0.08445877  0.92478039  1
  Br  Br92  1  0.71084479  0.33445877  0.17478039  1
  Br  Br93  1  0.53915521  0.91554123  0.17478039  1
  Br  Br94  1  0.53915521  0.33445877  0.07521961  1
  Br  Br95  1  0.71084479  0.91554123  0.07521961  1
  Br  Br96  1  0.28915521  0.16554123  0.32521961  1
  Br  Br97  1  0.46084479  0.58445877  0.32521961  1
  Br  Br98  1  0.46084479  0.16554123  0.42478039  1
  Br  Br99  1  0.28915521  0.58445877  0.42478039  1
  Br  Br100  1  0.71084479  0.83445877  0.67478039  1
  Br  Br101  1  0.53915521  0.41554123  0.67478039  1
  Br  Br102  1  0.53915521  0.83445877  0.57521961  1
  Br  Br103  1  0.71084479  0.41554123  0.57521961  1
  Br  Br104  1  0.50000000  0.50000000  0.50000000  1
  Br  Br105  1  0.25000000  0.25000000  0.50000000  1
  Br  Br106  1  0.25000000  0.50000000  0.25000000  1
  Br  Br107  1  0.50000000  0.25000000  0.25000000  1
  Br  Br108  1  0.50000000  0.00000000  0.00000000  1
  Br  Br109  1  0.25000000  0.75000000  0.00000000  1
  Br  Br110  1  0.25000000  0.00000000  0.75000000  1
  Br  Br111  1  0.50000000  0.75000000  0.75000000  1
  Br  Br112  1  0.00000000  0.50000000  0.00000000  1
  Br  Br113  1  0.75000000  0.25000000  -0.00000000  1
  Br  Br114  1  0.75000000  0.50000000  0.75000000  1
  Br  Br115  1  0.00000000  0.25000000  0.75000000  1
  Br  Br116  1  0.00000000  0.00000000  0.50000000  1
  Br  Br117  1  0.75000000  0.75000000  0.50000000  1
  Br  Br118  1  0.75000000  0.00000000  0.25000000  1
  Br  Br119  1  0.00000000  0.75000000  0.25000000  1
  Br  Br120  1  0.12500000  0.12500000  0.12500000  1
  Br  Br121  1  0.87500000  0.87500000  0.87500000  1
  Br  Br122  1  0.12500000  0.62500000  0.62500000  1
  Br  Br123  1  0.87500000  0.37500000  0.37500000  1
  Br  Br124  1  0.62500000  0.12500000  0.62500000  1
  Br  Br125  1  0.37500000  0.87500000  0.37500000  1
  Br  Br126  1  0.62500000  0.62500000  0.12500000  1
  Br  Br127  1  0.37500000  0.37500000  0.87500000  1
  Li  Li128  1  0.12500000  0.49867635  0.12500000  1
  Li  Li129  1  0.62500000  0.25132365  0.12500000  1
  Li  Li130  1  0.87500000  0.50132365  0.87500000  1
  Li  Li131  1  0.37500000  0.74867635  0.87500000  1
  Li  Li132  1  0.12500000  0.99867635  0.62500000  1
  Li  Li133  1  0.62500000  0.75132365  0.62500000  1
  Li  Li134  1  0.87500000  0.00132365  0.37500000  1
  Li  Li135  1  0.37500000  0.24867635  0.37500000  1
  Li  Li136  1  0.62500000  0.49867635  0.62500000  1
  Li  Li137  1  0.12500000  0.25132365  0.62500000  1
  Li  Li138  1  0.37500000  0.50132365  0.37500000  1
  Li  Li139  1  0.87500000  0.74867635  0.37500000  1
  Li  Li140  1  0.62500000  0.99867635  0.12500000  1
  Li  Li141  1  0.12500000  0.75132365  0.12500000  1
  Li  Li142  1  0.37500000  0.00132365  0.87500000  1
  Li  Li143  1  0.87500000  0.24867635  0.87500000  1
  Li  Li144  1  0.54807778  0.58059082  0.99615075  1
  Li  Li145  1  0.20192222  0.16940918  0.99615075  1
  Li  Li146  1  0.20192222  0.58059082  0.75384925  1
  Li  Li147  1  0.54807778  0.16940918  0.75384925  1
  Li  Li148  1  0.45192222  0.41940918  0.00384925  1
  Li  Li149  1  0.79807778  0.83059082  0.00384925  1
  Li  Li150  1  0.79807778  0.41940918  0.24615075  1
  Li  Li151  1  0.45192222  0.83059082  0.24615075  1
  Li  Li152  1  0.54807778  0.08059082  0.49615075  1
  Li  Li153  1  0.20192222  0.66940918  0.49615075  1
  Li  Li154  1  0.20192222  0.08059082  0.25384925  1
  Li  Li155  1  0.54807778  0.66940918  0.25384925  1
  Li  Li156  1  0.45192222  0.91940918  0.50384925  1
  Li  Li157  1  0.79807778  0.33059082  0.50384925  1
  Li  Li158  1  0.79807778  0.91940918  0.74615075  1
  Li  Li159  1  0.45192222  0.33059082  0.74615075  1
  Li  Li160  1  0.04807778  0.58059082  0.49615075  1
  Li  Li161  1  0.70192222  0.16940918  0.49615075  1
  Li  Li162  1  0.70192222  0.58059082  0.25384925  1
  Li  Li163  1  0.04807778  0.16940918  0.25384925  1
  Li  Li164  1  0.95192222  0.41940918  0.50384925  1
  Li  Li165  1  0.29807778  0.83059082  0.50384925  1
  Li  Li166  1  0.29807778  0.41940918  0.74615075  1
  Li  Li167  1  0.95192222  0.83059082  0.74615075  1
  Li  Li168  1  0.04807778  0.08059082  0.99615075  1
  Li  Li169  1  0.70192222  0.66940918  0.99615075  1
  Li  Li170  1  0.70192222  0.08059082  0.75384925  1
  Li  Li171  1  0.04807778  0.66940918  0.75384925  1
  Li  Li172  1  0.95192222  0.91940918  0.00384925  1
  Li  Li173  1  0.29807778  0.33059082  0.00384925  1
  Li  Li174  1  0.29807778  0.91940918  0.24615075  1
  Li  Li175  1  0.95192222  0.33059082  0.24615075  1
  Li  Li176  1  0.54524007  0.69597465  0.82308315  1
  Li  Li177  1  0.20475993  0.05402535  0.82308315  1
  Li  Li178  1  0.20475993  0.69597465  0.92691685  1
  Li  Li179  1  0.54524007  0.05402535  0.92691685  1
  Li  Li180  1  0.45475993  0.30402535  0.17691685  1
  Li  Li181  1  0.79524007  0.94597465  0.17691685  1
  Li  Li182  1  0.79524007  0.30402535  0.07308315  1
  Li  Li183  1  0.45475993  0.94597465  0.07308315  1
  Li  Li184  1  0.54524007  0.19597465  0.32308315  1
  Li  Li185  1  0.20475993  0.55402535  0.32308315  1
  Li  Li186  1  0.20475993  0.19597465  0.42691685  1
  Li  Li187  1  0.54524007  0.55402535  0.42691685  1
  Li  Li188  1  0.45475993  0.80402535  0.67691685  1
  Li  Li189  1  0.79524007  0.44597465  0.67691685  1
  Li  Li190  1  0.79524007  0.80402535  0.57308315  1
  Li  Li191  1  0.45475993  0.44597465  0.57308315  1
  Li  Li192  1  0.04524007  0.69597465  0.32308315  1
  Li  Li193  1  0.70475993  0.05402535  0.32308315  1
  Li  Li194  1  0.70475993  0.69597465  0.42691685  1
  Li  Li195  1  0.04524007  0.05402535  0.42691685  1
  Li  Li196  1  0.95475993  0.30402535  0.67691685  1
  Li  Li197  1  0.29524007  0.94597465  0.67691685  1
  Li  Li198  1  0.29524007  0.30402535  0.57308315  1
  Li  Li199  1  0.95475993  0.94597465  0.57308315  1
  Li  Li200  1  0.04524007  0.19597465  0.82308315  1
  Li  Li201  1  0.70475993  0.55402535  0.82308315  1
  Li  Li202  1  0.70475993  0.19597465  0.92691685  1
  Li  Li203  1  0.04524007  0.55402535  0.92691685  1
  Li  Li204  1  0.95475993  0.80402535  0.17691685  1
  Li  Li205  1  0.29524007  0.44597465  0.17691685  1
  Li  Li206  1  0.29524007  0.80402535  0.07308315  1
  Li  Li207  1  0.95475993  0.44597465  0.07308315  1
  Li  Li208  1  0.45811858  0.76175053  0.49004884  1
  Li  Li209  1  0.29188142  0.98824947  0.49004884  1
  Li  Li210  1  0.29188142  0.76175053  0.25995116  1
  Li  Li211  1  0.45811858  0.98824947  0.25995116  1
  Li  Li212  1  0.54188142  0.23824947  0.50995116  1
  Li  Li213  1  0.70811858  0.01175053  0.50995116  1
  Li  Li214  1  0.70811858  0.23824947  0.74004884  1
  Li  Li215  1  0.54188142  0.01175053  0.74004884  1
  Li  Li216  1  0.45811858  0.26175053  0.99004884  1
  Li  Li217  1  0.29188142  0.48824947  0.99004884  1
  Li  Li218  1  0.29188142  0.26175053  0.75995116  1
  Li  Li219  1  0.45811858  0.48824947  0.75995116  1
  Li  Li220  1  0.54188142  0.73824947  0.00995116  1
  Li  Li221  1  0.70811858  0.51175053  0.00995116  1
  Li  Li222  1  0.70811858  0.73824947  0.24004884  1
  Li  Li223  1  0.54188142  0.51175053  0.24004884  1
  Li  Li224  1  0.95811858  0.76175053  0.99004884  1
  Li  Li225  1  0.79188142  0.98824947  0.99004884  1
  Li  Li226  1  0.79188142  0.76175053  0.75995116  1
  Li  Li227  1  0.95811858  0.98824947  0.75995116  1
  Li  Li228  1  0.04188142  0.23824947  0.00995116  1
  Li  Li229  1  0.20811858  0.01175053  0.00995116  1
  Li  Li230  1  0.20811858  0.23824947  0.24004884  1
  Li  Li231  1  0.04188142  0.01175053  0.24004884  1
  Li  Li232  1  0.95811858  0.26175053  0.49004884  1
  Li  Li233  1  0.79188142  0.48824947  0.49004884  1
  Li  Li234  1  0.79188142  0.26175053  0.25995116  1
  Li  Li235  1  0.95811858  0.48824947  0.25995116  1
  Li  Li236  1  0.04188142  0.73824947  0.50995116  1
  Li  Li237  1  0.20811858  0.51175053  0.50995116  1
  Li  Li238  1  0.20811858  0.73824947  0.74004884  1
  Li  Li239  1  0.04188142  0.51175053  0.74004884  1
  Li  Li240  1  0.12500000  0.12500000  0.26876456  1
  Li  Li241  1  0.62500000  0.12500000  0.48123544  1
  Li  Li242  1  0.87500000  0.87500000  0.73123544  1
  Li  Li243  1  0.37500000  0.87500000  0.51876456  1
  Li  Li244  1  0.12500000  0.62500000  0.76876456  1
  Li  Li245  1  0.62500000  0.62500000  0.98123544  1
  Li  Li246  1  0.87500000  0.37500000  0.23123544  1
  Li  Li247  1  0.37500000  0.37500000  0.01876456  1
  Li  Li248  1  0.62500000  0.12500000  0.76876456  1
  Li  Li249  1  0.12500000  0.12500000  0.98123544  1
  Li  Li250  1  0.37500000  0.87500000  0.23123544  1
  Li  Li251  1  0.87500000  0.87500000  0.01876456  1
  Li  Li252  1  0.62500000  0.62500000  0.26876456  1
  Li  Li253  1  0.12500000  0.62500000  0.48123544  1
  Li  Li254  1  0.37500000  0.37500000  0.73123544  1
  Li  Li255  1  0.87500000  0.37500000  0.51876456  1
