# generated using pymatgen
data_Li6Ti3O7
_symmetry_space_group_name_H-M   'P 1'
_cell_length_a   3.73718064
_cell_length_b   3.25354007
_cell_length_c   3.77910130
_cell_angle_alpha   86.68956176
_cell_angle_beta   91.48542726
_cell_angle_gamma   90.89126872
_symmetry_Int_Tables_number   1
_chemical_formula_structural   Li6Ti3O7
_chemical_formula_sum   'Li6 Ti3 O7'
_cell_volume   45.85370336
_cell_formula_units_Z   1
loop_
 _symmetry_equiv_pos_site_id
 _symmetry_equiv_pos_as_xyz
  1  'x, y, z'
loop_
 _atom_site_type_symbol
 _atom_site_label
 _atom_site_symmetry_multiplicity
 _atom_site_fract_x
 _atom_site_fract_y
 _atom_site_fract_z
 _atom_site_occupancy
  Li  Li0  1  0.00000000  0.00000000  0.00000000  1
  Li  Li1  1  0.50000000  0.50000000  0.50000000  1
  Li  Li2  1  0.50000000  0.50000000  0.00000000  1
  Li  Li3  1  0.50000000  0.00000000  0.50000000  1
  Li  Li4  1  0.00000000  0.50000000  0.50000000  1
  Li  Li5  1  0.16750926  0.16744281  0.51472541  1
  Ti  Ti6  1  0.72797438  0.20913087  0.60110183  1
  Ti  Ti7  1  0.43390222  0.99014770  0.09452825  1
  Ti  Ti8  1  0.40950388  0.09821984  0.86388321  1
  O  O9  1  0.73705160  0.07686414  0.29192877  1
  O  O10  1  0.55973854  0.00387868  0.64040864  1
  O  O11  1  0.28399422  0.78988684  0.22111773  1
  O  O12  1  0.21983495  0.22619456  0.36137070  1
  O  O13  1  0.57543675  0.22154684  0.62033470  1
  O  O14  1  0.42398680  0.06422261  0.19127475  1
  O  O15  1  0.61295389  0.73916189  0.94495088  1
