# generated using pymatgen
data_Na2Ca2SnB2(I2O)4
_symmetry_space_group_name_H-M   'P 1'
_cell_length_a   22.78883858
_cell_length_b   22.78883858
_cell_length_c   14.43665156
_cell_angle_alpha   90.00000000
_cell_angle_beta   90.00000000
_cell_angle_gamma   90.00000000
_symmetry_Int_Tables_number   1
_chemical_formula_structural   Na2Ca2SnB2(I2O)4
_chemical_formula_sum   'Na32 Ca32 Sn16 B32 I128 O64'
_cell_volume   7497.40305213
_cell_formula_units_Z   16
loop_
 _symmetry_equiv_pos_site_id
 _symmetry_equiv_pos_as_xyz
  1  'x, y, z'
loop_
 _atom_site_type_symbol
 _atom_site_label
 _atom_site_symmetry_multiplicity
 _atom_site_fract_x
 _atom_site_fract_y
 _atom_site_fract_z
 _atom_site_occupancy
  B  B0  1  0.97348721  0.22348721  0.12500000  1
  B  B1  1  0.52651279  0.77651279  0.62500000  1
  B  B2  1  0.02651279  0.72348721  0.37500000  1
  B  B3  1  0.47348721  0.27651279  0.87500000  1
  B  B4  1  0.02651279  0.77651279  0.87500000  1
  B  B5  1  0.47348721  0.22348721  0.37500000  1
  B  B6  1  0.97348721  0.27651279  0.62500000  1
  B  B7  1  0.52651279  0.72348721  0.12500000  1
  B  B8  1  0.47348721  0.72348721  0.62500000  1
  B  B9  1  0.02651279  0.27651279  0.12500000  1
  B  B10  1  0.52651279  0.22348721  0.87500000  1
  B  B11  1  0.97348721  0.77651279  0.37500000  1
  B  B12  1  0.52651279  0.27651279  0.37500000  1
  B  B13  1  0.97348721  0.72348721  0.87500000  1
  B  B14  1  0.47348721  0.77651279  0.12500000  1
  B  B15  1  0.02651279  0.22348721  0.62500000  1
  B  B16  1  0.94152315  0.00000000  0.25000000  1
  B  B17  1  0.55847685  0.00000000  0.75000000  1
  B  B18  1  0.25000000  0.69152315  0.50000000  1
  B  B19  1  0.25000000  0.30847685  -0.00000000  1
  B  B20  1  0.05847685  -0.00000000  0.75000000  1
  B  B21  1  0.44152315  0.00000000  0.25000000  1
  B  B22  1  0.75000000  0.30847685  0.50000000  1
  B  B23  1  0.75000000  0.69152315  0.00000000  1
  B  B24  1  0.44152315  0.50000000  0.75000000  1
  B  B25  1  0.05847685  0.50000000  0.25000000  1
  B  B26  1  0.75000000  0.19152315  0.00000000  1
  B  B27  1  0.75000000  0.80847685  0.50000000  1
  B  B28  1  0.55847685  0.50000000  0.25000000  1
  B  B29  1  0.94152315  0.50000000  0.75000000  1
  B  B30  1  0.25000000  0.80847685  -0.00000000  1
  B  B31  1  0.25000000  0.19152315  0.50000000  1
  Ca  Ca32  1  0.26535637  0.51535637  0.12500000  1
  Ca  Ca33  1  0.23464363  0.48464363  0.62500000  1
  Ca  Ca34  1  0.73464363  0.01535637  0.37500000  1
  Ca  Ca35  1  0.76535637  0.98464363  0.87500000  1
  Ca  Ca36  1  0.73464363  0.48464363  0.87500000  1
  Ca  Ca37  1  0.76535637  0.51535637  0.37500000  1
  Ca  Ca38  1  0.26535637  0.98464363  0.62500000  1
  Ca  Ca39  1  0.23464363  0.01535637  0.12500000  1
  Ca  Ca40  1  0.76535637  0.01535637  0.62500000  1
  Ca  Ca41  1  0.73464363  0.98464363  0.12500000  1
  Ca  Ca42  1  0.23464363  0.51535637  0.87500000  1
  Ca  Ca43  1  0.26535637  0.48464363  0.37500000  1
  Ca  Ca44  1  0.23464363  0.98464363  0.37500000  1
  Ca  Ca45  1  0.26535637  0.01535637  0.87500000  1
  Ca  Ca46  1  0.76535637  0.48464363  0.12500000  1
  Ca  Ca47  1  0.73464363  0.51535637  0.62500000  1
  Ca  Ca48  1  0.46855642  0.71855642  0.12500000  1
  Ca  Ca49  1  0.03144358  0.28144358  0.62500000  1
  Ca  Ca50  1  0.53144358  0.21855642  0.37500000  1
  Ca  Ca51  1  0.96855642  0.78144358  0.87500000  1
  Ca  Ca52  1  0.53144358  0.28144358  0.87500000  1
  Ca  Ca53  1  0.96855642  0.71855642  0.37500000  1
  Ca  Ca54  1  0.46855642  0.78144358  0.62500000  1
  Ca  Ca55  1  0.03144358  0.21855642  0.12500000  1
  Ca  Ca56  1  0.96855642  0.21855642  0.62500000  1
  Ca  Ca57  1  0.53144358  0.78144358  0.12500000  1
  Ca  Ca58  1  0.03144358  0.71855642  0.87500000  1
  Ca  Ca59  1  0.46855642  0.28144358  0.37500000  1
  Ca  Ca60  1  0.03144358  0.78144358  0.37500000  1
  Ca  Ca61  1  0.46855642  0.21855642  0.87500000  1
  Ca  Ca62  1  0.96855642  0.28144358  0.12500000  1
  Ca  Ca63  1  0.53144358  0.71855642  0.62500000  1
  I  I64  1  0.60236668  0.18444797  0.47564878  1
  I  I65  1  -0.10236668  -0.18444797  0.97564878  1
  I  I66  1  0.06555203  1.35236668  0.72564878  1
  I  I67  1  0.43444797  -0.35236668  1.22564878  1
  I  I68  1  -0.10236668  0.18444797  -0.47564878  1
  I  I69  1  0.60236668  -0.18444797  0.02435122  1
  I  I70  1  0.43444797  1.35236668  0.27435122  1
  I  I71  1  0.06555203  -0.35236668  -0.22564878  1
  I  I72  1  -0.60236668  -0.18444797  -0.47564878  1
  I  I73  1  1.10236668  0.18444797  0.02435122  1
  I  I74  1  0.93444797  -0.35236668  0.27435122  1
  I  I75  1  0.56555203  1.35236668  -0.22564878  1
  I  I76  1  1.10236668  -0.18444797  0.47564878  1
  I  I77  1  -0.60236668  0.18444797  0.97564878  1
  I  I78  1  0.56555203  -0.35236668  0.72564878  1
  I  I79  1  0.93444797  1.35236668  1.22564878  1
  I  I80  1  1.10236668  0.68444797  0.97564878  1
  I  I81  1  0.39763332  0.31555203  1.47564878  1
  I  I82  1  0.56555203  1.85236668  1.22564878  1
  I  I83  1  0.93444797  0.14763332  1.72564878  1
  I  I84  1  0.39763332  0.68444797  0.02435122  1
  I  I85  1  1.10236668  0.31555203  0.52435122  1
  I  I86  1  0.93444797  1.85236668  0.77435122  1
  I  I87  1  0.56555203  0.14763332  0.27435122  1
  I  I88  1  -0.10236668  0.31555203  0.02435122  1
  I  I89  1  1.60236668  0.68444797  0.52435122  1
  I  I90  1  1.43444797  0.14763332  0.77435122  1
  I  I91  1  1.06555203  1.85236668  0.27435122  1
  I  I92  1  1.60236668  0.31555203  0.97564878  1
  I  I93  1  -0.10236668  0.68444797  1.47564878  1
  I  I94  1  1.06555203  0.14763332  1.22564878  1
  I  I95  1  1.43444797  1.85236668  1.72564878  1
  I  I96  1  0.28157943  0.01630725  0.03659572  1
  I  I97  1  0.21842057  0.98369275  0.53659572  1
  I  I98  1  0.23369275  0.03157943  0.28659572  1
  I  I99  1  0.26630725  0.96842057  0.78659572  1
  I  I100  1  0.21842057  0.01630725  0.96340428  1
  I  I101  1  0.28157943  0.98369275  0.46340428  1
  I  I102  1  0.26630725  0.03157943  0.71340428  1
  I  I103  1  0.23369275  0.96842057  0.21340428  1
  I  I104  1  0.71842057  0.98369275  0.96340428  1
  I  I105  1  0.78157943  0.01630725  0.46340428  1
  I  I106  1  0.76630725  0.96842057  0.71340428  1
  I  I107  1  0.73369275  0.03157943  0.21340428  1
  I  I108  1  0.78157943  0.98369275  0.03659572  1
  I  I109  1  0.71842057  0.01630725  0.53659572  1
  I  I110  1  0.73369275  0.96842057  0.28659572  1
  I  I111  1  0.76630725  0.03157943  0.78659572  1
  I  I112  1  0.78157943  0.51630725  0.53659572  1
  I  I113  1  0.71842057  0.48369275  0.03659572  1
  I  I114  1  0.73369275  0.53157943  0.78659572  1
  I  I115  1  0.76630725  0.46842057  0.28659572  1
  I  I116  1  0.71842057  0.51630725  0.46340428  1
  I  I117  1  0.78157943  0.48369275  0.96340428  1
  I  I118  1  0.76630725  0.53157943  0.21340428  1
  I  I119  1  0.73369275  0.46842057  0.71340428  1
  I  I120  1  0.21842057  0.48369275  0.46340428  1
  I  I121  1  0.28157943  0.51630725  0.96340428  1
  I  I122  1  0.26630725  0.46842057  0.21340428  1
  I  I123  1  0.23369275  0.53157943  0.71340428  1
  I  I124  1  0.28157943  0.48369275  0.53659572  1
  I  I125  1  0.21842057  0.51630725  0.03659572  1
  I  I126  1  0.23369275  0.46842057  0.78659572  1
  I  I127  1  0.26630725  0.53157943  0.28659572  1
  I  I128  1  0.55017080  0.41597068  0.42845738  1
  I  I129  1  0.94982920  0.58402932  0.92845738  1
  I  I130  1  0.83402932  0.30017080  0.67845738  1
  I  I131  1  0.66597068  0.69982920  0.17845738  1
  I  I132  1  0.94982920  0.41597068  0.57154262  1
  I  I133  1  0.55017080  0.58402932  0.07154262  1
  I  I134  1  0.66597068  0.30017080  0.32154262  1
  I  I135  1  0.83402932  0.69982920  0.82154262  1
  I  I136  1  0.44982920  0.58402932  0.57154262  1
  I  I137  1  0.05017080  0.41597068  0.07154262  1
  I  I138  1  0.16597068  0.69982920  0.32154262  1
  I  I139  1  0.33402932  0.30017080  0.82154262  1
  I  I140  1  0.05017080  0.58402932  0.42845738  1
  I  I141  1  0.44982920  0.41597068  0.92845738  1
  I  I142  1  0.33402932  0.69982920  0.67845738  1
  I  I143  1  0.16597068  0.30017080  0.17845738  1
  I  I144  1  0.05017080  0.91597068  0.92845738  1
  I  I145  1  0.44982920  0.08402932  0.42845738  1
  I  I146  1  0.33402932  0.80017080  0.17845738  1
  I  I147  1  0.16597068  0.19982920  0.67845738  1
  I  I148  1  0.44982920  0.91597068  0.07154262  1
  I  I149  1  0.05017080  0.08402932  0.57154262  1
  I  I150  1  0.16597068  0.80017080  0.82154262  1
  I  I151  1  0.33402932  0.19982920  0.32154262  1
  I  I152  1  0.94982920  0.08402932  0.07154262  1
  I  I153  1  0.55017080  0.91597068  0.57154262  1
  I  I154  1  0.66597068  0.19982920  0.82154262  1
  I  I155  1  0.83402932  0.80017080  0.32154262  1
  I  I156  1  0.55017080  0.08402932  0.92845738  1
  I  I157  1  0.94982920  0.91597068  0.42845738  1
  I  I158  1  0.83402932  0.19982920  0.17845738  1
  I  I159  1  0.66597068  0.80017080  0.67845738  1
  I  I160  1  0.04468848  0.30716454  0.79191231  1
  I  I161  1  0.45531152  0.69283546  0.29191231  1
  I  I162  1  0.94283546  0.79468848  0.04191231  1
  I  I163  1  0.55716454  0.20531152  0.54191231  1
  I  I164  1  0.45531152  0.30716454  0.20808769  1
  I  I165  1  0.04468848  0.69283546  0.70808769  1
  I  I166  1  0.55716454  0.79468848  0.95808769  1
  I  I167  1  0.94283546  0.20531152  0.45808769  1
  I  I168  1  0.95531152  0.69283546  0.20808769  1
  I  I169  1  0.54468848  0.30716454  0.70808769  1
  I  I170  1  0.05716454  0.20531152  0.95808769  1
  I  I171  1  0.44283546  0.79468848  0.45808769  1
  I  I172  1  0.54468848  0.69283546  0.79191231  1
  I  I173  1  0.95531152  0.30716454  0.29191231  1
  I  I174  1  0.44283546  0.20531152  0.04191231  1
  I  I175  1  0.05716454  0.79468848  0.54191231  1
  I  I176  1  0.54468848  0.80716454  0.29191231  1
  I  I177  1  0.95531152  0.19283546  0.79191231  1
  I  I178  1  0.44283546  0.29468848  0.54191231  1
  I  I179  1  0.05716454  0.70531152  0.04191231  1
  I  I180  1  0.95531152  0.80716454  0.70808769  1
  I  I181  1  0.54468848  0.19283546  0.20808769  1
  I  I182  1  0.05716454  0.29468848  0.45808769  1
  I  I183  1  0.44283546  0.70531152  0.95808769  1
  I  I184  1  0.45531152  0.19283546  0.70808769  1
  I  I185  1  0.04468848  0.80716454  0.20808769  1
  I  I186  1  0.55716454  0.70531152  0.45808769  1
  I  I187  1  0.94283546  0.29468848  0.95808769  1
  I  I188  1  0.04468848  0.19283546  0.29191231  1
  I  I189  1  0.45531152  0.80716454  0.79191231  1
  I  I190  1  0.94283546  0.70531152  0.54191231  1
  I  I191  1  0.55716454  0.29468848  0.04191231  1
  Na  Na192  1  0.90225981  0.78861013  0.35101575  1
  Na  Na193  1  0.59774019  0.21138987  0.85101575  1
  Na  Na194  1  0.46138987  0.65225981  0.60101575  1
  Na  Na195  1  0.03861013  0.34774019  0.10101575  1
  Na  Na196  1  0.59774019  0.78861013  0.64898425  1
  Na  Na197  1  0.90225981  0.21138987  0.14898425  1
  Na  Na198  1  0.03861013  0.65225981  0.39898425  1
  Na  Na199  1  0.46138987  0.34774019  0.89898425  1
  Na  Na200  1  0.09774019  0.21138987  0.64898425  1
  Na  Na201  1  0.40225981  0.78861013  0.14898425  1
  Na  Na202  1  0.53861013  0.34774019  0.39898425  1
  Na  Na203  1  0.96138987  0.65225981  0.89898425  1
  Na  Na204  1  0.40225981  0.21138987  0.35101575  1
  Na  Na205  1  0.09774019  0.78861013  0.85101575  1
  Na  Na206  1  0.96138987  0.34774019  0.60101575  1
  Na  Na207  1  0.53861013  0.65225981  0.10101575  1
  Na  Na208  1  0.40225981  0.28861013  0.85101575  1
  Na  Na209  1  0.09774019  0.71138987  0.35101575  1
  Na  Na210  1  0.96138987  0.15225981  0.10101575  1
  Na  Na211  1  0.53861013  0.84774019  0.60101575  1
  Na  Na212  1  0.09774019  0.28861013  0.14898425  1
  Na  Na213  1  0.40225981  0.71138987  0.64898425  1
  Na  Na214  1  0.53861013  0.15225981  0.89898425  1
  Na  Na215  1  0.96138987  0.84774019  0.39898425  1
  Na  Na216  1  0.59774019  0.71138987  0.14898425  1
  Na  Na217  1  0.90225981  0.28861013  0.64898425  1
  Na  Na218  1  0.03861013  0.84774019  0.89898425  1
  Na  Na219  1  0.46138987  0.15225981  0.39898425  1
  Na  Na220  1  0.90225981  0.71138987  0.85101575  1
  Na  Na221  1  0.59774019  0.28861013  0.35101575  1
  Na  Na222  1  0.46138987  0.84774019  0.10101575  1
  Na  Na223  1  0.03861013  0.15225981  0.60101575  1
  O  O224  1  0.94736488  0.48352135  0.15960527  1
  O  O225  1  0.55263512  0.51647865  0.65960527  1
  O  O226  1  0.76647865  0.69736488  0.40960527  1
  O  O227  1  0.73352135  0.30263512  0.90960527  1
  O  O228  1  0.55263512  0.48352135  0.84039473  1
  O  O229  1  0.94736488  0.51647865  0.34039473  1
  O  O230  1  0.73352135  0.69736488  0.59039473  1
  O  O231  1  0.76647865  0.30263512  0.09039473  1
  O  O232  1  0.05263512  0.51647865  0.84039473  1
  O  O233  1  0.44736488  0.48352135  0.34039473  1
  O  O234  1  0.23352135  0.30263512  0.59039473  1
  O  O235  1  0.26647865  0.69736488  0.09039473  1
  O  O236  1  0.44736488  0.51647865  0.15960527  1
  O  O237  1  0.05263512  0.48352135  0.65960527  1
  O  O238  1  0.26647865  0.30263512  0.40960527  1
  O  O239  1  0.23352135  0.69736488  0.90960527  1
  O  O240  1  0.44736488  0.98352135  0.65960527  1
  O  O241  1  0.05263512  0.01647865  0.15960527  1
  O  O242  1  0.26647865  0.19736488  0.90960527  1
  O  O243  1  0.23352135  0.80263512  0.40960527  1
  O  O244  1  0.05263512  0.98352135  0.34039473  1
  O  O245  1  0.44736488  0.01647865  0.84039473  1
  O  O246  1  0.23352135  0.19736488  0.09039473  1
  O  O247  1  0.26647865  0.80263512  0.59039473  1
  O  O248  1  0.55263512  0.01647865  0.34039473  1
  O  O249  1  0.94736488  0.98352135  0.84039473  1
  O  O250  1  0.73352135  0.80263512  0.09039473  1
  O  O251  1  0.76647865  0.19736488  0.59039473  1
  O  O252  1  0.94736488  0.01647865  0.65960527  1
  O  O253  1  0.55263512  0.98352135  0.15960527  1
  O  O254  1  0.76647865  0.80263512  0.90960527  1
  O  O255  1  0.73352135  0.19736488  0.40960527  1
  O  O256  1  0.00000000  0.25000000  0.80347124  1
  O  O257  1  0.00000000  0.75000000  0.05347124  1
  O  O258  1  0.50000000  0.25000000  0.19652876  1
  O  O259  1  0.50000000  0.75000000  0.94652876  1
  O  O260  1  0.00000000  0.75000000  0.19652876  1
  O  O261  1  0.00000000  0.25000000  0.94652876  1
  O  O262  1  0.50000000  0.75000000  0.80347124  1
  O  O263  1  0.50000000  0.25000000  0.05347124  1
  O  O264  1  0.50000000  0.75000000  0.30347124  1
  O  O265  1  0.50000000  0.25000000  0.55347124  1
  O  O266  1  0.00000000  0.75000000  0.69652876  1
  O  O267  1  0.00000000  0.25000000  0.44652876  1
  O  O268  1  0.50000000  0.25000000  0.69652876  1
  O  O269  1  0.50000000  0.75000000  0.44652876  1
  O  O270  1  0.00000000  0.25000000  0.30347124  1
  O  O271  1  0.00000000  0.75000000  0.55347124  1
  O  O272  1  0.76076737  0.00000000  0.25000000  1
  O  O273  1  0.73923263  0.00000000  0.75000000  1
  O  O274  1  0.25000000  0.51076737  0.50000000  1
  O  O275  1  0.25000000  0.48923263  -0.00000000  1
  O  O276  1  0.23923263  0.00000000  0.75000000  1
  O  O277  1  0.26076737  0.00000000  0.25000000  1
  O  O278  1  0.75000000  0.48923263  0.50000000  1
  O  O279  1  0.75000000  0.51076737  -0.00000000  1
  O  O280  1  0.26076737  0.50000000  0.75000000  1
  O  O281  1  0.23923263  0.50000000  0.25000000  1
  O  O282  1  0.75000000  0.01076737  0.00000000  1
  O  O283  1  0.75000000  0.98923263  0.50000000  1
  O  O284  1  0.73923263  0.50000000  0.25000000  1
  O  O285  1  0.76076737  0.50000000  0.75000000  1
  O  O286  1  0.25000000  0.98923263  0.00000000  1
  O  O287  1  0.25000000  0.01076737  0.50000000  1
  Sn  Sn288  1  0.00000000  0.00000000  0.00000000  1
  Sn  Sn289  1  0.50000000  0.00000000  0.50000000  1
  Sn  Sn290  1  0.25000000  0.75000000  0.25000000  1
  Sn  Sn291  1  0.25000000  0.25000000  0.75000000  1
  Sn  Sn292  1  0.50000000  0.00000000  0.00000000  1
  Sn  Sn293  1  0.00000000  0.00000000  0.50000000  1
  Sn  Sn294  1  0.25000000  0.75000000  0.75000000  1
  Sn  Sn295  1  0.25000000  0.25000000  0.25000000  1
  Sn  Sn296  1  0.50000000  0.50000000  0.50000000  1
  Sn  Sn297  1  0.00000000  0.50000000  0.00000000  1
  Sn  Sn298  1  0.75000000  0.25000000  0.75000000  1
  Sn  Sn299  1  0.75000000  0.75000000  0.25000000  1
  Sn  Sn300  1  0.00000000  0.50000000  0.50000000  1
  Sn  Sn301  1  0.50000000  0.50000000  0.00000000  1
  Sn  Sn302  1  0.75000000  0.25000000  0.25000000  1
  Sn  Sn303  1  0.75000000  0.75000000  0.75000000  1
