# generated using pymatgen
data_K12SnS8
_symmetry_space_group_name_H-M   'P 1'
_cell_length_a   17.54624767
_cell_length_b   17.54624767
_cell_length_c   10.02969728
_cell_angle_alpha   90.00000000
_cell_angle_beta   90.00000000
_cell_angle_gamma   90.00000000
_symmetry_Int_Tables_number   1
_chemical_formula_structural   K12SnS8
_chemical_formula_sum   'K48 Sn4 S32'
_cell_volume   3087.85099692
_cell_formula_units_Z   4
loop_
 _symmetry_equiv_pos_site_id
 _symmetry_equiv_pos_as_xyz
  1  'x, y, z'
loop_
 _atom_site_type_symbol
 _atom_site_label
 _atom_site_symmetry_multiplicity
 _atom_site_fract_x
 _atom_site_fract_y
 _atom_site_fract_z
 _atom_site_occupancy
  K  K0  1  0.81325668  0.17527934  0.13209172  1
  K  K1  1  -0.31325668  -0.17527934  0.63209172  1
  K  K2  1  0.07472066  1.56325668  0.38209172  1
  K  K3  1  0.42527934  -0.56325668  0.88209172  1
  K  K4  1  -0.31325668  0.17527934  0.36790828  1
  K  K5  1  0.81325668  -0.17527934  -0.13209172  1
  K  K6  1  0.42527934  1.56325668  0.11790828  1
  K  K7  1  0.07472066  -0.56325668  0.61790828  1
  K  K8  1  -0.81325668  -0.17527934  -0.13209172  1
  K  K9  1  1.31325668  0.17527934  0.36790828  1
  K  K10  1  0.92527934  -0.56325668  0.61790828  1
  K  K11  1  0.57472066  1.56325668  0.11790828  1
  K  K12  1  1.31325668  -0.17527934  0.63209172  1
  K  K13  1  -0.81325668  0.17527934  0.13209172  1
  K  K14  1  0.57472066  -0.56325668  0.88209172  1
  K  K15  1  0.92527934  1.56325668  0.38209172  1
  K  K16  1  1.31325668  0.67527934  0.63209172  1
  K  K17  1  0.18674332  0.32472066  1.13209172  1
  K  K18  1  0.57472066  2.06325668  0.88209172  1
  K  K19  1  0.92527934  -0.06325668  1.38209172  1
  K  K20  1  0.18674332  0.67527934  0.86790828  1
  K  K21  1  1.31325668  0.32472066  0.36790828  1
  K  K22  1  0.92527934  2.06325668  0.61790828  1
  K  K23  1  0.57472066  -0.06325668  1.11790828  1
  K  K24  1  -0.31325668  0.32472066  0.36790828  1
  K  K25  1  1.81325668  0.67527934  0.86790828  1
  K  K26  1  1.42527934  -0.06325668  1.11790828  1
  K  K27  1  1.07472066  2.06325668  0.61790828  1
  K  K28  1  1.81325668  0.32472066  1.13209172  1
  K  K29  1  -0.31325668  0.67527934  0.63209172  1
  K  K30  1  1.07472066  -0.06325668  1.38209172  1
  K  K31  1  1.42527934  2.06325668  0.88209172  1
  K  K32  1  0.00000000  0.38166219  0.19476856  1
  K  K33  1  0.50000000  0.61833781  0.69476856  1
  K  K34  1  0.86833781  0.75000000  0.44476856  1
  K  K35  1  0.63166219  0.25000000  0.94476856  1
  K  K36  1  0.50000000  0.38166219  0.30523144  1
  K  K37  1  0.00000000  0.61833781  0.80523144  1
  K  K38  1  0.63166219  0.75000000  0.05523144  1
  K  K39  1  0.86833781  0.25000000  0.55523144  1
  K  K40  1  0.50000000  0.88166219  0.69476856  1
  K  K41  1  0.00000000  0.11833781  0.19476856  1
  K  K42  1  0.36833781  0.25000000  0.94476856  1
  K  K43  1  0.13166219  0.75000000  0.44476856  1
  K  K44  1  0.00000000  0.88166219  0.80523144  1
  K  K45  1  0.50000000  0.11833781  0.30523144  1
  K  K46  1  0.13166219  0.25000000  0.55523144  1
  K  K47  1  0.36833781  0.75000000  0.05523144  1
  S  S48  1  0.00000000  0.17841098  0.81464737  1
  S  S49  1  0.50000000  0.82158902  0.31464737  1
  S  S50  1  0.07158902  0.75000000  0.06464737  1
  S  S51  1  0.42841098  0.25000000  0.56464737  1
  S  S52  1  0.50000000  0.17841098  0.68535263  1
  S  S53  1  0.00000000  0.82158902  0.18535263  1
  S  S54  1  0.42841098  0.75000000  0.43535263  1
  S  S55  1  0.07158902  0.25000000  0.93535263  1
  S  S56  1  0.50000000  0.67841098  0.31464737  1
  S  S57  1  0.00000000  0.32158902  0.81464737  1
  S  S58  1  0.57158902  0.25000000  0.56464737  1
  S  S59  1  0.92841098  0.75000000  0.06464737  1
  S  S60  1  0.00000000  0.67841098  0.18535263  1
  S  S61  1  0.50000000  0.32158902  0.68535263  1
  S  S62  1  0.92841098  0.25000000  0.93535263  1
  S  S63  1  0.57158902  0.75000000  0.43535263  1
  S  S64  1  0.28851366  0.00000000  0.00000000  1
  S  S65  1  0.21148634  0.00000000  0.50000000  1
  S  S66  1  0.25000000  0.03851366  0.25000000  1
  S  S67  1  0.25000000  0.96148634  0.75000000  1
  S  S68  1  0.71148634  0.00000000  0.00000000  1
  S  S69  1  0.78851366  0.00000000  0.50000000  1
  S  S70  1  0.75000000  0.96148634  0.75000000  1
  S  S71  1  0.75000000  0.03851366  0.25000000  1
  S  S72  1  0.78851366  0.50000000  0.50000000  1
  S  S73  1  0.71148634  0.50000000  0.00000000  1
  S  S74  1  0.75000000  0.53851366  0.75000000  1
  S  S75  1  0.75000000  0.46148634  0.25000000  1
  S  S76  1  0.21148634  0.50000000  0.50000000  1
  S  S77  1  0.28851366  0.50000000  0.00000000  1
  S  S78  1  0.25000000  0.46148634  0.25000000  1
  S  S79  1  0.25000000  0.53851366  0.75000000  1
  Sn  Sn80  1  0.00000000  0.75000000  0.12500000  1
  Sn  Sn81  1  0.50000000  0.75000000  0.37500000  1
  Sn  Sn82  1  0.50000000  0.25000000  0.62500000  1
  Sn  Sn83  1  0.00000000  0.25000000  0.87500000  1
