# generated using pymatgen
data_Li2NbTe3Se3I4Br3
_symmetry_space_group_name_H-M   'P 1'
_cell_length_a   8.98951454
_cell_length_b   7.40368752
_cell_length_c   9.57028388
_cell_angle_alpha   90.00000000
_cell_angle_beta   90.00000000
_cell_angle_gamma   90.00000000
_symmetry_Int_Tables_number   1
_chemical_formula_structural   Li2NbTe3Se3I4Br3
_chemical_formula_sum   'Li2 Nb1 Te3 Se3 I4 Br3'
_cell_volume   636.95557025
_cell_formula_units_Z   1
loop_
 _symmetry_equiv_pos_site_id
 _symmetry_equiv_pos_as_xyz
  1  'x, y, z'
loop_
 _atom_site_type_symbol
 _atom_site_label
 _atom_site_symmetry_multiplicity
 _atom_site_fract_x
 _atom_site_fract_y
 _atom_site_fract_z
 _atom_site_occupancy
  Li  Li0  1  0.00000000  0.00000000  0.00000000  1
  Li  Li1  1  0.50000000  0.50000000  0.50000000  1
  Nb  Nb2  1  0.25000000  0.25000000  0.25000000  1
  Te  Te3  1  0.75000000  0.25000000  0.00000000  1
  Te  Te4  1  0.25000000  0.75000000  0.50000000  1
  Te  Te5  1  0.64987116  0.99561912  0.71510260  1
  I  I6  1  0.82178892  0.73724109  0.13508364  1
  I  I7  1  0.71803123  0.60155918  0.36194192  1
  I  I8  1  0.68724205  0.02464139  0.18768413  1
  I  I9  1  0.79968722  0.88087575  0.72596498  1
  Se  Se10  1  0.25845324  0.80254805  0.91449251  1
  Se  Se11  1  0.45289484  0.88782389  0.61169878  1
  Se  Se12  1  0.30871641  0.19494989  0.08021786  1
  Br  Br13  1  0.59394925  0.99017918  0.30228943  1
  Br  Br14  1  0.05075218  0.27560703  0.29761458  1
  Br  Br15  1  0.26850968  0.17331422  0.17212547  1
