# generated using pymatgen
data_Li2S
_symmetry_space_group_name_H-M   'P 1'
_cell_length_a   9.93451406
_cell_length_b   9.93451406
_cell_length_c   14.41374027
_cell_angle_alpha   90.00000000
_cell_angle_beta   90.00000000
_cell_angle_gamma   120.00000000
_symmetry_Int_Tables_number   1
_chemical_formula_structural   Li2S
_chemical_formula_sum   'Li36 S18'
_cell_volume   1231.97127228
_cell_formula_units_Z   18
loop_
 _symmetry_equiv_pos_site_id
 _symmetry_equiv_pos_as_xyz
  1  'x, y, z'
loop_
 _atom_site_type_symbol
 _atom_site_label
 _atom_site_symmetry_multiplicity
 _atom_site_fract_x
 _atom_site_fract_y
 _atom_site_fract_z
 _atom_site_occupancy
  Li  Li0  1  0.30281738  0.99433608  0.35387878  1
  Li  Li1  1  -0.99433608  -0.69151870  0.35387878  1
  Li  Li2  1  0.69151870  -0.30281738  0.35387878  1
  Li  Li3  1  0.99433608  0.30281738  0.14612122  1
  Li  Li4  1  -0.69151870  -0.99433608  0.14612122  1
  Li  Li5  1  -0.30281738  0.69151870  0.14612122  1
  Li  Li6  1  -0.30281738  -0.99433608  -0.35387878  1
  Li  Li7  1  0.99433608  0.69151870  -0.35387878  1
  Li  Li8  1  -0.69151870  0.30281738  -0.35387878  1
  Li  Li9  1  -0.99433608  -0.30281738  0.85387878  1
  Li  Li10  1  0.69151870  0.99433608  0.85387878  1
  Li  Li11  1  0.30281738  -0.69151870  0.85387878  1
  Li  Li12  1  0.96948404  1.32766942  0.68721211  1
  Li  Li13  1  -0.32766942  -0.35818537  0.68721211  1
  Li  Li14  1  1.35818537  0.03051596  0.68721211  1
  Li  Li15  1  1.66100275  0.63615071  0.47945456  1
  Li  Li16  1  -0.02485204  -0.66100275  0.47945456  1
  Li  Li17  1  0.36384929  1.02485204  0.47945456  1
  Li  Li18  1  0.36384929  -0.66100275  -0.02054544  1
  Li  Li19  1  1.66100275  1.02485204  -0.02054544  1
  Li  Li20  1  -0.02485204  0.63615071  -0.02054544  1
  Li  Li21  1  -0.32766942  0.03051596  1.18721211  1
  Li  Li22  1  1.35818537  1.32766942  1.18721211  1
  Li  Li23  1  0.96948404  -0.35818537  1.18721211  1
  Li  Li24  1  0.63615071  1.66100275  1.02054544  1
  Li  Li25  1  -0.66100275  -0.02485204  1.02054544  1
  Li  Li26  1  1.02485204  0.36384929  1.02054544  1
  Li  Li27  1  1.32766942  0.96948404  0.81278789  1
  Li  Li28  1  -0.35818537  -0.32766942  0.81278789  1
  Li  Li29  1  0.03051596  1.35818537  0.81278789  1
  Li  Li30  1  0.03051596  -0.32766942  0.31278789  1
  Li  Li31  1  1.32766942  1.35818537  0.31278789  1
  Li  Li32  1  -0.35818537  0.96948404  0.31278789  1
  Li  Li33  1  -0.66100275  0.36384929  1.52054544  1
  Li  Li34  1  1.02485204  1.66100275  1.52054544  1
  Li  Li35  1  0.63615071  -0.02485204  1.52054544  1
  S  S36  1  0.50000000  0.00000000  0.00000000  1
  S  S37  1  0.00000000  0.50000000  0.00000000  1
  S  S38  1  0.50000000  0.50000000  0.00000000  1
  S  S39  1  0.00000000  0.50000000  0.50000000  1
  S  S40  1  0.50000000  0.00000000  0.50000000  1
  S  S41  1  0.50000000  0.50000000  0.50000000  1
  S  S42  1  0.16666667  0.33333333  0.33333333  1
  S  S43  1  0.66666667  0.83333333  0.33333333  1
  S  S44  1  0.16666667  0.83333333  0.33333333  1
  S  S45  1  0.66666667  0.83333333  0.83333333  1
  S  S46  1  0.16666667  0.33333333  0.83333333  1
  S  S47  1  0.16666667  0.83333333  0.83333333  1
  S  S48  1  0.83333333  0.66666667  0.66666667  1
  S  S49  1  0.33333333  0.16666667  0.66666667  1
  S  S50  1  0.83333333  0.16666667  0.66666667  1
  S  S51  1  0.33333333  0.16666667  0.16666667  1
  S  S52  1  0.83333333  0.66666667  0.16666667  1
  S  S53  1  0.83333333  0.16666667  0.16666667  1
