# generated using pymatgen
data_NaLi8Br3(ClF2)2
_symmetry_space_group_name_H-M   'P 1'
_cell_length_a   7.64192754
_cell_length_b   7.64192754
_cell_length_c   24.17043760
_cell_angle_alpha   90.00000000
_cell_angle_beta   90.00000000
_cell_angle_gamma   90.00000000
_symmetry_Int_Tables_number   1
_chemical_formula_structural   NaLi8Br3(ClF2)2
_chemical_formula_sum   'Na4 Li32 Br12 Cl8 F16'
_cell_volume   1411.53075177
_cell_formula_units_Z   4
loop_
 _symmetry_equiv_pos_site_id
 _symmetry_equiv_pos_as_xyz
  1  'x, y, z'
loop_
 _atom_site_type_symbol
 _atom_site_label
 _atom_site_symmetry_multiplicity
 _atom_site_fract_x
 _atom_site_fract_y
 _atom_site_fract_z
 _atom_site_occupancy
  Br  Br0  1  0.00000000  0.50000000  0.18221061  1
  Br  Br1  1  0.50000000  0.00000000  0.18221061  1
  Br  Br2  1  0.00000000  0.50000000  0.81778939  1
  Br  Br3  1  0.50000000  0.00000000  0.81778939  1
  Br  Br4  1  0.68637904  0.50000000  0.69591661  1
  Br  Br5  1  0.31362096  0.50000000  0.69591661  1
  Br  Br6  1  0.50000000  0.68637904  0.69591661  1
  Br  Br7  1  0.50000000  0.31362096  0.69591661  1
  Br  Br8  1  0.31362096  0.50000000  0.30408339  1
  Br  Br9  1  0.68637904  0.50000000  0.30408339  1
  Br  Br10  1  0.50000000  0.68637904  0.30408339  1
  Br  Br11  1  0.50000000  0.31362096  0.30408339  1
  Cl  Cl12  1  0.88432029  0.88432029  0.08280812  1
  Cl  Cl13  1  0.11567971  0.11567971  0.08280812  1
  Cl  Cl14  1  0.11567971  0.88432029  0.08280812  1
  Cl  Cl15  1  0.88432029  0.11567971  0.08280812  1
  Cl  Cl16  1  0.11567971  0.88432029  0.91719188  1
  Cl  Cl17  1  0.88432029  0.11567971  0.91719188  1
  Cl  Cl18  1  0.88432029  0.88432029  0.91719188  1
  Cl  Cl19  1  0.11567971  0.11567971  0.91719188  1
  F  F20  1  0.33020398  0.33020398  0.41004651  1
  F  F21  1  -0.33020398  -0.33020398  0.41004651  1
  F  F22  1  -0.33020398  0.33020398  0.41004651  1
  F  F23  1  0.33020398  -0.33020398  0.41004651  1
  F  F24  1  -0.33020398  0.33020398  -0.41004651  1
  F  F25  1  0.33020398  -0.33020398  -0.41004651  1
  F  F26  1  0.33020398  0.33020398  -0.41004651  1
  F  F27  1  -0.33020398  -0.33020398  -0.41004651  1
  F  F28  1  0.00000000  0.50000000  -0.00000000  1
  F  F29  1  0.50000000  0.00000000  -0.00000000  1
  F  F30  1  0.27439500  0.27439500  0.50000000  1
  F  F31  1  0.72560500  0.72560500  0.50000000  1
  F  F32  1  0.72560500  0.27439500  0.50000000  1
  F  F33  1  0.27439500  0.72560500  0.50000000  1
  F  F34  1  0.00000000  0.50000000  0.50000000  1
  F  F35  1  0.50000000  0.00000000  0.50000000  1
  Li  Li36  1  0.35576230  0.50000000  0.95066615  1
  Li  Li37  1  0.64423770  0.50000000  0.95066615  1
  Li  Li38  1  0.50000000  0.35576230  0.95066615  1
  Li  Li39  1  0.50000000  0.64423770  0.95066615  1
  Li  Li40  1  0.64423770  0.50000000  0.04933385  1
  Li  Li41  1  0.35576230  0.50000000  0.04933385  1
  Li  Li42  1  0.50000000  0.35576230  0.04933385  1
  Li  Li43  1  0.50000000  0.64423770  0.04933385  1
  Li  Li44  1  0.90615053  0.41254250  0.50000000  1
  Li  Li45  1  0.09384947  0.58745750  0.50000000  1
  Li  Li46  1  0.58745750  0.90615053  0.50000000  1
  Li  Li47  1  0.41254250  0.09384947  0.50000000  1
  Li  Li48  1  0.09384947  0.41254250  0.50000000  1
  Li  Li49  1  0.90615053  0.58745750  0.50000000  1
  Li  Li50  1  0.41254250  0.90615053  0.50000000  1
  Li  Li51  1  0.58745750  0.09384947  0.50000000  1
  Li  Li52  1  0.70685452  0.50000000  -0.00000000  1
  Li  Li53  1  0.29314548  0.50000000  -0.00000000  1
  Li  Li54  1  0.50000000  0.70685452  -0.00000000  1
  Li  Li55  1  0.50000000  0.29314548  -0.00000000  1
  Li  Li56  1  0.13589174  -0.00000000  0.73727106  1
  Li  Li57  1  0.86410826  0.00000000  0.73727106  1
  Li  Li58  1  0.00000000  0.13589174  0.73727106  1
  Li  Li59  1  0.00000000  0.86410826  0.73727106  1
  Li  Li60  1  0.86410826  0.00000000  0.26272894  1
  Li  Li61  1  0.13589174  -0.00000000  0.26272894  1
  Li  Li62  1  0.00000000  0.13589174  0.26272894  1
  Li  Li63  1  0.00000000  0.86410826  0.26272894  1
  Li  Li64  1  0.36302206  0.50000000  0.50000000  1
  Li  Li65  1  0.63697794  0.50000000  0.50000000  1
  Li  Li66  1  0.50000000  0.36302206  0.50000000  1
  Li  Li67  1  0.50000000  0.63697794  0.50000000  1
  Na  Na68  1  0.17683003  0.17683003  -0.00000000  1
  Na  Na69  1  0.82316997  0.82316997  -0.00000000  1
  Na  Na70  1  0.82316997  0.17683003  -0.00000000  1
  Na  Na71  1  0.17683003  0.82316997  -0.00000000  1
