# generated using pymatgen
data_LiAl2Br3F4
_symmetry_space_group_name_H-M   'P 1'
_cell_length_a   3.39946276
_cell_length_b   3.15710127
_cell_length_c   5.00739766
_cell_angle_alpha   105.68718210
_cell_angle_beta   95.60228075
_cell_angle_gamma   104.73653268
_symmetry_Int_Tables_number   1
_chemical_formula_structural   LiAl2Br3F4
_chemical_formula_sum   'Li1 Al2 Br3 F4'
_cell_volume   49.23234062
_cell_formula_units_Z   1
loop_
 _symmetry_equiv_pos_site_id
 _symmetry_equiv_pos_as_xyz
  1  'x, y, z'
loop_
 _atom_site_type_symbol
 _atom_site_label
 _atom_site_symmetry_multiplicity
 _atom_site_fract_x
 _atom_site_fract_y
 _atom_site_fract_z
 _atom_site_occupancy
  Li  Li0  1  0.00000000  0.00000000  0.00000000  1
  Al  Al1  1  0.33300000  0.66700000  0.25000000  1
  Al  Al2  1  0.66700000  0.33300000  0.50000000  1
  Br  Br3  1  0.00000000  0.00000000  0.75000000  1
  Br  Br4  1  0.93965494  0.37038088  0.95006720  1
  Br  Br5  1  0.86734821  0.17386382  0.18492512  1
  F  F6  1  0.52275816  0.78610439  0.51745981  1
  F  F7  1  0.35097987  0.29500929  0.14630801  1
  F  F8  1  0.50903452  0.16998048  0.32949970  1
  F  F9  1  0.58766186  0.42374884  0.25673883  1
