# generated using pymatgen
data_Li6Ti3PN3O2
_symmetry_space_group_name_H-M   'P 1'
_cell_length_a   8.46451629
_cell_length_b   7.56229686
_cell_length_c   9.42363861
_cell_angle_alpha   90.00000000
_cell_angle_beta   90.00000000
_cell_angle_gamma   90.00000000
_symmetry_Int_Tables_number   1
_chemical_formula_structural   Li6Ti3PN3O2
_chemical_formula_sum   'Li6 Ti3 P1 N3 O2'
_cell_volume   603.21827424
_cell_formula_units_Z   1
loop_
 _symmetry_equiv_pos_site_id
 _symmetry_equiv_pos_as_xyz
  1  'x, y, z'
loop_
 _atom_site_type_symbol
 _atom_site_label
 _atom_site_symmetry_multiplicity
 _atom_site_fract_x
 _atom_site_fract_y
 _atom_site_fract_z
 _atom_site_occupancy
  Li  Li0  1  0.00000000  0.00000000  0.00000000  1
  Li  Li1  1  0.50000000  0.50000000  0.50000000  1
  Li  Li2  1  0.25000000  0.25000000  0.25000000  1
  Li  Li3  1  0.75000000  0.25000000  0.00000000  1
  Li  Li4  1  0.25000000  0.75000000  0.50000000  1
  Li  Li5  1  0.51189691  0.43161385  0.14681108  1
  Ti  Ti6  1  0.23146282  0.07650416  0.93121635  1
  Ti  Ti7  1  0.96653490  0.27620790  0.46027458  1
  Ti  Ti8  1  0.83364181  0.67797019  0.42648405  1
  P  P9  1  0.16614873  0.51972179  0.02330192  1
  N  N10  1  0.76848580  0.11621129  0.55139058  1
  N  N11  1  0.60201518  0.02069742  0.79015626  1
  N  N12  1  0.43661362  0.57742727  0.67274083  1
  O  O13  1  0.15914997  0.62750608  0.84244695  1
  O  O14  1  0.80607758  0.50271170  0.16831295  1
