# generated using pymatgen
data_K3ClO
_symmetry_space_group_name_H-M   'P 1'
_cell_length_a   21.87571245
_cell_length_b   21.87571245
_cell_length_c   21.87571245
_cell_angle_alpha   90.00000000
_cell_angle_beta   90.00000000
_cell_angle_gamma   90.00000000
_symmetry_Int_Tables_number   1
_chemical_formula_structural   K3ClO
_chemical_formula_sum   'K144 Cl48 O48'
_cell_volume   10468.55208640
_cell_formula_units_Z   48
loop_
 _symmetry_equiv_pos_site_id
 _symmetry_equiv_pos_as_xyz
  1  'x, y, z'
loop_
 _atom_site_type_symbol
 _atom_site_label
 _atom_site_symmetry_multiplicity
 _atom_site_fract_x
 _atom_site_fract_y
 _atom_site_fract_z
 _atom_site_occupancy
  Cl  Cl0  1  0.78805112  0.12500000  0.12500000  1
  Cl  Cl1  1  0.96194888  0.12500000  0.62500000  1
  Cl  Cl2  1  0.12500000  0.78805112  0.12500000  1
  Cl  Cl3  1  0.62500000  0.96194888  0.12500000  1
  Cl  Cl4  1  0.12500000  0.12500000  0.78805112  1
  Cl  Cl5  1  0.12500000  0.62500000  0.96194888  1
  Cl  Cl6  1  0.87500000  0.03805112  0.37500000  1
  Cl  Cl7  1  0.87500000  0.21194888  0.87500000  1
  Cl  Cl8  1  0.53805112  0.37500000  0.37500000  1
  Cl  Cl9  1  0.71194888  0.87500000  0.37500000  1
  Cl  Cl10  1  0.87500000  0.37500000  0.71194888  1
  Cl  Cl11  1  0.37500000  0.37500000  0.53805112  1
  Cl  Cl12  1  0.78805112  0.62500000  0.62500000  1
  Cl  Cl13  1  0.96194888  0.62500000  0.12500000  1
  Cl  Cl14  1  0.12500000  0.28805112  0.62500000  1
  Cl  Cl15  1  0.62500000  0.46194888  0.62500000  1
  Cl  Cl16  1  0.12500000  0.62500000  0.28805112  1
  Cl  Cl17  1  0.12500000  0.12500000  0.46194888  1
  Cl  Cl18  1  0.87500000  0.53805112  0.87500000  1
  Cl  Cl19  1  0.87500000  0.71194888  0.37500000  1
  Cl  Cl20  1  0.53805112  0.87500000  0.87500000  1
  Cl  Cl21  1  0.71194888  0.37500000  0.87500000  1
  Cl  Cl22  1  0.87500000  0.87500000  0.21194888  1
  Cl  Cl23  1  0.37500000  0.87500000  0.03805112  1
  Cl  Cl24  1  0.28805112  0.12500000  0.62500000  1
  Cl  Cl25  1  0.46194888  0.12500000  0.12500000  1
  Cl  Cl26  1  0.62500000  0.78805112  0.62500000  1
  Cl  Cl27  1  0.12500000  0.96194888  0.62500000  1
  Cl  Cl28  1  0.62500000  0.12500000  0.28805112  1
  Cl  Cl29  1  0.62500000  0.62500000  0.46194888  1
  Cl  Cl30  1  0.37500000  0.03805112  0.87500000  1
  Cl  Cl31  1  0.37500000  0.21194888  0.37500000  1
  Cl  Cl32  1  0.03805112  0.37500000  0.87500000  1
  Cl  Cl33  1  0.21194888  0.87500000  0.87500000  1
  Cl  Cl34  1  0.37500000  0.37500000  0.21194888  1
  Cl  Cl35  1  0.87500000  0.37500000  0.03805112  1
  Cl  Cl36  1  0.28805112  0.62500000  0.12500000  1
  Cl  Cl37  1  0.46194888  0.62500000  0.62500000  1
  Cl  Cl38  1  0.62500000  0.28805112  0.12500000  1
  Cl  Cl39  1  0.12500000  0.46194888  0.12500000  1
  Cl  Cl40  1  0.62500000  0.62500000  0.78805112  1
  Cl  Cl41  1  0.62500000  0.12500000  0.96194888  1
  Cl  Cl42  1  0.37500000  0.53805112  0.37500000  1
  Cl  Cl43  1  0.37500000  0.71194888  0.87500000  1
  Cl  Cl44  1  0.03805112  0.87500000  0.37500000  1
  Cl  Cl45  1  0.21194888  0.37500000  0.37500000  1
  Cl  Cl46  1  0.37500000  0.87500000  0.71194888  1
  Cl  Cl47  1  0.87500000  0.87500000  0.53805112  1
  K  K48  1  0.00000000  0.85407144  -0.85407144  1
  K  K49  1  0.75000000  -0.60407144  -0.35407144  1
  K  K50  1  0.25000000  1.35407144  1.60407144  1
  K  K51  1  0.50000000  -0.10407144  1.10407144  1
  K  K52  1  -0.85407144  0.00000000  0.85407144  1
  K  K53  1  -0.35407144  0.75000000  -0.60407144  1
  K  K54  1  1.60407144  0.25000000  1.35407144  1
  K  K55  1  1.10407144  0.50000000  -0.10407144  1
  K  K56  1  0.85407144  -0.85407144  0.00000000  1
  K  K57  1  -0.60407144  -0.35407144  0.75000000  1
  K  K58  1  1.35407144  1.60407144  0.25000000  1
  K  K59  1  -0.10407144  1.10407144  0.50000000  1
  K  K60  1  0.00000000  -0.85407144  0.85407144  1
  K  K61  1  0.25000000  1.60407144  1.35407144  1
  K  K62  1  0.75000000  -0.35407144  -0.60407144  1
  K  K63  1  0.50000000  1.10407144  -0.10407144  1
  K  K64  1  0.85407144  -0.00000000  -0.85407144  1
  K  K65  1  1.35407144  0.25000000  1.60407144  1
  K  K66  1  -0.60407144  0.75000000  -0.35407144  1
  K  K67  1  -0.10407144  0.50000000  1.10407144  1
  K  K68  1  -0.85407144  0.85407144  0.00000000  1
  K  K69  1  1.60407144  1.35407144  0.25000000  1
  K  K70  1  -0.35407144  -0.60407144  0.75000000  1
  K  K71  1  1.10407144  -0.10407144  0.50000000  1
  K  K72  1  0.00000000  1.35407144  -0.35407144  1
  K  K73  1  0.75000000  -0.10407144  0.14592856  1
  K  K74  1  0.25000000  1.85407144  2.10407144  1
  K  K75  1  0.50000000  0.39592856  1.60407144  1
  K  K76  1  -0.85407144  0.50000000  1.35407144  1
  K  K77  1  -0.35407144  1.25000000  -0.10407144  1
  K  K78  1  1.60407144  0.75000000  1.85407144  1
  K  K79  1  1.10407144  1.00000000  0.39592856  1
  K  K80  1  0.85407144  -0.35407144  0.50000000  1
  K  K81  1  -0.60407144  0.14592856  1.25000000  1
  K  K82  1  1.35407144  2.10407144  0.75000000  1
  K  K83  1  -0.10407144  1.60407144  1.00000000  1
  K  K84  1  0.00000000  -0.35407144  1.35407144  1
  K  K85  1  0.25000000  2.10407144  1.85407144  1
  K  K86  1  0.75000000  0.14592856  -0.10407144  1
  K  K87  1  0.50000000  1.60407144  0.39592856  1
  K  K88  1  0.85407144  0.50000000  -0.35407144  1
  K  K89  1  1.35407144  0.75000000  2.10407144  1
  K  K90  1  -0.60407144  1.25000000  0.14592856  1
  K  K91  1  -0.10407144  1.00000000  1.60407144  1
  K  K92  1  -0.85407144  1.35407144  0.50000000  1
  K  K93  1  1.60407144  1.85407144  0.75000000  1
  K  K94  1  -0.35407144  -0.10407144  1.25000000  1
  K  K95  1  1.10407144  0.39592856  1.00000000  1
  K  K96  1  0.50000000  0.85407144  -0.35407144  1
  K  K97  1  1.25000000  -0.60407144  0.14592856  1
  K  K98  1  0.75000000  1.35407144  2.10407144  1
  K  K99  1  1.00000000  -0.10407144  1.60407144  1
  K  K100  1  -0.35407144  -0.00000000  1.35407144  1
  K  K101  1  0.14592856  0.75000000  -0.10407144  1
  K  K102  1  2.10407144  0.25000000  1.85407144  1
  K  K103  1  1.60407144  0.50000000  0.39592856  1
  K  K104  1  1.35407144  -0.85407144  0.50000000  1
  K  K105  1  -0.10407144  -0.35407144  1.25000000  1
  K  K106  1  1.85407144  1.60407144  0.75000000  1
  K  K107  1  0.39592856  1.10407144  1.00000000  1
  K  K108  1  0.50000000  -0.85407144  1.35407144  1
  K  K109  1  0.75000000  1.60407144  1.85407144  1
  K  K110  1  1.25000000  -0.35407144  -0.10407144  1
  K  K111  1  1.00000000  1.10407144  0.39592856  1
  K  K112  1  1.35407144  0.00000000  -0.35407144  1
  K  K113  1  1.85407144  0.25000000  2.10407144  1
  K  K114  1  -0.10407144  0.75000000  0.14592856  1
  K  K115  1  0.39592856  0.50000000  1.60407144  1
  K  K116  1  -0.35407144  0.85407144  0.50000000  1
  K  K117  1  2.10407144  1.35407144  0.75000000  1
  K  K118  1  0.14592856  -0.60407144  1.25000000  1
  K  K119  1  1.60407144  -0.10407144  1.00000000  1
  K  K120  1  0.50000000  1.35407144  -0.85407144  1
  K  K121  1  1.25000000  -0.10407144  -0.35407144  1
  K  K122  1  0.75000000  1.85407144  1.60407144  1
  K  K123  1  1.00000000  0.39592856  1.10407144  1
  K  K124  1  -0.35407144  0.50000000  0.85407144  1
  K  K125  1  0.14592856  1.25000000  -0.60407144  1
  K  K126  1  2.10407144  0.75000000  1.35407144  1
  K  K127  1  1.60407144  1.00000000  -0.10407144  1
  K  K128  1  1.35407144  -0.35407144  -0.00000000  1
  K  K129  1  -0.10407144  0.14592856  0.75000000  1
  K  K130  1  1.85407144  2.10407144  0.25000000  1
  K  K131  1  0.39592856  1.60407144  0.50000000  1
  K  K132  1  0.50000000  -0.35407144  0.85407144  1
  K  K133  1  0.75000000  2.10407144  1.35407144  1
  K  K134  1  1.25000000  0.14592856  -0.60407144  1
  K  K135  1  1.00000000  1.60407144  -0.10407144  1
  K  K136  1  1.35407144  0.50000000  -0.85407144  1
  K  K137  1  1.85407144  0.75000000  1.60407144  1
  K  K138  1  -0.10407144  1.25000000  -0.35407144  1
  K  K139  1  0.39592856  1.00000000  1.10407144  1
  K  K140  1  -0.35407144  1.35407144  0.00000000  1
  K  K141  1  2.10407144  1.85407144  0.25000000  1
  K  K142  1  0.14592856  -0.10407144  0.75000000  1
  K  K143  1  1.60407144  0.39592856  0.50000000  1
  K  K144  1  0.00000000  0.00000000  0.00000000  1
  K  K145  1  0.75000000  0.25000000  0.50000000  1
  K  K146  1  0.25000000  0.50000000  0.75000000  1
  K  K147  1  0.50000000  0.75000000  0.25000000  1
  K  K148  1  0.00000000  0.50000000  0.50000000  1
  K  K149  1  0.75000000  0.75000000  0.00000000  1
  K  K150  1  0.25000000  0.00000000  0.25000000  1
  K  K151  1  0.50000000  0.25000000  0.75000000  1
  K  K152  1  0.50000000  0.00000000  0.50000000  1
  K  K153  1  0.25000000  0.25000000  0.00000000  1
  K  K154  1  0.75000000  0.50000000  0.25000000  1
  K  K155  1  0.00000000  0.75000000  0.75000000  1
  K  K156  1  0.50000000  0.50000000  0.00000000  1
  K  K157  1  0.25000000  0.75000000  0.50000000  1
  K  K158  1  0.75000000  0.00000000  0.75000000  1
  K  K159  1  0.00000000  0.25000000  0.25000000  1
  K  K160  1  0.12500000  0.12500000  0.12500000  1
  K  K161  1  0.87500000  0.37500000  0.37500000  1
  K  K162  1  0.12500000  0.62500000  0.62500000  1
  K  K163  1  0.87500000  0.87500000  0.87500000  1
  K  K164  1  0.62500000  0.12500000  0.62500000  1
  K  K165  1  0.37500000  0.37500000  0.87500000  1
  K  K166  1  0.62500000  0.62500000  0.12500000  1
  K  K167  1  0.37500000  0.87500000  0.37500000  1
  K  K168  1  0.50000000  0.50000000  0.50000000  1
  K  K169  1  0.25000000  0.75000000  0.00000000  1
  K  K170  1  0.75000000  0.00000000  0.25000000  1
  K  K171  1  0.00000000  0.25000000  0.75000000  1
  K  K172  1  0.50000000  0.00000000  0.00000000  1
  K  K173  1  0.25000000  0.25000000  0.50000000  1
  K  K174  1  0.75000000  0.50000000  0.75000000  1
  K  K175  1  0.00000000  0.75000000  0.25000000  1
  K  K176  1  0.00000000  0.50000000  0.00000000  1
  K  K177  1  0.75000000  0.75000000  0.50000000  1
  K  K178  1  0.25000000  0.00000000  0.75000000  1
  K  K179  1  0.50000000  0.25000000  0.25000000  1
  K  K180  1  0.00000000  0.00000000  0.50000000  1
  K  K181  1  0.75000000  0.25000000  -0.00000000  1
  K  K182  1  0.25000000  0.50000000  0.25000000  1
  K  K183  1  0.50000000  0.75000000  0.75000000  1
  K  K184  1  0.37500000  0.37500000  0.37500000  1
  K  K185  1  0.12500000  0.62500000  0.12500000  1
  K  K186  1  0.37500000  0.87500000  0.87500000  1
  K  K187  1  0.12500000  0.12500000  0.62500000  1
  K  K188  1  0.87500000  0.37500000  0.87500000  1
  K  K189  1  0.62500000  0.62500000  0.62500000  1
  K  K190  1  0.87500000  0.87500000  0.37500000  1
  K  K191  1  0.62500000  0.12500000  0.12500000  1
  O  O192  1  0.54463864  0.12500000  0.12500000  1
  O  O193  1  0.20536136  0.12500000  0.62500000  1
  O  O194  1  0.12500000  0.54463864  0.12500000  1
  O  O195  1  0.62500000  0.20536136  0.12500000  1
  O  O196  1  0.12500000  0.12500000  0.54463864  1
  O  O197  1  0.12500000  0.62500000  0.20536136  1
  O  O198  1  0.87500000  0.79463864  0.37500000  1
  O  O199  1  0.87500000  0.45536136  0.87500000  1
  O  O200  1  0.29463864  0.37500000  0.37500000  1
  O  O201  1  0.95536136  0.87500000  0.37500000  1
  O  O202  1  0.87500000  0.37500000  0.95536136  1
  O  O203  1  0.37500000  0.37500000  0.29463864  1
  O  O204  1  0.54463864  0.62500000  0.62500000  1
  O  O205  1  0.20536136  0.62500000  0.12500000  1
  O  O206  1  0.12500000  0.04463864  0.62500000  1
  O  O207  1  0.62500000  0.70536136  0.62500000  1
  O  O208  1  0.12500000  0.62500000  0.04463864  1
  O  O209  1  0.12500000  0.12500000  0.70536136  1
  O  O210  1  0.87500000  0.29463864  0.87500000  1
  O  O211  1  0.87500000  0.95536136  0.37500000  1
  O  O212  1  0.29463864  0.87500000  0.87500000  1
  O  O213  1  0.95536136  0.37500000  0.87500000  1
  O  O214  1  0.87500000  0.87500000  0.45536136  1
  O  O215  1  0.37500000  0.87500000  0.79463864  1
  O  O216  1  0.04463864  0.12500000  0.62500000  1
  O  O217  1  0.70536136  0.12500000  0.12500000  1
  O  O218  1  0.62500000  0.54463864  0.62500000  1
  O  O219  1  0.12500000  0.20536136  0.62500000  1
  O  O220  1  0.62500000  0.12500000  0.04463864  1
  O  O221  1  0.62500000  0.62500000  0.70536136  1
  O  O222  1  0.37500000  0.79463864  0.87500000  1
  O  O223  1  0.37500000  0.45536136  0.37500000  1
  O  O224  1  0.79463864  0.37500000  0.87500000  1
  O  O225  1  0.45536136  0.87500000  0.87500000  1
  O  O226  1  0.37500000  0.37500000  0.45536136  1
  O  O227  1  0.87500000  0.37500000  0.79463864  1
  O  O228  1  0.04463864  0.62500000  0.12500000  1
  O  O229  1  0.70536136  0.62500000  0.62500000  1
  O  O230  1  0.62500000  0.04463864  0.12500000  1
  O  O231  1  0.12500000  0.70536136  0.12500000  1
  O  O232  1  0.62500000  0.62500000  0.54463864  1
  O  O233  1  0.62500000  0.12500000  0.20536136  1
  O  O234  1  0.37500000  0.29463864  0.37500000  1
  O  O235  1  0.37500000  0.95536136  0.87500000  1
  O  O236  1  0.79463864  0.87500000  0.37500000  1
  O  O237  1  0.45536136  0.37500000  0.37500000  1
  O  O238  1  0.37500000  0.87500000  0.95536136  1
  O  O239  1  0.87500000  0.87500000  0.29463864  1
