# generated using pymatgen
data_Li4Mg3(IBr)3
_symmetry_space_group_name_H-M   'P 1'
_cell_length_a   3.71644876
_cell_length_b   4.28860989
_cell_length_c   6.40821240
_cell_angle_alpha   119.58594032
_cell_angle_beta   98.36298033
_cell_angle_gamma   90.33006107
_symmetry_Int_Tables_number   1
_chemical_formula_structural   Li4Mg3(IBr)3
_chemical_formula_sum   'Li4 Mg3 I3 Br3'
_cell_volume   87.51732439
_cell_formula_units_Z   1
loop_
 _symmetry_equiv_pos_site_id
 _symmetry_equiv_pos_as_xyz
  1  'x, y, z'
loop_
 _atom_site_type_symbol
 _atom_site_label
 _atom_site_symmetry_multiplicity
 _atom_site_fract_x
 _atom_site_fract_y
 _atom_site_fract_z
 _atom_site_occupancy
  Li  Li0  1  0.00000000  0.00000000  0.00000000  1
  Li  Li1  1  0.33300000  0.66700000  0.25000000  1
  Li  Li2  1  0.66700000  0.33300000  0.50000000  1
  Li  Li3  1  0.00000000  0.00000000  0.75000000  1
  Mg  Mg4  1  0.92427916  0.91015400  0.13443330  1
  Mg  Mg5  1  0.13619428  0.67459090  0.10964322  1
  Mg  Mg6  1  0.46013013  0.26012552  0.74654627  1
  Br  Br7  1  0.89603007  0.64970715  0.03947628  1
  Br  Br8  1  0.07394531  0.40586856  0.90760974  1
  Br  Br9  1  0.40978242  0.48032610  0.05889708  1
  I  I10  1  0.55243839  0.13271439  0.15861901  1
  I  I11  1  0.60403725  0.15270099  0.19284730  1
  I  I12  1  0.01258370  0.80340357  0.98856291  1
