# generated using pymatgen
data_Li4Cu2As4F3
_symmetry_space_group_name_H-M   'P 1'
_cell_length_a   3.39142540
_cell_length_b   3.37349401
_cell_length_c   5.45509388
_cell_angle_alpha   116.63553537
_cell_angle_beta   98.25180561
_cell_angle_gamma   115.78748822
_symmetry_Int_Tables_number   1
_chemical_formula_structural   Li4Cu2As4F3
_chemical_formula_sum   'Li4 Cu2 As4 F3'
_cell_volume   45.57223400
_cell_formula_units_Z   1
loop_
 _symmetry_equiv_pos_site_id
 _symmetry_equiv_pos_as_xyz
  1  'x, y, z'
loop_
 _atom_site_type_symbol
 _atom_site_label
 _atom_site_symmetry_multiplicity
 _atom_site_fract_x
 _atom_site_fract_y
 _atom_site_fract_z
 _atom_site_occupancy
  Li  Li0  1  0.00000000  0.00000000  0.00000000  1
  Li  Li1  1  0.33300000  0.66700000  0.25000000  1
  Li  Li2  1  0.66700000  0.33300000  0.50000000  1
  Li  Li3  1  0.00000000  0.00000000  0.75000000  1
  Cu  Cu4  1  0.02372438  0.38822653  0.69209264  1
  Cu  Cu5  1  0.67900644  0.46493004  0.49598008  1
  F  F6  1  0.96314058  0.67289559  0.88700606  1
  F  F7  1  0.62275319  0.94947245  0.89930667  1
  F  F8  1  0.88132128  0.43183826  0.59236866  1
  As  As9  1  0.99191501  0.31482843  0.62644648  1
  As  As10  1  0.13150487  0.30182415  0.97586060  1
  As  As11  1  0.28676618  0.06520674  0.40430546  1
  As  As12  1  0.37789951  0.66232821  0.87397718  1
