# generated using pymatgen
data_Li2Mg2Se3
_symmetry_space_group_name_H-M   'P 1'
_cell_length_a   14.95328880
_cell_length_b   14.95328880
_cell_length_c   14.95328880
_cell_angle_alpha   90.00000000
_cell_angle_beta   90.00000000
_cell_angle_gamma   90.00000000
_symmetry_Int_Tables_number   1
_chemical_formula_structural   Li2Mg2Se3
_chemical_formula_sum   'Li48 Mg48 Se72'
_cell_volume   3343.56802635
_cell_formula_units_Z   24
loop_
 _symmetry_equiv_pos_site_id
 _symmetry_equiv_pos_as_xyz
  1  'x, y, z'
loop_
 _atom_site_type_symbol
 _atom_site_label
 _atom_site_symmetry_multiplicity
 _atom_site_fract_x
 _atom_site_fract_y
 _atom_site_fract_z
 _atom_site_occupancy
  Li  Li0  1  0.84351896  0.25000000  0.25000000  1
  Li  Li1  1  0.15648104  0.75000000  0.25000000  1
  Li  Li2  1  0.25000000  0.84351896  0.25000000  1
  Li  Li3  1  0.25000000  0.15648104  0.75000000  1
  Li  Li4  1  0.25000000  0.25000000  0.84351896  1
  Li  Li5  1  0.75000000  0.25000000  0.15648104  1
  Li  Li6  1  0.84351896  0.75000000  0.75000000  1
  Li  Li7  1  0.15648104  0.25000000  0.75000000  1
  Li  Li8  1  0.25000000  0.34351896  0.75000000  1
  Li  Li9  1  0.25000000  0.65648104  0.25000000  1
  Li  Li10  1  0.25000000  0.75000000  0.34351896  1
  Li  Li11  1  0.75000000  0.75000000  0.65648104  1
  Li  Li12  1  0.34351896  0.25000000  0.75000000  1
  Li  Li13  1  0.65648104  0.75000000  0.75000000  1
  Li  Li14  1  0.75000000  0.84351896  0.75000000  1
  Li  Li15  1  0.75000000  0.15648104  0.25000000  1
  Li  Li16  1  0.75000000  0.25000000  0.34351896  1
  Li  Li17  1  0.25000000  0.25000000  0.65648104  1
  Li  Li18  1  0.34351896  0.75000000  0.25000000  1
  Li  Li19  1  0.65648104  0.25000000  0.25000000  1
  Li  Li20  1  0.75000000  0.34351896  0.25000000  1
  Li  Li21  1  0.75000000  0.65648104  0.75000000  1
  Li  Li22  1  0.75000000  0.75000000  0.84351896  1
  Li  Li23  1  0.25000000  0.75000000  0.15648104  1
  Li  Li24  1  0.44442893  0.25000000  0.25000000  1
  Li  Li25  1  0.55557107  0.75000000  0.25000000  1
  Li  Li26  1  0.25000000  0.44442893  0.25000000  1
  Li  Li27  1  0.25000000  0.55557107  0.75000000  1
  Li  Li28  1  0.25000000  0.25000000  0.44442893  1
  Li  Li29  1  0.75000000  0.25000000  0.55557107  1
  Li  Li30  1  0.44442893  0.75000000  0.75000000  1
  Li  Li31  1  0.55557107  0.25000000  0.75000000  1
  Li  Li32  1  0.25000000  0.94442893  0.75000000  1
  Li  Li33  1  0.25000000  0.05557107  0.25000000  1
  Li  Li34  1  0.25000000  0.75000000  0.94442893  1
  Li  Li35  1  0.75000000  0.75000000  0.05557107  1
  Li  Li36  1  0.94442893  0.25000000  0.75000000  1
  Li  Li37  1  0.05557107  0.75000000  0.75000000  1
  Li  Li38  1  0.75000000  0.44442893  0.75000000  1
  Li  Li39  1  0.75000000  0.55557107  0.25000000  1
  Li  Li40  1  0.75000000  0.25000000  0.94442893  1
  Li  Li41  1  0.25000000  0.25000000  0.05557107  1
  Li  Li42  1  0.94442893  0.75000000  0.25000000  1
  Li  Li43  1  0.05557107  0.25000000  0.25000000  1
  Li  Li44  1  0.75000000  0.94442893  0.25000000  1
  Li  Li45  1  0.75000000  0.05557107  0.75000000  1
  Li  Li46  1  0.75000000  0.75000000  0.44442893  1
  Li  Li47  1  0.25000000  0.75000000  0.55557107  1
  Mg  Mg48  1  0.50000000  0.50000000  0.50000000  1
  Mg  Mg49  1  0.50000000  0.00000000  0.00000000  1
  Mg  Mg50  1  0.00000000  0.50000000  0.00000000  1
  Mg  Mg51  1  0.00000000  0.00000000  0.50000000  1
  Mg  Mg52  1  0.25712728  0.00000000  0.00000000  1
  Mg  Mg53  1  0.74287272  -0.00000000  -0.00000000  1
  Mg  Mg54  1  0.00000000  0.25712728  0.00000000  1
  Mg  Mg55  1  0.00000000  0.74287272  -0.00000000  1
  Mg  Mg56  1  0.00000000  0.00000000  0.25712728  1
  Mg  Mg57  1  0.00000000  0.00000000  0.74287272  1
  Mg  Mg58  1  0.25712728  0.50000000  0.50000000  1
  Mg  Mg59  1  0.74287272  0.50000000  0.50000000  1
  Mg  Mg60  1  0.00000000  0.75712728  0.50000000  1
  Mg  Mg61  1  0.00000000  0.24287272  0.50000000  1
  Mg  Mg62  1  0.00000000  0.50000000  0.75712728  1
  Mg  Mg63  1  0.00000000  0.50000000  0.24287272  1
  Mg  Mg64  1  0.75712728  0.00000000  0.50000000  1
  Mg  Mg65  1  0.24287272  0.00000000  0.50000000  1
  Mg  Mg66  1  0.50000000  0.25712728  0.50000000  1
  Mg  Mg67  1  0.50000000  0.74287272  0.50000000  1
  Mg  Mg68  1  0.50000000  0.00000000  0.75712728  1
  Mg  Mg69  1  0.50000000  0.00000000  0.24287272  1
  Mg  Mg70  1  0.75712728  0.50000000  0.00000000  1
  Mg  Mg71  1  0.24287272  0.50000000  -0.00000000  1
  Mg  Mg72  1  0.50000000  0.75712728  0.00000000  1
  Mg  Mg73  1  0.50000000  0.24287272  -0.00000000  1
  Mg  Mg74  1  0.50000000  0.50000000  0.25712728  1
  Mg  Mg75  1  0.50000000  0.50000000  0.74287272  1
  Mg  Mg76  1  0.25000000  0.25000000  0.25000000  1
  Mg  Mg77  1  0.25000000  0.75000000  0.75000000  1
  Mg  Mg78  1  0.75000000  0.25000000  0.75000000  1
  Mg  Mg79  1  0.75000000  0.75000000  0.25000000  1
  Mg  Mg80  1  0.09910059  0.09910059  0.09910059  1
  Mg  Mg81  1  0.90089941  0.90089941  0.09910059  1
  Mg  Mg82  1  0.90089941  0.09910059  0.90089941  1
  Mg  Mg83  1  0.09910059  0.90089941  0.90089941  1
  Mg  Mg84  1  0.09910059  0.59910059  0.59910059  1
  Mg  Mg85  1  0.90089941  0.40089941  0.59910059  1
  Mg  Mg86  1  0.90089941  0.59910059  0.40089941  1
  Mg  Mg87  1  0.09910059  0.40089941  0.40089941  1
  Mg  Mg88  1  0.59910059  0.09910059  0.59910059  1
  Mg  Mg89  1  0.40089941  0.90089941  0.59910059  1
  Mg  Mg90  1  0.40089941  0.09910059  0.40089941  1
  Mg  Mg91  1  0.59910059  0.90089941  0.40089941  1
  Mg  Mg92  1  0.59910059  0.59910059  0.09910059  1
  Mg  Mg93  1  0.40089941  0.40089941  0.09910059  1
  Mg  Mg94  1  0.40089941  0.59910059  0.90089941  1
  Mg  Mg95  1  0.59910059  0.40089941  0.90089941  1
  Se  Se96  1  0.89559656  0.89559656  0.74561500  1
  Se  Se97  1  -0.89559656  -0.89559656  0.74561500  1
  Se  Se98  1  -0.89559656  0.89559656  -0.74561500  1
  Se  Se99  1  0.89559656  -0.89559656  -0.74561500  1
  Se  Se100  1  0.74561500  0.89559656  0.89559656  1
  Se  Se101  1  0.74561500  -0.89559656  -0.89559656  1
  Se  Se102  1  -0.74561500  -0.89559656  0.89559656  1
  Se  Se103  1  -0.74561500  0.89559656  -0.89559656  1
  Se  Se104  1  0.89559656  0.74561500  0.89559656  1
  Se  Se105  1  -0.89559656  0.74561500  -0.89559656  1
  Se  Se106  1  0.89559656  -0.74561500  -0.89559656  1
  Se  Se107  1  -0.89559656  -0.74561500  0.89559656  1
  Se  Se108  1  0.89559656  1.39559656  1.24561500  1
  Se  Se109  1  -0.89559656  -0.39559656  1.24561500  1
  Se  Se110  1  -0.89559656  1.39559656  -0.24561500  1
  Se  Se111  1  0.89559656  -0.39559656  -0.24561500  1
  Se  Se112  1  0.74561500  1.39559656  1.39559656  1
  Se  Se113  1  0.74561500  -0.39559656  -0.39559656  1
  Se  Se114  1  -0.74561500  -0.39559656  1.39559656  1
  Se  Se115  1  -0.74561500  1.39559656  -0.39559656  1
  Se  Se116  1  0.89559656  1.24561500  1.39559656  1
  Se  Se117  1  -0.89559656  1.24561500  -0.39559656  1
  Se  Se118  1  0.89559656  -0.24561500  -0.39559656  1
  Se  Se119  1  -0.89559656  -0.24561500  1.39559656  1
  Se  Se120  1  1.39559656  0.89559656  1.24561500  1
  Se  Se121  1  -0.39559656  -0.89559656  1.24561500  1
  Se  Se122  1  -0.39559656  0.89559656  -0.24561500  1
  Se  Se123  1  1.39559656  -0.89559656  -0.24561500  1
  Se  Se124  1  1.24561500  0.89559656  1.39559656  1
  Se  Se125  1  1.24561500  -0.89559656  -0.39559656  1
  Se  Se126  1  -0.24561500  -0.89559656  1.39559656  1
  Se  Se127  1  -0.24561500  0.89559656  -0.39559656  1
  Se  Se128  1  1.39559656  0.74561500  1.39559656  1
  Se  Se129  1  -0.39559656  0.74561500  -0.39559656  1
  Se  Se130  1  1.39559656  -0.74561500  -0.39559656  1
  Se  Se131  1  -0.39559656  -0.74561500  1.39559656  1
  Se  Se132  1  1.39559656  1.39559656  0.74561500  1
  Se  Se133  1  -0.39559656  -0.39559656  0.74561500  1
  Se  Se134  1  -0.39559656  1.39559656  -0.74561500  1
  Se  Se135  1  1.39559656  -0.39559656  -0.74561500  1
  Se  Se136  1  1.24561500  1.39559656  0.89559656  1
  Se  Se137  1  1.24561500  -0.39559656  -0.89559656  1
  Se  Se138  1  -0.24561500  -0.39559656  0.89559656  1
  Se  Se139  1  -0.24561500  1.39559656  -0.89559656  1
  Se  Se140  1  1.39559656  1.24561500  0.89559656  1
  Se  Se141  1  -0.39559656  1.24561500  -0.89559656  1
  Se  Se142  1  1.39559656  -0.24561500  -0.89559656  1
  Se  Se143  1  -0.39559656  -0.24561500  0.89559656  1
  Se  Se144  1  0.75000000  0.75000000  0.75000000  1
  Se  Se145  1  0.75000000  0.25000000  0.25000000  1
  Se  Se146  1  0.25000000  0.75000000  0.25000000  1
  Se  Se147  1  0.25000000  0.25000000  0.75000000  1
  Se  Se148  1  0.38132434  0.38132434  0.38132434  1
  Se  Se149  1  0.61867566  0.61867566  0.38132434  1
  Se  Se150  1  0.61867566  0.38132434  0.61867566  1
  Se  Se151  1  0.38132434  0.61867566  0.61867566  1
  Se  Se152  1  0.38132434  0.88132434  0.88132434  1
  Se  Se153  1  0.61867566  0.11867566  0.88132434  1
  Se  Se154  1  0.61867566  0.88132434  0.11867566  1
  Se  Se155  1  0.38132434  0.11867566  0.11867566  1
  Se  Se156  1  0.88132434  0.38132434  0.88132434  1
  Se  Se157  1  0.11867566  0.61867566  0.88132434  1
  Se  Se158  1  0.11867566  0.38132434  0.11867566  1
  Se  Se159  1  0.88132434  0.61867566  0.11867566  1
  Se  Se160  1  0.88132434  0.88132434  0.38132434  1
  Se  Se161  1  0.11867566  0.11867566  0.38132434  1
  Se  Se162  1  0.11867566  0.88132434  0.61867566  1
  Se  Se163  1  0.88132434  0.11867566  0.61867566  1
  Se  Se164  1  0.00000000  0.00000000  0.00000000  1
  Se  Se165  1  0.00000000  0.50000000  0.50000000  1
  Se  Se166  1  0.50000000  0.00000000  0.50000000  1
  Se  Se167  1  0.50000000  0.50000000  -0.00000000  1
