# generated using pymatgen
data_Li12SnSe8
_symmetry_space_group_name_H-M   'P 1'
_cell_length_a   6.05139802
_cell_length_b   6.05139802
_cell_length_c   14.86721486
_cell_angle_alpha   90.00000000
_cell_angle_beta   90.00000000
_cell_angle_gamma   90.00000000
_symmetry_Int_Tables_number   1
_chemical_formula_structural   Li12SnSe8
_chemical_formula_sum   'Li24 Sn2 Se16'
_cell_volume   544.42875582
_cell_formula_units_Z   2
loop_
 _symmetry_equiv_pos_site_id
 _symmetry_equiv_pos_as_xyz
  1  'x, y, z'
loop_
 _atom_site_type_symbol
 _atom_site_label
 _atom_site_symmetry_multiplicity
 _atom_site_fract_x
 _atom_site_fract_y
 _atom_site_fract_z
 _atom_site_occupancy
  Li  Li0  1  0.00000000  0.50000000  0.50000000  1
  Li  Li1  1  0.50000000  0.00000000  0.50000000  1
  Li  Li2  1  0.00000000  0.00000000  0.71675116  1
  Li  Li3  1  0.00000000  0.00000000  0.28324884  1
  Li  Li4  1  0.22781977  0.50000000  0.15598439  1
  Li  Li5  1  0.77218023  0.50000000  0.15598439  1
  Li  Li6  1  0.50000000  0.22781977  0.15598439  1
  Li  Li7  1  0.50000000  0.77218023  0.15598439  1
  Li  Li8  1  0.77218023  0.50000000  0.84401561  1
  Li  Li9  1  0.22781977  0.50000000  0.84401561  1
  Li  Li10  1  0.50000000  0.22781977  0.84401561  1
  Li  Li11  1  0.50000000  0.77218023  0.84401561  1
  Li  Li12  1  0.00000000  0.50000000  0.77577936  1
  Li  Li13  1  0.50000000  0.00000000  0.77577936  1
  Li  Li14  1  0.00000000  0.50000000  0.22422064  1
  Li  Li15  1  0.50000000  0.00000000  0.22422064  1
  Li  Li16  1  0.00000000  0.00000000  0.44207433  1
  Li  Li17  1  0.00000000  0.00000000  0.55792567  1
  Li  Li18  1  0.29034426  0.29034426  0.00000000  1
  Li  Li19  1  0.70965574  0.70965574  0.00000000  1
  Li  Li20  1  0.70965574  0.29034426  0.00000000  1
  Li  Li21  1  0.29034426  0.70965574  0.00000000  1
  Li  Li22  1  0.50000000  0.50000000  0.63599265  1
  Li  Li23  1  0.50000000  0.50000000  0.36400735  1
  Se  Se24  1  0.24540421  0.50000000  0.05230083  1
  Se  Se25  1  -0.24540421  0.50000000  0.05230083  1
  Se  Se26  1  0.50000000  0.24540421  0.05230083  1
  Se  Se27  1  0.50000000  -0.24540421  0.05230083  1
  Se  Se28  1  -0.24540421  0.50000000  -0.05230083  1
  Se  Se29  1  0.24540421  0.50000000  -0.05230083  1
  Se  Se30  1  0.50000000  0.24540421  -0.05230083  1
  Se  Se31  1  0.50000000  -0.24540421  -0.05230083  1
  Se  Se32  1  0.85590421  0.85590421  0.37599033  1
  Se  Se33  1  0.14409579  0.14409579  0.37599033  1
  Se  Se34  1  0.14409579  0.85590421  0.37599033  1
  Se  Se35  1  0.85590421  0.14409579  0.37599033  1
  Se  Se36  1  0.14409579  0.85590421  0.62400967  1
  Se  Se37  1  0.85590421  0.14409579  0.62400967  1
  Se  Se38  1  0.85590421  0.85590421  0.62400967  1
  Se  Se39  1  0.14409579  0.14409579  0.62400967  1
  Sn  Sn40  1  0.00000000  0.50000000  0.00000000  1
  Sn  Sn41  1  0.50000000  0.00000000  0.00000000  1
