# generated using pymatgen
data_Li6GaMo2F4
_symmetry_space_group_name_H-M   'P 1'
_cell_length_a   3.24335866
_cell_length_b   2.59510999
_cell_length_c   5.08149729
_cell_angle_alpha   96.83850529
_cell_angle_beta   111.43509644
_cell_angle_gamma   105.62890725
_symmetry_Int_Tables_number   1
_chemical_formula_structural   Li6GaMo2F4
_chemical_formula_sum   'Li6 Ga1 Mo2 F4'
_cell_volume   37.19407198
_cell_formula_units_Z   1
loop_
 _symmetry_equiv_pos_site_id
 _symmetry_equiv_pos_as_xyz
  1  'x, y, z'
loop_
 _atom_site_type_symbol
 _atom_site_label
 _atom_site_symmetry_multiplicity
 _atom_site_fract_x
 _atom_site_fract_y
 _atom_site_fract_z
 _atom_site_occupancy
  Li  Li0  1  0.00000000  0.00000000  0.00000000  1
  Li  Li1  1  0.33300000  0.66700000  0.25000000  1
  Li  Li2  1  0.66700000  0.33300000  0.50000000  1
  Li  Li3  1  0.00000000  0.00000000  0.75000000  1
  Li  Li4  1  0.81078885  0.03486227  0.81095532  1
  Li  Li5  1  0.82411236  0.25380014  0.36157964  1
  Mo  Mo6  1  0.10889932  0.56602817  0.31466862  1
  Mo  Mo7  1  0.85991357  0.51076093  0.99847002  1
  F  F8  1  0.55265054  0.48197687  0.91037899  1
  F  F9  1  0.38397907  0.65444813  0.01107708  1
  F  F10  1  0.58811658  0.30085045  0.15377881  1
  F  F11  1  0.89004923  0.44979762  0.48081945  1
  Ga  Ga12  1  0.06770565  0.04228566  0.41154368  1
