# generated using pymatgen
data_LiLaZrSi2Br
_symmetry_space_group_name_H-M   'P 1'
_cell_length_a   12.97419482
_cell_length_b   10.55749555
_cell_length_c   15.30032344
_cell_angle_alpha   90.00000000
_cell_angle_beta   90.00000000
_cell_angle_gamma   90.00000000
_symmetry_Int_Tables_number   1
_chemical_formula_structural   LiLaZrSi2Br
_chemical_formula_sum   'Li1 La1 Zr1 Si2 Br1'
_cell_volume   2095.76186693
_cell_formula_units_Z   1
loop_
 _symmetry_equiv_pos_site_id
 _symmetry_equiv_pos_as_xyz
  1  'x, y, z'
loop_
 _atom_site_type_symbol
 _atom_site_label
 _atom_site_symmetry_multiplicity
 _atom_site_fract_x
 _atom_site_fract_y
 _atom_site_fract_z
 _atom_site_occupancy
  Li  Li0  1  0.12500000  0.00000000  0.25000000  1
  La  La1  1  0.00000000  0.00000000  0.00000000  1
  Zr  Zr2  1  0.37500000  0.00000000  0.25000000  1
  Si  Si3  1  0.25000000  0.25000000  0.25000000  1
  Si  Si4  1  0.00000000  0.25000000  0.12500000  1
  Br  Br5  1  0.81759360  0.39426881  0.08281954  1
