# generated using pymatgen
data_LiCl
_symmetry_space_group_name_H-M   'P 1'
_cell_length_a   15.27019731
_cell_length_b   15.27019731
_cell_length_c   12.12812220
_cell_angle_alpha   90.00000000
_cell_angle_beta   90.00000000
_cell_angle_gamma   120.00000000
_symmetry_Int_Tables_number   1
_chemical_formula_structural   LiCl
_chemical_formula_sum   'Li72 Cl72'
_cell_volume   2449.13933218
_cell_formula_units_Z   72
loop_
 _symmetry_equiv_pos_site_id
 _symmetry_equiv_pos_as_xyz
  1  'x, y, z'
loop_
 _atom_site_type_symbol
 _atom_site_label
 _atom_site_symmetry_multiplicity
 _atom_site_fract_x
 _atom_site_fract_y
 _atom_site_fract_z
 _atom_site_occupancy
  Cl  Cl0  1  0.00000000  0.00000000  0.00000000  1
  Cl  Cl1  1  0.00000000  0.00000000  0.50000000  1
  Cl  Cl2  1  0.33333333  0.66666667  0.50259476  1
  Cl  Cl3  1  0.66666667  0.33333333  0.00259476  1
  Cl  Cl4  1  0.66666667  0.33333333  0.49740524  1
  Cl  Cl5  1  0.33333333  0.66666667  0.99740524  1
  Cl  Cl6  1  0.14226554  0.00000000  -0.00000000  1
  Cl  Cl7  1  0.00000000  0.14226554  0.00000000  1
  Cl  Cl8  1  0.85773446  0.85773446  0.00000000  1
  Cl  Cl9  1  0.85773446  0.00000000  0.50000000  1
  Cl  Cl10  1  0.00000000  0.85773446  0.50000000  1
  Cl  Cl11  1  0.14226554  0.14226554  0.50000000  1
  Cl  Cl12  1  0.85773446  0.00000000  -0.00000000  1
  Cl  Cl13  1  0.00000000  0.85773446  0.00000000  1
  Cl  Cl14  1  0.14226554  0.14226554  -0.00000000  1
  Cl  Cl15  1  0.14226554  0.00000000  0.50000000  1
  Cl  Cl16  1  0.00000000  0.14226554  0.50000000  1
  Cl  Cl17  1  0.85773446  0.85773446  0.50000000  1
  Cl  Cl18  1  0.07938706  0.15877412  0.25000000  1
  Cl  Cl19  1  0.84122588  0.92061294  0.25000000  1
  Cl  Cl20  1  0.07938706  0.92061294  0.25000000  1
  Cl  Cl21  1  0.92061294  0.84122588  0.75000000  1
  Cl  Cl22  1  0.15877412  0.07938706  0.75000000  1
  Cl  Cl23  1  0.92061294  0.07938706  0.75000000  1
  Cl  Cl24  1  0.08490561  0.16981122  0.07011426  1
  Cl  Cl25  1  0.83018878  0.91509439  0.07011426  1
  Cl  Cl26  1  0.08490561  0.91509439  0.07011426  1
  Cl  Cl27  1  0.91509439  0.83018878  0.57011426  1
  Cl  Cl28  1  0.16981122  0.08490561  0.57011426  1
  Cl  Cl29  1  0.91509439  0.08490561  0.57011426  1
  Cl  Cl30  1  0.16981122  0.08490561  0.92988574  1
  Cl  Cl31  1  0.91509439  0.83018878  0.92988574  1
  Cl  Cl32  1  0.91509439  0.08490561  0.92988574  1
  Cl  Cl33  1  0.83018878  0.91509439  0.42988574  1
  Cl  Cl34  1  0.08490561  0.16981122  0.42988574  1
  Cl  Cl35  1  0.08490561  0.91509439  0.42988574  1
  Cl  Cl36  1  0.37531096  0.93401539  0.00625738  1
  Cl  Cl37  1  -0.93401539  -0.55870444  0.00625738  1
  Cl  Cl38  1  0.55870444  -0.37531096  0.00625738  1
  Cl  Cl39  1  -0.37531096  -0.93401539  0.50625738  1
  Cl  Cl40  1  0.93401539  0.55870444  0.50625738  1
  Cl  Cl41  1  -0.55870444  0.37531096  0.50625738  1
  Cl  Cl42  1  0.93401539  0.37531096  -0.00625738  1
  Cl  Cl43  1  -0.55870444  -0.93401539  -0.00625738  1
  Cl  Cl44  1  -0.37531096  0.55870444  -0.00625738  1
  Cl  Cl45  1  -0.93401539  -0.37531096  0.49374262  1
  Cl  Cl46  1  0.55870444  0.93401539  0.49374262  1
  Cl  Cl47  1  0.37531096  -0.55870444  0.49374262  1
  Cl  Cl48  1  -0.37531096  -0.93401539  -0.00625738  1
  Cl  Cl49  1  0.93401539  0.55870444  -0.00625738  1
  Cl  Cl50  1  -0.55870444  0.37531096  -0.00625738  1
  Cl  Cl51  1  0.37531096  0.93401539  0.49374262  1
  Cl  Cl52  1  -0.93401539  -0.55870444  0.49374262  1
  Cl  Cl53  1  0.55870444  -0.37531096  0.49374262  1
  Cl  Cl54  1  -0.93401539  -0.37531096  0.00625738  1
  Cl  Cl55  1  0.55870444  0.93401539  0.00625738  1
  Cl  Cl56  1  0.37531096  -0.55870444  0.00625738  1
  Cl  Cl57  1  0.93401539  0.37531096  0.50625738  1
  Cl  Cl58  1  -0.55870444  -0.93401539  0.50625738  1
  Cl  Cl59  1  -0.37531096  0.55870444  0.50625738  1
  Cl  Cl60  1  0.07069374  0.27952672  0.25000000  1
  Cl  Cl61  1  0.72047328  0.79116703  0.25000000  1
  Cl  Cl62  1  0.20883297  0.92930626  0.25000000  1
  Cl  Cl63  1  0.92930626  0.72047328  0.75000000  1
  Cl  Cl64  1  0.27952672  0.20883297  0.75000000  1
  Cl  Cl65  1  0.79116703  0.07069374  0.75000000  1
  Cl  Cl66  1  0.27952672  0.07069374  0.75000000  1
  Cl  Cl67  1  0.79116703  0.72047328  0.75000000  1
  Cl  Cl68  1  0.92930626  0.20883297  0.75000000  1
  Cl  Cl69  1  0.72047328  0.92930626  0.25000000  1
  Cl  Cl70  1  0.20883297  0.27952672  0.25000000  1
  Cl  Cl71  1  0.07069374  0.79116703  0.25000000  1
  Li  Li72  1  0.00000000  0.00000000  0.25000000  1
  Li  Li73  1  0.00000000  0.00000000  0.75000000  1
  Li  Li74  1  0.26141848  0.00000000  -0.00000000  1
  Li  Li75  1  0.00000000  0.26141848  0.00000000  1
  Li  Li76  1  0.73858152  0.73858152  -0.00000000  1
  Li  Li77  1  0.73858152  0.00000000  0.50000000  1
  Li  Li78  1  0.00000000  0.73858152  0.50000000  1
  Li  Li79  1  0.26141848  0.26141848  0.50000000  1
  Li  Li80  1  0.73858152  0.00000000  -0.00000000  1
  Li  Li81  1  0.00000000  0.73858152  0.00000000  1
  Li  Li82  1  0.26141848  0.26141848  -0.00000000  1
  Li  Li83  1  0.26141848  0.00000000  0.50000000  1
  Li  Li84  1  0.00000000  0.26141848  0.50000000  1
  Li  Li85  1  0.73858152  0.73858152  0.50000000  1
  Li  Li86  1  0.80117922  0.75963337  0.25000000  1
  Li  Li87  1  0.24036663  0.04154585  0.25000000  1
  Li  Li88  1  0.95845415  0.19882078  0.25000000  1
  Li  Li89  1  0.19882078  0.24036663  0.75000000  1
  Li  Li90  1  0.75963337  0.95845415  0.75000000  1
  Li  Li91  1  0.04154585  0.80117922  0.75000000  1
  Li  Li92  1  0.75963337  0.80117922  0.75000000  1
  Li  Li93  1  0.04154585  0.24036663  0.75000000  1
  Li  Li94  1  0.19882078  0.95845415  0.75000000  1
  Li  Li95  1  0.24036663  0.19882078  0.25000000  1
  Li  Li96  1  0.95845415  0.75963337  0.25000000  1
  Li  Li97  1  0.80117922  0.04154585  0.25000000  1
  Li  Li98  1  0.82146998  0.64293997  0.61643330  1
  Li  Li99  1  0.35706003  0.17853002  0.61643330  1
  Li  Li100  1  0.82146998  0.17853002  0.61643330  1
  Li  Li101  1  0.17853002  0.35706003  0.11643330  1
  Li  Li102  1  0.64293997  0.82146998  0.11643330  1
  Li  Li103  1  0.17853002  0.82146998  0.11643330  1
  Li  Li104  1  0.64293997  0.82146998  0.38356670  1
  Li  Li105  1  0.17853002  0.35706003  0.38356670  1
  Li  Li106  1  0.17853002  0.82146998  0.38356670  1
  Li  Li107  1  0.35706003  0.17853002  0.88356670  1
  Li  Li108  1  0.82146998  0.64293997  0.88356670  1
  Li  Li109  1  0.82146998  0.17853002  0.88356670  1
  Li  Li110  1  0.91329219  0.53403597  0.39252558  1
  Li  Li111  1  0.46596403  0.37925623  0.39252558  1
  Li  Li112  1  0.62074377  0.08670781  0.39252558  1
  Li  Li113  1  0.08670781  0.46596403  0.89252558  1
  Li  Li114  1  0.53403597  0.62074377  0.89252558  1
  Li  Li115  1  0.37925623  0.91329219  0.89252558  1
  Li  Li116  1  0.53403597  0.91329219  0.60747442  1
  Li  Li117  1  0.37925623  0.46596403  0.60747442  1
  Li  Li118  1  0.08670781  0.62074377  0.60747442  1
  Li  Li119  1  0.46596403  0.08670781  0.10747442  1
  Li  Li120  1  0.62074377  0.53403597  0.10747442  1
  Li  Li121  1  0.91329219  0.37925623  0.10747442  1
  Li  Li122  1  0.08670781  0.46596403  0.60747442  1
  Li  Li123  1  0.53403597  0.62074377  0.60747442  1
  Li  Li124  1  0.37925623  0.91329219  0.60747442  1
  Li  Li125  1  0.91329219  0.53403597  0.10747442  1
  Li  Li126  1  0.46596403  0.37925623  0.10747442  1
  Li  Li127  1  0.62074377  0.08670781  0.10747442  1
  Li  Li128  1  0.46596403  0.08670781  0.39252558  1
  Li  Li129  1  0.62074377  0.53403597  0.39252558  1
  Li  Li130  1  0.91329219  0.37925623  0.39252558  1
  Li  Li131  1  0.53403597  0.91329219  0.89252558  1
  Li  Li132  1  0.37925623  0.46596403  0.89252558  1
  Li  Li133  1  0.08670781  0.62074377  0.89252558  1
  Li  Li134  1  0.50000000  0.00000000  -0.00000000  1
  Li  Li135  1  0.00000000  0.50000000  0.00000000  1
  Li  Li136  1  0.50000000  0.50000000  -0.00000000  1
  Li  Li137  1  0.50000000  0.00000000  0.50000000  1
  Li  Li138  1  0.00000000  0.50000000  0.50000000  1
  Li  Li139  1  0.50000000  0.50000000  0.50000000  1
  Li  Li140  1  0.33333333  0.66666667  0.39037362  1
  Li  Li141  1  0.66666667  0.33333333  0.89037362  1
  Li  Li142  1  0.66666667  0.33333333  0.60962638  1
  Li  Li143  1  0.33333333  0.66666667  0.10962638  1
