# generated using pymatgen
data_Li8SF6
_symmetry_space_group_name_H-M   'P 1'
_cell_length_a   12.45299234
_cell_length_b   6.04588621
_cell_length_c   5.79745064
_cell_angle_alpha   90.00000000
_cell_angle_beta   90.00000000
_cell_angle_gamma   90.00000000
_symmetry_Int_Tables_number   1
_chemical_formula_structural   Li8SF6
_chemical_formula_sum   'Li16 S2 F12'
_cell_volume   436.48643376
_cell_formula_units_Z   2
loop_
 _symmetry_equiv_pos_site_id
 _symmetry_equiv_pos_as_xyz
  1  'x, y, z'
loop_
 _atom_site_type_symbol
 _atom_site_label
 _atom_site_symmetry_multiplicity
 _atom_site_fract_x
 _atom_site_fract_y
 _atom_site_fract_z
 _atom_site_occupancy
  F  F0  1  0.86846340  0.30647582  0.80068172  1
  F  F1  1  -0.86846340  -0.30647582  0.80068172  1
  F  F2  1  -0.36846340  0.80647582  -0.80068172  1
  F  F3  1  1.36846340  0.19352418  -0.80068172  1
  F  F4  1  -0.86846340  -0.30647582  -0.80068172  1
  F  F5  1  0.86846340  0.30647582  -0.80068172  1
  F  F6  1  1.36846340  0.19352418  0.80068172  1
  F  F7  1  -0.36846340  0.80647582  0.80068172  1
  F  F8  1  0.27135890  0.71754900  0.00000000  1
  F  F9  1  0.72864110  0.28245100  0.00000000  1
  F  F10  1  0.22864110  0.21754900  -0.00000000  1
  F  F11  1  0.77135890  0.78245100  -0.00000000  1
  Li  Li12  1  0.00000000  0.00000000  0.00000000  1
  Li  Li13  1  0.50000000  0.50000000  -0.00000000  1
  Li  Li14  1  0.00000000  0.50000000  0.00000000  1
  Li  Li15  1  0.50000000  0.00000000  0.00000000  1
  Li  Li16  1  0.37132721  0.77482334  0.70083270  1
  Li  Li17  1  0.62867279  0.22517666  0.70083270  1
  Li  Li18  1  0.12867279  0.27482334  0.29916730  1
  Li  Li19  1  0.87132721  0.72517666  0.29916730  1
  Li  Li20  1  0.62867279  0.22517666  0.29916730  1
  Li  Li21  1  0.37132721  0.77482334  0.29916730  1
  Li  Li22  1  0.87132721  0.72517666  0.70083270  1
  Li  Li23  1  0.12867279  0.27482334  0.70083270  1
  Li  Li24  1  0.34484993  0.66894836  0.50000000  1
  Li  Li25  1  0.65515007  0.33105164  0.50000000  1
  Li  Li26  1  0.15515007  0.16894836  0.50000000  1
  Li  Li27  1  0.84484993  0.83105164  0.50000000  1
  S  S28  1  0.00000000  0.00000000  0.50000000  1
  S  S29  1  0.50000000  0.50000000  0.50000000  1
