# generated using pymatgen
data_K4Li8Zr(BrCl)8
_symmetry_space_group_name_H-M   'P 1'
_cell_length_a   13.43156194
_cell_length_b   13.43156194
_cell_length_c   34.80290714
_cell_angle_alpha   90.00000000
_cell_angle_beta   90.00000000
_cell_angle_gamma   90.00000000
_symmetry_Int_Tables_number   1
_chemical_formula_structural   K4Li8Zr(BrCl)8
_chemical_formula_sum   'K32 Li64 Zr8 Br64 Cl64'
_cell_volume   6278.68305990
_cell_formula_units_Z   8
loop_
 _symmetry_equiv_pos_site_id
 _symmetry_equiv_pos_as_xyz
  1  'x, y, z'
loop_
 _atom_site_type_symbol
 _atom_site_label
 _atom_site_symmetry_multiplicity
 _atom_site_fract_x
 _atom_site_fract_y
 _atom_site_fract_z
 _atom_site_occupancy
  Br  Br0  1  0.00000000  0.57623710  0.62171227  1
  Br  Br1  1  0.50000000  0.42376290  0.12171227  1
  Br  Br2  1  0.67376290  0.75000000  0.87171227  1
  Br  Br3  1  0.82623710  0.25000000  0.37171227  1
  Br  Br4  1  0.50000000  0.57623710  0.87828773  1
  Br  Br5  1  0.00000000  0.42376290  0.37828773  1
  Br  Br6  1  0.82623710  0.75000000  0.62828773  1
  Br  Br7  1  0.67376290  0.25000000  0.12828773  1
  Br  Br8  1  0.50000000  0.07623710  0.12171227  1
  Br  Br9  1  0.00000000  0.92376290  0.62171227  1
  Br  Br10  1  0.17376290  0.25000000  0.37171227  1
  Br  Br11  1  0.32623710  0.75000000  0.87171227  1
  Br  Br12  1  0.00000000  0.07623710  0.37828773  1
  Br  Br13  1  0.50000000  0.92376290  0.87828773  1
  Br  Br14  1  0.32623710  0.25000000  0.12828773  1
  Br  Br15  1  0.17376290  0.75000000  0.62828773  1
  Br  Br16  1  0.74471766  0.81738466  0.38010538  1
  Br  Br17  1  0.75528234  0.18261534  0.88010538  1
  Br  Br18  1  0.43261534  0.49471766  0.63010538  1
  Br  Br19  1  0.06738466  0.50528234  0.13010538  1
  Br  Br20  1  0.75528234  0.81738466  0.11989462  1
  Br  Br21  1  0.74471766  0.18261534  0.61989462  1
  Br  Br22  1  0.06738466  0.49471766  0.86989462  1
  Br  Br23  1  0.43261534  0.50528234  0.36989462  1
  Br  Br24  1  0.25528234  0.18261534  0.61989462  1
  Br  Br25  1  0.24471766  0.81738466  0.11989462  1
  Br  Br26  1  0.56738466  0.50528234  0.36989462  1
  Br  Br27  1  0.93261534  0.49471766  0.86989462  1
  Br  Br28  1  0.24471766  0.18261534  0.88010538  1
  Br  Br29  1  0.25528234  0.81738466  0.38010538  1
  Br  Br30  1  0.93261534  0.50528234  0.13010538  1
  Br  Br31  1  0.56738466  0.49471766  0.63010538  1
  Br  Br32  1  0.24471766  0.31738466  0.88010538  1
  Br  Br33  1  0.25528234  0.68261534  0.38010538  1
  Br  Br34  1  0.93261534  0.99471766  0.13010538  1
  Br  Br35  1  0.56738466  0.00528234  0.63010538  1
  Br  Br36  1  0.25528234  0.31738466  0.61989462  1
  Br  Br37  1  0.24471766  0.68261534  0.11989462  1
  Br  Br38  1  0.56738466  0.99471766  0.36989462  1
  Br  Br39  1  0.93261534  0.00528234  0.86989462  1
  Br  Br40  1  0.75528234  0.68261534  0.11989462  1
  Br  Br41  1  0.74471766  0.31738466  0.61989462  1
  Br  Br42  1  0.06738466  0.00528234  0.86989462  1
  Br  Br43  1  0.43261534  0.99471766  0.36989462  1
  Br  Br44  1  0.74471766  0.68261534  0.38010538  1
  Br  Br45  1  0.75528234  0.31738466  0.88010538  1
  Br  Br46  1  0.43261534  0.00528234  0.63010538  1
  Br  Br47  1  0.06738466  0.99471766  0.13010538  1
  Br  Br48  1  0.00000000  0.00000000  0.00000000  1
  Br  Br49  1  0.50000000  0.00000000  0.50000000  1
  Br  Br50  1  0.25000000  0.75000000  0.25000000  1
  Br  Br51  1  0.25000000  0.25000000  0.75000000  1
  Br  Br52  1  0.50000000  0.50000000  0.50000000  1
  Br  Br53  1  0.00000000  0.50000000  0.00000000  1
  Br  Br54  1  0.75000000  0.25000000  0.75000000  1
  Br  Br55  1  0.75000000  0.75000000  0.25000000  1
  Br  Br56  1  0.00000000  0.25000000  0.12150396  1
  Br  Br57  1  0.00000000  0.75000000  0.37150396  1
  Br  Br58  1  0.50000000  0.25000000  0.37849604  1
  Br  Br59  1  0.50000000  0.75000000  0.12849604  1
  Br  Br60  1  0.50000000  0.75000000  0.62150396  1
  Br  Br61  1  0.50000000  0.25000000  0.87150396  1
  Br  Br62  1  0.00000000  0.75000000  0.87849604  1
  Br  Br63  1  0.00000000  0.25000000  0.62849604  1
  Cl  Cl64  1  0.00000000  0.53970687  0.06223218  1
  Cl  Cl65  1  0.50000000  0.46029313  0.56223218  1
  Cl  Cl66  1  0.71029313  0.75000000  0.31223218  1
  Cl  Cl67  1  0.78970687  0.25000000  0.81223218  1
  Cl  Cl68  1  0.50000000  0.53970687  0.43776782  1
  Cl  Cl69  1  0.00000000  0.46029313  0.93776782  1
  Cl  Cl70  1  0.78970687  0.75000000  0.18776782  1
  Cl  Cl71  1  0.71029313  0.25000000  0.68776782  1
  Cl  Cl72  1  0.50000000  0.03970687  0.56223218  1
  Cl  Cl73  1  0.00000000  0.96029313  0.06223218  1
  Cl  Cl74  1  0.21029313  0.25000000  0.81223218  1
  Cl  Cl75  1  0.28970687  0.75000000  0.31223218  1
  Cl  Cl76  1  0.00000000  0.03970687  0.93776782  1
  Cl  Cl77  1  0.50000000  0.96029313  0.43776782  1
  Cl  Cl78  1  0.28970687  0.25000000  0.68776782  1
  Cl  Cl79  1  0.21029313  0.75000000  0.18776782  1
  Cl  Cl80  1  0.93623875  0.92325762  0.46814150  1
  Cl  Cl81  1  -0.43623875  -0.92325762  0.96814150  1
  Cl  Cl82  1  -0.67325762  1.68623875  0.71814150  1
  Cl  Cl83  1  1.17325762  -0.68623875  1.21814150  1
  Cl  Cl84  1  -0.43623875  0.92325762  0.03185850  1
  Cl  Cl85  1  0.93623875  -0.92325762  -0.46814150  1
  Cl  Cl86  1  1.17325762  1.68623875  -0.21814150  1
  Cl  Cl87  1  -0.67325762  -0.68623875  0.28185850  1
  Cl  Cl88  1  -0.93623875  -0.92325762  -0.46814150  1
  Cl  Cl89  1  1.43623875  0.92325762  0.03185850  1
  Cl  Cl90  1  1.67325762  -0.68623875  0.28185850  1
  Cl  Cl91  1  -0.17325762  1.68623875  -0.21814150  1
  Cl  Cl92  1  1.43623875  -0.92325762  0.96814150  1
  Cl  Cl93  1  -0.93623875  0.92325762  0.46814150  1
  Cl  Cl94  1  -0.17325762  -0.68623875  1.21814150  1
  Cl  Cl95  1  1.67325762  1.68623875  0.71814150  1
  Cl  Cl96  1  1.43623875  1.42325762  0.96814150  1
  Cl  Cl97  1  0.06376125  -0.42325762  1.46814150  1
  Cl  Cl98  1  -0.17325762  2.18623875  1.21814150  1
  Cl  Cl99  1  1.67325762  -0.18623875  1.71814150  1
  Cl  Cl100  1  0.06376125  1.42325762  0.53185850  1
  Cl  Cl101  1  1.43623875  -0.42325762  0.03185850  1
  Cl  Cl102  1  1.67325762  2.18623875  0.28185850  1
  Cl  Cl103  1  -0.17325762  -0.18623875  0.78185850  1
  Cl  Cl104  1  -0.43623875  -0.42325762  0.03185850  1
  Cl  Cl105  1  1.93623875  1.42325762  0.53185850  1
  Cl  Cl106  1  2.17325762  -0.18623875  0.78185850  1
  Cl  Cl107  1  0.32674238  2.18623875  0.28185850  1
  Cl  Cl108  1  1.93623875  -0.42325762  1.46814150  1
  Cl  Cl109  1  -0.43623875  1.42325762  0.96814150  1
  Cl  Cl110  1  0.32674238  -0.18623875  1.71814150  1
  Cl  Cl111  1  2.17325762  2.18623875  1.21814150  1
  Cl  Cl112  1  0.00000000  0.41811659  0.08407892  1
  Cl  Cl113  1  0.50000000  0.58188341  0.58407892  1
  Cl  Cl114  1  0.83188341  0.75000000  0.33407892  1
  Cl  Cl115  1  0.66811659  0.25000000  0.83407892  1
  Cl  Cl116  1  0.50000000  0.41811659  0.41592108  1
  Cl  Cl117  1  0.00000000  0.58188341  0.91592108  1
  Cl  Cl118  1  0.66811659  0.75000000  0.16592108  1
  Cl  Cl119  1  0.83188341  0.25000000  0.66592108  1
  Cl  Cl120  1  0.50000000  0.91811659  0.58407892  1
  Cl  Cl121  1  0.00000000  0.08188341  0.08407892  1
  Cl  Cl122  1  0.33188341  0.25000000  0.83407892  1
  Cl  Cl123  1  0.16811659  0.75000000  0.33407892  1
  Cl  Cl124  1  0.00000000  0.91811659  0.91592108  1
  Cl  Cl125  1  0.50000000  0.08188341  0.41592108  1
  Cl  Cl126  1  0.16811659  0.25000000  0.66592108  1
  Cl  Cl127  1  0.33188341  0.75000000  0.16592108  1
  K  K128  1  0.00000000  0.91116842  0.78071609  1
  K  K129  1  0.50000000  0.08883158  0.28071609  1
  K  K130  1  0.33883158  0.75000000  0.03071609  1
  K  K131  1  0.16116842  0.25000000  0.53071609  1
  K  K132  1  0.50000000  0.91116842  0.71928391  1
  K  K133  1  0.00000000  0.08883158  0.21928391  1
  K  K134  1  0.16116842  0.75000000  0.46928391  1
  K  K135  1  0.33883158  0.25000000  0.96928391  1
  K  K136  1  0.50000000  0.41116842  0.28071609  1
  K  K137  1  0.00000000  0.58883158  0.78071609  1
  K  K138  1  0.83883158  0.25000000  0.53071609  1
  K  K139  1  0.66116842  0.75000000  0.03071609  1
  K  K140  1  0.00000000  0.41116842  0.21928391  1
  K  K141  1  0.50000000  0.58883158  0.71928391  1
  K  K142  1  0.66116842  0.25000000  0.96928391  1
  K  K143  1  0.83883158  0.75000000  0.46928391  1
  K  K144  1  0.00000000  0.25000000  0.03484287  1
  K  K145  1  0.00000000  0.75000000  0.28484287  1
  K  K146  1  0.50000000  0.25000000  0.46515713  1
  K  K147  1  0.50000000  0.75000000  0.21515713  1
  K  K148  1  0.50000000  0.75000000  0.53484287  1
  K  K149  1  0.50000000  0.25000000  0.78484287  1
  K  K150  1  0.00000000  0.75000000  0.96515713  1
  K  K151  1  0.00000000  0.25000000  0.71515713  1
  K  K152  1  0.00000000  0.75000000  0.12500000  1
  K  K153  1  0.50000000  0.75000000  0.37500000  1
  K  K154  1  0.50000000  0.25000000  0.62500000  1
  K  K155  1  0.00000000  0.25000000  0.87500000  1
  K  K156  1  0.00000000  0.25000000  0.37500000  1
  K  K157  1  0.00000000  0.75000000  0.62500000  1
  K  K158  1  0.50000000  0.75000000  0.87500000  1
  K  K159  1  0.50000000  0.25000000  0.12500000  1
  Li  Li160  1  0.63827664  0.68715775  0.43941734  1
  Li  Li161  1  0.86172336  0.31284225  0.93941734  1
  Li  Li162  1  0.56284225  0.38827664  0.68941734  1
  Li  Li163  1  0.93715775  0.61172336  0.18941734  1
  Li  Li164  1  0.86172336  0.68715775  0.06058266  1
  Li  Li165  1  0.63827664  0.31284225  0.56058266  1
  Li  Li166  1  0.93715775  0.38827664  0.81058266  1
  Li  Li167  1  0.56284225  0.61172336  0.31058266  1
  Li  Li168  1  0.36172336  0.31284225  0.56058266  1
  Li  Li169  1  0.13827664  0.68715775  0.06058266  1
  Li  Li170  1  0.43715775  0.61172336  0.31058266  1
  Li  Li171  1  0.06284225  0.38827664  0.81058266  1
  Li  Li172  1  0.13827664  0.31284225  0.93941734  1
  Li  Li173  1  0.36172336  0.68715775  0.43941734  1
  Li  Li174  1  0.06284225  0.61172336  0.18941734  1
  Li  Li175  1  0.43715775  0.38827664  0.68941734  1
  Li  Li176  1  0.13827664  0.18715775  0.93941734  1
  Li  Li177  1  0.36172336  0.81284225  0.43941734  1
  Li  Li178  1  0.06284225  0.88827664  0.18941734  1
  Li  Li179  1  0.43715775  0.11172336  0.68941734  1
  Li  Li180  1  0.36172336  0.18715775  0.56058266  1
  Li  Li181  1  0.13827664  0.81284225  0.06058266  1
  Li  Li182  1  0.43715775  0.88827664  0.31058266  1
  Li  Li183  1  0.06284225  0.11172336  0.81058266  1
  Li  Li184  1  0.86172336  0.81284225  0.06058266  1
  Li  Li185  1  0.63827664  0.18715775  0.56058266  1
  Li  Li186  1  0.93715775  0.11172336  0.81058266  1
  Li  Li187  1  0.56284225  0.88827664  0.31058266  1
  Li  Li188  1  0.63827664  0.81284225  0.43941734  1
  Li  Li189  1  0.86172336  0.18715775  0.93941734  1
  Li  Li190  1  0.56284225  0.11172336  0.68941734  1
  Li  Li191  1  0.93715775  0.88827664  0.18941734  1
  Li  Li192  1  0.63866044  0.07822922  0.93342798  1
  Li  Li193  1  0.86133956  0.92177078  0.43342798  1
  Li  Li194  1  0.17177078  0.38866044  0.18342798  1
  Li  Li195  1  0.32822922  0.61133956  0.68342798  1
  Li  Li196  1  0.86133956  0.07822922  0.56657202  1
  Li  Li197  1  0.63866044  0.92177078  0.06657202  1
  Li  Li198  1  0.32822922  0.38866044  0.31657202  1
  Li  Li199  1  0.17177078  0.61133956  0.81657202  1
  Li  Li200  1  0.36133956  0.92177078  0.06657202  1
  Li  Li201  1  0.13866044  0.07822922  0.56657202  1
  Li  Li202  1  0.82822922  0.61133956  0.81657202  1
  Li  Li203  1  0.67177078  0.38866044  0.31657202  1
  Li  Li204  1  0.13866044  0.92177078  0.43342798  1
  Li  Li205  1  0.36133956  0.07822922  0.93342798  1
  Li  Li206  1  0.67177078  0.61133956  0.68342798  1
  Li  Li207  1  0.82822922  0.38866044  0.18342798  1
  Li  Li208  1  0.13866044  0.57822922  0.43342798  1
  Li  Li209  1  0.36133956  0.42177078  0.93342798  1
  Li  Li210  1  0.67177078  0.88866044  0.68342798  1
  Li  Li211  1  0.82822922  0.11133956  0.18342798  1
  Li  Li212  1  0.36133956  0.57822922  0.06657202  1
  Li  Li213  1  0.13866044  0.42177078  0.56657202  1
  Li  Li214  1  0.82822922  0.88866044  0.81657202  1
  Li  Li215  1  0.67177078  0.11133956  0.31657202  1
  Li  Li216  1  0.86133956  0.42177078  0.56657202  1
  Li  Li217  1  0.63866044  0.57822922  0.06657202  1
  Li  Li218  1  0.32822922  0.11133956  0.31657202  1
  Li  Li219  1  0.17177078  0.88866044  0.81657202  1
  Li  Li220  1  0.63866044  0.42177078  0.93342798  1
  Li  Li221  1  0.86133956  0.57822922  0.43342798  1
  Li  Li222  1  0.17177078  0.11133956  0.18342798  1
  Li  Li223  1  0.32822922  0.88866044  0.68342798  1
  Zr  Zr224  1  0.00000000  0.25000000  0.29925977  1
  Zr  Zr225  1  0.00000000  0.75000000  0.54925977  1
  Zr  Zr226  1  0.50000000  0.25000000  0.20074023  1
  Zr  Zr227  1  0.50000000  0.75000000  0.95074023  1
  Zr  Zr228  1  0.50000000  0.75000000  0.79925977  1
  Zr  Zr229  1  0.50000000  0.25000000  0.04925977  1
  Zr  Zr230  1  0.00000000  0.75000000  0.70074023  1
  Zr  Zr231  1  0.00000000  0.25000000  0.45074023  1
