# generated using pymatgen
data_LiTiSO2
_symmetry_space_group_name_H-M   'P 1'
_cell_length_a   4.21505664
_cell_length_b   4.43302473
_cell_length_c   4.23548870
_cell_angle_alpha   94.72874164
_cell_angle_beta   91.27343541
_cell_angle_gamma   88.54475036
_symmetry_Int_Tables_number   1
_chemical_formula_structural   LiTiSO2
_chemical_formula_sum   'Li1 Ti1 S1 O2'
_cell_volume   78.83109104
_cell_formula_units_Z   1
loop_
 _symmetry_equiv_pos_site_id
 _symmetry_equiv_pos_as_xyz
  1  'x, y, z'
loop_
 _atom_site_type_symbol
 _atom_site_label
 _atom_site_symmetry_multiplicity
 _atom_site_fract_x
 _atom_site_fract_y
 _atom_site_fract_z
 _atom_site_occupancy
  Li  Li0  1  0.00000000  0.00000000  0.00000000  1
  Ti  Ti1  1  0.50000000  0.50000000  0.50000000  1
  O  O2  1  0.50000000  0.50000000  0.00000000  1
  O  O3  1  0.50000000  0.00000000  0.50000000  1
  S  S4  1  0.00000000  0.50000000  0.50000000  1
