# generated using pymatgen
data_Na3LiHf3(SiO6)2
_symmetry_space_group_name_H-M   'P 1'
_cell_length_a   18.20322348
_cell_length_b   18.20322348
_cell_length_c   18.20322348
_cell_angle_alpha   90.00000000
_cell_angle_beta   90.00000000
_cell_angle_gamma   90.00000000
_symmetry_Int_Tables_number   1
_chemical_formula_structural   Na3LiHf3(SiO6)2
_chemical_formula_sum   'Na48 Li16 Hf48 Si32 O192'
_cell_volume   6031.77180867
_cell_formula_units_Z   16
loop_
 _symmetry_equiv_pos_site_id
 _symmetry_equiv_pos_as_xyz
  1  'x, y, z'
loop_
 _atom_site_type_symbol
 _atom_site_label
 _atom_site_symmetry_multiplicity
 _atom_site_fract_x
 _atom_site_fract_y
 _atom_site_fract_z
 _atom_site_occupancy
  Hf  Hf0  1  0.00000000  0.00000000  0.00000000  1
  Hf  Hf1  1  0.00000000  0.50000000  0.50000000  1
  Hf  Hf2  1  0.50000000  0.00000000  0.50000000  1
  Hf  Hf3  1  0.50000000  0.50000000  0.00000000  1
  Hf  Hf4  1  0.37131784  0.25000000  0.25000000  1
  Hf  Hf5  1  0.62868216  0.75000000  0.25000000  1
  Hf  Hf6  1  0.25000000  0.37131784  0.25000000  1
  Hf  Hf7  1  0.25000000  0.62868216  0.75000000  1
  Hf  Hf8  1  0.25000000  0.25000000  0.37131784  1
  Hf  Hf9  1  0.75000000  0.25000000  0.62868216  1
  Hf  Hf10  1  0.37131784  0.75000000  0.75000000  1
  Hf  Hf11  1  0.62868216  0.25000000  0.75000000  1
  Hf  Hf12  1  0.25000000  0.87131784  0.75000000  1
  Hf  Hf13  1  0.25000000  0.12868216  0.25000000  1
  Hf  Hf14  1  0.25000000  0.75000000  0.87131784  1
  Hf  Hf15  1  0.75000000  0.75000000  0.12868216  1
  Hf  Hf16  1  0.87131784  0.25000000  0.75000000  1
  Hf  Hf17  1  0.12868216  0.75000000  0.75000000  1
  Hf  Hf18  1  0.75000000  0.37131784  0.75000000  1
  Hf  Hf19  1  0.75000000  0.62868216  0.25000000  1
  Hf  Hf20  1  0.75000000  0.25000000  0.87131784  1
  Hf  Hf21  1  0.25000000  0.25000000  0.12868216  1
  Hf  Hf22  1  0.87131784  0.75000000  0.25000000  1
  Hf  Hf23  1  0.12868216  0.25000000  0.25000000  1
  Hf  Hf24  1  0.75000000  0.87131784  0.25000000  1
  Hf  Hf25  1  0.75000000  0.12868216  0.75000000  1
  Hf  Hf26  1  0.75000000  0.75000000  0.37131784  1
  Hf  Hf27  1  0.25000000  0.75000000  0.62868216  1
  Hf  Hf28  1  0.84893751  0.84893751  0.84893751  1
  Hf  Hf29  1  0.15106249  0.15106249  0.84893751  1
  Hf  Hf30  1  0.15106249  0.84893751  0.15106249  1
  Hf  Hf31  1  0.84893751  0.15106249  0.15106249  1
  Hf  Hf32  1  0.84893751  0.34893751  0.34893751  1
  Hf  Hf33  1  0.15106249  0.65106249  0.34893751  1
  Hf  Hf34  1  0.15106249  0.34893751  0.65106249  1
  Hf  Hf35  1  0.84893751  0.65106249  0.65106249  1
  Hf  Hf36  1  0.34893751  0.84893751  0.34893751  1
  Hf  Hf37  1  0.65106249  0.15106249  0.34893751  1
  Hf  Hf38  1  0.65106249  0.84893751  0.65106249  1
  Hf  Hf39  1  0.34893751  0.15106249  0.65106249  1
  Hf  Hf40  1  0.34893751  0.34893751  0.84893751  1
  Hf  Hf41  1  0.65106249  0.65106249  0.84893751  1
  Hf  Hf42  1  0.65106249  0.34893751  0.15106249  1
  Hf  Hf43  1  0.34893751  0.65106249  0.15106249  1
  Hf  Hf44  1  0.25000000  0.25000000  0.25000000  1
  Hf  Hf45  1  0.25000000  0.75000000  0.75000000  1
  Hf  Hf46  1  0.75000000  0.25000000  0.75000000  1
  Hf  Hf47  1  0.75000000  0.75000000  0.25000000  1
  Li  Li48  1  0.30779955  0.30779955  0.30779955  1
  Li  Li49  1  0.69220045  0.69220045  0.30779955  1
  Li  Li50  1  0.69220045  0.30779955  0.69220045  1
  Li  Li51  1  0.30779955  0.69220045  0.69220045  1
  Li  Li52  1  0.30779955  0.80779955  0.80779955  1
  Li  Li53  1  0.69220045  0.19220045  0.80779955  1
  Li  Li54  1  0.69220045  0.80779955  0.19220045  1
  Li  Li55  1  0.30779955  0.19220045  0.19220045  1
  Li  Li56  1  0.80779955  0.30779955  0.80779955  1
  Li  Li57  1  0.19220045  0.69220045  0.80779955  1
  Li  Li58  1  0.19220045  0.30779955  0.19220045  1
  Li  Li59  1  0.80779955  0.69220045  0.19220045  1
  Li  Li60  1  0.80779955  0.80779955  0.30779955  1
  Li  Li61  1  0.19220045  0.19220045  0.30779955  1
  Li  Li62  1  0.19220045  0.80779955  0.69220045  1
  Li  Li63  1  0.80779955  0.19220045  0.69220045  1
  Na  Na64  1  0.13842876  0.13842876  0.13842876  1
  Na  Na65  1  0.86157124  0.86157124  0.13842876  1
  Na  Na66  1  0.86157124  0.13842876  0.86157124  1
  Na  Na67  1  0.13842876  0.86157124  0.86157124  1
  Na  Na68  1  0.13842876  0.63842876  0.63842876  1
  Na  Na69  1  0.86157124  0.36157124  0.63842876  1
  Na  Na70  1  0.86157124  0.63842876  0.36157124  1
  Na  Na71  1  0.13842876  0.36157124  0.36157124  1
  Na  Na72  1  0.63842876  0.13842876  0.63842876  1
  Na  Na73  1  0.36157124  0.86157124  0.63842876  1
  Na  Na74  1  0.36157124  0.13842876  0.36157124  1
  Na  Na75  1  0.63842876  0.86157124  0.36157124  1
  Na  Na76  1  0.63842876  0.63842876  0.13842876  1
  Na  Na77  1  0.36157124  0.36157124  0.13842876  1
  Na  Na78  1  0.36157124  0.63842876  0.86157124  1
  Na  Na79  1  0.63842876  0.36157124  0.86157124  1
  Na  Na80  1  0.50000000  0.50000000  0.50000000  1
  Na  Na81  1  0.50000000  0.00000000  0.00000000  1
  Na  Na82  1  0.00000000  0.50000000  0.00000000  1
  Na  Na83  1  0.00000000  0.00000000  0.50000000  1
  Na  Na84  1  0.75000000  0.75000000  0.75000000  1
  Na  Na85  1  0.75000000  0.25000000  0.25000000  1
  Na  Na86  1  0.25000000  0.75000000  0.25000000  1
  Na  Na87  1  0.25000000  0.25000000  0.75000000  1
  Na  Na88  1  0.35479825  -0.00000000  -0.00000000  1
  Na  Na89  1  0.64520175  0.00000000  0.00000000  1
  Na  Na90  1  0.00000000  0.35479825  -0.00000000  1
  Na  Na91  1  0.00000000  0.64520175  0.00000000  1
  Na  Na92  1  0.00000000  0.00000000  0.35479825  1
  Na  Na93  1  0.00000000  0.00000000  0.64520175  1
  Na  Na94  1  0.35479825  0.50000000  0.50000000  1
  Na  Na95  1  0.64520175  0.50000000  0.50000000  1
  Na  Na96  1  0.00000000  0.85479825  0.50000000  1
  Na  Na97  1  0.00000000  0.14520175  0.50000000  1
  Na  Na98  1  0.00000000  0.50000000  0.85479825  1
  Na  Na99  1  0.00000000  0.50000000  0.14520175  1
  Na  Na100  1  0.85479825  0.00000000  0.50000000  1
  Na  Na101  1  0.14520175  -0.00000000  0.50000000  1
  Na  Na102  1  0.50000000  0.35479825  0.50000000  1
  Na  Na103  1  0.50000000  0.64520175  0.50000000  1
  Na  Na104  1  0.50000000  0.00000000  0.85479825  1
  Na  Na105  1  0.50000000  0.00000000  0.14520175  1
  Na  Na106  1  0.85479825  0.50000000  -0.00000000  1
  Na  Na107  1  0.14520175  0.50000000  0.00000000  1
  Na  Na108  1  0.50000000  0.85479825  0.00000000  1
  Na  Na109  1  0.50000000  0.14520175  0.00000000  1
  Na  Na110  1  0.50000000  0.50000000  0.35479825  1
  Na  Na111  1  0.50000000  0.50000000  0.64520175  1
  O  O112  1  0.53504518  0.53504518  0.89979379  1
  O  O113  1  0.46495482  0.46495482  0.89979379  1
  O  O114  1  0.46495482  0.53504518  0.10020621  1
  O  O115  1  0.53504518  0.46495482  0.10020621  1
  O  O116  1  0.89979379  0.53504518  0.53504518  1
  O  O117  1  0.89979379  0.46495482  0.46495482  1
  O  O118  1  0.10020621  0.46495482  0.53504518  1
  O  O119  1  0.10020621  0.53504518  0.46495482  1
  O  O120  1  0.53504518  0.89979379  0.53504518  1
  O  O121  1  0.46495482  0.89979379  0.46495482  1
  O  O122  1  0.53504518  0.10020621  0.46495482  1
  O  O123  1  0.46495482  0.10020621  0.53504518  1
  O  O124  1  0.53504518  0.03504518  0.39979379  1
  O  O125  1  0.46495482  0.96495482  0.39979379  1
  O  O126  1  0.46495482  0.03504518  0.60020621  1
  O  O127  1  0.53504518  0.96495482  0.60020621  1
  O  O128  1  0.89979379  0.03504518  0.03504518  1
  O  O129  1  0.89979379  0.96495482  0.96495482  1
  O  O130  1  0.10020621  0.96495482  0.03504518  1
  O  O131  1  0.10020621  0.03504518  0.96495482  1
  O  O132  1  0.53504518  0.39979379  0.03504518  1
  O  O133  1  0.46495482  0.39979379  0.96495482  1
  O  O134  1  0.53504518  0.60020621  0.96495482  1
  O  O135  1  0.46495482  0.60020621  0.03504518  1
  O  O136  1  0.03504518  0.53504518  0.39979379  1
  O  O137  1  0.96495482  0.46495482  0.39979379  1
  O  O138  1  0.96495482  0.53504518  0.60020621  1
  O  O139  1  0.03504518  0.46495482  0.60020621  1
  O  O140  1  0.39979379  0.53504518  0.03504518  1
  O  O141  1  0.39979379  0.46495482  0.96495482  1
  O  O142  1  0.60020621  0.46495482  0.03504518  1
  O  O143  1  0.60020621  0.53504518  0.96495482  1
  O  O144  1  0.03504518  0.89979379  0.03504518  1
  O  O145  1  0.96495482  0.89979379  0.96495482  1
  O  O146  1  0.03504518  0.10020621  0.96495482  1
  O  O147  1  0.96495482  0.10020621  0.03504518  1
  O  O148  1  0.03504518  0.03504518  0.89979379  1
  O  O149  1  0.96495482  0.96495482  0.89979379  1
  O  O150  1  0.96495482  0.03504518  0.10020621  1
  O  O151  1  0.03504518  0.96495482  0.10020621  1
  O  O152  1  0.39979379  0.03504518  0.53504518  1
  O  O153  1  0.39979379  0.96495482  0.46495482  1
  O  O154  1  0.60020621  0.96495482  0.53504518  1
  O  O155  1  0.60020621  0.03504518  0.46495482  1
  O  O156  1  0.03504518  0.39979379  0.53504518  1
  O  O157  1  0.96495482  0.39979379  0.46495482  1
  O  O158  1  0.03504518  0.60020621  0.46495482  1
  O  O159  1  0.96495482  0.60020621  0.53504518  1
  O  O160  1  0.73010373  0.69734767  0.02133698  1
  O  O161  1  -0.73010373  -0.69734767  0.02133698  1
  O  O162  1  -0.73010373  0.69734767  -0.02133698  1
  O  O163  1  0.73010373  -0.69734767  -0.02133698  1
  O  O164  1  0.02133698  0.73010373  0.69734767  1
  O  O165  1  0.02133698  -0.73010373  -0.69734767  1
  O  O166  1  -0.02133698  -0.73010373  0.69734767  1
  O  O167  1  -0.02133698  0.73010373  -0.69734767  1
  O  O168  1  0.69734767  0.02133698  0.73010373  1
  O  O169  1  -0.69734767  0.02133698  -0.73010373  1
  O  O170  1  0.69734767  -0.02133698  -0.73010373  1
  O  O171  1  -0.69734767  -0.02133698  0.73010373  1
  O  O172  1  0.69734767  0.73010373  0.02133698  1
  O  O173  1  -0.69734767  -0.73010373  0.02133698  1
  O  O174  1  0.69734767  -0.73010373  -0.02133698  1
  O  O175  1  -0.69734767  0.73010373  -0.02133698  1
  O  O176  1  0.73010373  0.02133698  0.69734767  1
  O  O177  1  -0.73010373  0.02133698  -0.69734767  1
  O  O178  1  -0.73010373  -0.02133698  0.69734767  1
  O  O179  1  0.73010373  -0.02133698  -0.69734767  1
  O  O180  1  0.02133698  0.69734767  0.73010373  1
  O  O181  1  0.02133698  -0.69734767  -0.73010373  1
  O  O182  1  -0.02133698  0.69734767  -0.73010373  1
  O  O183  1  -0.02133698  -0.69734767  0.73010373  1
  O  O184  1  0.73010373  1.19734767  0.52133698  1
  O  O185  1  -0.73010373  -0.19734767  0.52133698  1
  O  O186  1  -0.73010373  1.19734767  0.47866302  1
  O  O187  1  0.73010373  -0.19734767  0.47866302  1
  O  O188  1  0.02133698  1.23010373  1.19734767  1
  O  O189  1  0.02133698  -0.23010373  -0.19734767  1
  O  O190  1  -0.02133698  -0.23010373  1.19734767  1
  O  O191  1  -0.02133698  1.23010373  -0.19734767  1
  O  O192  1  0.69734767  0.52133698  1.23010373  1
  O  O193  1  -0.69734767  0.52133698  -0.23010373  1
  O  O194  1  0.69734767  0.47866302  -0.23010373  1
  O  O195  1  -0.69734767  0.47866302  1.23010373  1
  O  O196  1  0.69734767  1.23010373  0.52133698  1
  O  O197  1  -0.69734767  -0.23010373  0.52133698  1
  O  O198  1  0.69734767  -0.23010373  0.47866302  1
  O  O199  1  -0.69734767  1.23010373  0.47866302  1
  O  O200  1  0.73010373  0.52133698  1.19734767  1
  O  O201  1  -0.73010373  0.52133698  -0.19734767  1
  O  O202  1  -0.73010373  0.47866302  1.19734767  1
  O  O203  1  0.73010373  0.47866302  -0.19734767  1
  O  O204  1  0.02133698  1.19734767  1.23010373  1
  O  O205  1  0.02133698  -0.19734767  -0.23010373  1
  O  O206  1  -0.02133698  1.19734767  -0.23010373  1
  O  O207  1  -0.02133698  -0.19734767  1.23010373  1
  O  O208  1  1.23010373  0.69734767  0.52133698  1
  O  O209  1  -0.23010373  -0.69734767  0.52133698  1
  O  O210  1  -0.23010373  0.69734767  0.47866302  1
  O  O211  1  1.23010373  -0.69734767  0.47866302  1
  O  O212  1  0.52133698  0.73010373  1.19734767  1
  O  O213  1  0.52133698  -0.73010373  -0.19734767  1
  O  O214  1  0.47866302  -0.73010373  1.19734767  1
  O  O215  1  0.47866302  0.73010373  -0.19734767  1
  O  O216  1  1.19734767  0.02133698  1.23010373  1
  O  O217  1  -0.19734767  0.02133698  -0.23010373  1
  O  O218  1  1.19734767  -0.02133698  -0.23010373  1
  O  O219  1  -0.19734767  -0.02133698  1.23010373  1
  O  O220  1  1.19734767  0.73010373  0.52133698  1
  O  O221  1  -0.19734767  -0.73010373  0.52133698  1
  O  O222  1  1.19734767  -0.73010373  0.47866302  1
  O  O223  1  -0.19734767  0.73010373  0.47866302  1
  O  O224  1  1.23010373  0.02133698  1.19734767  1
  O  O225  1  -0.23010373  0.02133698  -0.19734767  1
  O  O226  1  -0.23010373  -0.02133698  1.19734767  1
  O  O227  1  1.23010373  -0.02133698  -0.19734767  1
  O  O228  1  0.52133698  0.69734767  1.23010373  1
  O  O229  1  0.52133698  -0.69734767  -0.23010373  1
  O  O230  1  0.47866302  0.69734767  -0.23010373  1
  O  O231  1  0.47866302  -0.69734767  1.23010373  1
  O  O232  1  1.23010373  1.19734767  0.02133698  1
  O  O233  1  -0.23010373  -0.19734767  0.02133698  1
  O  O234  1  -0.23010373  1.19734767  -0.02133698  1
  O  O235  1  1.23010373  -0.19734767  -0.02133698  1
  O  O236  1  0.52133698  1.23010373  0.69734767  1
  O  O237  1  0.52133698  -0.23010373  -0.69734767  1
  O  O238  1  0.47866302  -0.23010373  0.69734767  1
  O  O239  1  0.47866302  1.23010373  -0.69734767  1
  O  O240  1  1.19734767  0.52133698  0.73010373  1
  O  O241  1  -0.19734767  0.52133698  -0.73010373  1
  O  O242  1  1.19734767  0.47866302  -0.73010373  1
  O  O243  1  -0.19734767  0.47866302  0.73010373  1
  O  O244  1  1.19734767  1.23010373  0.02133698  1
  O  O245  1  -0.19734767  -0.23010373  0.02133698  1
  O  O246  1  1.19734767  -0.23010373  -0.02133698  1
  O  O247  1  -0.19734767  1.23010373  -0.02133698  1
  O  O248  1  1.23010373  0.52133698  0.69734767  1
  O  O249  1  -0.23010373  0.52133698  -0.69734767  1
  O  O250  1  -0.23010373  0.47866302  0.69734767  1
  O  O251  1  1.23010373  0.47866302  -0.69734767  1
  O  O252  1  0.52133698  1.19734767  0.73010373  1
  O  O253  1  0.52133698  -0.19734767  -0.73010373  1
  O  O254  1  0.47866302  1.19734767  -0.73010373  1
  O  O255  1  0.47866302  -0.19734767  0.73010373  1
  O  O256  1  0.85175982  0.85175982  0.24426009  1
  O  O257  1  0.14824018  0.14824018  0.24426009  1
  O  O258  1  0.14824018  0.85175982  0.75573991  1
  O  O259  1  0.85175982  0.14824018  0.75573991  1
  O  O260  1  0.24426009  0.85175982  0.85175982  1
  O  O261  1  0.24426009  0.14824018  0.14824018  1
  O  O262  1  0.75573991  0.14824018  0.85175982  1
  O  O263  1  0.75573991  0.85175982  0.14824018  1
  O  O264  1  0.85175982  0.24426009  0.85175982  1
  O  O265  1  0.14824018  0.24426009  0.14824018  1
  O  O266  1  0.85175982  0.75573991  0.14824018  1
  O  O267  1  0.14824018  0.75573991  0.85175982  1
  O  O268  1  0.85175982  0.35175982  0.74426009  1
  O  O269  1  0.14824018  0.64824018  0.74426009  1
  O  O270  1  0.14824018  0.35175982  0.25573991  1
  O  O271  1  0.85175982  0.64824018  0.25573991  1
  O  O272  1  0.24426009  0.35175982  0.35175982  1
  O  O273  1  0.24426009  0.64824018  0.64824018  1
  O  O274  1  0.75573991  0.64824018  0.35175982  1
  O  O275  1  0.75573991  0.35175982  0.64824018  1
  O  O276  1  0.85175982  0.74426009  0.35175982  1
  O  O277  1  0.14824018  0.74426009  0.64824018  1
  O  O278  1  0.85175982  0.25573991  0.64824018  1
  O  O279  1  0.14824018  0.25573991  0.35175982  1
  O  O280  1  0.35175982  0.85175982  0.74426009  1
  O  O281  1  0.64824018  0.14824018  0.74426009  1
  O  O282  1  0.64824018  0.85175982  0.25573991  1
  O  O283  1  0.35175982  0.14824018  0.25573991  1
  O  O284  1  0.74426009  0.85175982  0.35175982  1
  O  O285  1  0.74426009  0.14824018  0.64824018  1
  O  O286  1  0.25573991  0.14824018  0.35175982  1
  O  O287  1  0.25573991  0.85175982  0.64824018  1
  O  O288  1  0.35175982  0.24426009  0.35175982  1
  O  O289  1  0.64824018  0.24426009  0.64824018  1
  O  O290  1  0.35175982  0.75573991  0.64824018  1
  O  O291  1  0.64824018  0.75573991  0.35175982  1
  O  O292  1  0.35175982  0.35175982  0.24426009  1
  O  O293  1  0.64824018  0.64824018  0.24426009  1
  O  O294  1  0.64824018  0.35175982  0.75573991  1
  O  O295  1  0.35175982  0.64824018  0.75573991  1
  O  O296  1  0.74426009  0.35175982  0.85175982  1
  O  O297  1  0.74426009  0.64824018  0.14824018  1
  O  O298  1  0.25573991  0.64824018  0.85175982  1
  O  O299  1  0.25573991  0.35175982  0.14824018  1
  O  O300  1  0.35175982  0.74426009  0.85175982  1
  O  O301  1  0.64824018  0.74426009  0.14824018  1
  O  O302  1  0.35175982  0.25573991  0.14824018  1
  O  O303  1  0.64824018  0.25573991  0.85175982  1
  Si  Si304  1  0.91244362  0.91244362  0.91244362  1
  Si  Si305  1  0.08755638  0.08755638  0.91244362  1
  Si  Si306  1  0.08755638  0.91244362  0.08755638  1
  Si  Si307  1  0.91244362  0.08755638  0.08755638  1
  Si  Si308  1  0.91244362  0.41244362  0.41244362  1
  Si  Si309  1  0.08755638  0.58755638  0.41244362  1
  Si  Si310  1  0.08755638  0.41244362  0.58755638  1
  Si  Si311  1  0.91244362  0.58755638  0.58755638  1
  Si  Si312  1  0.41244362  0.91244362  0.41244362  1
  Si  Si313  1  0.58755638  0.08755638  0.41244362  1
  Si  Si314  1  0.58755638  0.91244362  0.58755638  1
  Si  Si315  1  0.41244362  0.08755638  0.58755638  1
  Si  Si316  1  0.41244362  0.41244362  0.91244362  1
  Si  Si317  1  0.58755638  0.58755638  0.91244362  1
  Si  Si318  1  0.58755638  0.41244362  0.08755638  1
  Si  Si319  1  0.41244362  0.58755638  0.08755638  1
  Si  Si320  1  0.94909729  0.94909729  0.94909729  1
  Si  Si321  1  0.05090271  0.05090271  0.94909729  1
  Si  Si322  1  0.05090271  0.94909729  0.05090271  1
  Si  Si323  1  0.94909729  0.05090271  0.05090271  1
  Si  Si324  1  0.94909729  0.44909729  0.44909729  1
  Si  Si325  1  0.05090271  0.55090271  0.44909729  1
  Si  Si326  1  0.05090271  0.44909729  0.55090271  1
  Si  Si327  1  0.94909729  0.55090271  0.55090271  1
  Si  Si328  1  0.44909729  0.94909729  0.44909729  1
  Si  Si329  1  0.55090271  0.05090271  0.44909729  1
  Si  Si330  1  0.55090271  0.94909729  0.55090271  1
  Si  Si331  1  0.44909729  0.05090271  0.55090271  1
  Si  Si332  1  0.44909729  0.44909729  0.94909729  1
  Si  Si333  1  0.55090271  0.55090271  0.94909729  1
  Si  Si334  1  0.55090271  0.44909729  0.05090271  1
  Si  Si335  1  0.44909729  0.55090271  0.05090271  1
