# generated using pymatgen
data_LiHfSeSCl
_symmetry_space_group_name_H-M   'P 1'
_cell_length_a   11.93605150
_cell_length_b   11.93605150
_cell_length_c   9.44770376
_cell_angle_alpha   90.00000000
_cell_angle_beta   90.00000000
_cell_angle_gamma   120.00000000
_symmetry_Int_Tables_number   1
_chemical_formula_structural   LiHfSeSCl
_chemical_formula_sum   'Li12 Hf12 Se12 S12 Cl12'
_cell_volume   1165.67710554
_cell_formula_units_Z   12
loop_
 _symmetry_equiv_pos_site_id
 _symmetry_equiv_pos_as_xyz
  1  'x, y, z'
loop_
 _atom_site_type_symbol
 _atom_site_label
 _atom_site_symmetry_multiplicity
 _atom_site_fract_x
 _atom_site_fract_y
 _atom_site_fract_z
 _atom_site_occupancy
  Cl  Cl0  1  0.98192197  0.12929393  0.25000000  1
  Cl  Cl1  1  -0.12929393  0.85262805  0.25000000  1
  Cl  Cl2  1  -0.85262805  -0.98192197  0.25000000  1
  Cl  Cl3  1  -0.98192197  -0.12929393  0.75000000  1
  Cl  Cl4  1  0.12929393  -0.85262805  0.75000000  1
  Cl  Cl5  1  0.85262805  0.98192197  0.75000000  1
  Cl  Cl6  1  0.12929393  0.98192197  0.75000000  1
  Cl  Cl7  1  0.85262805  -0.12929393  0.75000000  1
  Cl  Cl8  1  -0.98192197  -0.85262805  0.75000000  1
  Cl  Cl9  1  -0.12929393  -0.98192197  0.25000000  1
  Cl  Cl10  1  -0.85262805  0.12929393  0.25000000  1
  Cl  Cl11  1  0.98192197  0.85262805  0.25000000  1
  Hf  Hf12  1  0.26320182  0.00000000  0.00000000  1
  Hf  Hf13  1  0.00000000  0.26320182  0.00000000  1
  Hf  Hf14  1  0.73679818  0.73679818  0.00000000  1
  Hf  Hf15  1  0.73679818  0.00000000  0.50000000  1
  Hf  Hf16  1  0.00000000  0.73679818  0.50000000  1
  Hf  Hf17  1  0.26320182  0.26320182  0.50000000  1
  Hf  Hf18  1  0.73679818  0.00000000  -0.00000000  1
  Hf  Hf19  1  0.00000000  0.73679818  0.00000000  1
  Hf  Hf20  1  0.26320182  0.26320182  0.00000000  1
  Hf  Hf21  1  0.26320182  0.00000000  0.50000000  1
  Hf  Hf22  1  0.00000000  0.26320182  0.50000000  1
  Hf  Hf23  1  0.73679818  0.73679818  0.50000000  1
  Li  Li24  1  0.80019565  0.60039129  0.25000000  1
  Li  Li25  1  0.39960871  0.19980435  0.25000000  1
  Li  Li26  1  0.80019565  0.19980435  0.25000000  1
  Li  Li27  1  0.19980435  0.39960871  0.75000000  1
  Li  Li28  1  0.60039129  0.80019565  0.75000000  1
  Li  Li29  1  0.19980435  0.80019565  0.75000000  1
  Li  Li30  1  0.11084731  0.22169462  0.25000000  1
  Li  Li31  1  0.77830538  0.88915269  0.25000000  1
  Li  Li32  1  0.11084731  0.88915269  0.25000000  1
  Li  Li33  1  0.88915269  0.77830538  0.75000000  1
  Li  Li34  1  0.22169462  0.11084731  0.75000000  1
  Li  Li35  1  0.88915269  0.11084731  0.75000000  1
  S  S36  1  0.26232863  0.52465727  0.25000000  1
  S  S37  1  0.47534273  0.73767137  0.25000000  1
  S  S38  1  0.26232863  0.73767137  0.25000000  1
  S  S39  1  0.73767137  0.47534273  0.75000000  1
  S  S40  1  0.52465727  0.26232863  0.75000000  1
  S  S41  1  0.73767137  0.26232863  0.75000000  1
  S  S42  1  0.46589663  0.93179325  0.25000000  1
  S  S43  1  0.06820675  0.53410337  0.25000000  1
  S  S44  1  0.46589663  0.53410337  0.25000000  1
  S  S45  1  0.53410337  0.06820675  0.75000000  1
  S  S46  1  0.93179325  0.46589663  0.75000000  1
  S  S47  1  0.53410337  0.46589663  0.75000000  1
  Se  Se48  1  0.50000000  0.00000000  0.00000000  1
  Se  Se49  1  0.00000000  0.50000000  0.00000000  1
  Se  Se50  1  0.50000000  0.50000000  0.00000000  1
  Se  Se51  1  0.50000000  0.00000000  0.50000000  1
  Se  Se52  1  0.00000000  0.50000000  0.50000000  1
  Se  Se53  1  0.50000000  0.50000000  0.50000000  1
  Se  Se54  1  0.33333333  0.66666667  0.25000000  1
  Se  Se55  1  0.66666667  0.33333333  0.75000000  1
  Se  Se56  1  0.33333333  0.66666667  0.75000000  1
  Se  Se57  1  0.66666667  0.33333333  0.25000000  1
  Se  Se58  1  0.00000000  0.00000000  0.00000000  1
  Se  Se59  1  0.00000000  0.00000000  0.50000000  1
