# generated using pymatgen
data_Li2Se
_symmetry_space_group_name_H-M   'P 1'
_cell_length_a   5.86986903
_cell_length_b   5.86986903
_cell_length_c   10.75863501
_cell_angle_alpha   90.00000000
_cell_angle_beta   90.00000000
_cell_angle_gamma   120.00000000
_symmetry_Int_Tables_number   1
_chemical_formula_structural   Li2Se
_chemical_formula_sum   'Li12 Se6'
_cell_volume   321.02926766
_cell_formula_units_Z   6
loop_
 _symmetry_equiv_pos_site_id
 _symmetry_equiv_pos_as_xyz
  1  'x, y, z'
loop_
 _atom_site_type_symbol
 _atom_site_label
 _atom_site_symmetry_multiplicity
 _atom_site_fract_x
 _atom_site_fract_y
 _atom_site_fract_z
 _atom_site_occupancy
  Li  Li0  1  0.87604052  0.26804258  0.65545141  1
  Li  Li1  1  -0.26804258  0.60799795  0.65545141  1
  Li  Li2  1  -0.60799795  -0.87604052  0.65545141  1
  Li  Li3  1  -0.87604052  -0.26804258  1.15545141  1
  Li  Li4  1  0.26804258  -0.60799795  1.15545141  1
  Li  Li5  1  0.60799795  0.87604052  1.15545141  1
  Li  Li6  1  -0.87604052  -0.26804258  -0.65545141  1
  Li  Li7  1  0.26804258  -0.60799795  -0.65545141  1
  Li  Li8  1  0.60799795  0.87604052  -0.65545141  1
  Li  Li9  1  0.87604052  0.26804258  -0.15545141  1
  Li  Li10  1  -0.26804258  0.60799795  -0.15545141  1
  Li  Li11  1  -0.60799795  -0.87604052  -0.15545141  1
  Se  Se12  1  0.84004376  0.48040225  0.25000000  1
  Se  Se13  1  0.51959775  0.35964151  0.25000000  1
  Se  Se14  1  0.64035849  0.15995624  0.25000000  1
  Se  Se15  1  0.15995624  0.51959775  0.75000000  1
  Se  Se16  1  0.48040225  0.64035849  0.75000000  1
  Se  Se17  1  0.35964151  0.84004376  0.75000000  1
