# generated using pymatgen
data_MgCl2
_symmetry_space_group_name_H-M   'P 1'
_cell_length_a   12.01541957
_cell_length_b   12.01541957
_cell_length_c   12.01541957
_cell_angle_alpha   90.00000000
_cell_angle_beta   90.00000000
_cell_angle_gamma   90.00000000
_symmetry_Int_Tables_number   1
_chemical_formula_structural   MgCl2
_chemical_formula_sum   'Mg48 Cl96'
_cell_volume   1734.66981538
_cell_formula_units_Z   48
loop_
 _symmetry_equiv_pos_site_id
 _symmetry_equiv_pos_as_xyz
  1  'x, y, z'
loop_
 _atom_site_type_symbol
 _atom_site_label
 _atom_site_symmetry_multiplicity
 _atom_site_fract_x
 _atom_site_fract_y
 _atom_site_fract_z
 _atom_site_occupancy
  Cl  Cl0  1  0.75000000  0.75000000  0.75000000  1
  Cl  Cl1  1  0.75000000  0.25000000  0.25000000  1
  Cl  Cl2  1  0.25000000  0.75000000  0.25000000  1
  Cl  Cl3  1  0.25000000  0.25000000  0.75000000  1
  Cl  Cl4  1  0.41758675  0.41758675  0.41758675  1
  Cl  Cl5  1  0.58241325  0.58241325  0.41758675  1
  Cl  Cl6  1  0.58241325  0.41758675  0.58241325  1
  Cl  Cl7  1  0.41758675  0.58241325  0.58241325  1
  Cl  Cl8  1  0.41758675  0.91758675  0.91758675  1
  Cl  Cl9  1  0.58241325  0.08241325  0.91758675  1
  Cl  Cl10  1  0.58241325  0.91758675  0.08241325  1
  Cl  Cl11  1  0.41758675  0.08241325  0.08241325  1
  Cl  Cl12  1  0.91758675  0.41758675  0.91758675  1
  Cl  Cl13  1  0.08241325  0.58241325  0.91758675  1
  Cl  Cl14  1  0.08241325  0.41758675  0.08241325  1
  Cl  Cl15  1  0.91758675  0.58241325  0.08241325  1
  Cl  Cl16  1  0.91758675  0.91758675  0.41758675  1
  Cl  Cl17  1  0.08241325  0.08241325  0.41758675  1
  Cl  Cl18  1  0.08241325  0.91758675  0.58241325  1
  Cl  Cl19  1  0.91758675  0.08241325  0.58241325  1
  Cl  Cl20  1  0.80839659  0.80839659  0.02381835  1
  Cl  Cl21  1  -0.80839659  -0.80839659  0.02381835  1
  Cl  Cl22  1  -0.80839659  0.80839659  -0.02381835  1
  Cl  Cl23  1  0.80839659  -0.80839659  -0.02381835  1
  Cl  Cl24  1  0.02381835  0.80839659  0.80839659  1
  Cl  Cl25  1  0.02381835  -0.80839659  -0.80839659  1
  Cl  Cl26  1  -0.02381835  -0.80839659  0.80839659  1
  Cl  Cl27  1  -0.02381835  0.80839659  -0.80839659  1
  Cl  Cl28  1  0.80839659  0.02381835  0.80839659  1
  Cl  Cl29  1  -0.80839659  0.02381835  -0.80839659  1
  Cl  Cl30  1  0.80839659  -0.02381835  -0.80839659  1
  Cl  Cl31  1  -0.80839659  -0.02381835  0.80839659  1
  Cl  Cl32  1  0.80839659  1.30839659  0.52381835  1
  Cl  Cl33  1  -0.80839659  -0.30839659  0.52381835  1
  Cl  Cl34  1  -0.80839659  1.30839659  0.47618165  1
  Cl  Cl35  1  0.80839659  -0.30839659  0.47618165  1
  Cl  Cl36  1  0.02381835  1.30839659  1.30839659  1
  Cl  Cl37  1  0.02381835  -0.30839659  -0.30839659  1
  Cl  Cl38  1  -0.02381835  -0.30839659  1.30839659  1
  Cl  Cl39  1  -0.02381835  1.30839659  -0.30839659  1
  Cl  Cl40  1  0.80839659  0.52381835  1.30839659  1
  Cl  Cl41  1  -0.80839659  0.52381835  -0.30839659  1
  Cl  Cl42  1  0.80839659  0.47618165  -0.30839659  1
  Cl  Cl43  1  -0.80839659  0.47618165  1.30839659  1
  Cl  Cl44  1  1.30839659  0.80839659  0.52381835  1
  Cl  Cl45  1  -0.30839659  -0.80839659  0.52381835  1
  Cl  Cl46  1  -0.30839659  0.80839659  0.47618165  1
  Cl  Cl47  1  1.30839659  -0.80839659  0.47618165  1
  Cl  Cl48  1  0.52381835  0.80839659  1.30839659  1
  Cl  Cl49  1  0.52381835  -0.80839659  -0.30839659  1
  Cl  Cl50  1  0.47618165  -0.80839659  1.30839659  1
  Cl  Cl51  1  0.47618165  0.80839659  -0.30839659  1
  Cl  Cl52  1  1.30839659  0.02381835  1.30839659  1
  Cl  Cl53  1  -0.30839659  0.02381835  -0.30839659  1
  Cl  Cl54  1  1.30839659  -0.02381835  -0.30839659  1
  Cl  Cl55  1  -0.30839659  -0.02381835  1.30839659  1
  Cl  Cl56  1  1.30839659  1.30839659  0.02381835  1
  Cl  Cl57  1  -0.30839659  -0.30839659  0.02381835  1
  Cl  Cl58  1  -0.30839659  1.30839659  -0.02381835  1
  Cl  Cl59  1  1.30839659  -0.30839659  -0.02381835  1
  Cl  Cl60  1  0.52381835  1.30839659  0.80839659  1
  Cl  Cl61  1  0.52381835  -0.30839659  -0.80839659  1
  Cl  Cl62  1  0.47618165  -0.30839659  0.80839659  1
  Cl  Cl63  1  0.47618165  1.30839659  -0.80839659  1
  Cl  Cl64  1  1.30839659  0.52381835  0.80839659  1
  Cl  Cl65  1  -0.30839659  0.52381835  -0.80839659  1
  Cl  Cl66  1  1.30839659  0.47618165  -0.80839659  1
  Cl  Cl67  1  -0.30839659  0.47618165  0.80839659  1
  Cl  Cl68  1  0.61075312  0.00000000  0.00000000  1
  Cl  Cl69  1  0.38924688  0.00000000  0.00000000  1
  Cl  Cl70  1  0.00000000  0.61075312  0.00000000  1
  Cl  Cl71  1  0.00000000  0.38924688  0.00000000  1
  Cl  Cl72  1  0.00000000  0.00000000  0.61075312  1
  Cl  Cl73  1  0.00000000  0.00000000  0.38924688  1
  Cl  Cl74  1  0.61075312  0.50000000  0.50000000  1
  Cl  Cl75  1  0.38924688  0.50000000  0.50000000  1
  Cl  Cl76  1  0.00000000  0.11075312  0.50000000  1
  Cl  Cl77  1  0.00000000  0.88924688  0.50000000  1
  Cl  Cl78  1  0.00000000  0.50000000  0.11075312  1
  Cl  Cl79  1  0.00000000  0.50000000  0.88924688  1
  Cl  Cl80  1  0.11075312  0.00000000  0.50000000  1
  Cl  Cl81  1  0.88924688  0.00000000  0.50000000  1
  Cl  Cl82  1  0.50000000  0.61075312  0.50000000  1
  Cl  Cl83  1  0.50000000  0.38924688  0.50000000  1
  Cl  Cl84  1  0.50000000  0.00000000  0.11075312  1
  Cl  Cl85  1  0.50000000  0.00000000  0.88924688  1
  Cl  Cl86  1  0.11075312  0.50000000  0.00000000  1
  Cl  Cl87  1  0.88924688  0.50000000  0.00000000  1
  Cl  Cl88  1  0.50000000  0.11075312  0.00000000  1
  Cl  Cl89  1  0.50000000  0.88924688  0.00000000  1
  Cl  Cl90  1  0.50000000  0.50000000  0.61075312  1
  Cl  Cl91  1  0.50000000  0.50000000  0.38924688  1
  Cl  Cl92  1  0.00000000  0.00000000  0.00000000  1
  Cl  Cl93  1  0.00000000  0.50000000  0.50000000  1
  Cl  Cl94  1  0.50000000  0.00000000  0.50000000  1
  Cl  Cl95  1  0.50000000  0.50000000  0.00000000  1
  Mg  Mg96  1  0.50000000  0.50000000  0.50000000  1
  Mg  Mg97  1  0.50000000  0.00000000  0.00000000  1
  Mg  Mg98  1  0.00000000  0.50000000  0.00000000  1
  Mg  Mg99  1  0.00000000  0.00000000  0.50000000  1
  Mg  Mg100  1  0.53603829  0.25000000  0.25000000  1
  Mg  Mg101  1  0.46396171  0.75000000  0.25000000  1
  Mg  Mg102  1  0.25000000  0.53603829  0.25000000  1
  Mg  Mg103  1  0.25000000  0.46396171  0.75000000  1
  Mg  Mg104  1  0.25000000  0.25000000  0.53603829  1
  Mg  Mg105  1  0.75000000  0.25000000  0.46396171  1
  Mg  Mg106  1  0.53603829  0.75000000  0.75000000  1
  Mg  Mg107  1  0.46396171  0.25000000  0.75000000  1
  Mg  Mg108  1  0.25000000  0.03603829  0.75000000  1
  Mg  Mg109  1  0.25000000  0.96396171  0.25000000  1
  Mg  Mg110  1  0.25000000  0.75000000  0.03603829  1
  Mg  Mg111  1  0.75000000  0.75000000  0.96396171  1
  Mg  Mg112  1  0.03603829  0.25000000  0.75000000  1
  Mg  Mg113  1  0.96396171  0.75000000  0.75000000  1
  Mg  Mg114  1  0.75000000  0.53603829  0.75000000  1
  Mg  Mg115  1  0.75000000  0.46396171  0.25000000  1
  Mg  Mg116  1  0.75000000  0.25000000  0.03603829  1
  Mg  Mg117  1  0.25000000  0.25000000  0.96396171  1
  Mg  Mg118  1  0.03603829  0.75000000  0.25000000  1
  Mg  Mg119  1  0.96396171  0.25000000  0.25000000  1
  Mg  Mg120  1  0.75000000  0.03603829  0.25000000  1
  Mg  Mg121  1  0.75000000  0.96396171  0.75000000  1
  Mg  Mg122  1  0.75000000  0.75000000  0.53603829  1
  Mg  Mg123  1  0.25000000  0.75000000  0.46396171  1
  Mg  Mg124  1  0.92419613  0.92419613  0.92419613  1
  Mg  Mg125  1  0.07580387  0.07580387  0.92419613  1
  Mg  Mg126  1  0.07580387  0.92419613  0.07580387  1
  Mg  Mg127  1  0.92419613  0.07580387  0.07580387  1
  Mg  Mg128  1  0.92419613  0.42419613  0.42419613  1
  Mg  Mg129  1  0.07580387  0.57580387  0.42419613  1
  Mg  Mg130  1  0.07580387  0.42419613  0.57580387  1
  Mg  Mg131  1  0.92419613  0.57580387  0.57580387  1
  Mg  Mg132  1  0.42419613  0.92419613  0.42419613  1
  Mg  Mg133  1  0.57580387  0.07580387  0.42419613  1
  Mg  Mg134  1  0.57580387  0.92419613  0.57580387  1
  Mg  Mg135  1  0.42419613  0.07580387  0.57580387  1
  Mg  Mg136  1  0.42419613  0.42419613  0.92419613  1
  Mg  Mg137  1  0.57580387  0.57580387  0.92419613  1
  Mg  Mg138  1  0.57580387  0.42419613  0.07580387  1
  Mg  Mg139  1  0.42419613  0.57580387  0.07580387  1
  Mg  Mg140  1  0.25000000  0.25000000  0.25000000  1
  Mg  Mg141  1  0.25000000  0.75000000  0.75000000  1
  Mg  Mg142  1  0.75000000  0.25000000  0.75000000  1
  Mg  Mg143  1  0.75000000  0.75000000  0.25000000  1
