# generated using pymatgen
data_K3Li3SbI9
_symmetry_space_group_name_H-M   'P 1'
_cell_length_a   19.67554568
_cell_length_b   19.67554568
_cell_length_c   12.09196822
_cell_angle_alpha   90.00000000
_cell_angle_beta   90.00000000
_cell_angle_gamma   120.00000000
_symmetry_Int_Tables_number   1
_chemical_formula_structural   K3Li3SbI9
_chemical_formula_sum   'K36 Li36 Sb12 I108'
_cell_volume   4053.97625661
_cell_formula_units_Z   12
loop_
 _symmetry_equiv_pos_site_id
 _symmetry_equiv_pos_as_xyz
  1  'x, y, z'
loop_
 _atom_site_type_symbol
 _atom_site_label
 _atom_site_symmetry_multiplicity
 _atom_site_fract_x
 _atom_site_fract_y
 _atom_site_fract_z
 _atom_site_occupancy
  I  I0  1  0.05670262  0.80385528  0.69654994  1
  I  I1  1  0.19614472  0.25284734  0.69654994  1
  I  I2  1  0.74715266  0.94329738  0.69654994  1
  I  I3  1  0.80385528  0.05670262  0.80345006  1
  I  I4  1  0.25284734  0.19614472  0.80345006  1
  I  I5  1  0.94329738  0.74715266  0.80345006  1
  I  I6  1  0.94329738  0.19614472  0.30345006  1
  I  I7  1  0.80385528  0.74715266  0.30345006  1
  I  I8  1  0.25284734  0.05670262  0.30345006  1
  I  I9  1  0.19614472  0.94329738  0.19654994  1
  I  I10  1  0.74715266  0.80385528  0.19654994  1
  I  I11  1  0.05670262  0.25284734  0.19654994  1
  I  I12  1  0.72336928  0.13718861  0.02988327  1
  I  I13  1  0.86281139  0.58618068  0.02988327  1
  I  I14  1  0.41381932  0.27663072  0.02988327  1
  I  I15  1  0.47052194  0.39003595  0.13678340  1
  I  I16  1  0.91951401  0.52947806  0.13678340  1
  I  I17  1  0.60996405  0.08048599  0.13678340  1
  I  I18  1  0.60996405  0.52947806  0.63678340  1
  I  I19  1  0.47052194  0.08048599  0.63678340  1
  I  I20  1  0.91951401  0.39003595  0.63678340  1
  I  I21  1  0.86281139  0.27663072  0.52988327  1
  I  I22  1  0.41381932  0.13718861  0.52988327  1
  I  I23  1  0.72336928  0.58618068  0.52988327  1
  I  I24  1  0.39003595  0.47052194  0.36321660  1
  I  I25  1  0.52947806  0.91951401  0.36321660  1
  I  I26  1  0.08048599  0.60996405  0.36321660  1
  I  I27  1  0.13718861  0.72336928  0.47011673  1
  I  I28  1  0.58618068  0.86281139  0.47011673  1
  I  I29  1  0.27663072  0.41381932  0.47011673  1
  I  I30  1  0.27663072  0.86281139  0.97011673  1
  I  I31  1  0.13718861  0.41381932  0.97011673  1
  I  I32  1  0.58618068  0.72336928  0.97011673  1
  I  I33  1  0.52947806  0.60996405  0.86321660  1
  I  I34  1  0.08048599  0.47052194  0.86321660  1
  I  I35  1  0.39003595  0.91951401  0.86321660  1
  I  I36  1  0.54497240  0.09171669  0.22571720  1
  I  I37  1  0.90828331  0.45325571  0.22571720  1
  I  I38  1  0.54674429  0.45502760  0.22571720  1
  I  I39  1  0.09171669  0.54497240  0.27428280  1
  I  I40  1  0.45325571  0.90828331  0.27428280  1
  I  I41  1  0.45502760  0.54674429  0.27428280  1
  I  I42  1  0.45502760  0.90828331  0.77428280  1
  I  I43  1  0.09171669  0.54674429  0.77428280  1
  I  I44  1  0.45325571  0.54497240  0.77428280  1
  I  I45  1  0.90828331  0.45502760  0.72571720  1
  I  I46  1  0.54674429  0.09171669  0.72571720  1
  I  I47  1  0.54497240  0.45325571  0.72571720  1
  I  I48  1  0.21163906  0.42505002  0.55905054  1
  I  I49  1  0.57494998  0.78658904  0.55905054  1
  I  I50  1  0.21341096  0.78836094  0.55905054  1
  I  I51  1  0.75838335  0.87830573  0.60761613  1
  I  I52  1  0.11992238  0.24161665  0.60761613  1
  I  I53  1  0.12169427  0.88007762  0.60761613  1
  I  I54  1  0.12169427  0.24161665  0.10761613  1
  I  I55  1  0.75838335  0.88007762  0.10761613  1
  I  I56  1  0.11992238  0.87830573  0.10761613  1
  I  I57  1  0.57494998  0.78836094  0.05905054  1
  I  I58  1  0.21341096  0.42505002  0.05905054  1
  I  I59  1  0.21163906  0.78658904  0.05905054  1
  I  I60  1  0.87830573  0.75838335  0.89238387  1
  I  I61  1  0.24161665  0.11992238  0.89238387  1
  I  I62  1  0.88007762  0.12169427  0.89238387  1
  I  I63  1  0.42505002  0.21163906  0.94094946  1
  I  I64  1  0.78658904  0.57494998  0.94094946  1
  I  I65  1  0.78836094  0.21341096  0.94094946  1
  I  I66  1  0.78836094  0.57494998  0.44094946  1
  I  I67  1  0.42505002  0.21341096  0.44094946  1
  I  I68  1  0.78658904  0.21163906  0.44094946  1
  I  I69  1  0.24161665  0.12169427  0.39238387  1
  I  I70  1  0.88007762  0.75838335  0.39238387  1
  I  I71  1  0.87830573  0.11992238  0.39238387  1
  I  I72  1  0.68243594  0.18982040  0.52356278  1
  I  I73  1  0.81017960  0.49261554  0.52356278  1
  I  I74  1  0.50738446  0.31756406  0.52356278  1
  I  I75  1  0.18982040  0.68243594  0.97643722  1
  I  I76  1  0.49261554  0.81017960  0.97643722  1
  I  I77  1  0.31756406  0.50738446  0.97643722  1
  I  I78  1  0.31756406  0.81017960  0.47643722  1
  I  I79  1  0.18982040  0.50738446  0.47643722  1
  I  I80  1  0.49261554  0.68243594  0.47643722  1
  I  I81  1  0.81017960  0.31756406  0.02356278  1
  I  I82  1  0.50738446  0.18982040  0.02356278  1
  I  I83  1  0.68243594  0.49261554  0.02356278  1
  I  I84  1  0.34910261  0.52315373  0.85689612  1
  I  I85  1  0.47684627  0.82594888  0.85689612  1
  I  I86  1  0.17405112  0.65089739  0.85689612  1
  I  I87  1  0.85648706  0.01576927  0.30977055  1
  I  I88  1  0.15928221  0.14351294  0.30977055  1
  I  I89  1  0.98423073  0.84071779  0.30977055  1
  I  I90  1  0.98423073  0.14351294  0.80977055  1
  I  I91  1  0.85648706  0.84071779  0.80977055  1
  I  I92  1  0.15928221  0.01576927  0.80977055  1
  I  I93  1  0.47684627  0.65089739  0.35689612  1
  I  I94  1  0.17405112  0.52315373  0.35689612  1
  I  I95  1  0.34910261  0.82594888  0.35689612  1
  I  I96  1  0.01576927  0.85648706  0.19022945  1
  I  I97  1  0.14351294  0.15928221  0.19022945  1
  I  I98  1  0.84071779  0.98423073  0.19022945  1
  I  I99  1  0.52315373  0.34910261  0.64310388  1
  I  I100  1  0.82594888  0.47684627  0.64310388  1
  I  I101  1  0.65089739  0.17405112  0.64310388  1
  I  I102  1  0.65089739  0.47684627  0.14310388  1
  I  I103  1  0.52315373  0.17405112  0.14310388  1
  I  I104  1  0.82594888  0.34910261  0.14310388  1
  I  I105  1  0.14351294  0.98423073  0.69022945  1
  I  I106  1  0.84071779  0.85648706  0.69022945  1
  I  I107  1  0.01576927  0.15928221  0.69022945  1
  K  K108  1  0.49310377  0.70234936  0.17689865  1
  K  K109  1  -0.70234936  -0.20924559  0.17689865  1
  K  K110  1  0.20924559  -0.49310377  0.17689865  1
  K  K111  1  0.70234936  0.49310377  0.32310135  1
  K  K112  1  -0.20924559  -0.70234936  0.32310135  1
  K  K113  1  -0.49310377  0.20924559  0.32310135  1
  K  K114  1  -0.49310377  -0.70234936  -0.17689865  1
  K  K115  1  0.70234936  0.20924559  -0.17689865  1
  K  K116  1  -0.20924559  0.49310377  -0.17689865  1
  K  K117  1  -0.70234936  -0.49310377  0.67689865  1
  K  K118  1  0.20924559  0.70234936  0.67689865  1
  K  K119  1  0.49310377  -0.20924559  0.67689865  1
  K  K120  1  1.15977044  1.03568270  0.51023199  1
  K  K121  1  -0.03568270  0.12408774  0.51023199  1
  K  K122  1  0.87591226  -0.15977044  0.51023199  1
  K  K123  1  1.36901603  0.82643710  0.65643468  1
  K  K124  1  0.45742107  -0.36901603  0.65643468  1
  K  K125  1  0.17356290  0.54257893  0.65643468  1
  K  K126  1  0.17356290  -0.36901603  0.15643468  1
  K  K127  1  1.36901603  0.54257893  0.15643468  1
  K  K128  1  0.45742107  0.82643710  0.15643468  1
  K  K129  1  -0.03568270  -0.15977044  1.01023199  1
  K  K130  1  0.87591226  1.03568270  1.01023199  1
  K  K131  1  1.15977044  0.12408774  1.01023199  1
  K  K132  1  0.82643710  1.36901603  0.84356532  1
  K  K133  1  -0.36901603  0.45742107  0.84356532  1
  K  K134  1  0.54257893  0.17356290  0.84356532  1
  K  K135  1  1.03568270  1.15977044  0.98976801  1
  K  K136  1  0.12408774  -0.03568270  0.98976801  1
  K  K137  1  -0.15977044  0.87591226  0.98976801  1
  K  K138  1  -0.15977044  -0.03568270  0.48976801  1
  K  K139  1  1.03568270  0.87591226  0.48976801  1
  K  K140  1  0.12408774  1.15977044  0.48976801  1
  K  K141  1  -0.36901603  0.17356290  1.34356532  1
  K  K142  1  0.54257893  1.36901603  1.34356532  1
  K  K143  1  0.82643710  0.45742107  1.34356532  1
  Li  Li144  1  0.38212463  0.00000000  0.25000000  1
  Li  Li145  1  0.00000000  0.38212463  0.25000000  1
  Li  Li146  1  0.61787537  0.61787537  0.25000000  1
  Li  Li147  1  0.61787537  0.00000000  0.75000000  1
  Li  Li148  1  0.00000000  0.61787537  0.75000000  1
  Li  Li149  1  0.38212463  0.38212463  0.75000000  1
  Li  Li150  1  0.04879130  0.33333333  0.58333333  1
  Li  Li151  1  0.66666667  0.71545797  0.58333333  1
  Li  Li152  1  0.28454203  0.95120870  0.58333333  1
  Li  Li153  1  0.28454203  0.33333333  0.08333333  1
  Li  Li154  1  0.66666667  0.95120870  0.08333333  1
  Li  Li155  1  0.04879130  0.71545797  0.08333333  1
  Li  Li156  1  0.71545797  0.66666667  0.91666667  1
  Li  Li157  1  0.33333333  0.04879130  0.91666667  1
  Li  Li158  1  0.95120870  0.28454203  0.91666667  1
  Li  Li159  1  0.95120870  0.66666667  0.41666667  1
  Li  Li160  1  0.33333333  0.28454203  0.41666667  1
  Li  Li161  1  0.71545797  0.04879130  0.41666667  1
  Li  Li162  1  0.31202214  0.00000000  0.25000000  1
  Li  Li163  1  0.00000000  0.31202214  0.25000000  1
  Li  Li164  1  0.68797786  0.68797786  0.25000000  1
  Li  Li165  1  0.68797786  0.00000000  0.75000000  1
  Li  Li166  1  0.00000000  0.68797786  0.75000000  1
  Li  Li167  1  0.31202214  0.31202214  0.75000000  1
  Li  Li168  1  0.97868881  0.33333333  0.58333333  1
  Li  Li169  1  0.66666667  0.64535548  0.58333333  1
  Li  Li170  1  0.35464452  0.02131119  0.58333333  1
  Li  Li171  1  0.35464452  0.33333333  0.08333333  1
  Li  Li172  1  0.66666667  0.02131119  0.08333333  1
  Li  Li173  1  0.97868881  0.64535548  0.08333333  1
  Li  Li174  1  0.64535548  0.66666667  0.91666667  1
  Li  Li175  1  0.33333333  0.97868881  0.91666667  1
  Li  Li176  1  0.02131119  0.35464452  0.91666667  1
  Li  Li177  1  0.02131119  0.66666667  0.41666667  1
  Li  Li178  1  0.33333333  0.35464452  0.41666667  1
  Li  Li179  1  0.64535548  0.97868881  0.41666667  1
  Sb  Sb180  1  0.00000000  0.00000000  0.37297623  1
  Sb  Sb181  1  0.00000000  0.00000000  0.12702377  1
  Sb  Sb182  1  0.00000000  0.00000000  0.62702377  1
  Sb  Sb183  1  0.00000000  0.00000000  0.87297623  1
  Sb  Sb184  1  0.66666667  0.33333333  0.70630956  1
  Sb  Sb185  1  0.66666667  0.33333333  0.46035710  1
  Sb  Sb186  1  0.66666667  0.33333333  0.96035710  1
  Sb  Sb187  1  0.66666667  0.33333333  0.20630956  1
  Sb  Sb188  1  0.33333333  0.66666667  0.03964290  1
  Sb  Sb189  1  0.33333333  0.66666667  0.79369044  1
  Sb  Sb190  1  0.33333333  0.66666667  0.29369044  1
  Sb  Sb191  1  0.33333333  0.66666667  0.53964290  1
