# generated using pymatgen
data_LiBO2
_symmetry_space_group_name_H-M   'P 1'
_cell_length_a   16.37918646
_cell_length_b   16.37918646
_cell_length_c   4.73787023
_cell_angle_alpha   90.00000000
_cell_angle_beta   90.00000000
_cell_angle_gamma   120.00000000
_symmetry_Int_Tables_number   1
_chemical_formula_structural   LiBO2
_chemical_formula_sum   'Li18 B18 O36'
_cell_volume   1100.77471851
_cell_formula_units_Z   18
loop_
 _symmetry_equiv_pos_site_id
 _symmetry_equiv_pos_as_xyz
  1  'x, y, z'
loop_
 _atom_site_type_symbol
 _atom_site_label
 _atom_site_symmetry_multiplicity
 _atom_site_fract_x
 _atom_site_fract_y
 _atom_site_fract_z
 _atom_site_occupancy
  B  B0  1  0.50000000  0.00000000  0.00000000  1
  B  B1  1  0.00000000  0.50000000  0.00000000  1
  B  B2  1  0.50000000  0.50000000  0.00000000  1
  B  B3  1  0.00000000  0.50000000  0.50000000  1
  B  B4  1  0.50000000  0.00000000  0.50000000  1
  B  B5  1  0.50000000  0.50000000  0.50000000  1
  B  B6  1  0.16666667  0.33333333  0.33333333  1
  B  B7  1  0.66666667  0.83333333  0.33333333  1
  B  B8  1  0.16666667  0.83333333  0.33333333  1
  B  B9  1  0.66666667  0.83333333  0.83333333  1
  B  B10  1  0.16666667  0.33333333  0.83333333  1
  B  B11  1  0.16666667  0.83333333  0.83333333  1
  B  B12  1  0.83333333  0.66666667  0.66666667  1
  B  B13  1  0.33333333  0.16666667  0.66666667  1
  B  B14  1  0.83333333  0.16666667  0.66666667  1
  B  B15  1  0.33333333  0.16666667  0.16666667  1
  B  B16  1  0.83333333  0.66666667  0.16666667  1
  B  B17  1  0.83333333  0.16666667  0.16666667  1
  Li  Li18  1  0.77549078  0.00000000  0.25000000  1
  Li  Li19  1  0.00000000  0.77549078  0.25000000  1
  Li  Li20  1  0.22450922  0.22450922  0.25000000  1
  Li  Li21  1  0.22450922  0.00000000  0.75000000  1
  Li  Li22  1  0.00000000  0.22450922  0.75000000  1
  Li  Li23  1  0.77549078  0.77549078  0.75000000  1
  Li  Li24  1  0.44215745  0.33333333  0.58333333  1
  Li  Li25  1  0.66666667  0.10882412  0.58333333  1
  Li  Li26  1  0.89117588  0.55784255  0.58333333  1
  Li  Li27  1  0.89117588  0.33333333  0.08333333  1
  Li  Li28  1  0.66666667  0.55784255  0.08333333  1
  Li  Li29  1  0.44215745  0.10882412  0.08333333  1
  Li  Li30  1  0.10882412  0.66666667  0.91666667  1
  Li  Li31  1  0.33333333  0.44215745  0.91666667  1
  Li  Li32  1  0.55784255  0.89117588  0.91666667  1
  Li  Li33  1  0.55784255  0.66666667  0.41666667  1
  Li  Li34  1  0.33333333  0.89117588  0.41666667  1
  Li  Li35  1  0.10882412  0.44215745  0.41666667  1
  O  O36  1  0.17911943  0.00000000  0.25000000  1
  O  O37  1  0.00000000  0.17911943  0.25000000  1
  O  O38  1  -0.17911943  -0.17911943  0.25000000  1
  O  O39  1  -0.17911943  0.00000000  0.75000000  1
  O  O40  1  0.00000000  -0.17911943  0.75000000  1
  O  O41  1  0.17911943  0.17911943  0.75000000  1
  O  O42  1  0.84578609  0.33333333  0.58333333  1
  O  O43  1  0.66666667  0.51245276  0.58333333  1
  O  O44  1  0.48754724  0.15421391  0.58333333  1
  O  O45  1  0.48754724  0.33333333  1.08333333  1
  O  O46  1  0.66666667  0.15421391  1.08333333  1
  O  O47  1  0.84578609  0.51245276  1.08333333  1
  O  O48  1  0.51245276  0.66666667  0.91666667  1
  O  O49  1  0.33333333  0.84578609  0.91666667  1
  O  O50  1  0.15421391  0.48754724  0.91666667  1
  O  O51  1  0.15421391  0.66666667  1.41666667  1
  O  O52  1  0.33333333  0.48754724  1.41666667  1
  O  O53  1  0.51245276  0.84578609  1.41666667  1
  O  O54  1  0.00000000  0.00000000  0.00000000  1
  O  O55  1  0.00000000  0.00000000  0.50000000  1
  O  O56  1  0.66666667  0.33333333  0.33333333  1
  O  O57  1  0.66666667  0.33333333  0.83333333  1
  O  O58  1  0.33333333  0.66666667  0.66666667  1
  O  O59  1  0.33333333  0.66666667  0.16666667  1
  O  O60  1  0.00000000  0.00000000  0.84659533  1
  O  O61  1  0.00000000  0.00000000  0.65340467  1
  O  O62  1  0.00000000  0.00000000  0.15340467  1
  O  O63  1  0.00000000  0.00000000  0.34659533  1
  O  O64  1  0.66666667  0.33333333  0.17992867  1
  O  O65  1  0.66666667  0.33333333  0.98673800  1
  O  O66  1  0.66666667  0.33333333  0.48673800  1
  O  O67  1  0.66666667  0.33333333  0.67992867  1
  O  O68  1  0.33333333  0.66666667  0.51326200  1
  O  O69  1  0.33333333  0.66666667  0.32007133  1
  O  O70  1  0.33333333  0.66666667  0.82007133  1
  O  O71  1  0.33333333  0.66666667  0.01326200  1
