# generated using pymatgen
data_K4Li3B3(SO3)2
_symmetry_space_group_name_H-M   'P 1'
_cell_length_a   14.30994990
_cell_length_b   14.30994990
_cell_length_c   16.15074571
_cell_angle_alpha   90.00000000
_cell_angle_beta   90.00000000
_cell_angle_gamma   90.00000000
_symmetry_Int_Tables_number   1
_chemical_formula_structural   K4Li3B3(SO3)2
_chemical_formula_sum   'K32 Li24 B24 S16 O48'
_cell_volume   3307.26356107
_cell_formula_units_Z   8
loop_
 _symmetry_equiv_pos_site_id
 _symmetry_equiv_pos_as_xyz
  1  'x, y, z'
loop_
 _atom_site_type_symbol
 _atom_site_label
 _atom_site_symmetry_multiplicity
 _atom_site_fract_x
 _atom_site_fract_y
 _atom_site_fract_z
 _atom_site_occupancy
  B  B0  1  0.76746914  0.01746914  0.87500000  1
  B  B1  1  0.73253086  0.98253086  0.37500000  1
  B  B2  1  0.23253086  0.51746914  0.12500000  1
  B  B3  1  0.26746914  0.48253086  0.62500000  1
  B  B4  1  0.23253086  0.98253086  0.12500000  1
  B  B5  1  0.26746914  0.01746914  0.62500000  1
  B  B6  1  0.76746914  0.48253086  0.87500000  1
  B  B7  1  0.73253086  0.51746914  0.37500000  1
  B  B8  1  0.26746914  0.51746914  0.37500000  1
  B  B9  1  0.23253086  0.48253086  0.87500000  1
  B  B10  1  0.73253086  0.01746914  0.62500000  1
  B  B11  1  0.76746914  0.98253086  0.12500000  1
  B  B12  1  0.73253086  0.48253086  0.62500000  1
  B  B13  1  0.76746914  0.51746914  0.12500000  1
  B  B14  1  0.26746914  0.98253086  0.37500000  1
  B  B15  1  0.23253086  0.01746914  0.87500000  1
  B  B16  1  0.00000000  0.25000000  0.19264095  1
  B  B17  1  0.00000000  0.75000000  0.44264095  1
  B  B18  1  0.50000000  0.25000000  0.30735905  1
  B  B19  1  0.50000000  0.75000000  0.05735905  1
  B  B20  1  0.50000000  0.75000000  0.69264095  1
  B  B21  1  0.50000000  0.25000000  0.94264095  1
  B  B22  1  0.00000000  0.75000000  0.80735905  1
  B  B23  1  0.00000000  0.25000000  0.55735905  1
  K  K24  1  0.24569491  0.00000000  0.00000000  1
  K  K25  1  0.25430509  0.00000000  0.50000000  1
  K  K26  1  0.25000000  0.99569491  0.25000000  1
  K  K27  1  0.25000000  0.00430509  0.75000000  1
  K  K28  1  0.75430509  0.00000000  0.00000000  1
  K  K29  1  0.74569491  -0.00000000  0.50000000  1
  K  K30  1  0.75000000  0.00430509  0.75000000  1
  K  K31  1  0.75000000  0.99569491  0.25000000  1
  K  K32  1  0.74569491  0.50000000  0.50000000  1
  K  K33  1  0.75430509  0.50000000  0.00000000  1
  K  K34  1  0.75000000  0.49569491  0.75000000  1
  K  K35  1  0.75000000  0.50430509  0.25000000  1
  K  K36  1  0.25430509  0.50000000  0.50000000  1
  K  K37  1  0.24569491  0.50000000  0.00000000  1
  K  K38  1  0.25000000  0.50430509  0.25000000  1
  K  K39  1  0.25000000  0.49569491  0.75000000  1
  K  K40  1  0.00000000  0.50875832  0.66970123  1
  K  K41  1  0.50000000  0.49124168  0.16970123  1
  K  K42  1  0.74124168  0.75000000  0.91970123  1
  K  K43  1  0.75875832  0.25000000  0.41970123  1
  K  K44  1  0.50000000  0.50875832  0.83029877  1
  K  K45  1  0.00000000  0.49124168  0.33029877  1
  K  K46  1  0.75875832  0.75000000  0.58029877  1
  K  K47  1  0.74124168  0.25000000  0.08029877  1
  K  K48  1  0.50000000  0.00875832  0.16970123  1
  K  K49  1  0.00000000  0.99124168  0.66970123  1
  K  K50  1  0.24124168  0.25000000  0.41970123  1
  K  K51  1  0.25875832  0.75000000  0.91970123  1
  K  K52  1  0.00000000  0.00875832  0.33029877  1
  K  K53  1  0.50000000  0.99124168  0.83029877  1
  K  K54  1  0.25875832  0.25000000  0.08029877  1
  K  K55  1  0.24124168  0.75000000  0.58029877  1
  Li  Li56  1  0.11218068  0.00000000  0.00000000  1
  Li  Li57  1  0.38781932  0.00000000  0.50000000  1
  Li  Li58  1  0.25000000  0.86218068  0.25000000  1
  Li  Li59  1  0.25000000  0.13781932  0.75000000  1
  Li  Li60  1  0.88781932  0.00000000  0.00000000  1
  Li  Li61  1  0.61218068  0.00000000  0.50000000  1
  Li  Li62  1  0.75000000  0.13781932  0.75000000  1
  Li  Li63  1  0.75000000  0.86218068  0.25000000  1
  Li  Li64  1  0.61218068  0.50000000  0.50000000  1
  Li  Li65  1  0.88781932  0.50000000  0.00000000  1
  Li  Li66  1  0.75000000  0.36218068  0.75000000  1
  Li  Li67  1  0.75000000  0.63781932  0.25000000  1
  Li  Li68  1  0.38781932  0.50000000  0.50000000  1
  Li  Li69  1  0.11218068  0.50000000  0.00000000  1
  Li  Li70  1  0.25000000  0.63781932  0.25000000  1
  Li  Li71  1  0.25000000  0.36218068  0.75000000  1
  Li  Li72  1  0.00000000  0.25000000  0.37500000  1
  Li  Li73  1  0.00000000  0.75000000  0.62500000  1
  Li  Li74  1  0.50000000  0.75000000  0.87500000  1
  Li  Li75  1  0.50000000  0.25000000  0.12500000  1
  Li  Li76  1  0.00000000  0.75000000  0.12500000  1
  Li  Li77  1  0.50000000  0.75000000  0.37500000  1
  Li  Li78  1  0.50000000  0.25000000  0.62500000  1
  Li  Li79  1  0.00000000  0.25000000  0.87500000  1
  O  O80  1  0.30605542  0.04823958  0.17098069  1
  O  O81  1  0.19394458  -0.04823958  0.67098069  1
  O  O82  1  0.20176042  1.05605542  0.42098069  1
  O  O83  1  0.29823958  -0.05605542  0.92098069  1
  O  O84  1  0.19394458  0.04823958  0.32901931  1
  O  O85  1  0.30605542  -0.04823958  -0.17098069  1
  O  O86  1  0.29823958  1.05605542  0.07901931  1
  O  O87  1  0.20176042  -0.05605542  0.57901931  1
  O  O88  1  -0.30605542  -0.04823958  -0.17098069  1
  O  O89  1  0.80605542  0.04823958  0.32901931  1
  O  O90  1  0.79823958  -0.05605542  0.57901931  1
  O  O91  1  0.70176042  1.05605542  0.07901931  1
  O  O92  1  0.80605542  -0.04823958  0.67098069  1
  O  O93  1  -0.30605542  0.04823958  0.17098069  1
  O  O94  1  0.70176042  -0.05605542  0.92098069  1
  O  O95  1  0.79823958  1.05605542  0.42098069  1
  O  O96  1  0.80605542  0.54823958  0.67098069  1
  O  O97  1  0.69394458  0.45176042  1.17098069  1
  O  O98  1  0.70176042  1.55605542  0.92098069  1
  O  O99  1  0.79823958  0.44394458  1.42098069  1
  O  O100  1  0.69394458  0.54823958  0.82901931  1
  O  O101  1  0.80605542  0.45176042  0.32901931  1
  O  O102  1  0.79823958  1.55605542  0.57901931  1
  O  O103  1  0.70176042  0.44394458  1.07901931  1
  O  O104  1  0.19394458  0.45176042  0.32901931  1
  O  O105  1  1.30605542  0.54823958  0.82901931  1
  O  O106  1  1.29823958  0.44394458  1.07901931  1
  O  O107  1  1.20176042  1.55605542  0.57901931  1
  O  O108  1  1.30605542  0.45176042  1.17098069  1
  O  O109  1  0.19394458  0.54823958  0.67098069  1
  O  O110  1  1.20176042  0.44394458  1.42098069  1
  O  O111  1  1.29823958  1.55605542  0.92098069  1
  O  O112  1  0.90374963  0.15374963  0.87500000  1
  O  O113  1  0.59625037  0.84625037  0.37500000  1
  O  O114  1  0.09625037  0.65374963  0.12500000  1
  O  O115  1  0.40374963  0.34625037  0.62500000  1
  O  O116  1  0.09625037  0.84625037  0.12500000  1
  O  O117  1  0.40374963  0.15374963  0.62500000  1
  O  O118  1  0.90374963  0.34625037  0.87500000  1
  O  O119  1  0.59625037  0.65374963  0.37500000  1
  O  O120  1  0.40374963  0.65374963  0.37500000  1
  O  O121  1  0.09625037  0.34625037  0.87500000  1
  O  O122  1  0.59625037  0.15374963  0.62500000  1
  O  O123  1  0.90374963  0.84625037  0.12500000  1
  O  O124  1  0.59625037  0.34625037  0.62500000  1
  O  O125  1  0.90374963  0.65374963  0.12500000  1
  O  O126  1  0.40374963  0.84625037  0.37500000  1
  O  O127  1  0.09625037  0.15374963  0.87500000  1
  S  S128  1  0.00000000  0.00000000  0.50000000  1
  S  S129  1  0.50000000  0.00000000  0.00000000  1
  S  S130  1  0.25000000  0.75000000  0.75000000  1
  S  S131  1  0.25000000  0.25000000  0.25000000  1
  S  S132  1  0.50000000  0.50000000  0.00000000  1
  S  S133  1  0.00000000  0.50000000  0.50000000  1
  S  S134  1  0.75000000  0.25000000  0.25000000  1
  S  S135  1  0.75000000  0.75000000  0.75000000  1
  S  S136  1  0.00000000  0.00000000  0.00000000  1
  S  S137  1  0.50000000  0.00000000  0.50000000  1
  S  S138  1  0.25000000  0.75000000  0.25000000  1
  S  S139  1  0.25000000  0.25000000  0.75000000  1
  S  S140  1  0.50000000  0.50000000  0.50000000  1
  S  S141  1  0.00000000  0.50000000  0.00000000  1
  S  S142  1  0.75000000  0.25000000  0.75000000  1
  S  S143  1  0.75000000  0.75000000  0.25000000  1
