# generated using pymatgen
data_Li2W2SeO
_symmetry_space_group_name_H-M   'P 1'
_cell_length_a   7.52962838
_cell_length_b   8.04626859
_cell_length_c   8.64633056
_cell_angle_alpha   90.00000000
_cell_angle_beta   90.00000000
_cell_angle_gamma   90.00000000
_symmetry_Int_Tables_number   1
_chemical_formula_structural   Li2W2SeO
_chemical_formula_sum   'Li2 W2 Se1 O1'
_cell_volume   523.84150193
_cell_formula_units_Z   1
loop_
 _symmetry_equiv_pos_site_id
 _symmetry_equiv_pos_as_xyz
  1  'x, y, z'
loop_
 _atom_site_type_symbol
 _atom_site_label
 _atom_site_symmetry_multiplicity
 _atom_site_fract_x
 _atom_site_fract_y
 _atom_site_fract_z
 _atom_site_occupancy
  Li  Li0  1  0.12500000  0.12500000  0.12500000  1
  Li  Li1  1  0.50000000  0.50000000  0.50000000  1
  W  W2  1  0.25000000  0.25000000  0.25000000  1
  W  W3  1  0.75000000  0.75000000  0.75000000  1
  Se  Se4  1  0.13381995  0.85898416  0.15363259  1
  O  O5  1  0.90419060  0.55365244  0.53216814  1
