# generated using pymatgen
data_Li2YZrSiO
_symmetry_space_group_name_H-M   'P 1'
_cell_length_a   12.62655830
_cell_length_b   12.36101704
_cell_length_c   10.17956372
_cell_angle_alpha   90.00000000
_cell_angle_beta   90.00000000
_cell_angle_gamma   90.00000000
_symmetry_Int_Tables_number   1
_chemical_formula_structural   Li2YZrSiO
_chemical_formula_sum   'Li2 Y1 Zr1 Si1 O1'
_cell_volume   1588.79680914
_cell_formula_units_Z   1
loop_
 _symmetry_equiv_pos_site_id
 _symmetry_equiv_pos_as_xyz
  1  'x, y, z'
loop_
 _atom_site_type_symbol
 _atom_site_label
 _atom_site_symmetry_multiplicity
 _atom_site_fract_x
 _atom_site_fract_y
 _atom_site_fract_z
 _atom_site_occupancy
  Li  Li0  1  0.12500000  0.00000000  0.25000000  1
  Li  Li1  1  0.00000000  0.00000000  0.00000000  1
  Y  Y2  1  0.37500000  0.00000000  0.25000000  1
  Zr  Zr3  1  0.25000000  0.25000000  0.25000000  1
  Si  Si4  1  0.00000000  0.25000000  0.12500000  1
  O  O5  1  0.98506036  0.36212439  0.78159521  1
