# generated using pymatgen
data_K3MgSbCl8
_symmetry_space_group_name_H-M   'P 1'
_cell_length_a   15.61008078
_cell_length_b   15.61008078
_cell_length_c   25.59284421
_cell_angle_alpha   90.00000000
_cell_angle_beta   90.00000000
_cell_angle_gamma   90.00000000
_symmetry_Int_Tables_number   1
_chemical_formula_structural   K3MgSbCl8
_chemical_formula_sum   'K48 Mg16 Sb16 Cl128'
_cell_volume   6236.32663456
_cell_formula_units_Z   16
loop_
 _symmetry_equiv_pos_site_id
 _symmetry_equiv_pos_as_xyz
  1  'x, y, z'
loop_
 _atom_site_type_symbol
 _atom_site_label
 _atom_site_symmetry_multiplicity
 _atom_site_fract_x
 _atom_site_fract_y
 _atom_site_fract_z
 _atom_site_occupancy
  Cl  Cl0  1  0.29590811  0.72358179  0.00731557  1
  Cl  Cl1  1  0.20409189  -0.72358179  0.50731557  1
  Cl  Cl2  1  -0.47358179  1.04590811  0.25731557  1
  Cl  Cl3  1  0.97358179  -0.04590811  0.75731557  1
  Cl  Cl4  1  0.20409189  0.72358179  -0.00731557  1
  Cl  Cl5  1  0.29590811  -0.72358179  0.49268443  1
  Cl  Cl6  1  0.97358179  1.04590811  0.74268443  1
  Cl  Cl7  1  -0.47358179  -0.04590811  0.24268443  1
  Cl  Cl8  1  -0.29590811  -0.72358179  -0.00731557  1
  Cl  Cl9  1  0.79590811  0.72358179  0.49268443  1
  Cl  Cl10  1  1.47358179  -0.04590811  0.74268443  1
  Cl  Cl11  1  0.02641821  1.04590811  0.24268443  1
  Cl  Cl12  1  0.79590811  -0.72358179  0.00731557  1
  Cl  Cl13  1  -0.29590811  0.72358179  0.50731557  1
  Cl  Cl14  1  0.02641821  -0.04590811  0.25731557  1
  Cl  Cl15  1  1.47358179  1.04590811  0.75731557  1
  Cl  Cl16  1  0.79590811  1.22358179  0.50731557  1
  Cl  Cl17  1  0.70409189  -0.22358179  1.00731557  1
  Cl  Cl18  1  0.02641821  1.54590811  0.75731557  1
  Cl  Cl19  1  1.47358179  0.45409189  1.25731557  1
  Cl  Cl20  1  0.70409189  1.22358179  0.49268443  1
  Cl  Cl21  1  0.79590811  -0.22358179  0.99268443  1
  Cl  Cl22  1  1.47358179  1.54590811  1.24268443  1
  Cl  Cl23  1  0.02641821  0.45409189  0.74268443  1
  Cl  Cl24  1  0.20409189  -0.22358179  0.49268443  1
  Cl  Cl25  1  1.29590811  1.22358179  0.99268443  1
  Cl  Cl26  1  1.97358179  0.45409189  1.24268443  1
  Cl  Cl27  1  0.52641821  1.54590811  0.74268443  1
  Cl  Cl28  1  1.29590811  -0.22358179  0.50731557  1
  Cl  Cl29  1  0.20409189  1.22358179  1.00731557  1
  Cl  Cl30  1  0.52641821  0.45409189  0.75731557  1
  Cl  Cl31  1  1.97358179  1.54590811  1.25731557  1
  Cl  Cl32  1  0.30072538  0.89833787  0.79853591  1
  Cl  Cl33  1  0.19927462  0.10166213  0.29853591  1
  Cl  Cl34  1  0.35166213  0.05072538  0.04853591  1
  Cl  Cl35  1  0.14833787  0.94927462  0.54853591  1
  Cl  Cl36  1  0.19927462  0.89833787  0.20146409  1
  Cl  Cl37  1  0.30072538  0.10166213  0.70146409  1
  Cl  Cl38  1  0.14833787  0.05072538  0.95146409  1
  Cl  Cl39  1  0.35166213  0.94927462  0.45146409  1
  Cl  Cl40  1  0.69927462  0.10166213  0.20146409  1
  Cl  Cl41  1  0.80072538  0.89833787  0.70146409  1
  Cl  Cl42  1  0.64833787  0.94927462  0.95146409  1
  Cl  Cl43  1  0.85166213  0.05072538  0.45146409  1
  Cl  Cl44  1  0.80072538  0.10166213  0.79853591  1
  Cl  Cl45  1  0.69927462  0.89833787  0.29853591  1
  Cl  Cl46  1  0.85166213  0.94927462  0.04853591  1
  Cl  Cl47  1  0.64833787  0.05072538  0.54853591  1
  Cl  Cl48  1  0.80072538  0.39833787  0.29853591  1
  Cl  Cl49  1  0.69927462  0.60166213  0.79853591  1
  Cl  Cl50  1  0.85166213  0.55072538  0.54853591  1
  Cl  Cl51  1  0.64833787  0.44927462  0.04853591  1
  Cl  Cl52  1  0.69927462  0.39833787  0.70146409  1
  Cl  Cl53  1  0.80072538  0.60166213  0.20146409  1
  Cl  Cl54  1  0.64833787  0.55072538  0.45146409  1
  Cl  Cl55  1  0.85166213  0.44927462  0.95146409  1
  Cl  Cl56  1  0.19927462  0.60166213  0.70146409  1
  Cl  Cl57  1  0.30072538  0.39833787  0.20146409  1
  Cl  Cl58  1  0.14833787  0.44927462  0.45146409  1
  Cl  Cl59  1  0.35166213  0.55072538  0.95146409  1
  Cl  Cl60  1  0.30072538  0.60166213  0.29853591  1
  Cl  Cl61  1  0.19927462  0.39833787  0.79853591  1
  Cl  Cl62  1  0.35166213  0.44927462  0.54853591  1
  Cl  Cl63  1  0.14833787  0.55072538  0.04853591  1
  Cl  Cl64  1  0.81413484  0.70778613  0.22136087  1
  Cl  Cl65  1  0.68586516  0.29221387  0.72136087  1
  Cl  Cl66  1  0.54221387  0.56413484  0.47136087  1
  Cl  Cl67  1  0.95778613  0.43586516  0.97136087  1
  Cl  Cl68  1  0.68586516  0.70778613  0.77863913  1
  Cl  Cl69  1  0.81413484  0.29221387  0.27863913  1
  Cl  Cl70  1  0.95778613  0.56413484  0.52863913  1
  Cl  Cl71  1  0.54221387  0.43586516  0.02863913  1
  Cl  Cl72  1  0.18586516  0.29221387  0.77863913  1
  Cl  Cl73  1  0.31413484  0.70778613  0.27863913  1
  Cl  Cl74  1  0.45778613  0.43586516  0.52863913  1
  Cl  Cl75  1  0.04221387  0.56413484  0.02863913  1
  Cl  Cl76  1  0.31413484  0.29221387  0.22136087  1
  Cl  Cl77  1  0.18586516  0.70778613  0.72136087  1
  Cl  Cl78  1  0.04221387  0.43586516  0.47136087  1
  Cl  Cl79  1  0.45778613  0.56413484  0.97136087  1
  Cl  Cl80  1  0.31413484  0.20778613  0.72136087  1
  Cl  Cl81  1  0.18586516  0.79221387  0.22136087  1
  Cl  Cl82  1  0.04221387  0.06413484  0.97136087  1
  Cl  Cl83  1  0.45778613  0.93586516  0.47136087  1
  Cl  Cl84  1  0.18586516  0.20778613  0.27863913  1
  Cl  Cl85  1  0.31413484  0.79221387  0.77863913  1
  Cl  Cl86  1  0.45778613  0.06413484  0.02863913  1
  Cl  Cl87  1  0.04221387  0.93586516  0.52863913  1
  Cl  Cl88  1  0.68586516  0.79221387  0.27863913  1
  Cl  Cl89  1  0.81413484  0.20778613  0.77863913  1
  Cl  Cl90  1  0.95778613  0.93586516  0.02863913  1
  Cl  Cl91  1  0.54221387  0.06413484  0.52863913  1
  Cl  Cl92  1  0.81413484  0.79221387  0.72136087  1
  Cl  Cl93  1  0.68586516  0.20778613  0.22136087  1
  Cl  Cl94  1  0.54221387  0.93586516  0.97136087  1
  Cl  Cl95  1  0.95778613  0.06413484  0.47136087  1
  Cl  Cl96  1  0.61405125  0.50086902  0.08481307  1
  Cl  Cl97  1  0.88594875  0.49913098  0.58481307  1
  Cl  Cl98  1  0.74913098  0.36405125  0.33481307  1
  Cl  Cl99  1  0.75086902  0.63594875  0.83481307  1
  Cl  Cl100  1  0.88594875  0.50086902  0.91518693  1
  Cl  Cl101  1  0.61405125  0.49913098  0.41518693  1
  Cl  Cl102  1  0.75086902  0.36405125  0.66518693  1
  Cl  Cl103  1  0.74913098  0.63594875  0.16518693  1
  Cl  Cl104  1  0.38594875  0.49913098  0.91518693  1
  Cl  Cl105  1  0.11405125  0.50086902  0.41518693  1
  Cl  Cl106  1  0.25086902  0.63594875  0.66518693  1
  Cl  Cl107  1  0.24913098  0.36405125  0.16518693  1
  Cl  Cl108  1  0.11405125  0.49913098  0.08481307  1
  Cl  Cl109  1  0.38594875  0.50086902  0.58481307  1
  Cl  Cl110  1  0.24913098  0.63594875  0.33481307  1
  Cl  Cl111  1  0.25086902  0.36405125  0.83481307  1
  Cl  Cl112  1  0.11405125  0.00086902  0.58481307  1
  Cl  Cl113  1  0.38594875  0.99913098  0.08481307  1
  Cl  Cl114  1  0.24913098  0.86405125  0.83481307  1
  Cl  Cl115  1  0.25086902  0.13594875  0.33481307  1
  Cl  Cl116  1  0.38594875  0.00086902  0.41518693  1
  Cl  Cl117  1  0.11405125  0.99913098  0.91518693  1
  Cl  Cl118  1  0.25086902  0.86405125  0.16518693  1
  Cl  Cl119  1  0.24913098  0.13594875  0.66518693  1
  Cl  Cl120  1  0.88594875  0.99913098  0.41518693  1
  Cl  Cl121  1  0.61405125  0.00086902  0.91518693  1
  Cl  Cl122  1  0.75086902  0.13594875  0.16518693  1
  Cl  Cl123  1  0.74913098  0.86405125  0.66518693  1
  Cl  Cl124  1  0.61405125  0.99913098  0.58481307  1
  Cl  Cl125  1  0.88594875  0.00086902  0.08481307  1
  Cl  Cl126  1  0.74913098  0.13594875  0.83481307  1
  Cl  Cl127  1  0.75086902  0.86405125  0.33481307  1
  K  K128  1  0.00000000  0.25000000  0.76342186  1
  K  K129  1  0.00000000  0.75000000  0.01342186  1
  K  K130  1  0.50000000  0.25000000  0.23657814  1
  K  K131  1  0.50000000  0.75000000  0.98657814  1
  K  K132  1  0.00000000  0.75000000  0.23657814  1
  K  K133  1  0.00000000  0.25000000  0.98657814  1
  K  K134  1  0.50000000  0.75000000  0.76342186  1
  K  K135  1  0.50000000  0.25000000  0.01342186  1
  K  K136  1  0.50000000  0.75000000  0.26342186  1
  K  K137  1  0.50000000  0.25000000  0.51342186  1
  K  K138  1  0.00000000  0.75000000  0.73657814  1
  K  K139  1  0.00000000  0.25000000  0.48657814  1
  K  K140  1  0.50000000  0.25000000  0.73657814  1
  K  K141  1  0.50000000  0.75000000  0.48657814  1
  K  K142  1  0.00000000  0.25000000  0.26342186  1
  K  K143  1  0.00000000  0.75000000  0.51342186  1
  K  K144  1  0.71467973  0.36019250  0.93517954  1
  K  K145  1  0.78532027  0.63980750  0.43517954  1
  K  K146  1  0.88980750  0.46467973  0.18517954  1
  K  K147  1  0.61019250  0.53532027  0.68517954  1
  K  K148  1  0.78532027  0.36019250  0.06482046  1
  K  K149  1  0.71467973  0.63980750  0.56482046  1
  K  K150  1  0.61019250  0.46467973  0.81482046  1
  K  K151  1  0.88980750  0.53532027  0.31482046  1
  K  K152  1  0.28532027  0.63980750  0.06482046  1
  K  K153  1  0.21467973  0.36019250  0.56482046  1
  K  K154  1  0.11019250  0.53532027  0.81482046  1
  K  K155  1  0.38980750  0.46467973  0.31482046  1
  K  K156  1  0.21467973  0.63980750  0.93517954  1
  K  K157  1  0.28532027  0.36019250  0.43517954  1
  K  K158  1  0.38980750  0.53532027  0.18517954  1
  K  K159  1  0.11019250  0.46467973  0.68517954  1
  K  K160  1  0.21467973  0.86019250  0.43517954  1
  K  K161  1  0.28532027  0.13980750  0.93517954  1
  K  K162  1  0.38980750  0.96467973  0.68517954  1
  K  K163  1  0.11019250  0.03532027  0.18517954  1
  K  K164  1  0.28532027  0.86019250  0.56482046  1
  K  K165  1  0.21467973  0.13980750  0.06482046  1
  K  K166  1  0.11019250  0.96467973  0.31482046  1
  K  K167  1  0.38980750  0.03532027  0.81482046  1
  K  K168  1  0.78532027  0.13980750  0.56482046  1
  K  K169  1  0.71467973  0.86019250  0.06482046  1
  K  K170  1  0.61019250  0.03532027  0.31482046  1
  K  K171  1  0.88980750  0.96467973  0.81482046  1
  K  K172  1  0.71467973  0.13980750  0.43517954  1
  K  K173  1  0.78532027  0.86019250  0.93517954  1
  K  K174  1  0.88980750  0.03532027  0.68517954  1
  K  K175  1  0.61019250  0.96467973  0.18517954  1
  Mg  Mg176  1  0.00000000  0.25000000  0.37500000  1
  Mg  Mg177  1  0.00000000  0.75000000  0.62500000  1
  Mg  Mg178  1  0.50000000  0.25000000  0.62500000  1
  Mg  Mg179  1  0.50000000  0.75000000  0.37500000  1
  Mg  Mg180  1  0.50000000  0.75000000  0.87500000  1
  Mg  Mg181  1  0.50000000  0.25000000  0.12500000  1
  Mg  Mg182  1  0.00000000  0.75000000  0.12500000  1
  Mg  Mg183  1  0.00000000  0.25000000  0.87500000  1
  Mg  Mg184  1  0.00000000  0.25000000  0.12500000  1
  Mg  Mg185  1  0.00000000  0.75000000  0.37500000  1
  Mg  Mg186  1  0.00000000  0.75000000  0.87500000  1
  Mg  Mg187  1  0.00000000  0.25000000  0.62500000  1
  Mg  Mg188  1  0.50000000  0.75000000  0.62500000  1
  Mg  Mg189  1  0.50000000  0.25000000  0.87500000  1
  Mg  Mg190  1  0.50000000  0.25000000  0.37500000  1
  Mg  Mg191  1  0.50000000  0.75000000  0.12500000  1
  Sb  Sb192  1  0.26589347  0.51589347  0.12500000  1
  Sb  Sb193  1  0.23410653  0.48410653  0.62500000  1
  Sb  Sb194  1  0.73410653  0.01589347  0.37500000  1
  Sb  Sb195  1  0.76589347  0.98410653  0.87500000  1
  Sb  Sb196  1  0.73410653  0.48410653  0.87500000  1
  Sb  Sb197  1  0.76589347  0.51589347  0.37500000  1
  Sb  Sb198  1  0.26589347  0.98410653  0.62500000  1
  Sb  Sb199  1  0.23410653  0.01589347  0.12500000  1
  Sb  Sb200  1  0.76589347  0.01589347  0.62500000  1
  Sb  Sb201  1  0.73410653  0.98410653  0.12500000  1
  Sb  Sb202  1  0.23410653  0.51589347  0.87500000  1
  Sb  Sb203  1  0.26589347  0.48410653  0.37500000  1
  Sb  Sb204  1  0.23410653  0.98410653  0.37500000  1
  Sb  Sb205  1  0.26589347  0.01589347  0.87500000  1
  Sb  Sb206  1  0.76589347  0.48410653  0.12500000  1
  Sb  Sb207  1  0.73410653  0.51589347  0.62500000  1
