# generated using pymatgen
data_LiHf3S2Br9
_symmetry_space_group_name_H-M   'P 1'
_cell_length_a   13.85459938
_cell_length_b   13.85459938
_cell_length_c   8.32972539
_cell_angle_alpha   90.00000000
_cell_angle_beta   90.00000000
_cell_angle_gamma   120.00000000
_symmetry_Int_Tables_number   1
_chemical_formula_structural   LiHf3S2Br9
_chemical_formula_sum   'Li4 Hf12 S8 Br36'
_cell_volume   1384.67949197
_cell_formula_units_Z   4
loop_
 _symmetry_equiv_pos_site_id
 _symmetry_equiv_pos_as_xyz
  1  'x, y, z'
loop_
 _atom_site_type_symbol
 _atom_site_label
 _atom_site_symmetry_multiplicity
 _atom_site_fract_x
 _atom_site_fract_y
 _atom_site_fract_z
 _atom_site_occupancy
  Br  Br0  1  0.75778047  0.51556094  0.45828741  1
  Br  Br1  1  0.48443906  0.24221953  0.45828741  1
  Br  Br2  1  0.75778047  0.24221953  0.45828741  1
  Br  Br3  1  0.24221953  0.48443906  0.95828741  1
  Br  Br4  1  0.51556094  0.75778047  0.95828741  1
  Br  Br5  1  0.24221953  0.75778047  0.95828741  1
  Br  Br6  1  0.51556094  0.75778047  0.54171259  1
  Br  Br7  1  0.24221953  0.48443906  0.54171259  1
  Br  Br8  1  0.24221953  0.75778047  0.54171259  1
  Br  Br9  1  0.48443906  0.24221953  0.04171259  1
  Br  Br10  1  0.75778047  0.51556094  0.04171259  1
  Br  Br11  1  0.75778047  0.24221953  0.04171259  1
  Br  Br12  1  0.43229642  0.30728787  0.15229108  1
  Br  Br13  1  -0.30728787  0.12500855  0.15229108  1
  Br  Br14  1  -0.12500855  -0.43229642  0.15229108  1
  Br  Br15  1  -0.43229642  -0.30728787  0.65229108  1
  Br  Br16  1  0.30728787  -0.12500855  0.65229108  1
  Br  Br17  1  0.12500855  0.43229642  0.65229108  1
  Br  Br18  1  0.30728787  0.43229642  -0.15229108  1
  Br  Br19  1  0.12500855  -0.30728787  -0.15229108  1
  Br  Br20  1  -0.43229642  -0.12500855  -0.15229108  1
  Br  Br21  1  -0.30728787  -0.43229642  0.34770892  1
  Br  Br22  1  -0.12500855  0.30728787  0.34770892  1
  Br  Br23  1  0.43229642  0.12500855  0.34770892  1
  Br  Br24  1  -0.43229642  -0.30728787  -0.15229108  1
  Br  Br25  1  0.30728787  -0.12500855  -0.15229108  1
  Br  Br26  1  0.12500855  0.43229642  -0.15229108  1
  Br  Br27  1  0.43229642  0.30728787  0.34770892  1
  Br  Br28  1  -0.30728787  0.12500855  0.34770892  1
  Br  Br29  1  -0.12500855  -0.43229642  0.34770892  1
  Br  Br30  1  -0.30728787  -0.43229642  0.15229108  1
  Br  Br31  1  -0.12500855  0.30728787  0.15229108  1
  Br  Br32  1  0.43229642  0.12500855  0.15229108  1
  Br  Br33  1  0.30728787  0.43229642  0.65229108  1
  Br  Br34  1  0.12500855  -0.30728787  0.65229108  1
  Br  Br35  1  -0.43229642  -0.12500855  0.65229108  1
  Hf  Hf36  1  0.82182308  0.00000000  0.00000000  1
  Hf  Hf37  1  0.00000000  0.82182308  0.00000000  1
  Hf  Hf38  1  0.17817692  0.17817692  0.00000000  1
  Hf  Hf39  1  0.17817692  0.00000000  0.50000000  1
  Hf  Hf40  1  0.00000000  0.17817692  0.50000000  1
  Hf  Hf41  1  0.82182308  0.82182308  0.50000000  1
  Hf  Hf42  1  0.17817692  0.00000000  -0.00000000  1
  Hf  Hf43  1  0.00000000  0.17817692  0.00000000  1
  Hf  Hf44  1  0.82182308  0.82182308  0.00000000  1
  Hf  Hf45  1  0.82182308  0.00000000  0.50000000  1
  Hf  Hf46  1  0.00000000  0.82182308  0.50000000  1
  Hf  Hf47  1  0.17817692  0.17817692  0.50000000  1
  Li  Li48  1  0.33333333  0.66666667  0.25000000  1
  Li  Li49  1  0.66666667  0.33333333  0.75000000  1
  Li  Li50  1  0.00000000  0.00000000  0.00000000  1
  Li  Li51  1  0.00000000  0.00000000  0.50000000  1
  S  S52  1  0.50000000  0.00000000  0.00000000  1
  S  S53  1  0.00000000  0.50000000  0.00000000  1
  S  S54  1  0.50000000  0.50000000  0.00000000  1
  S  S55  1  0.50000000  0.00000000  0.50000000  1
  S  S56  1  0.00000000  0.50000000  0.50000000  1
  S  S57  1  0.50000000  0.50000000  0.50000000  1
  S  S58  1  0.00000000  0.00000000  0.25000000  1
  S  S59  1  0.00000000  0.00000000  0.75000000  1
