# generated using pymatgen
data_Li4ScF
_symmetry_space_group_name_H-M   'P 1'
_cell_length_a   3.24515341
_cell_length_b   3.07964711
_cell_length_c   6.04139917
_cell_angle_alpha   118.16483648
_cell_angle_beta   99.71980974
_cell_angle_gamma   103.55976756
_symmetry_Int_Tables_number   1
_chemical_formula_structural   Li4ScF
_chemical_formula_sum   'Li4 Sc1 F1'
_cell_volume   48.91545132
_cell_formula_units_Z   1
loop_
 _symmetry_equiv_pos_site_id
 _symmetry_equiv_pos_as_xyz
  1  'x, y, z'
loop_
 _atom_site_type_symbol
 _atom_site_label
 _atom_site_symmetry_multiplicity
 _atom_site_fract_x
 _atom_site_fract_y
 _atom_site_fract_z
 _atom_site_occupancy
  Li  Li0  1  0.00000000  0.00000000  0.00000000  1
  Li  Li1  1  0.33300000  0.66700000  0.25000000  1
  Li  Li2  1  0.66700000  0.33300000  0.50000000  1
  Li  Li3  1  0.00000000  0.00000000  0.75000000  1
  Sc  Sc4  1  0.54904274  0.50213047  0.09587461  1
  F  F5  1  0.72207717  0.91446174  0.25018647  1
