# generated using pymatgen
data_Li2Te
_symmetry_space_group_name_H-M   'P 1'
_cell_length_a   12.22607837
_cell_length_b   12.22607837
_cell_length_c   15.32979364
_cell_angle_alpha   90.00000000
_cell_angle_beta   90.00000000
_cell_angle_gamma   90.00000000
_symmetry_Int_Tables_number   1
_chemical_formula_structural   Li2Te
_chemical_formula_sum   'Li64 Te32'
_cell_volume   2291.45144762
_cell_formula_units_Z   32
loop_
 _symmetry_equiv_pos_site_id
 _symmetry_equiv_pos_as_xyz
  1  'x, y, z'
loop_
 _atom_site_type_symbol
 _atom_site_label
 _atom_site_symmetry_multiplicity
 _atom_site_fract_x
 _atom_site_fract_y
 _atom_site_fract_z
 _atom_site_occupancy
  Li  Li0  1  0.92103607  0.17103607  0.12500000  1
  Li  Li1  1  0.57896393  0.82896393  0.62500000  1
  Li  Li2  1  0.07896393  0.67103607  0.37500000  1
  Li  Li3  1  0.42103607  0.32896393  0.87500000  1
  Li  Li4  1  0.07896393  0.82896393  0.87500000  1
  Li  Li5  1  0.42103607  0.17103607  0.37500000  1
  Li  Li6  1  0.92103607  0.32896393  0.62500000  1
  Li  Li7  1  0.57896393  0.67103607  0.12500000  1
  Li  Li8  1  0.42103607  0.67103607  0.62500000  1
  Li  Li9  1  0.07896393  0.32896393  0.12500000  1
  Li  Li10  1  0.57896393  0.17103607  0.87500000  1
  Li  Li11  1  0.92103607  0.82896393  0.37500000  1
  Li  Li12  1  0.57896393  0.32896393  0.37500000  1
  Li  Li13  1  0.92103607  0.67103607  0.87500000  1
  Li  Li14  1  0.42103607  0.82896393  0.12500000  1
  Li  Li15  1  0.07896393  0.17103607  0.62500000  1
  Li  Li16  1  0.36509050  0.00000000  0.25000000  1
  Li  Li17  1  0.13490950  -0.00000000  0.75000000  1
  Li  Li18  1  0.25000000  0.11509050  0.50000000  1
  Li  Li19  1  0.25000000  0.88490950  0.00000000  1
  Li  Li20  1  0.63490950  -0.00000000  0.75000000  1
  Li  Li21  1  0.86509050  0.00000000  0.25000000  1
  Li  Li22  1  0.75000000  0.88490950  0.50000000  1
  Li  Li23  1  0.75000000  0.11509050  0.00000000  1
  Li  Li24  1  0.86509050  0.50000000  0.75000000  1
  Li  Li25  1  0.63490950  0.50000000  0.25000000  1
  Li  Li26  1  0.75000000  0.61509050  -0.00000000  1
  Li  Li27  1  0.75000000  0.38490950  0.50000000  1
  Li  Li28  1  0.13490950  0.50000000  0.25000000  1
  Li  Li29  1  0.36509050  0.50000000  0.75000000  1
  Li  Li30  1  0.25000000  0.38490950  0.00000000  1
  Li  Li31  1  0.25000000  0.61509050  0.50000000  1
  Li  Li32  1  0.16796545  0.83544194  0.71046383  1
  Li  Li33  1  0.33203455  -0.83544194  1.21046383  1
  Li  Li34  1  -0.58544194  0.91796545  0.96046383  1
  Li  Li35  1  1.08544194  0.08203455  1.46046383  1
  Li  Li36  1  0.33203455  0.83544194  -0.71046383  1
  Li  Li37  1  0.16796545  -0.83544194  -0.21046383  1
  Li  Li38  1  1.08544194  0.91796545  0.03953617  1
  Li  Li39  1  -0.58544194  0.08203455  -0.46046383  1
  Li  Li40  1  -0.16796545  -0.83544194  -0.71046383  1
  Li  Li41  1  0.66796545  0.83544194  -0.21046383  1
  Li  Li42  1  1.58544194  0.08203455  0.03953617  1
  Li  Li43  1  -0.08544194  0.91796545  -0.46046383  1
  Li  Li44  1  0.66796545  -0.83544194  0.71046383  1
  Li  Li45  1  -0.16796545  0.83544194  1.21046383  1
  Li  Li46  1  -0.08544194  0.08203455  0.96046383  1
  Li  Li47  1  1.58544194  0.91796545  1.46046383  1
  Li  Li48  1  0.66796545  1.33544194  1.21046383  1
  Li  Li49  1  0.83203455  -0.33544194  1.71046383  1
  Li  Li50  1  -0.08544194  1.41796545  1.46046383  1
  Li  Li51  1  1.58544194  0.58203455  1.96046383  1
  Li  Li52  1  0.83203455  1.33544194  -0.21046383  1
  Li  Li53  1  0.66796545  -0.33544194  0.28953617  1
  Li  Li54  1  1.58544194  1.41796545  0.53953617  1
  Li  Li55  1  -0.08544194  0.58203455  0.03953617  1
  Li  Li56  1  0.33203455  -0.33544194  -0.21046383  1
  Li  Li57  1  1.16796545  1.33544194  0.28953617  1
  Li  Li58  1  2.08544194  0.58203455  0.53953617  1
  Li  Li59  1  0.41455806  1.41796545  0.03953617  1
  Li  Li60  1  1.16796545  -0.33544194  1.21046383  1
  Li  Li61  1  0.33203455  1.33544194  1.71046383  1
  Li  Li62  1  0.41455806  0.58203455  1.46046383  1
  Li  Li63  1  2.08544194  1.41796545  1.96046383  1
  Te  Te64  1  0.87084214  0.69862920  0.95734884  1
  Te  Te65  1  0.62915786  0.30137080  0.45734884  1
  Te  Te66  1  0.55137080  0.62084214  0.20734884  1
  Te  Te67  1  0.94862920  0.37915786  0.70734884  1
  Te  Te68  1  0.62915786  0.69862920  0.04265116  1
  Te  Te69  1  0.87084214  0.30137080  0.54265116  1
  Te  Te70  1  0.94862920  0.62084214  0.79265116  1
  Te  Te71  1  0.55137080  0.37915786  0.29265116  1
  Te  Te72  1  0.12915786  0.30137080  0.04265116  1
  Te  Te73  1  0.37084214  0.69862920  0.54265116  1
  Te  Te74  1  0.44862920  0.37915786  0.79265116  1
  Te  Te75  1  0.05137080  0.62084214  0.29265116  1
  Te  Te76  1  0.37084214  0.30137080  0.95734884  1
  Te  Te77  1  0.12915786  0.69862920  0.45734884  1
  Te  Te78  1  0.05137080  0.37915786  0.20734884  1
  Te  Te79  1  0.44862920  0.62084214  0.70734884  1
  Te  Te80  1  0.37084214  0.19862920  0.45734884  1
  Te  Te81  1  0.12915786  0.80137080  0.95734884  1
  Te  Te82  1  0.05137080  0.12084214  0.70734884  1
  Te  Te83  1  0.44862920  0.87915786  0.20734884  1
  Te  Te84  1  0.12915786  0.19862920  0.54265116  1
  Te  Te85  1  0.37084214  0.80137080  0.04265116  1
  Te  Te86  1  0.44862920  0.12084214  0.29265116  1
  Te  Te87  1  0.05137080  0.87915786  0.79265116  1
  Te  Te88  1  0.62915786  0.80137080  0.54265116  1
  Te  Te89  1  0.87084214  0.19862920  0.04265116  1
  Te  Te90  1  0.94862920  0.87915786  0.29265116  1
  Te  Te91  1  0.55137080  0.12084214  0.79265116  1
  Te  Te92  1  0.87084214  0.80137080  0.45734884  1
  Te  Te93  1  0.62915786  0.19862920  0.95734884  1
  Te  Te94  1  0.55137080  0.87915786  0.70734884  1
  Te  Te95  1  0.94862920  0.12084214  0.20734884  1
