# generated using pymatgen
data_Li2Te
_symmetry_space_group_name_H-M   'P 1'
_cell_length_a   10.43424969
_cell_length_b   10.43424969
_cell_length_c   6.52908650
_cell_angle_alpha   90.00000000
_cell_angle_beta   90.00000000
_cell_angle_gamma   120.00000000
_symmetry_Int_Tables_number   1
_chemical_formula_structural   Li2Te
_chemical_formula_sum   'Li36 Te18'
_cell_volume   615.60977131
_cell_formula_units_Z   18
loop_
 _symmetry_equiv_pos_site_id
 _symmetry_equiv_pos_as_xyz
  1  'x, y, z'
loop_
 _atom_site_type_symbol
 _atom_site_label
 _atom_site_symmetry_multiplicity
 _atom_site_fract_x
 _atom_site_fract_y
 _atom_site_fract_z
 _atom_site_occupancy
  Li  Li0  1  0.39019138  0.16579917  0.60034398  1
  Li  Li1  1  -0.16579917  0.22439221  0.60034398  1
  Li  Li2  1  -0.22439221  -0.39019138  0.60034398  1
  Li  Li3  1  0.16579917  0.39019138  -0.10034398  1
  Li  Li4  1  0.22439221  -0.16579917  -0.10034398  1
  Li  Li5  1  -0.39019138  -0.22439221  -0.10034398  1
  Li  Li6  1  -0.39019138  -0.16579917  -0.60034398  1
  Li  Li7  1  0.16579917  -0.22439221  -0.60034398  1
  Li  Li8  1  0.22439221  0.39019138  -0.60034398  1
  Li  Li9  1  -0.16579917  -0.39019138  1.10034398  1
  Li  Li10  1  -0.22439221  0.16579917  1.10034398  1
  Li  Li11  1  0.39019138  0.22439221  1.10034398  1
  Li  Li12  1  1.05685805  0.49913250  0.93367732  1
  Li  Li13  1  0.50086750  0.55772555  0.93367732  1
  Li  Li14  1  0.44227445  -0.05685805  0.93367732  1
  Li  Li15  1  0.83246584  0.72352472  0.23298935  1
  Li  Li16  1  0.89105888  0.16753416  0.23298935  1
  Li  Li17  1  0.27647528  0.10894112  0.23298935  1
  Li  Li18  1  0.27647528  0.16753416  -0.26701065  1
  Li  Li19  1  0.83246584  0.10894112  -0.26701065  1
  Li  Li20  1  0.89105888  0.72352472  -0.26701065  1
  Li  Li21  1  0.50086750  -0.05685805  1.43367732  1
  Li  Li22  1  0.44227445  0.49913250  1.43367732  1
  Li  Li23  1  1.05685805  0.55772555  1.43367732  1
  Li  Li24  1  0.72352472  0.83246584  1.26701065  1
  Li  Li25  1  0.16753416  0.89105888  1.26701065  1
  Li  Li26  1  0.10894112  0.27647528  1.26701065  1
  Li  Li27  1  0.49913250  1.05685805  0.56632268  1
  Li  Li28  1  0.55772555  0.50086750  0.56632268  1
  Li  Li29  1  -0.05685805  0.44227445  0.56632268  1
  Li  Li30  1  -0.05685805  0.50086750  0.06632268  1
  Li  Li31  1  0.49913250  0.44227445  0.06632268  1
  Li  Li32  1  0.55772555  1.05685805  0.06632268  1
  Li  Li33  1  0.16753416  0.27647528  1.76701065  1
  Li  Li34  1  0.10894112  0.83246584  1.76701065  1
  Li  Li35  1  0.72352472  0.89105888  1.76701065  1
  Te  Te36  1  0.92155179  0.00000000  0.25000000  1
  Te  Te37  1  0.00000000  0.92155179  0.25000000  1
  Te  Te38  1  0.07844821  0.07844821  0.25000000  1
  Te  Te39  1  0.07844821  0.00000000  0.75000000  1
  Te  Te40  1  0.00000000  0.07844821  0.75000000  1
  Te  Te41  1  0.92155179  0.92155179  0.75000000  1
  Te  Te42  1  0.58821846  0.33333333  0.58333333  1
  Te  Te43  1  0.66666667  0.25488513  0.58333333  1
  Te  Te44  1  0.74511487  0.41178154  0.58333333  1
  Te  Te45  1  0.74511487  0.33333333  0.08333333  1
  Te  Te46  1  0.66666667  0.41178154  0.08333333  1
  Te  Te47  1  0.58821846  0.25488513  0.08333333  1
  Te  Te48  1  0.25488513  0.66666667  0.91666667  1
  Te  Te49  1  0.33333333  0.58821846  0.91666667  1
  Te  Te50  1  0.41178154  0.74511487  0.91666667  1
  Te  Te51  1  0.41178154  0.66666667  0.41666667  1
  Te  Te52  1  0.33333333  0.74511487  0.41666667  1
  Te  Te53  1  0.25488513  0.58821846  0.41666667  1
