# generated using pymatgen
data_Li2Ca2TiSO4
_symmetry_space_group_name_H-M   'P 1'
_cell_length_a   10.68066483
_cell_length_b   10.68066483
_cell_length_c   10.52578968
_cell_angle_alpha   90.00000000
_cell_angle_beta   90.00000000
_cell_angle_gamma   120.00000000
_symmetry_Int_Tables_number   1
_chemical_formula_structural   Li2Ca2TiSO4
_chemical_formula_sum   'Li12 Ca12 Ti6 S6 O24'
_cell_volume   1039.87680908
_cell_formula_units_Z   6
loop_
 _symmetry_equiv_pos_site_id
 _symmetry_equiv_pos_as_xyz
  1  'x, y, z'
loop_
 _atom_site_type_symbol
 _atom_site_label
 _atom_site_symmetry_multiplicity
 _atom_site_fract_x
 _atom_site_fract_y
 _atom_site_fract_z
 _atom_site_occupancy
  Ca  Ca0  1  0.53412332  0.21474554  0.97584800  1
  Ca  Ca1  1  -0.21474554  0.31937778  0.97584800  1
  Ca  Ca2  1  -0.31937778  -0.53412332  0.97584800  1
  Ca  Ca3  1  -0.53412332  -0.21474554  1.47584800  1
  Ca  Ca4  1  0.21474554  -0.31937778  1.47584800  1
  Ca  Ca5  1  0.31937778  0.53412332  1.47584800  1
  Ca  Ca6  1  -0.53412332  -0.21474554  -0.97584800  1
  Ca  Ca7  1  0.21474554  -0.31937778  -0.97584800  1
  Ca  Ca8  1  0.31937778  0.53412332  -0.97584800  1
  Ca  Ca9  1  0.53412332  0.21474554  -0.47584800  1
  Ca  Ca10  1  -0.21474554  0.31937778  -0.47584800  1
  Ca  Ca11  1  -0.31937778  -0.53412332  -0.47584800  1
  Li  Li12  1  0.51245264  0.16809542  0.25000000  1
  Li  Li13  1  0.83190458  0.34435722  0.25000000  1
  Li  Li14  1  0.65564278  0.48754736  0.25000000  1
  Li  Li15  1  0.48754736  0.83190458  0.75000000  1
  Li  Li16  1  0.16809542  0.65564278  0.75000000  1
  Li  Li17  1  0.34435722  0.51245264  0.75000000  1
  Li  Li18  1  0.31945689  0.39319966  0.25000000  1
  Li  Li19  1  0.60680034  0.92625723  0.25000000  1
  Li  Li20  1  0.07374277  0.68054311  0.25000000  1
  Li  Li21  1  0.68054311  0.60680034  0.75000000  1
  Li  Li22  1  0.39319966  0.07374277  0.75000000  1
  Li  Li23  1  0.92625723  0.31945689  0.75000000  1
  O  O24  1  0.21286669  0.01369674  0.51021630  1
  O  O25  1  0.98630326  0.19916995  0.51021630  1
  O  O26  1  0.80083005  0.78713331  0.51021630  1
  O  O27  1  0.78713331  0.98630326  0.01021630  1
  O  O28  1  0.01369674  0.80083005  0.01021630  1
  O  O29  1  0.19916995  0.21286669  0.01021630  1
  O  O30  1  0.78713331  0.98630326  0.48978370  1
  O  O31  1  0.01369674  0.80083005  0.48978370  1
  O  O32  1  0.19916995  0.21286669  0.48978370  1
  O  O33  1  0.21286669  0.01369674  0.98978370  1
  O  O34  1  0.98630326  0.19916995  0.98978370  1
  O  O35  1  0.80083005  0.78713331  0.98978370  1
  O  O36  1  0.66666667  0.33333333  0.25000000  1
  O  O37  1  0.33333333  0.66666667  0.75000000  1
  O  O38  1  0.68785018  0.87133944  0.25000000  1
  O  O39  1  0.12866056  0.81651074  0.25000000  1
  O  O40  1  0.18348926  0.31214982  0.25000000  1
  O  O41  1  0.31214982  0.12866056  0.75000000  1
  O  O42  1  0.87133944  0.18348926  0.75000000  1
  O  O43  1  0.81651074  0.68785018  0.75000000  1
  O  O44  1  0.00000000  0.00000000  0.00000000  1
  O  O45  1  0.00000000  0.00000000  0.50000000  1
  O  O46  1  0.33333333  0.66666667  0.25000000  1
  O  O47  1  0.66666667  0.33333333  0.75000000  1
  S  S48  1  0.87724809  0.85853348  0.25000000  1
  S  S49  1  0.14146652  0.01871461  0.25000000  1
  S  S50  1  0.98128539  0.12275191  0.25000000  1
  S  S51  1  0.12275191  0.14146652  0.75000000  1
  S  S52  1  0.85853348  0.98128539  0.75000000  1
  S  S53  1  0.01871461  0.87724809  0.75000000  1
  Ti  Ti54  1  0.50000000  0.00000000  0.00000000  1
  Ti  Ti55  1  0.00000000  0.50000000  0.00000000  1
  Ti  Ti56  1  0.50000000  0.50000000  0.00000000  1
  Ti  Ti57  1  0.50000000  0.00000000  0.50000000  1
  Ti  Ti58  1  0.00000000  0.50000000  0.50000000  1
  Ti  Ti59  1  0.50000000  0.50000000  0.50000000  1
