# generated using pymatgen
data_Li2TiSeF
_symmetry_space_group_name_H-M   'P 1'
_cell_length_a   7.58132923
_cell_length_b   6.94963241
_cell_length_c   8.18424083
_cell_angle_alpha   90.00000000
_cell_angle_beta   90.00000000
_cell_angle_gamma   90.00000000
_symmetry_Int_Tables_number   1
_chemical_formula_structural   Li2TiSeF
_chemical_formula_sum   'Li4 Ti2 Se2 F2'
_cell_volume   431.20678994
_cell_formula_units_Z   2
loop_
 _symmetry_equiv_pos_site_id
 _symmetry_equiv_pos_as_xyz
  1  'x, y, z'
loop_
 _atom_site_type_symbol
 _atom_site_label
 _atom_site_symmetry_multiplicity
 _atom_site_fract_x
 _atom_site_fract_y
 _atom_site_fract_z
 _atom_site_occupancy
  Li  Li0  1  0.12500000  0.12500000  0.12500000  1
  Li  Li1  1  0.50000000  0.50000000  0.50000000  1
  Li  Li2  1  0.25000000  0.25000000  0.25000000  1
  Li  Li3  1  0.75000000  0.75000000  0.75000000  1
  Ti  Ti4  1  0.93442029  0.36644374  0.87321318  1
  Ti  Ti5  1  0.67922797  0.53848580  0.20478168  1
  F  F6  1  0.23818996  0.65972028  0.14968956  1
  F  F7  1  0.39170733  0.14487098  0.93220830  1
  Se  Se8  1  0.91815177  0.63704994  0.40571638  1
  Se  Se9  1  0.21159238  0.81819762  0.88848681  1
