# generated using pymatgen
data_TiS2
_symmetry_space_group_name_H-M   'P 1'
_cell_length_a   14.07317567
_cell_length_b   14.07317567
_cell_length_c   4.18442402
_cell_angle_alpha   90.00000000
_cell_angle_beta   90.00000000
_cell_angle_gamma   120.00000000
_symmetry_Int_Tables_number   1
_chemical_formula_structural   TiS2
_chemical_formula_sum   'Ti12 S24'
_cell_volume   717.71254263
_cell_formula_units_Z   12
loop_
 _symmetry_equiv_pos_site_id
 _symmetry_equiv_pos_as_xyz
  1  'x, y, z'
loop_
 _atom_site_type_symbol
 _atom_site_label
 _atom_site_symmetry_multiplicity
 _atom_site_fract_x
 _atom_site_fract_y
 _atom_site_fract_z
 _atom_site_occupancy
  S  S0  1  0.32373186  0.88301278  0.25000000  1
  S  S1  1  0.11698722  0.44071908  0.25000000  1
  S  S2  1  0.55928092  0.67626814  0.25000000  1
  S  S3  1  0.67626814  0.11698722  0.75000000  1
  S  S4  1  0.88301278  0.55928092  0.75000000  1
  S  S5  1  0.44071908  0.32373186  0.75000000  1
  S  S6  1  0.66666667  0.33333333  0.25000000  1
  S  S7  1  0.33333333  0.66666667  0.75000000  1
  S  S8  1  0.09812606  0.29068895  0.25000000  1
  S  S9  1  0.70931105  0.80743710  0.25000000  1
  S  S10  1  0.19256290  0.90187394  0.25000000  1
  S  S11  1  0.90187394  0.70931105  0.75000000  1
  S  S12  1  0.29068895  0.19256290  0.75000000  1
  S  S13  1  0.80743710  0.09812606  0.75000000  1
  S  S14  1  0.85365101  0.58273932  0.25000000  1
  S  S15  1  0.41726068  0.27091169  0.25000000  1
  S  S16  1  0.72908831  0.14634899  0.25000000  1
  S  S17  1  0.14634899  0.41726068  0.75000000  1
  S  S18  1  0.58273932  0.72908831  0.75000000  1
  S  S19  1  0.27091169  0.85365101  0.75000000  1
  S  S20  1  0.33333333  0.66666667  0.25000000  1
  S  S21  1  0.66666667  0.33333333  0.75000000  1
  S  S22  1  0.00000000  0.00000000  0.00000000  1
  S  S23  1  0.00000000  0.00000000  0.50000000  1
  Ti  Ti24  1  0.07626173  0.62005457  0.25000000  1
  Ti  Ti25  1  0.37994543  0.45620716  0.25000000  1
  Ti  Ti26  1  0.54379284  0.92373827  0.25000000  1
  Ti  Ti27  1  0.92373827  0.37994543  0.75000000  1
  Ti  Ti28  1  0.62005457  0.54379284  0.75000000  1
  Ti  Ti29  1  0.45620716  0.07626173  0.75000000  1
  Ti  Ti30  1  0.50000000  0.00000000  -0.00000000  1
  Ti  Ti31  1  0.00000000  0.50000000  0.00000000  1
  Ti  Ti32  1  0.50000000  0.50000000  0.00000000  1
  Ti  Ti33  1  0.50000000  0.00000000  0.50000000  1
  Ti  Ti34  1  0.00000000  0.50000000  0.50000000  1
  Ti  Ti35  1  0.50000000  0.50000000  0.50000000  1
