# generated using pymatgen
data_Li2Fe(PO)3
_symmetry_space_group_name_H-M   'P 1'
_cell_length_a   8.71080725
_cell_length_b   8.10794305
_cell_length_c   7.04964181
_cell_angle_alpha   90.00000000
_cell_angle_beta   90.00000000
_cell_angle_gamma   90.00000000
_symmetry_Int_Tables_number   1
_chemical_formula_structural   Li2Fe(PO)3
_chemical_formula_sum   'Li2 Fe1 P3 O3'
_cell_volume   497.89314284
_cell_formula_units_Z   1
loop_
 _symmetry_equiv_pos_site_id
 _symmetry_equiv_pos_as_xyz
  1  'x, y, z'
loop_
 _atom_site_type_symbol
 _atom_site_label
 _atom_site_symmetry_multiplicity
 _atom_site_fract_x
 _atom_site_fract_y
 _atom_site_fract_z
 _atom_site_occupancy
  Li  Li0  1  0.00000000  0.00000000  0.00000000  1
  Li  Li1  1  0.50000000  0.50000000  0.50000000  1
  Fe  Fe2  1  0.25000000  0.25000000  0.25000000  1
  P  P3  1  0.75000000  0.25000000  0.00000000  1
  P  P4  1  0.25000000  0.75000000  0.50000000  1
  P  P5  1  0.81839458  0.33811838  0.03616069  1
  O  O6  1  0.31211035  0.36631197  0.38227153  1
  O  O7  1  0.05382347  0.50080636  0.73464783  1
  O  O8  1  0.97185581  0.25283607  0.88539986  1
