# generated using pymatgen
data_Li2YP2O3
_symmetry_space_group_name_H-M   'P 1'
_cell_length_a   8.01272869
_cell_length_b   7.80283550
_cell_length_c   8.14077587
_cell_angle_alpha   90.00000000
_cell_angle_beta   90.00000000
_cell_angle_gamma   90.00000000
_symmetry_Int_Tables_number   1
_chemical_formula_structural   Li2YP2O3
_chemical_formula_sum   'Li2 Y1 P2 O3'
_cell_volume   508.97762002
_cell_formula_units_Z   1
loop_
 _symmetry_equiv_pos_site_id
 _symmetry_equiv_pos_as_xyz
  1  'x, y, z'
loop_
 _atom_site_type_symbol
 _atom_site_label
 _atom_site_symmetry_multiplicity
 _atom_site_fract_x
 _atom_site_fract_y
 _atom_site_fract_z
 _atom_site_occupancy
  Li  Li0  1  0.00000000  0.00000000  0.00000000  1
  Li  Li1  1  0.50000000  0.50000000  0.50000000  1
  Y  Y2  1  0.25000000  0.25000000  0.25000000  1
  P  P3  1  0.75000000  0.25000000  0.00000000  1
  P  P4  1  0.25000000  0.75000000  0.50000000  1
  O  O5  1  0.81837717  0.92626188  0.48317072  1
  O  O6  1  0.22684671  0.40016673  0.45373528  1
  O  O7  1  0.75230876  0.18399654  0.84856301  1
