# generated using pymatgen
data_LiYAlPCl
_symmetry_space_group_name_H-M   'P 1'
_cell_length_a   12.00862847
_cell_length_b   10.88773209
_cell_length_c   10.34339175
_cell_angle_alpha   90.00000000
_cell_angle_beta   90.00000000
_cell_angle_gamma   90.00000000
_symmetry_Int_Tables_number   1
_chemical_formula_structural   LiYAlPCl
_chemical_formula_sum   'Li1 Y1 Al1 P1 Cl1'
_cell_volume   1352.36464336
_cell_formula_units_Z   1
loop_
 _symmetry_equiv_pos_site_id
 _symmetry_equiv_pos_as_xyz
  1  'x, y, z'
loop_
 _atom_site_type_symbol
 _atom_site_label
 _atom_site_symmetry_multiplicity
 _atom_site_fract_x
 _atom_site_fract_y
 _atom_site_fract_z
 _atom_site_occupancy
  Li  Li0  1  0.12500000  0.00000000  0.25000000  1
  Y  Y1  1  0.00000000  0.00000000  0.00000000  1
  Al  Al2  1  0.37500000  0.00000000  0.25000000  1
  P  P3  1  0.25000000  0.25000000  0.25000000  1
  Cl  Cl4  1  0.00000000  0.25000000  0.12500000  1
