# generated using pymatgen
data_LiTi3Sb4As5O
_symmetry_space_group_name_H-M   'P 1'
_cell_length_a   8.32880337
_cell_length_b   8.35125880
_cell_length_c   7.62585578
_cell_angle_alpha   90.00000000
_cell_angle_beta   90.00000000
_cell_angle_gamma   90.00000000
_symmetry_Int_Tables_number   1
_chemical_formula_structural   LiTi3Sb4As5O
_chemical_formula_sum   'Li1 Ti3 Sb4 As5 O1'
_cell_volume   530.42396708
_cell_formula_units_Z   1
loop_
 _symmetry_equiv_pos_site_id
 _symmetry_equiv_pos_as_xyz
  1  'x, y, z'
loop_
 _atom_site_type_symbol
 _atom_site_label
 _atom_site_symmetry_multiplicity
 _atom_site_fract_x
 _atom_site_fract_y
 _atom_site_fract_z
 _atom_site_occupancy
  Li  Li0  1  0.00000000  0.00000000  0.00000000  1
  Ti  Ti1  1  0.50000000  0.50000000  0.50000000  1
  Ti  Ti2  1  0.25000000  0.25000000  0.25000000  1
  Ti  Ti3  1  0.75000000  0.25000000  0.00000000  1
  As  As4  1  0.25000000  0.75000000  0.50000000  1
  As  As5  1  0.71475110  0.36578026  0.14722988  1
  As  As6  1  0.40052936  0.96360889  0.44919641  1
  As  As7  1  0.45735770  0.92601216  0.31278669  1
  As  As8  1  0.78021409  0.00949216  0.39229845  1
  O  O9  1  0.66741581  0.98045610  0.74081874  1
  Sb  Sb10  1  0.89327484  0.81918567  0.51163925  1
  Sb  Sb11  1  0.95582299  0.11154897  0.35498664  1
  Sb  Sb12  1  0.62826867  0.01474986  0.15151929  1
  Sb  Sb13  1  0.94083338  0.39229906  0.29439420  1
