# generated using pymatgen
data_Li3AlCl6
_symmetry_space_group_name_H-M   'P 1'
_cell_length_a   17.98888809
_cell_length_b   17.98888809
_cell_length_c   17.98888809
_cell_angle_alpha   90.00000000
_cell_angle_beta   90.00000000
_cell_angle_gamma   90.00000000
_symmetry_Int_Tables_number   1
_chemical_formula_structural   Li3AlCl6
_chemical_formula_sum   'Li192 Al64 Cl384'
_cell_volume   5821.20589309
_cell_formula_units_Z   64
loop_
 _symmetry_equiv_pos_site_id
 _symmetry_equiv_pos_as_xyz
  1  'x, y, z'
loop_
 _atom_site_type_symbol
 _atom_site_label
 _atom_site_symmetry_multiplicity
 _atom_site_fract_x
 _atom_site_fract_y
 _atom_site_fract_z
 _atom_site_occupancy
  Al  Al0  1  0.86251203  0.12500000  0.12500000  1
  Al  Al1  1  0.88748797  0.12500000  0.62500000  1
  Al  Al2  1  0.12500000  0.86251203  0.12500000  1
  Al  Al3  1  0.62500000  0.88748797  0.12500000  1
  Al  Al4  1  0.12500000  0.12500000  0.86251203  1
  Al  Al5  1  0.12500000  0.62500000  0.88748797  1
  Al  Al6  1  0.87500000  0.11251203  0.37500000  1
  Al  Al7  1  0.87500000  0.13748797  0.87500000  1
  Al  Al8  1  0.61251203  0.37500000  0.37500000  1
  Al  Al9  1  0.63748797  0.87500000  0.37500000  1
  Al  Al10  1  0.87500000  0.37500000  0.63748797  1
  Al  Al11  1  0.37500000  0.37500000  0.61251203  1
  Al  Al12  1  0.86251203  0.62500000  0.62500000  1
  Al  Al13  1  0.88748797  0.62500000  0.12500000  1
  Al  Al14  1  0.12500000  0.36251203  0.62500000  1
  Al  Al15  1  0.62500000  0.38748797  0.62500000  1
  Al  Al16  1  0.12500000  0.62500000  0.36251203  1
  Al  Al17  1  0.12500000  0.12500000  0.38748797  1
  Al  Al18  1  0.87500000  0.61251203  0.87500000  1
  Al  Al19  1  0.87500000  0.63748797  0.37500000  1
  Al  Al20  1  0.61251203  0.87500000  0.87500000  1
  Al  Al21  1  0.63748797  0.37500000  0.87500000  1
  Al  Al22  1  0.87500000  0.87500000  0.13748797  1
  Al  Al23  1  0.37500000  0.87500000  0.11251203  1
  Al  Al24  1  0.36251203  0.12500000  0.62500000  1
  Al  Al25  1  0.38748797  0.12500000  0.12500000  1
  Al  Al26  1  0.62500000  0.86251203  0.62500000  1
  Al  Al27  1  0.12500000  0.88748797  0.62500000  1
  Al  Al28  1  0.62500000  0.12500000  0.36251203  1
  Al  Al29  1  0.62500000  0.62500000  0.38748797  1
  Al  Al30  1  0.37500000  0.11251203  0.87500000  1
  Al  Al31  1  0.37500000  0.13748797  0.37500000  1
  Al  Al32  1  0.11251203  0.37500000  0.87500000  1
  Al  Al33  1  0.13748797  0.87500000  0.87500000  1
  Al  Al34  1  0.37500000  0.37500000  0.13748797  1
  Al  Al35  1  0.87500000  0.37500000  0.11251203  1
  Al  Al36  1  0.36251203  0.62500000  0.12500000  1
  Al  Al37  1  0.38748797  0.62500000  0.62500000  1
  Al  Al38  1  0.62500000  0.36251203  0.12500000  1
  Al  Al39  1  0.12500000  0.38748797  0.12500000  1
  Al  Al40  1  0.62500000  0.62500000  0.86251203  1
  Al  Al41  1  0.62500000  0.12500000  0.88748797  1
  Al  Al42  1  0.37500000  0.61251203  0.37500000  1
  Al  Al43  1  0.37500000  0.63748797  0.87500000  1
  Al  Al44  1  0.11251203  0.87500000  0.37500000  1
  Al  Al45  1  0.13748797  0.37500000  0.37500000  1
  Al  Al46  1  0.37500000  0.87500000  0.63748797  1
  Al  Al47  1  0.87500000  0.87500000  0.61251203  1
  Al  Al48  1  0.12500000  0.12500000  0.12500000  1
  Al  Al49  1  0.87500000  0.37500000  0.37500000  1
  Al  Al50  1  0.12500000  0.62500000  0.62500000  1
  Al  Al51  1  0.87500000  0.87500000  0.87500000  1
  Al  Al52  1  0.62500000  0.12500000  0.62500000  1
  Al  Al53  1  0.37500000  0.37500000  0.87500000  1
  Al  Al54  1  0.62500000  0.62500000  0.12500000  1
  Al  Al55  1  0.37500000  0.87500000  0.37500000  1
  Al  Al56  1  0.37500000  0.37500000  0.37500000  1
  Al  Al57  1  0.12500000  0.62500000  0.12500000  1
  Al  Al58  1  0.37500000  0.87500000  0.87500000  1
  Al  Al59  1  0.12500000  0.12500000  0.62500000  1
  Al  Al60  1  0.87500000  0.37500000  0.87500000  1
  Al  Al61  1  0.62500000  0.62500000  0.62500000  1
  Al  Al62  1  0.87500000  0.87500000  0.37500000  1
  Al  Al63  1  0.62500000  0.12500000  0.12500000  1
  Cl  Cl64  1  0.46722567  0.46722567  0.56460116  1
  Cl  Cl65  1  0.28277433  -0.21722567  1.06460116  1
  Cl  Cl66  1  -0.21722567  0.96722567  0.18539884  1
  Cl  Cl67  1  0.96722567  0.28277433  -0.31460116  1
  Cl  Cl68  1  0.56460116  0.46722567  0.46722567  1
  Cl  Cl69  1  1.06460116  0.28277433  -0.21722567  1
  Cl  Cl70  1  0.18539884  -0.21722567  0.96722567  1
  Cl  Cl71  1  -0.31460116  0.96722567  0.28277433  1
  Cl  Cl72  1  0.46722567  0.56460116  0.46722567  1
  Cl  Cl73  1  -0.21722567  1.06460116  0.28277433  1
  Cl  Cl74  1  0.96722567  0.18539884  -0.21722567  1
  Cl  Cl75  1  0.28277433  -0.31460116  0.96722567  1
  Cl  Cl76  1  1.21722567  0.71722567  -0.06460116  1
  Cl  Cl77  1  -0.46722567  -0.46722567  -0.56460116  1
  Cl  Cl78  1  0.71722567  0.03277433  1.31460116  1
  Cl  Cl79  1  0.03277433  1.21722567  0.81460116  1
  Cl  Cl80  1  1.21722567  0.81460116  0.03277433  1
  Cl  Cl81  1  0.03277433  1.31460116  0.71722567  1
  Cl  Cl82  1  -0.46722567  -0.56460116  -0.46722567  1
  Cl  Cl83  1  0.71722567  -0.06460116  1.21722567  1
  Cl  Cl84  1  1.31460116  0.71722567  0.03277433  1
  Cl  Cl85  1  0.81460116  0.03277433  1.21722567  1
  Cl  Cl86  1  -0.06460116  1.21722567  0.71722567  1
  Cl  Cl87  1  -0.56460116  -0.46722567  -0.46722567  1
  Cl  Cl88  1  0.46722567  0.96722567  1.06460116  1
  Cl  Cl89  1  0.28277433  0.28277433  1.56460116  1
  Cl  Cl90  1  -0.21722567  1.46722567  0.68539884  1
  Cl  Cl91  1  0.96722567  0.78277433  0.18539884  1
  Cl  Cl92  1  0.56460116  0.96722567  0.96722567  1
  Cl  Cl93  1  1.06460116  0.78277433  0.28277433  1
  Cl  Cl94  1  0.18539884  0.28277433  1.46722567  1
  Cl  Cl95  1  -0.31460116  1.46722567  0.78277433  1
  Cl  Cl96  1  0.46722567  1.06460116  0.96722567  1
  Cl  Cl97  1  -0.21722567  1.56460116  0.78277433  1
  Cl  Cl98  1  0.96722567  0.68539884  0.28277433  1
  Cl  Cl99  1  0.28277433  0.18539884  1.46722567  1
  Cl  Cl100  1  1.21722567  1.21722567  0.43539884  1
  Cl  Cl101  1  -0.46722567  0.03277433  -0.06460116  1
  Cl  Cl102  1  0.71722567  0.53277433  1.81460116  1
  Cl  Cl103  1  0.03277433  1.71722567  1.31460116  1
  Cl  Cl104  1  1.21722567  1.31460116  0.53277433  1
  Cl  Cl105  1  0.03277433  1.81460116  1.21722567  1
  Cl  Cl106  1  -0.46722567  -0.06460116  0.03277433  1
  Cl  Cl107  1  0.71722567  0.43539884  1.71722567  1
  Cl  Cl108  1  1.31460116  1.21722567  0.53277433  1
  Cl  Cl109  1  0.81460116  0.53277433  1.71722567  1
  Cl  Cl110  1  -0.06460116  1.71722567  1.21722567  1
  Cl  Cl111  1  -0.56460116  0.03277433  0.03277433  1
  Cl  Cl112  1  0.96722567  0.46722567  1.06460116  1
  Cl  Cl113  1  0.78277433  -0.21722567  1.56460116  1
  Cl  Cl114  1  0.28277433  0.96722567  0.68539884  1
  Cl  Cl115  1  1.46722567  0.28277433  0.18539884  1
  Cl  Cl116  1  1.06460116  0.46722567  0.96722567  1
  Cl  Cl117  1  1.56460116  0.28277433  0.28277433  1
  Cl  Cl118  1  0.68539884  -0.21722567  1.46722567  1
  Cl  Cl119  1  0.18539884  0.96722567  0.78277433  1
  Cl  Cl120  1  0.96722567  0.56460116  0.96722567  1
  Cl  Cl121  1  0.28277433  1.06460116  0.78277433  1
  Cl  Cl122  1  1.46722567  0.18539884  0.28277433  1
  Cl  Cl123  1  0.78277433  -0.31460116  1.46722567  1
  Cl  Cl124  1  1.71722567  0.71722567  0.43539884  1
  Cl  Cl125  1  0.03277433  -0.46722567  -0.06460116  1
  Cl  Cl126  1  1.21722567  0.03277433  1.81460116  1
  Cl  Cl127  1  0.53277433  1.21722567  1.31460116  1
  Cl  Cl128  1  1.71722567  0.81460116  0.53277433  1
  Cl  Cl129  1  0.53277433  1.31460116  1.21722567  1
  Cl  Cl130  1  0.03277433  -0.56460116  0.03277433  1
  Cl  Cl131  1  1.21722567  -0.06460116  1.71722567  1
  Cl  Cl132  1  1.81460116  0.71722567  0.53277433  1
  Cl  Cl133  1  1.31460116  0.03277433  1.71722567  1
  Cl  Cl134  1  0.43539884  1.21722567  1.21722567  1
  Cl  Cl135  1  -0.06460116  -0.46722567  0.03277433  1
  Cl  Cl136  1  0.96722567  0.96722567  0.56460116  1
  Cl  Cl137  1  0.78277433  0.28277433  1.06460116  1
  Cl  Cl138  1  0.28277433  1.46722567  0.18539884  1
  Cl  Cl139  1  1.46722567  0.78277433  -0.31460116  1
  Cl  Cl140  1  1.06460116  0.96722567  0.46722567  1
  Cl  Cl141  1  1.56460116  0.78277433  -0.21722567  1
  Cl  Cl142  1  0.68539884  0.28277433  0.96722567  1
  Cl  Cl143  1  0.18539884  1.46722567  0.28277433  1
  Cl  Cl144  1  0.96722567  1.06460116  0.46722567  1
  Cl  Cl145  1  0.28277433  1.56460116  0.28277433  1
  Cl  Cl146  1  1.46722567  0.68539884  -0.21722567  1
  Cl  Cl147  1  0.78277433  0.18539884  0.96722567  1
  Cl  Cl148  1  1.71722567  1.21722567  -0.06460116  1
  Cl  Cl149  1  0.03277433  0.03277433  -0.56460116  1
  Cl  Cl150  1  1.21722567  0.53277433  1.31460116  1
  Cl  Cl151  1  0.53277433  1.71722567  0.81460116  1
  Cl  Cl152  1  1.71722567  1.31460116  0.03277433  1
  Cl  Cl153  1  0.53277433  1.81460116  0.71722567  1
  Cl  Cl154  1  0.03277433  -0.06460116  -0.46722567  1
  Cl  Cl155  1  1.21722567  0.43539884  1.21722567  1
  Cl  Cl156  1  1.81460116  1.21722567  0.03277433  1
  Cl  Cl157  1  1.31460116  0.53277433  1.21722567  1
  Cl  Cl158  1  0.43539884  1.71722567  0.71722567  1
  Cl  Cl159  1  -0.06460116  0.03277433  -0.46722567  1
  Cl  Cl160  1  0.50000000  0.50000000  0.50000000  1
  Cl  Cl161  1  0.25000000  0.75000000  0.00000000  1
  Cl  Cl162  1  0.75000000  0.00000000  0.25000000  1
  Cl  Cl163  1  0.00000000  0.25000000  0.75000000  1
  Cl  Cl164  1  0.50000000  0.00000000  0.00000000  1
  Cl  Cl165  1  0.25000000  0.25000000  0.50000000  1
  Cl  Cl166  1  0.75000000  0.50000000  0.75000000  1
  Cl  Cl167  1  0.00000000  0.75000000  0.25000000  1
  Cl  Cl168  1  0.00000000  0.50000000  0.00000000  1
  Cl  Cl169  1  0.75000000  0.75000000  0.50000000  1
  Cl  Cl170  1  0.25000000  0.00000000  0.75000000  1
  Cl  Cl171  1  0.50000000  0.25000000  0.25000000  1
  Cl  Cl172  1  0.00000000  0.00000000  0.50000000  1
  Cl  Cl173  1  0.75000000  0.25000000  -0.00000000  1
  Cl  Cl174  1  0.25000000  0.50000000  0.25000000  1
  Cl  Cl175  1  0.50000000  0.75000000  0.75000000  1
  Cl  Cl176  1  0.26020745  0.26020745  0.92639977  1
  Cl  Cl177  1  0.48979255  0.98979255  0.42639977  1
  Cl  Cl178  1  0.98979255  0.76020745  0.82360023  1
  Cl  Cl179  1  0.76020745  0.48979255  0.32360023  1
  Cl  Cl180  1  0.92639977  0.26020745  0.26020745  1
  Cl  Cl181  1  0.42639977  0.48979255  0.98979255  1
  Cl  Cl182  1  0.82360023  0.98979255  0.76020745  1
  Cl  Cl183  1  0.32360023  0.76020745  0.48979255  1
  Cl  Cl184  1  0.26020745  0.92639977  0.26020745  1
  Cl  Cl185  1  0.98979255  0.42639977  0.48979255  1
  Cl  Cl186  1  0.76020745  0.82360023  0.98979255  1
  Cl  Cl187  1  0.48979255  0.32360023  0.76020745  1
  Cl  Cl188  1  0.01020745  0.51020745  0.57360023  1
  Cl  Cl189  1  0.73979255  0.73979255  0.07360023  1
  Cl  Cl190  1  0.51020745  0.23979255  0.67639977  1
  Cl  Cl191  1  0.23979255  0.01020745  0.17639977  1
  Cl  Cl192  1  0.01020745  0.17639977  0.23979255  1
  Cl  Cl193  1  0.23979255  0.67639977  0.51020745  1
  Cl  Cl194  1  0.73979255  0.07360023  0.73979255  1
  Cl  Cl195  1  0.51020745  0.57360023  0.01020745  1
  Cl  Cl196  1  0.67639977  0.51020745  0.23979255  1
  Cl  Cl197  1  0.17639977  0.23979255  0.01020745  1
  Cl  Cl198  1  0.57360023  0.01020745  0.51020745  1
  Cl  Cl199  1  0.07360023  0.73979255  0.73979255  1
  Cl  Cl200  1  0.26020745  0.76020745  0.42639977  1
  Cl  Cl201  1  0.48979255  0.48979255  0.92639977  1
  Cl  Cl202  1  0.98979255  0.26020745  0.32360023  1
  Cl  Cl203  1  0.76020745  0.98979255  0.82360023  1
  Cl  Cl204  1  0.92639977  0.76020745  0.76020745  1
  Cl  Cl205  1  0.42639977  0.98979255  0.48979255  1
  Cl  Cl206  1  0.82360023  0.48979255  0.26020745  1
  Cl  Cl207  1  0.32360023  0.26020745  0.98979255  1
  Cl  Cl208  1  0.26020745  0.42639977  0.76020745  1
  Cl  Cl209  1  0.98979255  0.92639977  0.98979255  1
  Cl  Cl210  1  0.76020745  0.32360023  0.48979255  1
  Cl  Cl211  1  0.48979255  0.82360023  0.26020745  1
  Cl  Cl212  1  0.01020745  0.01020745  0.07360023  1
  Cl  Cl213  1  0.73979255  0.23979255  0.57360023  1
  Cl  Cl214  1  0.51020745  0.73979255  0.17639977  1
  Cl  Cl215  1  0.23979255  0.51020745  0.67639977  1
  Cl  Cl216  1  0.01020745  0.67639977  0.73979255  1
  Cl  Cl217  1  0.23979255  0.17639977  0.01020745  1
  Cl  Cl218  1  0.73979255  0.57360023  0.23979255  1
  Cl  Cl219  1  0.51020745  0.07360023  0.51020745  1
  Cl  Cl220  1  0.67639977  0.01020745  0.73979255  1
  Cl  Cl221  1  0.17639977  0.73979255  0.51020745  1
  Cl  Cl222  1  0.57360023  0.51020745  0.01020745  1
  Cl  Cl223  1  0.07360023  0.23979255  0.23979255  1
  Cl  Cl224  1  0.76020745  0.26020745  0.42639977  1
  Cl  Cl225  1  0.98979255  0.98979255  0.92639977  1
  Cl  Cl226  1  0.48979255  0.76020745  0.32360023  1
  Cl  Cl227  1  0.26020745  0.48979255  0.82360023  1
  Cl  Cl228  1  0.42639977  0.26020745  0.76020745  1
  Cl  Cl229  1  0.92639977  0.48979255  0.48979255  1
  Cl  Cl230  1  0.32360023  0.98979255  0.26020745  1
  Cl  Cl231  1  0.82360023  0.76020745  0.98979255  1
  Cl  Cl232  1  0.76020745  0.92639977  0.76020745  1
  Cl  Cl233  1  0.48979255  0.42639977  0.98979255  1
  Cl  Cl234  1  0.26020745  0.82360023  0.48979255  1
  Cl  Cl235  1  0.98979255  0.32360023  0.26020745  1
  Cl  Cl236  1  0.51020745  0.51020745  0.07360023  1
  Cl  Cl237  1  0.23979255  0.73979255  0.57360023  1
  Cl  Cl238  1  0.01020745  0.23979255  0.17639977  1
  Cl  Cl239  1  0.73979255  0.01020745  0.67639977  1
  Cl  Cl240  1  0.51020745  0.17639977  0.73979255  1
  Cl  Cl241  1  0.73979255  0.67639977  0.01020745  1
  Cl  Cl242  1  0.23979255  0.07360023  0.23979255  1
  Cl  Cl243  1  0.01020745  0.57360023  0.51020745  1
  Cl  Cl244  1  0.17639977  0.51020745  0.73979255  1
  Cl  Cl245  1  0.67639977  0.23979255  0.51020745  1
  Cl  Cl246  1  0.07360023  0.01020745  0.01020745  1
  Cl  Cl247  1  0.57360023  0.73979255  0.23979255  1
  Cl  Cl248  1  0.76020745  0.76020745  0.92639977  1
  Cl  Cl249  1  0.98979255  0.48979255  0.42639977  1
  Cl  Cl250  1  0.48979255  0.26020745  0.82360023  1
  Cl  Cl251  1  0.26020745  0.98979255  0.32360023  1
  Cl  Cl252  1  0.42639977  0.76020745  0.26020745  1
  Cl  Cl253  1  0.92639977  0.98979255  0.98979255  1
  Cl  Cl254  1  0.32360023  0.48979255  0.76020745  1
  Cl  Cl255  1  0.82360023  0.26020745  0.48979255  1
  Cl  Cl256  1  0.76020745  0.42639977  0.26020745  1
  Cl  Cl257  1  0.48979255  0.92639977  0.48979255  1
  Cl  Cl258  1  0.26020745  0.32360023  0.98979255  1
  Cl  Cl259  1  0.98979255  0.82360023  0.76020745  1
  Cl  Cl260  1  0.51020745  0.01020745  0.57360023  1
  Cl  Cl261  1  0.23979255  0.23979255  0.07360023  1
  Cl  Cl262  1  0.01020745  0.73979255  0.67639977  1
  Cl  Cl263  1  0.73979255  0.51020745  0.17639977  1
  Cl  Cl264  1  0.51020745  0.67639977  0.23979255  1
  Cl  Cl265  1  0.73979255  0.17639977  0.51020745  1
  Cl  Cl266  1  0.23979255  0.57360023  0.73979255  1
  Cl  Cl267  1  0.01020745  0.07360023  0.01020745  1
  Cl  Cl268  1  0.17639977  0.01020745  0.23979255  1
  Cl  Cl269  1  0.67639977  0.73979255  0.01020745  1
  Cl  Cl270  1  0.07360023  0.51020745  0.51020745  1
  Cl  Cl271  1  0.57360023  0.23979255  0.73979255  1
  Cl  Cl272  1  0.46303935  0.46303935  0.46303935  1
  Cl  Cl273  1  0.28696065  0.78696065  0.96303935  1
  Cl  Cl274  1  0.78696065  0.96303935  0.28696065  1
  Cl  Cl275  1  0.96303935  0.28696065  0.78696065  1
  Cl  Cl276  1  0.21303935  0.71303935  0.03696065  1
  Cl  Cl277  1  0.53696065  0.53696065  0.53696065  1
  Cl  Cl278  1  0.71303935  0.03696065  0.21303935  1
  Cl  Cl279  1  0.03696065  0.21303935  0.71303935  1
  Cl  Cl280  1  0.46303935  0.96303935  0.96303935  1
  Cl  Cl281  1  0.28696065  0.28696065  0.46303935  1
  Cl  Cl282  1  0.78696065  0.46303935  0.78696065  1
  Cl  Cl283  1  0.96303935  0.78696065  0.28696065  1
  Cl  Cl284  1  0.21303935  0.21303935  0.53696065  1
  Cl  Cl285  1  0.53696065  0.03696065  0.03696065  1
  Cl  Cl286  1  0.71303935  0.53696065  0.71303935  1
  Cl  Cl287  1  0.03696065  0.71303935  0.21303935  1
  Cl  Cl288  1  0.96303935  0.46303935  0.96303935  1
  Cl  Cl289  1  0.78696065  0.78696065  0.46303935  1
  Cl  Cl290  1  0.28696065  0.96303935  0.78696065  1
  Cl  Cl291  1  0.46303935  0.28696065  0.28696065  1
  Cl  Cl292  1  0.71303935  0.71303935  0.53696065  1
  Cl  Cl293  1  0.03696065  0.53696065  0.03696065  1
  Cl  Cl294  1  0.21303935  0.03696065  0.71303935  1
  Cl  Cl295  1  0.53696065  0.21303935  0.21303935  1
  Cl  Cl296  1  0.96303935  0.96303935  0.46303935  1
  Cl  Cl297  1  0.78696065  0.28696065  0.96303935  1
  Cl  Cl298  1  0.28696065  0.46303935  0.28696065  1
  Cl  Cl299  1  0.46303935  0.78696065  0.78696065  1
  Cl  Cl300  1  0.71303935  0.21303935  0.03696065  1
  Cl  Cl301  1  0.03696065  0.03696065  0.53696065  1
  Cl  Cl302  1  0.21303935  0.53696065  0.21303935  1
  Cl  Cl303  1  0.53696065  0.71303935  0.71303935  1
  Cl  Cl304  1  0.76574238  0.76574238  0.76574238  1
  Cl  Cl305  1  0.98425762  0.48425762  0.26574238  1
  Cl  Cl306  1  0.48425762  0.26574238  0.98425762  1
  Cl  Cl307  1  0.26574238  0.98425762  0.48425762  1
  Cl  Cl308  1  0.51574238  0.01574238  0.73425762  1
  Cl  Cl309  1  0.23425762  0.23425762  0.23425762  1
  Cl  Cl310  1  0.01574238  0.73425762  0.51574238  1
  Cl  Cl311  1  0.73425762  0.51574238  0.01574238  1
  Cl  Cl312  1  0.76574238  0.26574238  0.26574238  1
  Cl  Cl313  1  0.98425762  0.98425762  0.76574238  1
  Cl  Cl314  1  0.48425762  0.76574238  0.48425762  1
  Cl  Cl315  1  0.26574238  0.48425762  0.98425762  1
  Cl  Cl316  1  0.51574238  0.51574238  0.23425762  1
  Cl  Cl317  1  0.23425762  0.73425762  0.73425762  1
  Cl  Cl318  1  0.01574238  0.23425762  0.01574238  1
  Cl  Cl319  1  0.73425762  0.01574238  0.51574238  1
  Cl  Cl320  1  0.26574238  0.76574238  0.26574238  1
  Cl  Cl321  1  0.48425762  0.48425762  0.76574238  1
  Cl  Cl322  1  0.98425762  0.26574238  0.48425762  1
  Cl  Cl323  1  0.76574238  0.98425762  0.98425762  1
  Cl  Cl324  1  0.01574238  0.01574238  0.23425762  1
  Cl  Cl325  1  0.73425762  0.23425762  0.73425762  1
  Cl  Cl326  1  0.51574238  0.73425762  0.01574238  1
  Cl  Cl327  1  0.23425762  0.51574238  0.51574238  1
  Cl  Cl328  1  0.26574238  0.26574238  0.76574238  1
  Cl  Cl329  1  0.48425762  0.98425762  0.26574238  1
  Cl  Cl330  1  0.98425762  0.76574238  0.98425762  1
  Cl  Cl331  1  0.76574238  0.48425762  0.48425762  1
  Cl  Cl332  1  0.01574238  0.51574238  0.73425762  1
  Cl  Cl333  1  0.73425762  0.73425762  0.23425762  1
  Cl  Cl334  1  0.51574238  0.23425762  0.51574238  1
  Cl  Cl335  1  0.23425762  0.01574238  0.01574238  1
  Cl  Cl336  1  0.00000000  0.00000000  0.00000000  1
  Cl  Cl337  1  0.75000000  0.25000000  0.50000000  1
  Cl  Cl338  1  0.25000000  0.50000000  0.75000000  1
  Cl  Cl339  1  0.50000000  0.75000000  0.25000000  1
  Cl  Cl340  1  0.00000000  0.50000000  0.50000000  1
  Cl  Cl341  1  0.75000000  0.75000000  0.00000000  1
  Cl  Cl342  1  0.25000000  0.00000000  0.25000000  1
  Cl  Cl343  1  0.50000000  0.25000000  0.75000000  1
  Cl  Cl344  1  0.50000000  0.00000000  0.50000000  1
  Cl  Cl345  1  0.25000000  0.25000000  0.00000000  1
  Cl  Cl346  1  0.75000000  0.50000000  0.25000000  1
  Cl  Cl347  1  0.00000000  0.75000000  0.75000000  1
  Cl  Cl348  1  0.50000000  0.50000000  0.00000000  1
  Cl  Cl349  1  0.25000000  0.75000000  0.50000000  1
  Cl  Cl350  1  0.75000000  0.00000000  0.75000000  1
  Cl  Cl351  1  0.00000000  0.25000000  0.25000000  1
  Cl  Cl352  1  0.18632877  0.18632877  0.89516483  1
  Cl  Cl353  1  0.56367123  0.06367123  0.39516483  1
  Cl  Cl354  1  0.06367123  0.68632877  0.85483517  1
  Cl  Cl355  1  0.68632877  0.56367123  0.35483517  1
  Cl  Cl356  1  0.89516483  0.18632877  0.18632877  1
  Cl  Cl357  1  0.39516483  0.56367123  0.06367123  1
  Cl  Cl358  1  0.85483517  0.06367123  0.68632877  1
  Cl  Cl359  1  0.35483517  0.68632877  0.56367123  1
  Cl  Cl360  1  0.18632877  0.89516483  0.18632877  1
  Cl  Cl361  1  0.06367123  0.39516483  0.56367123  1
  Cl  Cl362  1  0.68632877  0.85483517  0.06367123  1
  Cl  Cl363  1  0.56367123  0.35483517  0.68632877  1
  Cl  Cl364  1  0.93632877  0.43632877  0.60483517  1
  Cl  Cl365  1  0.81367123  0.81367123  0.10483517  1
  Cl  Cl366  1  0.43632877  0.31367123  0.64516483  1
  Cl  Cl367  1  0.31367123  0.93632877  0.14516483  1
  Cl  Cl368  1  0.93632877  0.14516483  0.31367123  1
  Cl  Cl369  1  0.31367123  0.64516483  0.43632877  1
  Cl  Cl370  1  0.81367123  0.10483517  0.81367123  1
  Cl  Cl371  1  0.43632877  0.60483517  0.93632877  1
  Cl  Cl372  1  0.64516483  0.43632877  0.31367123  1
  Cl  Cl373  1  0.14516483  0.31367123  0.93632877  1
  Cl  Cl374  1  0.60483517  0.93632877  0.43632877  1
  Cl  Cl375  1  0.10483517  0.81367123  0.81367123  1
  Cl  Cl376  1  0.18632877  0.68632877  0.39516483  1
  Cl  Cl377  1  0.56367123  0.56367123  0.89516483  1
  Cl  Cl378  1  0.06367123  0.18632877  0.35483517  1
  Cl  Cl379  1  0.68632877  0.06367123  0.85483517  1
  Cl  Cl380  1  0.89516483  0.68632877  0.68632877  1
  Cl  Cl381  1  0.39516483  0.06367123  0.56367123  1
  Cl  Cl382  1  0.85483517  0.56367123  0.18632877  1
  Cl  Cl383  1  0.35483517  0.18632877  0.06367123  1
  Cl  Cl384  1  0.18632877  0.39516483  0.68632877  1
  Cl  Cl385  1  0.06367123  0.89516483  0.06367123  1
  Cl  Cl386  1  0.68632877  0.35483517  0.56367123  1
  Cl  Cl387  1  0.56367123  0.85483517  0.18632877  1
  Cl  Cl388  1  0.93632877  0.93632877  0.10483517  1
  Cl  Cl389  1  0.81367123  0.31367123  0.60483517  1
  Cl  Cl390  1  0.43632877  0.81367123  0.14516483  1
  Cl  Cl391  1  0.31367123  0.43632877  0.64516483  1
  Cl  Cl392  1  0.93632877  0.64516483  0.81367123  1
  Cl  Cl393  1  0.31367123  0.14516483  0.93632877  1
  Cl  Cl394  1  0.81367123  0.60483517  0.31367123  1
  Cl  Cl395  1  0.43632877  0.10483517  0.43632877  1
  Cl  Cl396  1  0.64516483  0.93632877  0.81367123  1
  Cl  Cl397  1  0.14516483  0.81367123  0.43632877  1
  Cl  Cl398  1  0.60483517  0.43632877  0.93632877  1
  Cl  Cl399  1  0.10483517  0.31367123  0.31367123  1
  Cl  Cl400  1  0.68632877  0.18632877  0.39516483  1
  Cl  Cl401  1  0.06367123  0.06367123  0.89516483  1
  Cl  Cl402  1  0.56367123  0.68632877  0.35483517  1
  Cl  Cl403  1  0.18632877  0.56367123  0.85483517  1
  Cl  Cl404  1  0.39516483  0.18632877  0.68632877  1
  Cl  Cl405  1  0.89516483  0.56367123  0.56367123  1
  Cl  Cl406  1  0.35483517  0.06367123  0.18632877  1
  Cl  Cl407  1  0.85483517  0.68632877  0.06367123  1
  Cl  Cl408  1  0.68632877  0.89516483  0.68632877  1
  Cl  Cl409  1  0.56367123  0.39516483  0.06367123  1
  Cl  Cl410  1  0.18632877  0.85483517  0.56367123  1
  Cl  Cl411  1  0.06367123  0.35483517  0.18632877  1
  Cl  Cl412  1  0.43632877  0.43632877  0.10483517  1
  Cl  Cl413  1  0.31367123  0.81367123  0.60483517  1
  Cl  Cl414  1  0.93632877  0.31367123  0.14516483  1
  Cl  Cl415  1  0.81367123  0.93632877  0.64516483  1
  Cl  Cl416  1  0.43632877  0.14516483  0.81367123  1
  Cl  Cl417  1  0.81367123  0.64516483  0.93632877  1
  Cl  Cl418  1  0.31367123  0.10483517  0.31367123  1
  Cl  Cl419  1  0.93632877  0.60483517  0.43632877  1
  Cl  Cl420  1  0.14516483  0.43632877  0.81367123  1
  Cl  Cl421  1  0.64516483  0.31367123  0.43632877  1
  Cl  Cl422  1  0.10483517  0.93632877  0.93632877  1
  Cl  Cl423  1  0.60483517  0.81367123  0.31367123  1
  Cl  Cl424  1  0.68632877  0.68632877  0.89516483  1
  Cl  Cl425  1  0.06367123  0.56367123  0.39516483  1
  Cl  Cl426  1  0.56367123  0.18632877  0.85483517  1
  Cl  Cl427  1  0.18632877  0.06367123  0.35483517  1
  Cl  Cl428  1  0.39516483  0.68632877  0.18632877  1
  Cl  Cl429  1  0.89516483  0.06367123  0.06367123  1
  Cl  Cl430  1  0.35483517  0.56367123  0.68632877  1
  Cl  Cl431  1  0.85483517  0.18632877  0.56367123  1
  Cl  Cl432  1  0.68632877  0.39516483  0.18632877  1
  Cl  Cl433  1  0.56367123  0.89516483  0.56367123  1
  Cl  Cl434  1  0.18632877  0.35483517  0.06367123  1
  Cl  Cl435  1  0.06367123  0.85483517  0.68632877  1
  Cl  Cl436  1  0.43632877  0.93632877  0.60483517  1
  Cl  Cl437  1  0.31367123  0.31367123  0.10483517  1
  Cl  Cl438  1  0.93632877  0.81367123  0.64516483  1
  Cl  Cl439  1  0.81367123  0.43632877  0.14516483  1
  Cl  Cl440  1  0.43632877  0.64516483  0.31367123  1
  Cl  Cl441  1  0.81367123  0.14516483  0.43632877  1
  Cl  Cl442  1  0.31367123  0.60483517  0.81367123  1
  Cl  Cl443  1  0.93632877  0.10483517  0.93632877  1
  Cl  Cl444  1  0.14516483  0.93632877  0.31367123  1
  Cl  Cl445  1  0.64516483  0.81367123  0.93632877  1
  Cl  Cl446  1  0.10483517  0.43632877  0.43632877  1
  Cl  Cl447  1  0.60483517  0.31367123  0.81367123  1
  Li  Li448  1  0.00000000  0.11557035  0.88442965  1
  Li  Li449  1  0.75000000  0.13442965  0.38442965  1
  Li  Li450  1  0.25000000  0.61557035  0.86557035  1
  Li  Li451  1  0.50000000  0.63442965  0.36557035  1
  Li  Li452  1  0.88442965  0.00000000  0.11557035  1
  Li  Li453  1  0.38442965  0.75000000  0.13442965  1
  Li  Li454  1  0.86557035  0.25000000  0.61557035  1
  Li  Li455  1  0.36557035  0.50000000  0.63442965  1
  Li  Li456  1  0.11557035  0.88442965  0.00000000  1
  Li  Li457  1  0.13442965  0.38442965  0.75000000  1
  Li  Li458  1  0.61557035  0.86557035  0.25000000  1
  Li  Li459  1  0.63442965  0.36557035  0.50000000  1
  Li  Li460  1  0.00000000  0.88442965  0.11557035  1
  Li  Li461  1  0.25000000  0.86557035  0.61557035  1
  Li  Li462  1  0.75000000  0.38442965  0.13442965  1
  Li  Li463  1  0.50000000  0.36557035  0.63442965  1
  Li  Li464  1  0.11557035  0.00000000  0.88442965  1
  Li  Li465  1  0.61557035  0.25000000  0.86557035  1
  Li  Li466  1  0.13442965  0.75000000  0.38442965  1
  Li  Li467  1  0.63442965  0.50000000  0.36557035  1
  Li  Li468  1  0.88442965  0.11557035  0.00000000  1
  Li  Li469  1  0.86557035  0.61557035  0.25000000  1
  Li  Li470  1  0.38442965  0.13442965  0.75000000  1
  Li  Li471  1  0.36557035  0.63442965  0.50000000  1
  Li  Li472  1  0.00000000  0.61557035  0.38442965  1
  Li  Li473  1  0.75000000  0.63442965  0.88442965  1
  Li  Li474  1  0.25000000  0.11557035  0.36557035  1
  Li  Li475  1  0.50000000  0.13442965  0.86557035  1
  Li  Li476  1  0.88442965  0.50000000  0.61557035  1
  Li  Li477  1  0.38442965  0.25000000  0.63442965  1
  Li  Li478  1  0.86557035  0.75000000  0.11557035  1
  Li  Li479  1  0.36557035  0.00000000  0.13442965  1
  Li  Li480  1  0.11557035  0.38442965  0.50000000  1
  Li  Li481  1  0.13442965  0.88442965  0.25000000  1
  Li  Li482  1  0.61557035  0.36557035  0.75000000  1
  Li  Li483  1  0.63442965  0.86557035  0.00000000  1
  Li  Li484  1  0.00000000  0.38442965  0.61557035  1
  Li  Li485  1  0.25000000  0.36557035  0.11557035  1
  Li  Li486  1  0.75000000  0.88442965  0.63442965  1
  Li  Li487  1  0.50000000  0.86557035  0.13442965  1
  Li  Li488  1  0.11557035  0.50000000  0.38442965  1
  Li  Li489  1  0.61557035  0.75000000  0.36557035  1
  Li  Li490  1  0.13442965  0.25000000  0.88442965  1
  Li  Li491  1  0.63442965  0.00000000  0.86557035  1
  Li  Li492  1  0.88442965  0.61557035  0.50000000  1
  Li  Li493  1  0.86557035  0.11557035  0.75000000  1
  Li  Li494  1  0.38442965  0.63442965  0.25000000  1
  Li  Li495  1  0.36557035  0.13442965  0.00000000  1
  Li  Li496  1  0.50000000  0.11557035  0.38442965  1
  Li  Li497  1  0.25000000  0.13442965  0.88442965  1
  Li  Li498  1  0.75000000  0.61557035  0.36557035  1
  Li  Li499  1  0.00000000  0.63442965  0.86557035  1
  Li  Li500  1  0.38442965  0.00000000  0.61557035  1
  Li  Li501  1  0.88442965  0.75000000  0.63442965  1
  Li  Li502  1  0.36557035  0.25000000  0.11557035  1
  Li  Li503  1  0.86557035  0.50000000  0.13442965  1
  Li  Li504  1  0.61557035  0.88442965  0.50000000  1
  Li  Li505  1  0.63442965  0.38442965  0.25000000  1
  Li  Li506  1  0.11557035  0.86557035  0.75000000  1
  Li  Li507  1  0.13442965  0.36557035  0.00000000  1
  Li  Li508  1  0.50000000  0.88442965  0.61557035  1
  Li  Li509  1  0.75000000  0.86557035  0.11557035  1
  Li  Li510  1  0.25000000  0.38442965  0.63442965  1
  Li  Li511  1  0.00000000  0.36557035  0.13442965  1
  Li  Li512  1  0.61557035  0.00000000  0.38442965  1
  Li  Li513  1  0.11557035  0.25000000  0.36557035  1
  Li  Li514  1  0.63442965  0.75000000  0.88442965  1
  Li  Li515  1  0.13442965  0.50000000  0.86557035  1
  Li  Li516  1  0.38442965  0.11557035  0.50000000  1
  Li  Li517  1  0.36557035  0.61557035  0.75000000  1
  Li  Li518  1  0.88442965  0.13442965  0.25000000  1
  Li  Li519  1  0.86557035  0.63442965  -0.00000000  1
  Li  Li520  1  0.50000000  0.61557035  0.88442965  1
  Li  Li521  1  0.25000000  0.63442965  0.38442965  1
  Li  Li522  1  0.75000000  0.11557035  0.86557035  1
  Li  Li523  1  0.00000000  0.13442965  0.36557035  1
  Li  Li524  1  0.38442965  0.50000000  0.11557035  1
  Li  Li525  1  0.88442965  0.25000000  0.13442965  1
  Li  Li526  1  0.36557035  0.75000000  0.61557035  1
  Li  Li527  1  0.86557035  0.00000000  0.63442965  1
  Li  Li528  1  0.61557035  0.38442965  0.00000000  1
  Li  Li529  1  0.63442965  0.88442965  0.75000000  1
  Li  Li530  1  0.11557035  0.36557035  0.25000000  1
  Li  Li531  1  0.13442965  0.86557035  0.50000000  1
  Li  Li532  1  0.50000000  0.38442965  0.11557035  1
  Li  Li533  1  0.75000000  0.36557035  0.61557035  1
  Li  Li534  1  0.25000000  0.88442965  0.13442965  1
  Li  Li535  1  0.00000000  0.86557035  0.63442965  1
  Li  Li536  1  0.61557035  0.50000000  0.88442965  1
  Li  Li537  1  0.11557035  0.75000000  0.86557035  1
  Li  Li538  1  0.63442965  0.25000000  0.38442965  1
  Li  Li539  1  0.13442965  0.00000000  0.36557035  1
  Li  Li540  1  0.38442965  0.61557035  0.00000000  1
  Li  Li541  1  0.36557035  0.11557035  0.25000000  1
  Li  Li542  1  0.88442965  0.63442965  0.75000000  1
  Li  Li543  1  0.86557035  0.13442965  0.50000000  1
  Li  Li544  1  0.83975120  0.83975120  0.50332370  1
  Li  Li545  1  0.91024880  0.41024880  0.00332370  1
  Li  Li546  1  0.41024880  0.33975120  0.24667630  1
  Li  Li547  1  0.33975120  0.91024880  0.74667630  1
  Li  Li548  1  0.50332370  0.83975120  0.83975120  1
  Li  Li549  1  0.00332370  0.91024880  0.41024880  1
  Li  Li550  1  0.24667630  0.41024880  0.33975120  1
  Li  Li551  1  0.74667630  0.33975120  0.91024880  1
  Li  Li552  1  0.83975120  0.50332370  0.83975120  1
  Li  Li553  1  0.41024880  0.00332370  0.91024880  1
  Li  Li554  1  0.33975120  0.24667630  0.41024880  1
  Li  Li555  1  0.91024880  0.74667630  0.33975120  1
  Li  Li556  1  0.58975120  0.08975120  0.99667630  1
  Li  Li557  1  0.16024880  0.16024880  0.49667630  1
  Li  Li558  1  0.08975120  0.66024880  0.25332370  1
  Li  Li559  1  0.66024880  0.58975120  0.75332370  1
  Li  Li560  1  0.58975120  0.75332370  0.66024880  1
  Li  Li561  1  0.66024880  0.25332370  0.08975120  1
  Li  Li562  1  0.16024880  0.49667630  0.16024880  1
  Li  Li563  1  0.08975120  0.99667630  0.58975120  1
  Li  Li564  1  0.25332370  0.08975120  0.66024880  1
  Li  Li565  1  0.75332370  0.66024880  0.58975120  1
  Li  Li566  1  0.99667630  0.58975120  0.08975120  1
  Li  Li567  1  0.49667630  0.16024880  0.16024880  1
  Li  Li568  1  0.83975120  0.33975120  0.00332370  1
  Li  Li569  1  0.91024880  0.91024880  0.50332370  1
  Li  Li570  1  0.41024880  0.83975120  0.74667630  1
  Li  Li571  1  0.33975120  0.41024880  0.24667630  1
  Li  Li572  1  0.50332370  0.33975120  0.33975120  1
  Li  Li573  1  0.00332370  0.41024880  0.91024880  1
  Li  Li574  1  0.24667630  0.91024880  0.83975120  1
  Li  Li575  1  0.74667630  0.83975120  0.41024880  1
  Li  Li576  1  0.83975120  0.00332370  0.33975120  1
  Li  Li577  1  0.41024880  0.50332370  0.41024880  1
  Li  Li578  1  0.33975120  0.74667630  0.91024880  1
  Li  Li579  1  0.91024880  0.24667630  0.83975120  1
  Li  Li580  1  0.58975120  0.58975120  0.49667630  1
  Li  Li581  1  0.16024880  0.66024880  0.99667630  1
  Li  Li582  1  0.08975120  0.16024880  0.75332370  1
  Li  Li583  1  0.66024880  0.08975120  0.25332370  1
  Li  Li584  1  0.58975120  0.25332370  0.16024880  1
  Li  Li585  1  0.66024880  0.75332370  0.58975120  1
  Li  Li586  1  0.16024880  0.99667630  0.66024880  1
  Li  Li587  1  0.08975120  0.49667630  0.08975120  1
  Li  Li588  1  0.25332370  0.58975120  0.16024880  1
  Li  Li589  1  0.75332370  0.16024880  0.08975120  1
  Li  Li590  1  0.99667630  0.08975120  0.58975120  1
  Li  Li591  1  0.49667630  0.66024880  0.66024880  1
  Li  Li592  1  0.33975120  0.83975120  0.00332370  1
  Li  Li593  1  0.41024880  0.41024880  0.50332370  1
  Li  Li594  1  0.91024880  0.33975120  0.74667630  1
  Li  Li595  1  0.83975120  0.91024880  0.24667630  1
  Li  Li596  1  0.00332370  0.83975120  0.33975120  1
  Li  Li597  1  0.50332370  0.91024880  0.91024880  1
  Li  Li598  1  0.74667630  0.41024880  0.83975120  1
  Li  Li599  1  0.24667630  0.33975120  0.41024880  1
  Li  Li600  1  0.33975120  0.50332370  0.33975120  1
  Li  Li601  1  0.91024880  0.00332370  0.41024880  1
  Li  Li602  1  0.83975120  0.24667630  0.91024880  1
  Li  Li603  1  0.41024880  0.74667630  0.83975120  1
  Li  Li604  1  0.08975120  0.08975120  0.49667630  1
  Li  Li605  1  0.66024880  0.16024880  0.99667630  1
  Li  Li606  1  0.58975120  0.66024880  0.75332370  1
  Li  Li607  1  0.16024880  0.58975120  0.25332370  1
  Li  Li608  1  0.08975120  0.75332370  0.16024880  1
  Li  Li609  1  0.16024880  0.25332370  0.58975120  1
  Li  Li610  1  0.66024880  0.49667630  0.66024880  1
  Li  Li611  1  0.58975120  0.99667630  0.08975120  1
  Li  Li612  1  0.75332370  0.08975120  0.16024880  1
  Li  Li613  1  0.25332370  0.66024880  0.08975120  1
  Li  Li614  1  0.49667630  0.58975120  0.58975120  1
  Li  Li615  1  0.99667630  0.16024880  0.66024880  1
  Li  Li616  1  0.33975120  0.33975120  0.50332370  1
  Li  Li617  1  0.41024880  0.91024880  0.00332370  1
  Li  Li618  1  0.91024880  0.83975120  0.24667630  1
  Li  Li619  1  0.83975120  0.41024880  0.74667630  1
  Li  Li620  1  0.00332370  0.33975120  0.83975120  1
  Li  Li621  1  0.50332370  0.41024880  0.41024880  1
  Li  Li622  1  0.74667630  0.91024880  0.33975120  1
  Li  Li623  1  0.24667630  0.83975120  0.91024880  1
  Li  Li624  1  0.33975120  0.00332370  0.83975120  1
  Li  Li625  1  0.91024880  0.50332370  0.91024880  1
  Li  Li626  1  0.83975120  0.74667630  0.41024880  1
  Li  Li627  1  0.41024880  0.24667630  0.33975120  1
  Li  Li628  1  0.08975120  0.58975120  0.99667630  1
  Li  Li629  1  0.66024880  0.66024880  0.49667630  1
  Li  Li630  1  0.58975120  0.16024880  0.25332370  1
  Li  Li631  1  0.16024880  0.08975120  0.75332370  1
  Li  Li632  1  0.08975120  0.25332370  0.66024880  1
  Li  Li633  1  0.16024880  0.75332370  0.08975120  1
  Li  Li634  1  0.66024880  0.99667630  0.16024880  1
  Li  Li635  1  0.58975120  0.49667630  0.58975120  1
  Li  Li636  1  0.75332370  0.58975120  0.66024880  1
  Li  Li637  1  0.25332370  0.16024880  0.58975120  1
  Li  Li638  1  0.49667630  0.08975120  0.08975120  1
  Li  Li639  1  0.99667630  0.66024880  0.16024880  1
