# generated using pymatgen
data_Li3TiS
_symmetry_space_group_name_H-M   'P 1'
_cell_length_a   3.76946296
_cell_length_b   4.07019883
_cell_length_c   5.46498786
_cell_angle_alpha   117.21412648
_cell_angle_beta   97.93297285
_cell_angle_gamma   107.72917664
_symmetry_Int_Tables_number   1
_chemical_formula_structural   Li3TiS
_chemical_formula_sum   'Li3 Ti1 S1'
_cell_volume   67.11070954
_cell_formula_units_Z   1
loop_
 _symmetry_equiv_pos_site_id
 _symmetry_equiv_pos_as_xyz
  1  'x, y, z'
loop_
 _atom_site_type_symbol
 _atom_site_label
 _atom_site_symmetry_multiplicity
 _atom_site_fract_x
 _atom_site_fract_y
 _atom_site_fract_z
 _atom_site_occupancy
  Li  Li0  1  0.00000000  0.00000000  0.00000000  1
  Li  Li1  1  0.33300000  0.66700000  0.25000000  1
  Li  Li2  1  0.66700000  0.33300000  0.50000000  1
  Ti  Ti3  1  0.00000000  0.00000000  0.75000000  1
  S  S4  1  0.48950580  0.66659494  0.15683358  1
