# generated using pymatgen
data_Li8SeO3
_symmetry_space_group_name_H-M   'P 1'
_cell_length_a   8.57896260
_cell_length_b   8.57896260
_cell_length_c   20.49188240
_cell_angle_alpha   90.00000000
_cell_angle_beta   90.00000000
_cell_angle_gamma   90.00000000
_symmetry_Int_Tables_number   1
_chemical_formula_structural   Li8SeO3
_chemical_formula_sum   'Li64 Se8 O24'
_cell_volume   1508.17383991
_cell_formula_units_Z   8
loop_
 _symmetry_equiv_pos_site_id
 _symmetry_equiv_pos_as_xyz
  1  'x, y, z'
loop_
 _atom_site_type_symbol
 _atom_site_label
 _atom_site_symmetry_multiplicity
 _atom_site_fract_x
 _atom_site_fract_y
 _atom_site_fract_z
 _atom_site_occupancy
  Li  Li0  1  0.00000000  0.91123057  0.73898299  1
  Li  Li1  1  0.50000000  0.08876943  0.23898299  1
  Li  Li2  1  0.33876943  0.75000000  0.98898299  1
  Li  Li3  1  0.16123057  0.25000000  0.48898299  1
  Li  Li4  1  0.50000000  0.91123057  0.76101701  1
  Li  Li5  1  0.00000000  0.08876943  0.26101701  1
  Li  Li6  1  0.16123057  0.75000000  0.51101701  1
  Li  Li7  1  0.33876943  0.25000000  0.01101701  1
  Li  Li8  1  0.50000000  0.41123057  0.23898299  1
  Li  Li9  1  0.00000000  0.58876943  0.73898299  1
  Li  Li10  1  0.83876943  0.25000000  0.48898299  1
  Li  Li11  1  0.66123057  0.75000000  0.98898299  1
  Li  Li12  1  0.00000000  0.41123057  0.26101701  1
  Li  Li13  1  0.50000000  0.58876943  0.76101701  1
  Li  Li14  1  0.66123057  0.25000000  0.01101701  1
  Li  Li15  1  0.83876943  0.75000000  0.51101701  1
  Li  Li16  1  0.18791780  0.84024745  0.19549746  1
  Li  Li17  1  0.31208220  -0.84024745  0.69549746  1
  Li  Li18  1  -0.59024745  0.93791780  0.44549746  1
  Li  Li19  1  1.09024745  0.06208220  0.94549746  1
  Li  Li20  1  0.31208220  0.84024745  0.30450254  1
  Li  Li21  1  0.18791780  -0.84024745  -0.19549746  1
  Li  Li22  1  1.09024745  0.93791780  0.05450254  1
  Li  Li23  1  -0.59024745  0.06208220  0.55450254  1
  Li  Li24  1  -0.18791780  -0.84024745  -0.19549746  1
  Li  Li25  1  0.68791780  0.84024745  0.30450254  1
  Li  Li26  1  1.59024745  0.06208220  0.55450254  1
  Li  Li27  1  -0.09024745  0.93791780  0.05450254  1
  Li  Li28  1  0.68791780  -0.84024745  0.69549746  1
  Li  Li29  1  -0.18791780  0.84024745  0.19549746  1
  Li  Li30  1  -0.09024745  0.06208220  0.94549746  1
  Li  Li31  1  1.59024745  0.93791780  0.44549746  1
  Li  Li32  1  0.68791780  1.34024745  0.69549746  1
  Li  Li33  1  0.81208220  -0.34024745  1.19549746  1
  Li  Li34  1  -0.09024745  1.43791780  0.94549746  1
  Li  Li35  1  1.59024745  0.56208220  1.44549746  1
  Li  Li36  1  0.81208220  1.34024745  0.80450254  1
  Li  Li37  1  0.68791780  -0.34024745  0.30450254  1
  Li  Li38  1  1.59024745  1.43791780  0.55450254  1
  Li  Li39  1  -0.09024745  0.56208220  1.05450254  1
  Li  Li40  1  0.31208220  -0.34024745  0.30450254  1
  Li  Li41  1  1.18791780  1.34024745  0.80450254  1
  Li  Li42  1  2.09024745  0.56208220  1.05450254  1
  Li  Li43  1  0.40975255  1.43791780  0.55450254  1
  Li  Li44  1  1.18791780  -0.34024745  1.19549746  1
  Li  Li45  1  0.31208220  1.34024745  0.69549746  1
  Li  Li46  1  0.40975255  0.56208220  1.44549746  1
  Li  Li47  1  2.09024745  1.43791780  0.94549746  1
  Li  Li48  1  0.00000000  0.04283129  0.40620668  1
  Li  Li49  1  0.50000000  0.95716871  0.90620668  1
  Li  Li50  1  0.20716871  0.75000000  0.65620668  1
  Li  Li51  1  0.29283129  0.25000000  0.15620668  1
  Li  Li52  1  0.50000000  0.04283129  0.09379332  1
  Li  Li53  1  0.00000000  0.95716871  0.59379332  1
  Li  Li54  1  0.29283129  0.75000000  0.84379332  1
  Li  Li55  1  0.20716871  0.25000000  0.34379332  1
  Li  Li56  1  0.50000000  0.54283129  0.90620668  1
  Li  Li57  1  0.00000000  0.45716871  0.40620668  1
  Li  Li58  1  0.70716871  0.25000000  0.15620668  1
  Li  Li59  1  0.79283129  0.75000000  0.65620668  1
  Li  Li60  1  0.00000000  0.54283129  0.59379332  1
  Li  Li61  1  0.50000000  0.45716871  0.09379332  1
  Li  Li62  1  0.79283129  0.25000000  0.34379332  1
  Li  Li63  1  0.70716871  0.75000000  0.84379332  1
  O  O64  1  0.37700438  0.62700438  0.87500000  1
  O  O65  1  0.12299562  0.37299562  0.37500000  1
  O  O66  1  0.62299562  0.12700438  0.12500000  1
  O  O67  1  0.87700438  0.87299562  0.62500000  1
  O  O68  1  0.62299562  0.37299562  0.12500000  1
  O  O69  1  0.87700438  0.62700438  0.62500000  1
  O  O70  1  0.37700438  0.87299562  0.87500000  1
  O  O71  1  0.12299562  0.12700438  0.37500000  1
  O  O72  1  0.87700438  0.12700438  0.37500000  1
  O  O73  1  0.62299562  0.87299562  0.87500000  1
  O  O74  1  0.12299562  0.62700438  0.62500000  1
  O  O75  1  0.37700438  0.37299562  0.12500000  1
  O  O76  1  0.12299562  0.87299562  0.62500000  1
  O  O77  1  0.37700438  0.12700438  0.12500000  1
  O  O78  1  0.87700438  0.37299562  0.37500000  1
  O  O79  1  0.62299562  0.62700438  0.87500000  1
  O  O80  1  0.00000000  0.25000000  0.63360274  1
  O  O81  1  0.00000000  0.75000000  0.88360274  1
  O  O82  1  0.50000000  0.25000000  0.86639726  1
  O  O83  1  0.50000000  0.75000000  0.61639726  1
  O  O84  1  0.50000000  0.75000000  0.13360274  1
  O  O85  1  0.50000000  0.25000000  0.38360274  1
  O  O86  1  0.00000000  0.75000000  0.36639726  1
  O  O87  1  0.00000000  0.25000000  0.11639726  1
  Se  Se88  1  0.00000000  0.25000000  0.37500000  1
  Se  Se89  1  0.00000000  0.75000000  0.62500000  1
  Se  Se90  1  0.50000000  0.75000000  0.87500000  1
  Se  Se91  1  0.50000000  0.25000000  0.12500000  1
  Se  Se92  1  0.00000000  0.75000000  0.12500000  1
  Se  Se93  1  0.50000000  0.75000000  0.37500000  1
  Se  Se94  1  0.50000000  0.25000000  0.62500000  1
  Se  Se95  1  0.00000000  0.25000000  0.87500000  1
