# generated using pymatgen
data_Li5TiO
_symmetry_space_group_name_H-M   'P 1'
_cell_length_a   3.71610037
_cell_length_b   3.36125639
_cell_length_c   5.29044766
_cell_angle_alpha   107.13340765
_cell_angle_beta   101.80148608
_cell_angle_gamma   110.01840117
_symmetry_Int_Tables_number   1
_chemical_formula_structural   Li5TiO
_chemical_formula_sum   'Li5 Ti1 O1'
_cell_volume   55.79695040
_cell_formula_units_Z   1
loop_
 _symmetry_equiv_pos_site_id
 _symmetry_equiv_pos_as_xyz
  1  'x, y, z'
loop_
 _atom_site_type_symbol
 _atom_site_label
 _atom_site_symmetry_multiplicity
 _atom_site_fract_x
 _atom_site_fract_y
 _atom_site_fract_z
 _atom_site_occupancy
  Li  Li0  1  0.00000000  0.00000000  0.00000000  1
  Li  Li1  1  0.33300000  0.66700000  0.25000000  1
  Li  Li2  1  0.66700000  0.33300000  0.50000000  1
  Li  Li3  1  0.00000000  0.00000000  0.75000000  1
  Li  Li4  1  0.85700206  0.55846410  0.06709199  1
  Ti  Ti5  1  0.19070561  0.66613800  0.16063177  1
  O  O6  1  0.20807460  0.84328485  0.54760401  1
