# generated using pymatgen
data_Na3Li2Se2F
_symmetry_space_group_name_H-M   'P 1'
_cell_length_a   11.55159955
_cell_length_b   8.64226960
_cell_length_c   7.10810658
_cell_angle_alpha   90.00000000
_cell_angle_beta   90.00000000
_cell_angle_gamma   90.00000000
_symmetry_Int_Tables_number   1
_chemical_formula_structural   Na3Li2Se2F
_chemical_formula_sum   'Na12 Li8 Se8 F4'
_cell_volume   709.61676317
_cell_formula_units_Z   4
loop_
 _symmetry_equiv_pos_site_id
 _symmetry_equiv_pos_as_xyz
  1  'x, y, z'
loop_
 _atom_site_type_symbol
 _atom_site_label
 _atom_site_symmetry_multiplicity
 _atom_site_fract_x
 _atom_site_fract_y
 _atom_site_fract_z
 _atom_site_occupancy
  F  F0  1  0.00000000  0.50000000  0.91724218  1
  F  F1  1  0.50000000  0.00000000  0.58275782  1
  F  F2  1  0.00000000  0.50000000  0.08275782  1
  F  F3  1  0.50000000  0.00000000  0.41724218  1
  Li  Li4  1  0.65517100  0.62955600  0.26966438  1
  Li  Li5  1  0.34482900  0.37044400  0.26966438  1
  Li  Li6  1  0.84482900  0.12955600  0.23033562  1
  Li  Li7  1  0.15517100  0.87044400  0.23033562  1
  Li  Li8  1  0.34482900  0.37044400  0.73033562  1
  Li  Li9  1  0.65517100  0.62955600  0.73033562  1
  Li  Li10  1  0.15517100  0.87044400  0.76966438  1
  Li  Li11  1  0.84482900  0.12955600  0.76966438  1
  Na  Na12  1  0.15319080  0.92981554  -0.00000000  1
  Na  Na13  1  0.84680920  0.07018446  -0.00000000  1
  Na  Na14  1  0.34680920  0.42981554  0.50000000  1
  Na  Na15  1  0.65319080  0.57018446  0.50000000  1
  Na  Na16  1  0.02902404  0.70895882  0.81636643  1
  Na  Na17  1  -0.02902404  -0.70895882  0.81636643  1
  Na  Na18  1  0.47097596  1.20895882  -0.31636643  1
  Na  Na19  1  0.52902404  -0.20895882  -0.31636643  1
  Na  Na20  1  -0.02902404  -0.70895882  -0.81636643  1
  Na  Na21  1  0.02902404  0.70895882  -0.81636643  1
  Na  Na22  1  0.52902404  -0.20895882  1.31636643  1
  Na  Na23  1  0.47097596  1.20895882  1.31636643  1
  Se  Se24  1  0.00000000  0.00000000  0.50000000  1
  Se  Se25  1  0.50000000  0.50000000  0.00000000  1
  Se  Se26  1  0.98152233  0.91241858  0.00000000  1
  Se  Se27  1  0.01847767  0.08758142  0.00000000  1
  Se  Se28  1  0.51847767  0.41241858  0.50000000  1
  Se  Se29  1  0.48152233  0.58758142  0.50000000  1
  Se  Se30  1  0.00000000  0.50000000  0.50000000  1
  Se  Se31  1  0.50000000  0.00000000  0.00000000  1
