# generated using pymatgen
data_Li3ICl2
_symmetry_space_group_name_H-M   'P 1'
_cell_length_a   7.24667961
_cell_length_b   7.24667961
_cell_length_c   33.42019442
_cell_angle_alpha   90.00000000
_cell_angle_beta   90.00000000
_cell_angle_gamma   120.00000000
_symmetry_Int_Tables_number   1
_chemical_formula_structural   Li3ICl2
_chemical_formula_sum   'Li54 I18 Cl36'
_cell_volume   1519.90948413
_cell_formula_units_Z   18
loop_
 _symmetry_equiv_pos_site_id
 _symmetry_equiv_pos_as_xyz
  1  'x, y, z'
loop_
 _atom_site_type_symbol
 _atom_site_label
 _atom_site_symmetry_multiplicity
 _atom_site_fract_x
 _atom_site_fract_y
 _atom_site_fract_z
 _atom_site_occupancy
  Cl  Cl0  1  0.00000000  0.00000000  0.17612775  1
  Cl  Cl1  1  0.00000000  0.00000000  0.32387225  1
  Cl  Cl2  1  0.00000000  0.00000000  0.82387225  1
  Cl  Cl3  1  0.00000000  0.00000000  0.67612775  1
  Cl  Cl4  1  0.66666667  0.33333333  0.50946109  1
  Cl  Cl5  1  0.66666667  0.33333333  0.65720558  1
  Cl  Cl6  1  0.66666667  0.33333333  0.15720558  1
  Cl  Cl7  1  0.66666667  0.33333333  0.00946109  1
  Cl  Cl8  1  0.33333333  0.66666667  0.84279442  1
  Cl  Cl9  1  0.33333333  0.66666667  0.99053891  1
  Cl  Cl10  1  0.33333333  0.66666667  0.49053891  1
  Cl  Cl11  1  0.33333333  0.66666667  0.34279442  1
  Cl  Cl12  1  0.00000000  0.00000000  0.25000000  1
  Cl  Cl13  1  0.00000000  0.00000000  0.75000000  1
  Cl  Cl14  1  0.66666667  0.33333333  0.58333333  1
  Cl  Cl15  1  0.66666667  0.33333333  0.08333333  1
  Cl  Cl16  1  0.33333333  0.66666667  0.91666667  1
  Cl  Cl17  1  0.33333333  0.66666667  0.41666667  1
  Cl  Cl18  1  0.50000000  0.00000000  0.00000000  1
  Cl  Cl19  1  0.00000000  0.50000000  0.00000000  1
  Cl  Cl20  1  0.50000000  0.50000000  0.00000000  1
  Cl  Cl21  1  0.00000000  0.50000000  0.50000000  1
  Cl  Cl22  1  0.50000000  0.00000000  0.50000000  1
  Cl  Cl23  1  0.50000000  0.50000000  0.50000000  1
  Cl  Cl24  1  0.16666667  0.33333333  0.33333333  1
  Cl  Cl25  1  0.66666667  0.83333333  0.33333333  1
  Cl  Cl26  1  0.16666667  0.83333333  0.33333333  1
  Cl  Cl27  1  0.66666667  0.83333333  0.83333333  1
  Cl  Cl28  1  0.16666667  0.33333333  0.83333333  1
  Cl  Cl29  1  0.16666667  0.83333333  0.83333333  1
  Cl  Cl30  1  0.83333333  0.66666667  0.66666667  1
  Cl  Cl31  1  0.33333333  0.16666667  0.66666667  1
  Cl  Cl32  1  0.83333333  0.16666667  0.66666667  1
  Cl  Cl33  1  0.33333333  0.16666667  0.16666667  1
  Cl  Cl34  1  0.83333333  0.66666667  0.16666667  1
  Cl  Cl35  1  0.83333333  0.16666667  0.16666667  1
  I  I36  1  0.00000000  0.00000000  0.00000000  1
  I  I37  1  0.00000000  0.00000000  0.50000000  1
  I  I38  1  0.66666667  0.33333333  0.33333333  1
  I  I39  1  0.66666667  0.33333333  0.83333333  1
  I  I40  1  0.33333333  0.66666667  0.66666667  1
  I  I41  1  0.33333333  0.66666667  0.16666667  1
  I  I42  1  0.00000000  0.00000000  0.45008924  1
  I  I43  1  0.00000000  0.00000000  0.04991076  1
  I  I44  1  0.00000000  0.00000000  0.54991076  1
  I  I45  1  0.00000000  0.00000000  0.95008924  1
  I  I46  1  0.66666667  0.33333333  0.78342258  1
  I  I47  1  0.66666667  0.33333333  0.38324409  1
  I  I48  1  0.66666667  0.33333333  0.88324409  1
  I  I49  1  0.66666667  0.33333333  0.28342258  1
  I  I50  1  0.33333333  0.66666667  0.11675591  1
  I  I51  1  0.33333333  0.66666667  0.71657742  1
  I  I52  1  0.33333333  0.66666667  0.21657742  1
  I  I53  1  0.33333333  0.66666667  0.61675591  1
  Li  Li54  1  0.67258741  0.00000000  0.25000000  1
  Li  Li55  1  0.00000000  0.67258741  0.25000000  1
  Li  Li56  1  0.32741259  0.32741259  0.25000000  1
  Li  Li57  1  0.32741259  0.00000000  0.75000000  1
  Li  Li58  1  0.00000000  0.32741259  0.75000000  1
  Li  Li59  1  0.67258741  0.67258741  0.75000000  1
  Li  Li60  1  0.33925408  0.33333333  0.58333333  1
  Li  Li61  1  0.66666667  0.00592075  0.58333333  1
  Li  Li62  1  0.99407925  0.66074592  0.58333333  1
  Li  Li63  1  0.99407925  0.33333333  0.08333333  1
  Li  Li64  1  0.66666667  0.66074592  0.08333333  1
  Li  Li65  1  0.33925408  0.00592075  0.08333333  1
  Li  Li66  1  0.00592075  0.66666667  0.91666667  1
  Li  Li67  1  0.33333333  0.33925408  0.91666667  1
  Li  Li68  1  0.66074592  0.99407925  0.91666667  1
  Li  Li69  1  0.66074592  0.66666667  0.41666667  1
  Li  Li70  1  0.33333333  0.99407925  0.41666667  1
  Li  Li71  1  0.00592075  0.33925408  0.41666667  1
  Li  Li72  1  0.04164395  0.15454683  0.79681161  1
  Li  Li73  1  -0.15454683  -0.11290289  0.79681161  1
  Li  Li74  1  0.11290289  -0.04164395  0.79681161  1
  Li  Li75  1  0.15454683  0.04164395  -0.29681161  1
  Li  Li76  1  -0.11290289  -0.15454683  -0.29681161  1
  Li  Li77  1  -0.04164395  0.11290289  -0.29681161  1
  Li  Li78  1  -0.04164395  -0.15454683  -0.79681161  1
  Li  Li79  1  0.15454683  0.11290289  -0.79681161  1
  Li  Li80  1  -0.11290289  0.04164395  -0.79681161  1
  Li  Li81  1  -0.15454683  -0.04164395  1.29681161  1
  Li  Li82  1  0.11290289  0.15454683  1.29681161  1
  Li  Li83  1  0.04164395  -0.11290289  1.29681161  1
  Li  Li84  1  0.70831061  0.48788017  1.13014494  1
  Li  Li85  1  0.51211983  0.22043045  1.13014494  1
  Li  Li86  1  0.77956955  0.29168939  1.13014494  1
  Li  Li87  1  0.82121350  0.37497728  0.03652173  1
  Li  Li88  1  0.55376378  0.17878650  0.03652173  1
  Li  Li89  1  0.62502272  0.44623622  0.03652173  1
  Li  Li90  1  0.62502272  0.17878650  -0.46347827  1
  Li  Li91  1  0.82121350  0.44623622  -0.46347827  1
  Li  Li92  1  0.55376378  0.37497728  -0.46347827  1
  Li  Li93  1  0.51211983  0.29168939  1.63014494  1
  Li  Li94  1  0.77956955  0.48788017  1.63014494  1
  Li  Li95  1  0.70831061  0.22043045  1.63014494  1
  Li  Li96  1  0.37497728  0.82121350  1.46347827  1
  Li  Li97  1  0.17878650  0.55376378  1.46347827  1
  Li  Li98  1  0.44623622  0.62502272  1.46347827  1
  Li  Li99  1  0.48788017  0.70831061  0.36985506  1
  Li  Li100  1  0.22043045  0.51211983  0.36985506  1
  Li  Li101  1  0.29168939  0.77956955  0.36985506  1
  Li  Li102  1  0.29168939  0.51211983  -0.13014494  1
  Li  Li103  1  0.48788017  0.77956955  -0.13014494  1
  Li  Li104  1  0.22043045  0.70831061  -0.13014494  1
  Li  Li105  1  0.17878650  0.62502272  1.96347827  1
  Li  Li106  1  0.44623622  0.82121350  1.96347827  1
  Li  Li107  1  0.37497728  0.55376378  1.96347827  1
