# generated using pymatgen
data_LiBr
_symmetry_space_group_name_H-M   'P 1'
_cell_length_a   19.12455868
_cell_length_b   19.12455868
_cell_length_c   19.12455868
_cell_angle_alpha   90.00000000
_cell_angle_beta   90.00000000
_cell_angle_gamma   90.00000000
_symmetry_Int_Tables_number   1
_chemical_formula_structural   LiBr
_chemical_formula_sum   'Li192 Br192'
_cell_volume   6994.78332887
_cell_formula_units_Z   192
loop_
 _symmetry_equiv_pos_site_id
 _symmetry_equiv_pos_as_xyz
  1  'x, y, z'
loop_
 _atom_site_type_symbol
 _atom_site_label
 _atom_site_symmetry_multiplicity
 _atom_site_fract_x
 _atom_site_fract_y
 _atom_site_fract_z
 _atom_site_occupancy
  Br  Br0  1  0.33739359  0.00000000  0.00000000  1
  Br  Br1  1  0.66260641  0.00000000  0.00000000  1
  Br  Br2  1  0.00000000  0.33739359  0.00000000  1
  Br  Br3  1  0.00000000  0.66260641  0.00000000  1
  Br  Br4  1  0.00000000  0.00000000  0.33739359  1
  Br  Br5  1  0.00000000  0.00000000  0.66260641  1
  Br  Br6  1  0.33739359  0.50000000  0.50000000  1
  Br  Br7  1  0.66260641  0.50000000  0.50000000  1
  Br  Br8  1  0.00000000  0.83739359  0.50000000  1
  Br  Br9  1  0.00000000  0.16260641  0.50000000  1
  Br  Br10  1  0.00000000  0.50000000  0.83739359  1
  Br  Br11  1  0.00000000  0.50000000  0.16260641  1
  Br  Br12  1  0.83739359  0.00000000  0.50000000  1
  Br  Br13  1  0.16260641  0.00000000  0.50000000  1
  Br  Br14  1  0.50000000  0.33739359  0.50000000  1
  Br  Br15  1  0.50000000  0.66260641  0.50000000  1
  Br  Br16  1  0.50000000  0.00000000  0.83739359  1
  Br  Br17  1  0.50000000  0.00000000  0.16260641  1
  Br  Br18  1  0.83739359  0.50000000  0.00000000  1
  Br  Br19  1  0.16260641  0.50000000  0.00000000  1
  Br  Br20  1  0.50000000  0.83739359  0.00000000  1
  Br  Br21  1  0.50000000  0.16260641  0.00000000  1
  Br  Br22  1  0.50000000  0.50000000  0.33739359  1
  Br  Br23  1  0.50000000  0.50000000  0.66260641  1
  Br  Br24  1  0.00000000  0.25000000  0.25000000  1
  Br  Br25  1  0.00000000  0.75000000  0.25000000  1
  Br  Br26  1  0.25000000  0.00000000  0.25000000  1
  Br  Br27  1  0.25000000  0.00000000  0.75000000  1
  Br  Br28  1  0.25000000  0.25000000  0.00000000  1
  Br  Br29  1  0.75000000  0.25000000  0.00000000  1
  Br  Br30  1  0.00000000  0.75000000  0.75000000  1
  Br  Br31  1  0.00000000  0.25000000  0.75000000  1
  Br  Br32  1  0.25000000  0.50000000  0.75000000  1
  Br  Br33  1  0.25000000  0.50000000  0.25000000  1
  Br  Br34  1  0.25000000  0.75000000  0.50000000  1
  Br  Br35  1  0.75000000  0.75000000  0.50000000  1
  Br  Br36  1  0.50000000  0.25000000  0.75000000  1
  Br  Br37  1  0.50000000  0.75000000  0.75000000  1
  Br  Br38  1  0.75000000  0.00000000  0.75000000  1
  Br  Br39  1  0.75000000  0.00000000  0.25000000  1
  Br  Br40  1  0.75000000  0.25000000  0.50000000  1
  Br  Br41  1  0.25000000  0.25000000  0.50000000  1
  Br  Br42  1  0.50000000  0.75000000  0.25000000  1
  Br  Br43  1  0.50000000  0.25000000  0.25000000  1
  Br  Br44  1  0.75000000  0.50000000  0.25000000  1
  Br  Br45  1  0.75000000  0.50000000  0.75000000  1
  Br  Br46  1  0.75000000  0.75000000  0.00000000  1
  Br  Br47  1  0.25000000  0.75000000  0.00000000  1
  Br  Br48  1  0.00000000  0.72019818  0.93932830  1
  Br  Br49  1  0.00000000  0.27980182  0.93932830  1
  Br  Br50  1  0.00000000  0.72019818  0.06067170  1
  Br  Br51  1  0.00000000  0.27980182  0.06067170  1
  Br  Br52  1  0.93932830  0.00000000  0.72019818  1
  Br  Br53  1  0.93932830  0.00000000  0.27980182  1
  Br  Br54  1  0.06067170  0.00000000  0.72019818  1
  Br  Br55  1  0.06067170  0.00000000  0.27980182  1
  Br  Br56  1  0.72019818  0.93932830  0.00000000  1
  Br  Br57  1  0.27980182  0.93932830  0.00000000  1
  Br  Br58  1  0.72019818  0.06067170  0.00000000  1
  Br  Br59  1  0.27980182  0.06067170  -0.00000000  1
  Br  Br60  1  0.72019818  0.00000000  0.06067170  1
  Br  Br61  1  0.27980182  0.00000000  0.06067170  1
  Br  Br62  1  0.72019818  0.00000000  0.93932830  1
  Br  Br63  1  0.27980182  0.00000000  0.93932830  1
  Br  Br64  1  0.00000000  0.93932830  0.27980182  1
  Br  Br65  1  0.00000000  0.93932830  0.72019818  1
  Br  Br66  1  0.00000000  0.06067170  0.27980182  1
  Br  Br67  1  0.00000000  0.06067170  0.72019818  1
  Br  Br68  1  0.93932830  0.72019818  0.00000000  1
  Br  Br69  1  0.93932830  0.27980182  0.00000000  1
  Br  Br70  1  0.06067170  0.72019818  0.00000000  1
  Br  Br71  1  0.06067170  0.27980182  -0.00000000  1
  Br  Br72  1  0.00000000  0.22019818  0.43932830  1
  Br  Br73  1  0.00000000  0.77980182  0.43932830  1
  Br  Br74  1  0.00000000  0.22019818  0.56067170  1
  Br  Br75  1  0.00000000  0.77980182  0.56067170  1
  Br  Br76  1  0.93932830  0.50000000  0.22019818  1
  Br  Br77  1  0.93932830  0.50000000  0.77980182  1
  Br  Br78  1  0.06067170  0.50000000  0.22019818  1
  Br  Br79  1  0.06067170  0.50000000  0.77980182  1
  Br  Br80  1  0.72019818  0.43932830  0.50000000  1
  Br  Br81  1  0.27980182  0.43932830  0.50000000  1
  Br  Br82  1  0.72019818  0.56067170  0.50000000  1
  Br  Br83  1  0.27980182  0.56067170  0.50000000  1
  Br  Br84  1  0.72019818  0.50000000  0.56067170  1
  Br  Br85  1  0.27980182  0.50000000  0.56067170  1
  Br  Br86  1  0.72019818  0.50000000  0.43932830  1
  Br  Br87  1  0.27980182  0.50000000  0.43932830  1
  Br  Br88  1  0.00000000  0.43932830  0.77980182  1
  Br  Br89  1  0.00000000  0.43932830  0.22019818  1
  Br  Br90  1  0.00000000  0.56067170  0.77980182  1
  Br  Br91  1  0.00000000  0.56067170  0.22019818  1
  Br  Br92  1  0.93932830  0.22019818  0.50000000  1
  Br  Br93  1  0.93932830  0.77980182  0.50000000  1
  Br  Br94  1  0.06067170  0.22019818  0.50000000  1
  Br  Br95  1  0.06067170  0.77980182  0.50000000  1
  Br  Br96  1  0.50000000  0.72019818  0.43932830  1
  Br  Br97  1  0.50000000  0.27980182  0.43932830  1
  Br  Br98  1  0.50000000  0.72019818  0.56067170  1
  Br  Br99  1  0.50000000  0.27980182  0.56067170  1
  Br  Br100  1  0.43932830  0.00000000  0.22019818  1
  Br  Br101  1  0.43932830  0.00000000  0.77980182  1
  Br  Br102  1  0.56067170  0.00000000  0.22019818  1
  Br  Br103  1  0.56067170  0.00000000  0.77980182  1
  Br  Br104  1  0.22019818  0.93932830  0.50000000  1
  Br  Br105  1  0.77980182  0.93932830  0.50000000  1
  Br  Br106  1  0.22019818  0.06067170  0.50000000  1
  Br  Br107  1  0.77980182  0.06067170  0.50000000  1
  Br  Br108  1  0.22019818  0.00000000  0.56067170  1
  Br  Br109  1  0.77980182  0.00000000  0.56067170  1
  Br  Br110  1  0.22019818  0.00000000  0.43932830  1
  Br  Br111  1  0.77980182  0.00000000  0.43932830  1
  Br  Br112  1  0.50000000  0.93932830  0.77980182  1
  Br  Br113  1  0.50000000  0.93932830  0.22019818  1
  Br  Br114  1  0.50000000  0.06067170  0.77980182  1
  Br  Br115  1  0.50000000  0.06067170  0.22019818  1
  Br  Br116  1  0.43932830  0.72019818  0.50000000  1
  Br  Br117  1  0.43932830  0.27980182  0.50000000  1
  Br  Br118  1  0.56067170  0.72019818  0.50000000  1
  Br  Br119  1  0.56067170  0.27980182  0.50000000  1
  Br  Br120  1  0.50000000  0.22019818  0.93932830  1
  Br  Br121  1  0.50000000  0.77980182  0.93932830  1
  Br  Br122  1  0.50000000  0.22019818  0.06067170  1
  Br  Br123  1  0.50000000  0.77980182  0.06067170  1
  Br  Br124  1  0.43932830  0.50000000  0.72019818  1
  Br  Br125  1  0.43932830  0.50000000  0.27980182  1
  Br  Br126  1  0.56067170  0.50000000  0.72019818  1
  Br  Br127  1  0.56067170  0.50000000  0.27980182  1
  Br  Br128  1  0.22019818  0.43932830  0.00000000  1
  Br  Br129  1  0.77980182  0.43932830  0.00000000  1
  Br  Br130  1  0.22019818  0.56067170  0.00000000  1
  Br  Br131  1  0.77980182  0.56067170  0.00000000  1
  Br  Br132  1  0.22019818  0.50000000  0.06067170  1
  Br  Br133  1  0.77980182  0.50000000  0.06067170  1
  Br  Br134  1  0.22019818  0.50000000  0.93932830  1
  Br  Br135  1  0.77980182  0.50000000  0.93932830  1
  Br  Br136  1  0.50000000  0.43932830  0.27980182  1
  Br  Br137  1  0.50000000  0.43932830  0.72019818  1
  Br  Br138  1  0.50000000  0.56067170  0.27980182  1
  Br  Br139  1  0.50000000  0.56067170  0.72019818  1
  Br  Br140  1  0.43932830  0.22019818  0.00000000  1
  Br  Br141  1  0.43932830  0.77980182  0.00000000  1
  Br  Br142  1  0.56067170  0.22019818  0.00000000  1
  Br  Br143  1  0.56067170  0.77980182  0.00000000  1
  Br  Br144  1  0.50000000  0.81557785  0.81557785  1
  Br  Br145  1  0.50000000  0.18442215  0.81557785  1
  Br  Br146  1  0.50000000  0.81557785  0.18442215  1
  Br  Br147  1  0.50000000  0.18442215  0.18442215  1
  Br  Br148  1  0.81557785  0.50000000  0.81557785  1
  Br  Br149  1  0.81557785  0.50000000  0.18442215  1
  Br  Br150  1  0.18442215  0.50000000  0.81557785  1
  Br  Br151  1  0.18442215  0.50000000  0.18442215  1
  Br  Br152  1  0.81557785  0.81557785  0.50000000  1
  Br  Br153  1  0.18442215  0.81557785  0.50000000  1
  Br  Br154  1  0.81557785  0.18442215  0.50000000  1
  Br  Br155  1  0.18442215  0.18442215  0.50000000  1
  Br  Br156  1  0.50000000  0.31557785  0.31557785  1
  Br  Br157  1  0.50000000  0.68442215  0.31557785  1
  Br  Br158  1  0.50000000  0.31557785  0.68442215  1
  Br  Br159  1  0.50000000  0.68442215  0.68442215  1
  Br  Br160  1  0.81557785  0.00000000  0.31557785  1
  Br  Br161  1  0.81557785  0.00000000  0.68442215  1
  Br  Br162  1  0.18442215  0.00000000  0.31557785  1
  Br  Br163  1  0.18442215  0.00000000  0.68442215  1
  Br  Br164  1  0.81557785  0.31557785  -0.00000000  1
  Br  Br165  1  0.18442215  0.31557785  0.00000000  1
  Br  Br166  1  0.81557785  0.68442215  0.00000000  1
  Br  Br167  1  0.18442215  0.68442215  0.00000000  1
  Br  Br168  1  0.00000000  0.81557785  0.31557785  1
  Br  Br169  1  0.00000000  0.18442215  0.31557785  1
  Br  Br170  1  0.00000000  0.81557785  0.68442215  1
  Br  Br171  1  0.00000000  0.18442215  0.68442215  1
  Br  Br172  1  0.31557785  0.50000000  0.31557785  1
  Br  Br173  1  0.31557785  0.50000000  0.68442215  1
  Br  Br174  1  0.68442215  0.50000000  0.31557785  1
  Br  Br175  1  0.68442215  0.50000000  0.68442215  1
  Br  Br176  1  0.31557785  0.81557785  -0.00000000  1
  Br  Br177  1  0.68442215  0.81557785  0.00000000  1
  Br  Br178  1  0.31557785  0.18442215  0.00000000  1
  Br  Br179  1  0.68442215  0.18442215  0.00000000  1
  Br  Br180  1  0.00000000  0.31557785  0.81557785  1
  Br  Br181  1  0.00000000  0.68442215  0.81557785  1
  Br  Br182  1  0.00000000  0.31557785  0.18442215  1
  Br  Br183  1  0.00000000  0.68442215  0.18442215  1
  Br  Br184  1  0.31557785  0.00000000  0.81557785  1
  Br  Br185  1  0.31557785  0.00000000  0.18442215  1
  Br  Br186  1  0.68442215  0.00000000  0.81557785  1
  Br  Br187  1  0.68442215  0.00000000  0.18442215  1
  Br  Br188  1  0.31557785  0.31557785  0.50000000  1
  Br  Br189  1  0.68442215  0.31557785  0.50000000  1
  Br  Br190  1  0.31557785  0.68442215  0.50000000  1
  Br  Br191  1  0.68442215  0.68442215  0.50000000  1
  Li  Li192  1  0.00000000  0.00000000  0.00000000  1
  Li  Li193  1  0.00000000  0.50000000  0.50000000  1
  Li  Li194  1  0.50000000  0.00000000  0.50000000  1
  Li  Li195  1  0.50000000  0.50000000  0.00000000  1
  Li  Li196  1  0.50000000  0.89758218  0.89758218  1
  Li  Li197  1  0.50000000  0.10241782  0.89758218  1
  Li  Li198  1  0.50000000  0.89758218  0.10241782  1
  Li  Li199  1  0.50000000  0.10241782  0.10241782  1
  Li  Li200  1  0.89758218  0.50000000  0.89758218  1
  Li  Li201  1  0.89758218  0.50000000  0.10241782  1
  Li  Li202  1  0.10241782  0.50000000  0.89758218  1
  Li  Li203  1  0.10241782  0.50000000  0.10241782  1
  Li  Li204  1  0.89758218  0.89758218  0.50000000  1
  Li  Li205  1  0.10241782  0.89758218  0.50000000  1
  Li  Li206  1  0.89758218  0.10241782  0.50000000  1
  Li  Li207  1  0.10241782  0.10241782  0.50000000  1
  Li  Li208  1  0.50000000  0.39758218  0.39758218  1
  Li  Li209  1  0.50000000  0.60241782  0.39758218  1
  Li  Li210  1  0.50000000  0.39758218  0.60241782  1
  Li  Li211  1  0.50000000  0.60241782  0.60241782  1
  Li  Li212  1  0.89758218  0.00000000  0.39758218  1
  Li  Li213  1  0.89758218  0.00000000  0.60241782  1
  Li  Li214  1  0.10241782  0.00000000  0.39758218  1
  Li  Li215  1  0.10241782  0.00000000  0.60241782  1
  Li  Li216  1  0.89758218  0.39758218  -0.00000000  1
  Li  Li217  1  0.10241782  0.39758218  0.00000000  1
  Li  Li218  1  0.89758218  0.60241782  0.00000000  1
  Li  Li219  1  0.10241782  0.60241782  0.00000000  1
  Li  Li220  1  0.00000000  0.89758218  0.39758218  1
  Li  Li221  1  0.00000000  0.10241782  0.39758218  1
  Li  Li222  1  0.00000000  0.89758218  0.60241782  1
  Li  Li223  1  0.00000000  0.10241782  0.60241782  1
  Li  Li224  1  0.39758218  0.50000000  0.39758218  1
  Li  Li225  1  0.39758218  0.50000000  0.60241782  1
  Li  Li226  1  0.60241782  0.50000000  0.39758218  1
  Li  Li227  1  0.60241782  0.50000000  0.60241782  1
  Li  Li228  1  0.39758218  0.89758218  -0.00000000  1
  Li  Li229  1  0.60241782  0.89758218  0.00000000  1
  Li  Li230  1  0.39758218  0.10241782  0.00000000  1
  Li  Li231  1  0.60241782  0.10241782  -0.00000000  1
  Li  Li232  1  0.00000000  0.39758218  0.89758218  1
  Li  Li233  1  0.00000000  0.60241782  0.89758218  1
  Li  Li234  1  0.00000000  0.39758218  0.10241782  1
  Li  Li235  1  0.00000000  0.60241782  0.10241782  1
  Li  Li236  1  0.39758218  0.00000000  0.89758218  1
  Li  Li237  1  0.39758218  0.00000000  0.10241782  1
  Li  Li238  1  0.60241782  0.00000000  0.89758218  1
  Li  Li239  1  0.60241782  0.00000000  0.10241782  1
  Li  Li240  1  0.39758218  0.39758218  0.50000000  1
  Li  Li241  1  0.60241782  0.39758218  0.50000000  1
  Li  Li242  1  0.39758218  0.60241782  0.50000000  1
  Li  Li243  1  0.60241782  0.60241782  0.50000000  1
  Li  Li244  1  0.68642485  0.68642485  0.68642485  1
  Li  Li245  1  0.31357515  0.31357515  0.68642485  1
  Li  Li246  1  0.31357515  0.68642485  0.31357515  1
  Li  Li247  1  0.68642485  0.31357515  0.31357515  1
  Li  Li248  1  0.68642485  0.68642485  0.31357515  1
  Li  Li249  1  0.31357515  0.31357515  0.31357515  1
  Li  Li250  1  0.68642485  0.31357515  0.68642485  1
  Li  Li251  1  0.31357515  0.68642485  0.68642485  1
  Li  Li252  1  0.68642485  0.18642485  0.18642485  1
  Li  Li253  1  0.31357515  0.81357515  0.18642485  1
  Li  Li254  1  0.31357515  0.18642485  0.81357515  1
  Li  Li255  1  0.68642485  0.81357515  0.81357515  1
  Li  Li256  1  0.68642485  0.18642485  0.81357515  1
  Li  Li257  1  0.31357515  0.81357515  0.81357515  1
  Li  Li258  1  0.68642485  0.81357515  0.18642485  1
  Li  Li259  1  0.31357515  0.18642485  0.18642485  1
  Li  Li260  1  0.18642485  0.68642485  0.18642485  1
  Li  Li261  1  0.81357515  0.31357515  0.18642485  1
  Li  Li262  1  0.81357515  0.68642485  0.81357515  1
  Li  Li263  1  0.18642485  0.31357515  0.81357515  1
  Li  Li264  1  0.18642485  0.68642485  0.81357515  1
  Li  Li265  1  0.81357515  0.31357515  0.81357515  1
  Li  Li266  1  0.18642485  0.31357515  0.18642485  1
  Li  Li267  1  0.81357515  0.68642485  0.18642485  1
  Li  Li268  1  0.18642485  0.18642485  0.68642485  1
  Li  Li269  1  0.81357515  0.81357515  0.68642485  1
  Li  Li270  1  0.81357515  0.18642485  0.31357515  1
  Li  Li271  1  0.18642485  0.81357515  0.31357515  1
  Li  Li272  1  0.18642485  0.18642485  0.31357515  1
  Li  Li273  1  0.81357515  0.81357515  0.31357515  1
  Li  Li274  1  0.18642485  0.81357515  0.68642485  1
  Li  Li275  1  0.81357515  0.18642485  0.68642485  1
  Li  Li276  1  0.83680071  0.83680071  0.11102807  1
  Li  Li277  1  -0.83680071  -0.83680071  0.11102807  1
  Li  Li278  1  -0.83680071  0.83680071  -0.11102807  1
  Li  Li279  1  0.83680071  -0.83680071  -0.11102807  1
  Li  Li280  1  0.11102807  0.83680071  0.83680071  1
  Li  Li281  1  0.11102807  -0.83680071  -0.83680071  1
  Li  Li282  1  -0.11102807  -0.83680071  0.83680071  1
  Li  Li283  1  -0.11102807  0.83680071  -0.83680071  1
  Li  Li284  1  0.83680071  0.11102807  0.83680071  1
  Li  Li285  1  -0.83680071  0.11102807  -0.83680071  1
  Li  Li286  1  0.83680071  -0.11102807  -0.83680071  1
  Li  Li287  1  -0.83680071  -0.11102807  0.83680071  1
  Li  Li288  1  0.83680071  0.83680071  -0.11102807  1
  Li  Li289  1  -0.83680071  -0.83680071  -0.11102807  1
  Li  Li290  1  0.83680071  -0.83680071  0.11102807  1
  Li  Li291  1  -0.83680071  0.83680071  0.11102807  1
  Li  Li292  1  0.83680071  0.11102807  -0.83680071  1
  Li  Li293  1  -0.83680071  0.11102807  0.83680071  1
  Li  Li294  1  -0.83680071  -0.11102807  -0.83680071  1
  Li  Li295  1  0.83680071  -0.11102807  0.83680071  1
  Li  Li296  1  0.11102807  0.83680071  -0.83680071  1
  Li  Li297  1  0.11102807  -0.83680071  0.83680071  1
  Li  Li298  1  -0.11102807  0.83680071  0.83680071  1
  Li  Li299  1  -0.11102807  -0.83680071  -0.83680071  1
  Li  Li300  1  0.83680071  1.33680071  0.61102807  1
  Li  Li301  1  -0.83680071  -0.33680071  0.61102807  1
  Li  Li302  1  -0.83680071  1.33680071  0.38897193  1
  Li  Li303  1  0.83680071  -0.33680071  0.38897193  1
  Li  Li304  1  0.11102807  1.33680071  1.33680071  1
  Li  Li305  1  0.11102807  -0.33680071  -0.33680071  1
  Li  Li306  1  -0.11102807  -0.33680071  1.33680071  1
  Li  Li307  1  -0.11102807  1.33680071  -0.33680071  1
  Li  Li308  1  0.83680071  0.61102807  1.33680071  1
  Li  Li309  1  -0.83680071  0.61102807  -0.33680071  1
  Li  Li310  1  0.83680071  0.38897193  -0.33680071  1
  Li  Li311  1  -0.83680071  0.38897193  1.33680071  1
  Li  Li312  1  0.83680071  1.33680071  0.38897193  1
  Li  Li313  1  -0.83680071  -0.33680071  0.38897193  1
  Li  Li314  1  0.83680071  -0.33680071  0.61102807  1
  Li  Li315  1  -0.83680071  1.33680071  0.61102807  1
  Li  Li316  1  0.83680071  0.61102807  -0.33680071  1
  Li  Li317  1  -0.83680071  0.61102807  1.33680071  1
  Li  Li318  1  -0.83680071  0.38897193  -0.33680071  1
  Li  Li319  1  0.83680071  0.38897193  1.33680071  1
  Li  Li320  1  0.11102807  1.33680071  -0.33680071  1
  Li  Li321  1  0.11102807  -0.33680071  1.33680071  1
  Li  Li322  1  -0.11102807  1.33680071  1.33680071  1
  Li  Li323  1  -0.11102807  -0.33680071  -0.33680071  1
  Li  Li324  1  1.33680071  0.83680071  0.61102807  1
  Li  Li325  1  -0.33680071  -0.83680071  0.61102807  1
  Li  Li326  1  -0.33680071  0.83680071  0.38897193  1
  Li  Li327  1  1.33680071  -0.83680071  0.38897193  1
  Li  Li328  1  0.61102807  0.83680071  1.33680071  1
  Li  Li329  1  0.61102807  -0.83680071  -0.33680071  1
  Li  Li330  1  0.38897193  -0.83680071  1.33680071  1
  Li  Li331  1  0.38897193  0.83680071  -0.33680071  1
  Li  Li332  1  1.33680071  0.11102807  1.33680071  1
  Li  Li333  1  -0.33680071  0.11102807  -0.33680071  1
  Li  Li334  1  1.33680071  -0.11102807  -0.33680071  1
  Li  Li335  1  -0.33680071  -0.11102807  1.33680071  1
  Li  Li336  1  1.33680071  0.83680071  0.38897193  1
  Li  Li337  1  -0.33680071  -0.83680071  0.38897193  1
  Li  Li338  1  1.33680071  -0.83680071  0.61102807  1
  Li  Li339  1  -0.33680071  0.83680071  0.61102807  1
  Li  Li340  1  1.33680071  0.11102807  -0.33680071  1
  Li  Li341  1  -0.33680071  0.11102807  1.33680071  1
  Li  Li342  1  -0.33680071  -0.11102807  -0.33680071  1
  Li  Li343  1  1.33680071  -0.11102807  1.33680071  1
  Li  Li344  1  0.61102807  0.83680071  -0.33680071  1
  Li  Li345  1  0.61102807  -0.83680071  1.33680071  1
  Li  Li346  1  0.38897193  0.83680071  1.33680071  1
  Li  Li347  1  0.38897193  -0.83680071  -0.33680071  1
  Li  Li348  1  1.33680071  1.33680071  0.11102807  1
  Li  Li349  1  -0.33680071  -0.33680071  0.11102807  1
  Li  Li350  1  -0.33680071  1.33680071  -0.11102807  1
  Li  Li351  1  1.33680071  -0.33680071  -0.11102807  1
  Li  Li352  1  0.61102807  1.33680071  0.83680071  1
  Li  Li353  1  0.61102807  -0.33680071  -0.83680071  1
  Li  Li354  1  0.38897193  -0.33680071  0.83680071  1
  Li  Li355  1  0.38897193  1.33680071  -0.83680071  1
  Li  Li356  1  1.33680071  0.61102807  0.83680071  1
  Li  Li357  1  -0.33680071  0.61102807  -0.83680071  1
  Li  Li358  1  1.33680071  0.38897193  -0.83680071  1
  Li  Li359  1  -0.33680071  0.38897193  0.83680071  1
  Li  Li360  1  1.33680071  1.33680071  -0.11102807  1
  Li  Li361  1  -0.33680071  -0.33680071  -0.11102807  1
  Li  Li362  1  1.33680071  -0.33680071  0.11102807  1
  Li  Li363  1  -0.33680071  1.33680071  0.11102807  1
  Li  Li364  1  1.33680071  0.61102807  -0.83680071  1
  Li  Li365  1  -0.33680071  0.61102807  0.83680071  1
  Li  Li366  1  -0.33680071  0.38897193  -0.83680071  1
  Li  Li367  1  1.33680071  0.38897193  0.83680071  1
  Li  Li368  1  0.61102807  1.33680071  -0.83680071  1
  Li  Li369  1  0.61102807  -0.33680071  0.83680071  1
  Li  Li370  1  0.38897193  1.33680071  0.83680071  1
  Li  Li371  1  0.38897193  -0.33680071  -0.83680071  1
  Li  Li372  1  0.25000000  0.25000000  0.25000000  1
  Li  Li373  1  0.25000000  0.25000000  0.75000000  1
  Li  Li374  1  0.25000000  0.75000000  0.75000000  1
  Li  Li375  1  0.25000000  0.75000000  0.25000000  1
  Li  Li376  1  0.75000000  0.25000000  0.75000000  1
  Li  Li377  1  0.75000000  0.25000000  0.25000000  1
  Li  Li378  1  0.75000000  0.75000000  0.25000000  1
  Li  Li379  1  0.75000000  0.75000000  0.75000000  1
  Li  Li380  1  0.50000000  0.50000000  0.50000000  1
  Li  Li381  1  0.50000000  0.00000000  0.00000000  1
  Li  Li382  1  0.00000000  0.50000000  0.00000000  1
  Li  Li383  1  0.00000000  0.00000000  0.50000000  1
