# generated using pymatgen
data_Li4Ti2As5(S3Cl2)2
_symmetry_space_group_name_H-M   'P 1'
_cell_length_a   3.98742051
_cell_length_b   3.32648537
_cell_length_c   3.47237913
_cell_angle_alpha   88.26767617
_cell_angle_beta   86.71247737
_cell_angle_gamma   85.23290333
_symmetry_Int_Tables_number   1
_chemical_formula_structural   Li4Ti2As5(S3Cl2)2
_chemical_formula_sum   'Li4 Ti2 As5 S6 Cl4'
_cell_volume   45.80809820
_cell_formula_units_Z   1
loop_
 _symmetry_equiv_pos_site_id
 _symmetry_equiv_pos_as_xyz
  1  'x, y, z'
loop_
 _atom_site_type_symbol
 _atom_site_label
 _atom_site_symmetry_multiplicity
 _atom_site_fract_x
 _atom_site_fract_y
 _atom_site_fract_z
 _atom_site_occupancy
  Li  Li0  1  0.00000000  0.00000000  0.00000000  1
  Li  Li1  1  0.50000000  0.50000000  0.50000000  1
  Li  Li2  1  0.50000000  0.50000000  0.00000000  1
  Li  Li3  1  0.50000000  0.00000000  0.50000000  1
  Ti  Ti4  1  0.00000000  0.50000000  0.50000000  1
  Ti  Ti5  1  0.44051137  0.59994607  0.44368026  1
  Cl  Cl6  1  0.63486897  0.61822744  0.14919343  1
  Cl  Cl7  1  0.29728546  0.15593914  0.12480217  1
  Cl  Cl8  1  0.06401160  0.98472644  0.05723628  1
  Cl  Cl9  1  0.18033221  0.63758068  0.93303703  1
  As  As10  1  0.21716037  0.75468053  0.89596448  1
  As  As11  1  0.06133634  0.62739563  0.37032541  1
  As  As12  1  0.35770788  0.50786831  0.57720421  1
  As  As13  1  0.37319564  0.06072946  0.84530444  1
  As  As14  1  0.65130686  0.11258450  0.28968592  1
  S  S15  1  0.26212810  0.25266266  0.18367090  1
  S  S16  1  0.41758287  0.61125953  0.90831594  1
  S  S17  1  0.67046983  0.18618591  0.76911915  1
  S  S18  1  0.70926368  0.03034086  0.46468751  1
  S  S19  1  0.47360322  0.72886363  0.85747828  1
  S  S20  1  0.24466358  0.36883684  0.04427770  1
