# generated using pymatgen
data_NaHf2Se4I
_symmetry_space_group_name_H-M   'P 1'
_cell_length_a   9.57564518
_cell_length_b   9.57564518
_cell_length_c   16.04956441
_cell_angle_alpha   90.00000000
_cell_angle_beta   90.00000000
_cell_angle_gamma   120.00000000
_symmetry_Int_Tables_number   1
_chemical_formula_structural   NaHf2Se4I
_chemical_formula_sum   'Na6 Hf12 Se24 I6'
_cell_volume   1274.47104192
_cell_formula_units_Z   6
loop_
 _symmetry_equiv_pos_site_id
 _symmetry_equiv_pos_as_xyz
  1  'x, y, z'
loop_
 _atom_site_type_symbol
 _atom_site_label
 _atom_site_symmetry_multiplicity
 _atom_site_fract_x
 _atom_site_fract_y
 _atom_site_fract_z
 _atom_site_occupancy
  Hf  Hf0  1  0.15347944  0.21299835  0.25000000  1
  Hf  Hf1  1  0.78700165  0.94048109  0.25000000  1
  Hf  Hf2  1  0.05951891  0.84652056  0.25000000  1
  Hf  Hf3  1  0.84652056  0.78700165  0.75000000  1
  Hf  Hf4  1  0.21299835  0.05951891  0.75000000  1
  Hf  Hf5  1  0.94048109  0.15347944  0.75000000  1
  Hf  Hf6  1  0.76985791  0.15846721  0.25000000  1
  Hf  Hf7  1  0.84153279  0.61139070  0.25000000  1
  Hf  Hf8  1  0.38860930  0.23014209  0.25000000  1
  Hf  Hf9  1  0.23014209  0.84153279  0.75000000  1
  Hf  Hf10  1  0.15846721  0.38860930  0.75000000  1
  Hf  Hf11  1  0.61139070  0.76985791  0.75000000  1
  I  I12  1  0.50000000  0.00000000  0.00000000  1
  I  I13  1  0.00000000  0.50000000  0.00000000  1
  I  I14  1  0.50000000  0.50000000  0.00000000  1
  I  I15  1  0.50000000  0.00000000  0.50000000  1
  I  I16  1  0.00000000  0.50000000  0.50000000  1
  I  I17  1  0.50000000  0.50000000  0.50000000  1
  Na  Na18  1  0.49227759  0.68563981  0.25000000  1
  Na  Na19  1  0.31436019  0.80663778  0.25000000  1
  Na  Na20  1  0.19336222  0.50772241  0.25000000  1
  Na  Na21  1  0.50772241  0.31436019  0.75000000  1
  Na  Na22  1  0.68563981  0.19336222  0.75000000  1
  Na  Na23  1  0.80663778  0.49227759  0.75000000  1
  Se  Se24  1  0.33333333  0.66666667  0.47209364  1
  Se  Se25  1  0.66666667  0.33333333  0.97209364  1
  Se  Se26  1  0.66666667  0.33333333  0.52790636  1
  Se  Se27  1  0.33333333  0.66666667  0.02790636  1
  Se  Se28  1  0.60306867  0.39573247  0.25000000  1
  Se  Se29  1  0.60426753  0.20733620  0.25000000  1
  Se  Se30  1  0.79266380  0.39693133  0.25000000  1
  Se  Se31  1  0.39693133  0.60426753  0.75000000  1
  Se  Se32  1  0.39573247  0.79266380  0.75000000  1
  Se  Se33  1  0.20733620  0.60306867  0.75000000  1
  Se  Se34  1  0.61449763  0.93727084  0.32915465  1
  Se  Se35  1  -0.93727084  -0.32277320  0.32915465  1
  Se  Se36  1  0.32277320  -0.61449763  0.32915465  1
  Se  Se37  1  -0.61449763  -0.93727084  0.82915465  1
  Se  Se38  1  0.93727084  0.32277320  0.82915465  1
  Se  Se39  1  -0.32277320  0.61449763  0.82915465  1
  Se  Se40  1  -0.61449763  -0.93727084  -0.32915465  1
  Se  Se41  1  0.93727084  0.32277320  -0.32915465  1
  Se  Se42  1  -0.32277320  0.61449763  -0.32915465  1
  Se  Se43  1  0.61449763  0.93727084  0.17084535  1
  Se  Se44  1  -0.93727084  -0.32277320  0.17084535  1
  Se  Se45  1  0.32277320  -0.61449763  0.17084535  1
  Se  Se46  1  0.33333333  0.66666667  0.25000000  1
  Se  Se47  1  0.66666667  0.33333333  0.75000000  1
