# generated using pymatgen
data_Li3Sb3S3(ClO)2
_symmetry_space_group_name_H-M   'P 1'
_cell_length_a   16.01322258
_cell_length_b   16.01322258
_cell_length_c   16.01322258
_cell_angle_alpha   90.00000000
_cell_angle_beta   90.00000000
_cell_angle_gamma   90.00000000
_symmetry_Int_Tables_number   1
_chemical_formula_structural   Li3Sb3S3(ClO)2
_chemical_formula_sum   'Li48 Sb48 S48 Cl32 O32'
_cell_volume   4106.16333295
_cell_formula_units_Z   16
loop_
 _symmetry_equiv_pos_site_id
 _symmetry_equiv_pos_as_xyz
  1  'x, y, z'
loop_
 _atom_site_type_symbol
 _atom_site_label
 _atom_site_symmetry_multiplicity
 _atom_site_fract_x
 _atom_site_fract_y
 _atom_site_fract_z
 _atom_site_occupancy
  Cl  Cl0  1  0.82049476  0.82049476  0.82049476  1
  Cl  Cl1  1  0.67950524  0.17950524  0.32049476  1
  Cl  Cl2  1  0.17950524  0.32049476  0.67950524  1
  Cl  Cl3  1  0.32049476  0.67950524  0.17950524  1
  Cl  Cl4  1  0.57049476  0.07049476  0.42950524  1
  Cl  Cl5  1  0.92950524  0.92950524  0.92950524  1
  Cl  Cl6  1  0.07049476  0.42950524  0.57049476  1
  Cl  Cl7  1  0.42950524  0.57049476  0.07049476  1
  Cl  Cl8  1  0.17950524  0.17950524  0.17950524  1
  Cl  Cl9  1  0.32049476  0.82049476  0.67950524  1
  Cl  Cl10  1  0.82049476  0.67950524  0.32049476  1
  Cl  Cl11  1  0.67950524  0.32049476  0.82049476  1
  Cl  Cl12  1  0.42950524  0.92950524  0.57049476  1
  Cl  Cl13  1  0.07049476  0.07049476  0.07049476  1
  Cl  Cl14  1  0.92950524  0.57049476  0.42950524  1
  Cl  Cl15  1  0.57049476  0.42950524  0.92950524  1
  Cl  Cl16  1  0.32049476  0.32049476  0.32049476  1
  Cl  Cl17  1  0.17950524  0.67950524  0.82049476  1
  Cl  Cl18  1  0.67950524  0.82049476  0.17950524  1
  Cl  Cl19  1  0.82049476  0.17950524  0.67950524  1
  Cl  Cl20  1  0.07049476  0.57049476  0.92950524  1
  Cl  Cl21  1  0.42950524  0.42950524  0.42950524  1
  Cl  Cl22  1  0.57049476  0.92950524  0.07049476  1
  Cl  Cl23  1  0.92950524  0.07049476  0.57049476  1
  Cl  Cl24  1  0.67950524  0.67950524  0.67950524  1
  Cl  Cl25  1  0.82049476  0.32049476  0.17950524  1
  Cl  Cl26  1  0.32049476  0.17950524  0.82049476  1
  Cl  Cl27  1  0.17950524  0.82049476  0.32049476  1
  Cl  Cl28  1  0.92950524  0.42950524  0.07049476  1
  Cl  Cl29  1  0.57049476  0.57049476  0.57049476  1
  Cl  Cl30  1  0.42950524  0.07049476  0.92950524  1
  Cl  Cl31  1  0.07049476  0.92950524  0.42950524  1
  Li  Li32  1  0.48440630  -0.00000000  0.25000000  1
  Li  Li33  1  0.01559370  -0.00000000  0.75000000  1
  Li  Li34  1  0.25000000  0.48440630  -0.00000000  1
  Li  Li35  1  0.75000000  0.01559370  -0.00000000  1
  Li  Li36  1  0.00000000  0.25000000  0.48440630  1
  Li  Li37  1  0.00000000  0.75000000  0.01559370  1
  Li  Li38  1  0.75000000  0.73440630  -0.00000000  1
  Li  Li39  1  0.75000000  0.26559370  0.50000000  1
  Li  Li40  1  1.23440630  0.50000000  0.25000000  1
  Li  Li41  1  -0.23440630  0.00000000  0.25000000  1
  Li  Li42  1  0.00000000  0.25000000  -0.23440630  1
  Li  Li43  1  0.50000000  0.25000000  1.23440630  1
  Li  Li44  1  -0.48440630  0.00000000  0.75000000  1
  Li  Li45  1  0.98440630  -0.00000000  0.25000000  1
  Li  Li46  1  0.75000000  -0.48440630  -0.00000000  1
  Li  Li47  1  0.25000000  0.98440630  -0.00000000  1
  Li  Li48  1  0.00000000  0.75000000  -0.48440630  1
  Li  Li49  1  0.00000000  0.25000000  0.98440630  1
  Li  Li50  1  0.25000000  0.26559370  -0.00000000  1
  Li  Li51  1  0.25000000  0.73440630  0.50000000  1
  Li  Li52  1  -0.23440630  0.50000000  0.75000000  1
  Li  Li53  1  1.23440630  -0.00000000  0.75000000  1
  Li  Li54  1  0.00000000  0.75000000  1.23440630  1
  Li  Li55  1  0.50000000  0.75000000  -0.23440630  1
  Li  Li56  1  0.98440630  0.50000000  0.75000000  1
  Li  Li57  1  0.51559370  0.50000000  1.25000000  1
  Li  Li58  1  0.75000000  0.98440630  0.50000000  1
  Li  Li59  1  1.25000000  0.51559370  0.50000000  1
  Li  Li60  1  0.50000000  0.75000000  0.98440630  1
  Li  Li61  1  0.50000000  1.25000000  0.51559370  1
  Li  Li62  1  1.25000000  1.23440630  0.50000000  1
  Li  Li63  1  1.25000000  0.76559370  1.00000000  1
  Li  Li64  1  1.73440630  1.00000000  0.75000000  1
  Li  Li65  1  0.26559370  0.50000000  0.75000000  1
  Li  Li66  1  0.50000000  0.75000000  0.26559370  1
  Li  Li67  1  1.00000000  0.75000000  1.73440630  1
  Li  Li68  1  0.01559370  0.50000000  1.25000000  1
  Li  Li69  1  1.48440630  0.50000000  0.75000000  1
  Li  Li70  1  1.25000000  0.01559370  0.50000000  1
  Li  Li71  1  0.75000000  1.48440630  0.50000000  1
  Li  Li72  1  0.50000000  1.25000000  0.01559370  1
  Li  Li73  1  0.50000000  0.75000000  1.48440630  1
  Li  Li74  1  0.75000000  0.76559370  0.50000000  1
  Li  Li75  1  0.75000000  1.23440630  1.00000000  1
  Li  Li76  1  0.26559370  1.00000000  1.25000000  1
  Li  Li77  1  1.73440630  0.50000000  1.25000000  1
  Li  Li78  1  0.50000000  1.25000000  1.73440630  1
  Li  Li79  1  1.00000000  1.25000000  0.26559370  1
  O  O80  1  0.00000000  0.00000000  0.00000000  1
  O  O81  1  0.50000000  -0.00000000  0.50000000  1
  O  O82  1  0.00000000  0.50000000  0.50000000  1
  O  O83  1  0.50000000  0.50000000  -0.00000000  1
  O  O84  1  0.75000000  0.25000000  0.25000000  1
  O  O85  1  0.75000000  0.75000000  0.75000000  1
  O  O86  1  0.25000000  0.25000000  0.75000000  1
  O  O87  1  0.25000000  0.75000000  0.25000000  1
  O  O88  1  0.50000000  0.50000000  0.50000000  1
  O  O89  1  0.00000000  0.50000000  -0.00000000  1
  O  O90  1  0.50000000  -0.00000000  -0.00000000  1
  O  O91  1  0.00000000  0.00000000  0.50000000  1
  O  O92  1  0.25000000  0.75000000  0.75000000  1
  O  O93  1  0.25000000  0.25000000  0.25000000  1
  O  O94  1  0.75000000  0.75000000  0.25000000  1
  O  O95  1  0.75000000  0.25000000  0.75000000  1
  O  O96  1  0.12500000  0.12500000  0.12500000  1
  O  O97  1  0.37500000  0.87500000  0.62500000  1
  O  O98  1  0.87500000  0.62500000  0.37500000  1
  O  O99  1  0.62500000  0.37500000  0.87500000  1
  O  O100  1  0.87500000  0.87500000  0.87500000  1
  O  O101  1  0.62500000  0.12500000  0.37500000  1
  O  O102  1  0.12500000  0.37500000  0.62500000  1
  O  O103  1  0.37500000  0.62500000  0.12500000  1
  O  O104  1  0.62500000  0.62500000  0.62500000  1
  O  O105  1  0.87500000  0.37500000  0.12500000  1
  O  O106  1  0.37500000  0.12500000  0.87500000  1
  O  O107  1  0.12500000  0.87500000  0.37500000  1
  O  O108  1  0.37500000  0.37500000  0.37500000  1
  O  O109  1  0.12500000  0.62500000  0.87500000  1
  O  O110  1  0.62500000  0.87500000  0.12500000  1
  O  O111  1  0.87500000  0.12500000  0.62500000  1
  S  S112  1  0.12500000  0.60577484  0.64422516  1
  S  S113  1  0.37500000  0.39422516  0.14422516  1
  S  S114  1  0.87500000  0.10577484  0.85577484  1
  S  S115  1  0.62500000  0.89422516  0.35577484  1
  S  S116  1  0.64422516  0.12500000  0.60577484  1
  S  S117  1  0.14422516  0.37500000  0.39422516  1
  S  S118  1  0.85577484  0.87500000  0.10577484  1
  S  S119  1  0.35577484  0.62500000  0.89422516  1
  S  S120  1  0.60577484  0.64422516  0.12500000  1
  S  S121  1  0.39422516  0.14422516  0.37500000  1
  S  S122  1  0.10577484  0.85577484  0.87500000  1
  S  S123  1  0.89422516  0.35577484  0.62500000  1
  S  S124  1  0.87500000  0.39422516  0.35577484  1
  S  S125  1  0.62500000  0.60577484  0.85577484  1
  S  S126  1  0.12500000  0.89422516  0.14422516  1
  S  S127  1  0.37500000  0.10577484  0.64422516  1
  S  S128  1  0.35577484  0.87500000  0.39422516  1
  S  S129  1  0.85577484  0.62500000  0.60577484  1
  S  S130  1  0.14422516  0.12500000  0.89422516  1
  S  S131  1  0.64422516  0.37500000  0.10577484  1
  S  S132  1  0.39422516  0.35577484  0.87500000  1
  S  S133  1  0.60577484  0.85577484  0.62500000  1
  S  S134  1  0.89422516  0.14422516  0.12500000  1
  S  S135  1  0.10577484  0.64422516  0.37500000  1
  S  S136  1  0.62500000  0.10577484  0.14422516  1
  S  S137  1  0.87500000  0.89422516  0.64422516  1
  S  S138  1  0.37500000  0.60577484  0.35577484  1
  S  S139  1  0.12500000  0.39422516  0.85577484  1
  S  S140  1  0.14422516  0.62500000  0.10577484  1
  S  S141  1  0.64422516  0.87500000  0.89422516  1
  S  S142  1  0.35577484  0.37500000  0.60577484  1
  S  S143  1  0.85577484  0.12500000  0.39422516  1
  S  S144  1  0.10577484  0.14422516  0.62500000  1
  S  S145  1  0.89422516  0.64422516  0.87500000  1
  S  S146  1  0.60577484  0.35577484  0.37500000  1
  S  S147  1  0.39422516  0.85577484  0.12500000  1
  S  S148  1  0.37500000  0.89422516  0.85577484  1
  S  S149  1  0.12500000  0.10577484  0.35577484  1
  S  S150  1  0.62500000  0.39422516  0.64422516  1
  S  S151  1  0.87500000  0.60577484  0.14422516  1
  S  S152  1  0.85577484  0.37500000  0.89422516  1
  S  S153  1  0.35577484  0.12500000  0.10577484  1
  S  S154  1  0.64422516  0.62500000  0.39422516  1
  S  S155  1  0.14422516  0.87500000  0.60577484  1
  S  S156  1  0.89422516  0.85577484  0.37500000  1
  S  S157  1  0.10577484  0.35577484  0.12500000  1
  S  S158  1  0.39422516  0.64422516  0.62500000  1
  S  S159  1  0.60577484  0.14422516  0.87500000  1
  Sb  Sb160  1  0.12500000  0.95173774  0.29826226  1
  Sb  Sb161  1  0.37500000  0.04826226  0.79826226  1
  Sb  Sb162  1  0.87500000  0.45173774  0.20173774  1
  Sb  Sb163  1  0.62500000  0.54826226  0.70173774  1
  Sb  Sb164  1  0.29826226  0.12500000  0.95173774  1
  Sb  Sb165  1  0.79826226  0.37500000  0.04826226  1
  Sb  Sb166  1  0.20173774  0.87500000  0.45173774  1
  Sb  Sb167  1  0.70173774  0.62500000  0.54826226  1
  Sb  Sb168  1  0.95173774  0.29826226  0.12500000  1
  Sb  Sb169  1  0.04826226  0.79826226  0.37500000  1
  Sb  Sb170  1  0.45173774  0.20173774  0.87500000  1
  Sb  Sb171  1  0.54826226  0.70173774  0.62500000  1
  Sb  Sb172  1  0.87500000  0.04826226  0.70173774  1
  Sb  Sb173  1  0.62500000  0.95173774  0.20173774  1
  Sb  Sb174  1  0.12500000  0.54826226  0.79826226  1
  Sb  Sb175  1  0.37500000  0.45173774  0.29826226  1
  Sb  Sb176  1  0.70173774  0.87500000  0.04826226  1
  Sb  Sb177  1  0.20173774  0.62500000  0.95173774  1
  Sb  Sb178  1  0.79826226  0.12500000  0.54826226  1
  Sb  Sb179  1  0.29826226  0.37500000  0.45173774  1
  Sb  Sb180  1  0.04826226  0.70173774  0.87500000  1
  Sb  Sb181  1  0.95173774  0.20173774  0.62500000  1
  Sb  Sb182  1  0.54826226  0.79826226  0.12500000  1
  Sb  Sb183  1  0.45173774  0.29826226  0.37500000  1
  Sb  Sb184  1  0.62500000  0.45173774  0.79826226  1
  Sb  Sb185  1  0.87500000  0.54826226  0.29826226  1
  Sb  Sb186  1  0.37500000  0.95173774  0.70173774  1
  Sb  Sb187  1  0.12500000  0.04826226  0.20173774  1
  Sb  Sb188  1  0.79826226  0.62500000  0.45173774  1
  Sb  Sb189  1  0.29826226  0.87500000  0.54826226  1
  Sb  Sb190  1  0.70173774  0.37500000  0.95173774  1
  Sb  Sb191  1  0.20173774  0.12500000  0.04826226  1
  Sb  Sb192  1  0.45173774  0.79826226  0.62500000  1
  Sb  Sb193  1  0.54826226  0.29826226  0.87500000  1
  Sb  Sb194  1  0.95173774  0.70173774  0.37500000  1
  Sb  Sb195  1  0.04826226  0.20173774  0.12500000  1
  Sb  Sb196  1  0.37500000  0.54826226  0.20173774  1
  Sb  Sb197  1  0.12500000  0.45173774  0.70173774  1
  Sb  Sb198  1  0.62500000  0.04826226  0.29826226  1
  Sb  Sb199  1  0.87500000  0.95173774  0.79826226  1
  Sb  Sb200  1  0.20173774  0.37500000  0.54826226  1
  Sb  Sb201  1  0.70173774  0.12500000  0.45173774  1
  Sb  Sb202  1  0.29826226  0.62500000  0.04826226  1
  Sb  Sb203  1  0.79826226  0.87500000  0.95173774  1
  Sb  Sb204  1  0.54826226  0.20173774  0.37500000  1
  Sb  Sb205  1  0.45173774  0.70173774  0.12500000  1
  Sb  Sb206  1  0.04826226  0.29826226  0.62500000  1
  Sb  Sb207  1  0.95173774  0.79826226  0.87500000  1
