# generated using pymatgen
data_Li2AlI
_symmetry_space_group_name_H-M   'P 1'
_cell_length_a   3.08120134
_cell_length_b   3.00833692
_cell_length_c   6.57468561
_cell_angle_alpha   97.47681843
_cell_angle_beta   92.12185669
_cell_angle_gamma   119.25435335
_symmetry_Int_Tables_number   1
_chemical_formula_structural   Li2AlI
_chemical_formula_sum   'Li2 Al1 I1'
_cell_volume   52.36009221
_cell_formula_units_Z   1
loop_
 _symmetry_equiv_pos_site_id
 _symmetry_equiv_pos_as_xyz
  1  'x, y, z'
loop_
 _atom_site_type_symbol
 _atom_site_label
 _atom_site_symmetry_multiplicity
 _atom_site_fract_x
 _atom_site_fract_y
 _atom_site_fract_z
 _atom_site_occupancy
  Li  Li0  1  0.00000000  0.00000000  0.00000000  1
  Li  Li1  1  0.33300000  0.66700000  0.25000000  1
  Al  Al2  1  0.66700000  0.33300000  0.50000000  1
  I  I3  1  0.00000000  0.00000000  0.75000000  1
