# generated using pymatgen
data_LiTi2IBrClO4
_symmetry_space_group_name_H-M   'P 1'
_cell_length_a   4.11147796
_cell_length_b   4.11278065
_cell_length_c   4.81164585
_cell_angle_alpha   94.87543243
_cell_angle_beta   89.54920480
_cell_angle_gamma   93.16618865
_symmetry_Int_Tables_number   1
_chemical_formula_structural   LiTi2IBrClO4
_chemical_formula_sum   'Li1 Ti2 I1 Br1 Cl1 O4'
_cell_volume   80.94449439
_cell_formula_units_Z   1
loop_
 _symmetry_equiv_pos_site_id
 _symmetry_equiv_pos_as_xyz
  1  'x, y, z'
loop_
 _atom_site_type_symbol
 _atom_site_label
 _atom_site_symmetry_multiplicity
 _atom_site_fract_x
 _atom_site_fract_y
 _atom_site_fract_z
 _atom_site_occupancy
  Li  Li0  1  0.00000000  0.00000000  0.00000000  1
  Ti  Ti1  1  0.50000000  0.50000000  0.50000000  1
  Ti  Ti2  1  0.50000000  0.50000000  0.00000000  1
  Br  Br3  1  0.50000000  0.00000000  0.50000000  1
  Cl  Cl4  1  0.00000000  0.50000000  0.50000000  1
  O  O5  1  0.10523975  0.32926913  0.53630508  1
  O  O6  1  0.26268419  0.16189692  0.60334497  1
  O  O7  1  0.29180683  0.64630806  0.55794748  1
  O  O8  1  0.05217536  0.13231014  0.58798146  1
  I  I9  1  0.85778343  0.14017682  0.55188796  1
