# generated using pymatgen
data_SrLiTeI
_symmetry_space_group_name_H-M   'P 1'
_cell_length_a   20.37835313
_cell_length_b   20.37835313
_cell_length_c   8.95163166
_cell_angle_alpha   90.00000000
_cell_angle_beta   90.00000000
_cell_angle_gamma   120.00000000
_symmetry_Int_Tables_number   1
_chemical_formula_structural   SrLiTeI
_chemical_formula_sum   'Sr24 Li24 Te24 I24'
_cell_volume   3219.37081473
_cell_formula_units_Z   24
loop_
 _symmetry_equiv_pos_site_id
 _symmetry_equiv_pos_as_xyz
  1  'x, y, z'
loop_
 _atom_site_type_symbol
 _atom_site_label
 _atom_site_symmetry_multiplicity
 _atom_site_fract_x
 _atom_site_fract_y
 _atom_site_fract_z
 _atom_site_occupancy
  I  I0  1  0.35349233  0.45920353  0.88113593  1
  I  I1  1  -0.45920353  -0.10571120  0.88113593  1
  I  I2  1  0.10571120  -0.35349233  0.88113593  1
  I  I3  1  -0.35349233  -0.45920353  1.38113593  1
  I  I4  1  0.45920353  0.10571120  1.38113593  1
  I  I5  1  -0.10571120  0.35349233  1.38113593  1
  I  I6  1  0.45920353  0.35349233  -0.88113593  1
  I  I7  1  -0.10571120  -0.45920353  -0.88113593  1
  I  I8  1  -0.35349233  0.10571120  -0.88113593  1
  I  I9  1  -0.45920353  -0.35349233  -0.38113593  1
  I  I10  1  0.10571120  0.45920353  -0.38113593  1
  I  I11  1  0.35349233  -0.10571120  -0.38113593  1
  I  I12  1  -0.35349233  -0.45920353  -0.88113593  1
  I  I13  1  0.45920353  0.10571120  -0.88113593  1
  I  I14  1  -0.10571120  0.35349233  -0.88113593  1
  I  I15  1  0.35349233  0.45920353  -0.38113593  1
  I  I16  1  -0.45920353  -0.10571120  -0.38113593  1
  I  I17  1  0.10571120  -0.35349233  -0.38113593  1
  I  I18  1  -0.45920353  -0.35349233  0.88113593  1
  I  I19  1  0.10571120  0.45920353  0.88113593  1
  I  I20  1  0.35349233  -0.10571120  0.88113593  1
  I  I21  1  0.45920353  0.35349233  1.38113593  1
  I  I22  1  -0.10571120  -0.45920353  1.38113593  1
  I  I23  1  -0.35349233  0.10571120  1.38113593  1
  Li  Li24  1  0.55358964  0.10717928  0.61946910  1
  Li  Li25  1  0.89282072  0.44641036  0.61946910  1
  Li  Li26  1  0.55358964  0.44641036  0.61946910  1
  Li  Li27  1  0.44641036  0.89282072  0.11946910  1
  Li  Li28  1  0.10717928  0.55358964  0.11946910  1
  Li  Li29  1  0.44641036  0.55358964  0.11946910  1
  Li  Li30  1  0.10717928  0.55358964  0.38053090  1
  Li  Li31  1  0.44641036  0.89282072  0.38053090  1
  Li  Li32  1  0.44641036  0.55358964  0.38053090  1
  Li  Li33  1  0.89282072  0.44641036  0.88053090  1
  Li  Li34  1  0.55358964  0.10717928  0.88053090  1
  Li  Li35  1  0.55358964  0.44641036  0.88053090  1
  Li  Li36  1  0.21831738  0.43663476  0.54169645  1
  Li  Li37  1  0.56336524  0.78168262  0.54169645  1
  Li  Li38  1  0.21831738  0.78168262  0.54169645  1
  Li  Li39  1  0.78168262  0.56336524  0.04169645  1
  Li  Li40  1  0.43663476  0.21831738  0.04169645  1
  Li  Li41  1  0.78168262  0.21831738  0.04169645  1
  Li  Li42  1  0.43663476  0.21831738  0.45830355  1
  Li  Li43  1  0.78168262  0.56336524  0.45830355  1
  Li  Li44  1  0.78168262  0.21831738  0.45830355  1
  Li  Li45  1  0.56336524  0.78168262  0.95830355  1
  Li  Li46  1  0.21831738  0.43663476  0.95830355  1
  Li  Li47  1  0.21831738  0.78168262  0.95830355  1
  Sr  Sr48  1  0.22140017  0.96423010  0.25000000  1
  Sr  Sr49  1  0.03576990  0.25717006  0.25000000  1
  Sr  Sr50  1  0.74282994  0.77859983  0.25000000  1
  Sr  Sr51  1  0.77859983  0.03576990  0.75000000  1
  Sr  Sr52  1  0.96423010  0.74282994  0.75000000  1
  Sr  Sr53  1  0.25717006  0.22140017  0.75000000  1
  Sr  Sr54  1  0.96423010  0.22140017  0.75000000  1
  Sr  Sr55  1  0.25717006  0.03576990  0.75000000  1
  Sr  Sr56  1  0.77859983  0.74282994  0.75000000  1
  Sr  Sr57  1  0.03576990  0.77859983  0.25000000  1
  Sr  Sr58  1  0.74282994  0.96423010  0.25000000  1
  Sr  Sr59  1  0.22140017  0.25717006  0.25000000  1
  Sr  Sr60  1  0.90685055  0.81370109  0.25000000  1
  Sr  Sr61  1  0.18629891  0.09314945  0.25000000  1
  Sr  Sr62  1  0.90685055  0.09314945  0.25000000  1
  Sr  Sr63  1  0.09314945  0.18629891  0.75000000  1
  Sr  Sr64  1  0.81370109  0.90685055  0.75000000  1
  Sr  Sr65  1  0.09314945  0.90685055  0.75000000  1
  Sr  Sr66  1  0.00000000  0.00000000  0.25000000  1
  Sr  Sr67  1  0.00000000  0.00000000  0.75000000  1
  Sr  Sr68  1  0.33333333  0.66666667  0.11792361  1
  Sr  Sr69  1  0.66666667  0.33333333  0.61792361  1
  Sr  Sr70  1  0.66666667  0.33333333  0.88207639  1
  Sr  Sr71  1  0.33333333  0.66666667  0.38207639  1
  Te  Te72  1  0.52255060  0.86135384  0.25000000  1
  Te  Te73  1  0.13864616  0.66119676  0.25000000  1
  Te  Te74  1  0.33880324  0.47744940  0.25000000  1
  Te  Te75  1  0.47744940  0.13864616  0.75000000  1
  Te  Te76  1  0.86135384  0.33880324  0.75000000  1
  Te  Te77  1  0.66119676  0.52255060  0.75000000  1
  Te  Te78  1  0.86135384  0.52255060  0.75000000  1
  Te  Te79  1  0.66119676  0.13864616  0.75000000  1
  Te  Te80  1  0.47744940  0.33880324  0.75000000  1
  Te  Te81  1  0.13864616  0.47744940  0.25000000  1
  Te  Te82  1  0.33880324  0.86135384  0.25000000  1
  Te  Te83  1  0.52255060  0.66119676  0.25000000  1
  Te  Te84  1  0.07187918  0.14375835  0.25000000  1
  Te  Te85  1  0.85624165  0.92812082  0.25000000  1
  Te  Te86  1  0.07187918  0.92812082  0.25000000  1
  Te  Te87  1  0.92812082  0.85624165  0.75000000  1
  Te  Te88  1  0.14375835  0.07187918  0.75000000  1
  Te  Te89  1  0.92812082  0.07187918  0.75000000  1
  Te  Te90  1  0.50899455  0.01798909  0.25000000  1
  Te  Te91  1  0.98201091  0.49100545  0.25000000  1
  Te  Te92  1  0.50899455  0.49100545  0.25000000  1
  Te  Te93  1  0.49100545  0.98201091  0.75000000  1
  Te  Te94  1  0.01798909  0.50899455  0.75000000  1
  Te  Te95  1  0.49100545  0.50899455  0.75000000  1
