# generated using pymatgen
data_Li3SbS2O
_symmetry_space_group_name_H-M   'P 1'
_cell_length_a   11.46818723
_cell_length_b   11.46818723
_cell_length_c   6.24873206
_cell_angle_alpha   90.00000000
_cell_angle_beta   90.00000000
_cell_angle_gamma   120.00000000
_symmetry_Int_Tables_number   1
_chemical_formula_structural   Li3SbS2O
_chemical_formula_sum   'Li18 Sb6 S12 O6'
_cell_volume   711.72477533
_cell_formula_units_Z   6
loop_
 _symmetry_equiv_pos_site_id
 _symmetry_equiv_pos_as_xyz
  1  'x, y, z'
loop_
 _atom_site_type_symbol
 _atom_site_label
 _atom_site_symmetry_multiplicity
 _atom_site_fract_x
 _atom_site_fract_y
 _atom_site_fract_z
 _atom_site_occupancy
  Li  Li0  1  0.50000000  0.00000000  0.00000000  1
  Li  Li1  1  0.00000000  0.50000000  0.00000000  1
  Li  Li2  1  0.50000000  0.50000000  0.00000000  1
  Li  Li3  1  0.50000000  0.00000000  0.50000000  1
  Li  Li4  1  0.00000000  0.50000000  0.50000000  1
  Li  Li5  1  0.50000000  0.50000000  0.50000000  1
  Li  Li6  1  0.99785630  0.65725618  0.48339970  1
  Li  Li7  1  0.34274382  0.34060012  0.48339970  1
  Li  Li8  1  0.65939988  0.00214370  0.48339970  1
  Li  Li9  1  0.00214370  0.34274382  0.98339970  1
  Li  Li10  1  0.65725618  0.65939988  0.98339970  1
  Li  Li11  1  0.34060012  0.99785630  0.98339970  1
  Li  Li12  1  0.00214370  0.34274382  0.51660030  1
  Li  Li13  1  0.65725618  0.65939988  0.51660030  1
  Li  Li14  1  0.34060012  0.99785630  0.51660030  1
  Li  Li15  1  0.99785630  0.65725618  0.01660030  1
  Li  Li16  1  0.34274382  0.34060012  0.01660030  1
  Li  Li17  1  0.65939988  0.00214370  0.01660030  1
  O  O18  1  0.53604157  0.55809424  0.25000000  1
  O  O19  1  0.44190576  0.97794733  0.25000000  1
  O  O20  1  0.02205267  0.46395843  0.25000000  1
  O  O21  1  0.46395843  0.44190576  0.75000000  1
  O  O22  1  0.55809424  0.02205267  0.75000000  1
  O  O23  1  0.97794733  0.53604157  0.75000000  1
  S  S24  1  0.35023021  0.86701354  0.92859551  1
  S  S25  1  -0.86701354  -0.51678333  0.92859551  1
  S  S26  1  0.51678333  -0.35023021  0.92859551  1
  S  S27  1  -0.35023021  -0.86701354  1.42859551  1
  S  S28  1  0.86701354  0.51678333  1.42859551  1
  S  S29  1  -0.51678333  0.35023021  1.42859551  1
  S  S30  1  -0.35023021  -0.86701354  -0.92859551  1
  S  S31  1  0.86701354  0.51678333  -0.92859551  1
  S  S32  1  -0.51678333  0.35023021  -0.92859551  1
  S  S33  1  0.35023021  0.86701354  -0.42859551  1
  S  S34  1  -0.86701354  -0.51678333  -0.42859551  1
  S  S35  1  0.51678333  -0.35023021  -0.42859551  1
  Sb  Sb36  1  0.00000000  0.00000000  0.25000000  1
  Sb  Sb37  1  0.00000000  0.00000000  0.75000000  1
  Sb  Sb38  1  0.00000000  0.00000000  0.00000000  1
  Sb  Sb39  1  0.00000000  0.00000000  0.50000000  1
  Sb  Sb40  1  0.66666667  0.33333333  0.25000000  1
  Sb  Sb41  1  0.33333333  0.66666667  0.75000000  1
