# generated using pymatgen
data_Li2Ca2Hf3(SeBr)6
_symmetry_space_group_name_H-M   'P 1'
_cell_length_a   14.78531995
_cell_length_b   14.78531995
_cell_length_c   14.57866315
_cell_angle_alpha   90.00000000
_cell_angle_beta   90.00000000
_cell_angle_gamma   120.00000000
_symmetry_Int_Tables_number   1
_chemical_formula_structural   Li2Ca2Hf3(SeBr)6
_chemical_formula_sum   'Li12 Ca12 Hf18 Se36 Br36'
_cell_volume   2760.00448114
_cell_formula_units_Z   6
loop_
 _symmetry_equiv_pos_site_id
 _symmetry_equiv_pos_as_xyz
  1  'x, y, z'
loop_
 _atom_site_type_symbol
 _atom_site_label
 _atom_site_symmetry_multiplicity
 _atom_site_fract_x
 _atom_site_fract_y
 _atom_site_fract_z
 _atom_site_occupancy
  Br  Br0  1  0.94428859  0.62902085  0.34836085  1
  Br  Br1  1  -0.62902085  0.31526774  0.34836085  1
  Br  Br2  1  -0.31526774  -0.94428859  0.34836085  1
  Br  Br3  1  0.62902085  0.94428859  0.15163915  1
  Br  Br4  1  0.31526774  -0.62902085  0.15163915  1
  Br  Br5  1  -0.94428859  -0.31526774  0.15163915  1
  Br  Br6  1  -0.94428859  -0.62902085  -0.34836085  1
  Br  Br7  1  0.62902085  -0.31526774  -0.34836085  1
  Br  Br8  1  0.31526774  0.94428859  -0.34836085  1
  Br  Br9  1  -0.62902085  -0.94428859  0.84836085  1
  Br  Br10  1  -0.31526774  0.62902085  0.84836085  1
  Br  Br11  1  0.94428859  0.31526774  0.84836085  1
  Br  Br12  1  1.61095526  0.96235418  0.68169419  1
  Br  Br13  1  0.03764582  0.64860108  0.68169419  1
  Br  Br14  1  0.35139892  -0.61095526  0.68169419  1
  Br  Br15  1  1.29568751  1.27762192  0.48497248  1
  Br  Br16  1  0.98193441  -0.29568751  0.48497248  1
  Br  Br17  1  -0.27762192  0.01806559  0.48497248  1
  Br  Br18  1  -0.27762192  -0.29568751  -0.01502752  1
  Br  Br19  1  1.29568751  0.01806559  -0.01502752  1
  Br  Br20  1  0.98193441  1.27762192  -0.01502752  1
  Br  Br21  1  0.03764582  -0.61095526  1.18169419  1
  Br  Br22  1  0.35139892  0.96235418  1.18169419  1
  Br  Br23  1  1.61095526  0.64860108  1.18169419  1
  Br  Br24  1  1.27762192  1.29568751  1.01502752  1
  Br  Br25  1  -0.29568751  0.98193441  1.01502752  1
  Br  Br26  1  0.01806559  -0.27762192  1.01502752  1
  Br  Br27  1  0.96235418  1.61095526  0.81830581  1
  Br  Br28  1  0.64860108  0.03764582  0.81830581  1
  Br  Br29  1  -0.61095526  0.35139892  0.81830581  1
  Br  Br30  1  -0.61095526  0.03764582  0.31830581  1
  Br  Br31  1  0.96235418  0.35139892  0.31830581  1
  Br  Br32  1  0.64860108  1.61095526  0.31830581  1
  Br  Br33  1  -0.29568751  -0.27762192  1.51502752  1
  Br  Br34  1  0.01806559  1.29568751  1.51502752  1
  Br  Br35  1  1.27762192  0.98193441  1.51502752  1
  Ca  Ca36  1  0.00000000  0.00000000  0.61654193  1
  Ca  Ca37  1  0.00000000  0.00000000  0.88345807  1
  Ca  Ca38  1  0.00000000  0.00000000  0.38345807  1
  Ca  Ca39  1  0.00000000  0.00000000  0.11654193  1
  Ca  Ca40  1  0.66666667  0.33333333  0.94987526  1
  Ca  Ca41  1  0.66666667  0.33333333  0.21679140  1
  Ca  Ca42  1  0.66666667  0.33333333  0.71679140  1
  Ca  Ca43  1  0.66666667  0.33333333  0.44987526  1
  Ca  Ca44  1  0.33333333  0.66666667  0.28320860  1
  Ca  Ca45  1  0.33333333  0.66666667  0.55012474  1
  Ca  Ca46  1  0.33333333  0.66666667  0.05012474  1
  Ca  Ca47  1  0.33333333  0.66666667  0.78320860  1
  Hf  Hf48  1  0.68992559  -0.00000000  0.25000000  1
  Hf  Hf49  1  0.00000000  0.68992559  0.25000000  1
  Hf  Hf50  1  0.31007441  0.31007441  0.25000000  1
  Hf  Hf51  1  0.31007441  -0.00000000  0.75000000  1
  Hf  Hf52  1  0.00000000  0.31007441  0.75000000  1
  Hf  Hf53  1  0.68992559  0.68992559  0.75000000  1
  Hf  Hf54  1  0.35659226  0.33333333  0.58333333  1
  Hf  Hf55  1  0.66666667  0.02325893  0.58333333  1
  Hf  Hf56  1  0.97674107  0.64340774  0.58333333  1
  Hf  Hf57  1  0.97674107  0.33333333  0.08333333  1
  Hf  Hf58  1  0.66666667  0.64340774  0.08333333  1
  Hf  Hf59  1  0.35659226  0.02325893  0.08333333  1
  Hf  Hf60  1  0.02325893  0.66666667  0.91666667  1
  Hf  Hf61  1  0.33333333  0.35659226  0.91666667  1
  Hf  Hf62  1  0.64340774  0.97674107  0.91666667  1
  Hf  Hf63  1  0.64340774  0.66666667  0.41666667  1
  Hf  Hf64  1  0.33333333  0.97674107  0.41666667  1
  Hf  Hf65  1  0.02325893  0.35659226  0.41666667  1
  Li  Li66  1  0.00000000  0.00000000  0.25000000  1
  Li  Li67  1  0.00000000  0.00000000  0.75000000  1
  Li  Li68  1  0.66666667  0.33333333  0.58333333  1
  Li  Li69  1  0.66666667  0.33333333  0.08333333  1
  Li  Li70  1  0.33333333  0.66666667  0.91666667  1
  Li  Li71  1  0.33333333  0.66666667  0.41666667  1
  Li  Li72  1  0.00000000  0.00000000  0.00000000  1
  Li  Li73  1  0.00000000  0.00000000  0.50000000  1
  Li  Li74  1  0.66666667  0.33333333  0.33333333  1
  Li  Li75  1  0.66666667  0.33333333  0.83333333  1
  Li  Li76  1  0.33333333  0.66666667  0.66666667  1
  Li  Li77  1  0.33333333  0.66666667  0.16666667  1
  Se  Se78  1  0.41514825  0.60675384  0.80240990  1
  Se  Se79  1  0.39324616  0.80839440  0.80240990  1
  Se  Se80  1  0.19160560  0.58485175  0.80240990  1
  Se  Se81  1  0.60675384  0.41514825  0.69759010  1
  Se  Se82  1  0.80839440  0.39324616  0.69759010  1
  Se  Se83  1  0.58485175  0.19160560  0.69759010  1
  Se  Se84  1  0.58485175  0.39324616  0.19759010  1
  Se  Se85  1  0.60675384  0.19160560  0.19759010  1
  Se  Se86  1  0.80839440  0.41514825  0.19759010  1
  Se  Se87  1  0.39324616  0.58485175  0.30240990  1
  Se  Se88  1  0.19160560  0.60675384  0.30240990  1
  Se  Se89  1  0.41514825  0.80839440  0.30240990  1
  Se  Se90  1  0.08181492  0.94008718  0.13574324  1
  Se  Se91  1  0.05991282  0.14172774  0.13574324  1
  Se  Se92  1  0.85827226  0.91818508  0.13574324  1
  Se  Se93  1  0.27342051  0.74848158  0.03092343  1
  Se  Se94  1  0.47506107  0.72657949  0.03092343  1
  Se  Se95  1  0.25151842  0.52493893  0.03092343  1
  Se  Se96  1  0.25151842  0.72657949  0.53092343  1
  Se  Se97  1  0.27342051  0.52493893  0.53092343  1
  Se  Se98  1  0.47506107  0.74848158  0.53092343  1
  Se  Se99  1  0.05991282  0.91818508  0.63574324  1
  Se  Se100  1  0.85827226  0.94008718  0.63574324  1
  Se  Se101  1  0.08181492  0.14172774  0.63574324  1
  Se  Se102  1  0.74848158  0.27342051  0.46907657  1
  Se  Se103  1  0.72657949  0.47506107  0.46907657  1
  Se  Se104  1  0.52493893  0.25151842  0.46907657  1
  Se  Se105  1  0.94008718  0.08181492  0.36425676  1
  Se  Se106  1  0.14172774  0.05991282  0.36425676  1
  Se  Se107  1  0.91818508  0.85827226  0.36425676  1
  Se  Se108  1  0.91818508  0.05991282  0.86425676  1
  Se  Se109  1  0.94008718  0.85827226  0.86425676  1
  Se  Se110  1  0.14172774  0.08181492  0.86425676  1
  Se  Se111  1  0.72657949  0.25151842  0.96907657  1
  Se  Se112  1  0.52493893  0.27342051  0.96907657  1
  Se  Se113  1  0.74848158  0.47506107  0.96907657  1
