# generated using pymatgen
data_Li2ScBrO2
_symmetry_space_group_name_H-M   'P 1'
_cell_length_a   4.46727591
_cell_length_b   5.11473801
_cell_length_c   4.23074554
_cell_angle_alpha   92.84849287
_cell_angle_beta   94.18572868
_cell_angle_gamma   89.58335382
_symmetry_Int_Tables_number   1
_chemical_formula_structural   Li2ScBrO2
_chemical_formula_sum   'Li2 Sc1 Br1 O2'
_cell_volume   96.29046648
_cell_formula_units_Z   1
loop_
 _symmetry_equiv_pos_site_id
 _symmetry_equiv_pos_as_xyz
  1  'x, y, z'
loop_
 _atom_site_type_symbol
 _atom_site_label
 _atom_site_symmetry_multiplicity
 _atom_site_fract_x
 _atom_site_fract_y
 _atom_site_fract_z
 _atom_site_occupancy
  Li  Li0  1  0.00000000  0.00000000  0.00000000  1
  Li  Li1  1  0.50000000  0.50000000  0.50000000  1
  Sc  Sc2  1  0.50000000  0.50000000  0.00000000  1
  O  O3  1  0.50000000  0.00000000  0.50000000  1
  O  O4  1  0.00000000  0.50000000  0.50000000  1
  Br  Br5  1  0.89086139  0.95180363  0.95357332  1
