# generated using pymatgen
data_Li2MgSe2O
_symmetry_space_group_name_H-M   'P 1'
_cell_length_a   7.74464084
_cell_length_b   9.16046285
_cell_length_c   6.43447865
_cell_angle_alpha   90.00000000
_cell_angle_beta   90.00000000
_cell_angle_gamma   90.00000000
_symmetry_Int_Tables_number   1
_chemical_formula_structural   Li2MgSe2O
_chemical_formula_sum   'Li2 Mg1 Se2 O1'
_cell_volume   456.49083615
_cell_formula_units_Z   1
loop_
 _symmetry_equiv_pos_site_id
 _symmetry_equiv_pos_as_xyz
  1  'x, y, z'
loop_
 _atom_site_type_symbol
 _atom_site_label
 _atom_site_symmetry_multiplicity
 _atom_site_fract_x
 _atom_site_fract_y
 _atom_site_fract_z
 _atom_site_occupancy
  Li  Li0  1  0.12500000  0.12500000  0.12500000  1
  Li  Li1  1  0.50000000  0.50000000  0.50000000  1
  Mg  Mg2  1  0.25000000  0.25000000  0.25000000  1
  Se  Se3  1  0.75000000  0.75000000  0.75000000  1
  Se  Se4  1  0.95810200  0.27444030  0.72087514  1
  O  O5  1  0.88980188  0.90554453  0.42393012  1
