# generated using pymatgen
data_Li4Hf3(SeCl6)2
_symmetry_space_group_name_H-M   'P 1'
_cell_length_a   4.57125896
_cell_length_b   4.57125896
_cell_length_c   24.60413591
_cell_angle_alpha   90.00000000
_cell_angle_beta   90.00000000
_cell_angle_gamma   120.00000000
_symmetry_Int_Tables_number   1
_chemical_formula_structural   Li4Hf3(SeCl6)2
_chemical_formula_sum   'Li4 Hf3 Se2 Cl12'
_cell_volume   445.25663357
_cell_formula_units_Z   1
loop_
 _symmetry_equiv_pos_site_id
 _symmetry_equiv_pos_as_xyz
  1  'x, y, z'
loop_
 _atom_site_type_symbol
 _atom_site_label
 _atom_site_symmetry_multiplicity
 _atom_site_fract_x
 _atom_site_fract_y
 _atom_site_fract_z
 _atom_site_occupancy
  Cl  Cl0  1  0.81118863  0.87443028  0.08795715  1
  Cl  Cl1  1  -0.87443028  -0.06324165  0.08795715  1
  Cl  Cl2  1  0.06324165  -0.81118863  0.08795715  1
  Cl  Cl3  1  -0.87443028  -0.81118863  -0.08795715  1
  Cl  Cl4  1  0.06324165  0.87443028  -0.08795715  1
  Cl  Cl5  1  0.81118863  -0.06324165  -0.08795715  1
  Cl  Cl6  1  0.06109652  0.42786109  0.15402519  1
  Cl  Cl7  1  0.57213891  0.63323543  0.15402519  1
  Cl  Cl8  1  0.36676457  0.93890348  0.15402519  1
  Cl  Cl9  1  0.57213891  0.93890348  0.84597481  1
  Cl  Cl10  1  0.36676457  0.42786109  0.84597481  1
  Cl  Cl11  1  0.06109652  0.63323543  0.84597481  1
  Hf  Hf12  1  0.66666667  0.33333333  0.50000000  1
  Hf  Hf13  1  0.00000000  0.00000000  0.50000000  1
  Hf  Hf14  1  0.00000000  0.00000000  0.00000000  1
  Li  Li15  1  0.22212206  0.77787794  0.00000000  1
  Li  Li16  1  0.22212206  0.44424411  0.00000000  1
  Li  Li17  1  0.55575589  0.77787794  -0.00000000  1
  Li  Li18  1  0.33333333  0.66666667  0.50000000  1
  Se  Se19  1  0.66666667  0.33333333  0.73614814  1
  Se  Se20  1  0.66666667  0.33333333  0.26385186  1
