# generated using pymatgen
data_Sr3Li4S4O
_symmetry_space_group_name_H-M   'P 1'
_cell_length_a   16.65232756
_cell_length_b   16.65232756
_cell_length_c   20.50904604
_cell_angle_alpha   90.00000000
_cell_angle_beta   90.00000000
_cell_angle_gamma   90.00000000
_symmetry_Int_Tables_number   1
_chemical_formula_structural   Sr3Li4S4O
_chemical_formula_sum   'Sr48 Li64 S64 O16'
_cell_volume   5687.15873469
_cell_formula_units_Z   16
loop_
 _symmetry_equiv_pos_site_id
 _symmetry_equiv_pos_as_xyz
  1  'x, y, z'
loop_
 _atom_site_type_symbol
 _atom_site_label
 _atom_site_symmetry_multiplicity
 _atom_site_fract_x
 _atom_site_fract_y
 _atom_site_fract_z
 _atom_site_occupancy
  Li  Li0  1  0.97699434  0.02736836  0.77715318  1
  Li  Li1  1  0.52300566  0.97263164  0.27715318  1
  Li  Li2  1  0.22263164  0.72699434  0.02715318  1
  Li  Li3  1  0.27736836  0.27300566  0.52715318  1
  Li  Li4  1  0.52300566  0.02736836  0.22284682  1
  Li  Li5  1  0.97699434  0.97263164  0.72284682  1
  Li  Li6  1  0.27736836  0.72699434  0.97284682  1
  Li  Li7  1  0.22263164  0.27300566  0.47284682  1
  Li  Li8  1  0.02300566  0.97263164  0.22284682  1
  Li  Li9  1  0.47699434  0.02736836  0.72284682  1
  Li  Li10  1  0.77736836  0.27300566  0.97284682  1
  Li  Li11  1  0.72263164  0.72699434  0.47284682  1
  Li  Li12  1  0.47699434  0.97263164  0.77715318  1
  Li  Li13  1  0.02300566  0.02736836  0.27715318  1
  Li  Li14  1  0.72263164  0.27300566  0.02715318  1
  Li  Li15  1  0.77736836  0.72699434  0.52715318  1
  Li  Li16  1  0.47699434  0.52736836  0.27715318  1
  Li  Li17  1  0.02300566  0.47263164  0.77715318  1
  Li  Li18  1  0.72263164  0.22699434  0.52715318  1
  Li  Li19  1  0.77736836  0.77300566  0.02715318  1
  Li  Li20  1  0.02300566  0.52736836  0.72284682  1
  Li  Li21  1  0.47699434  0.47263164  0.22284682  1
  Li  Li22  1  0.77736836  0.22699434  0.47284682  1
  Li  Li23  1  0.72263164  0.77300566  0.97284682  1
  Li  Li24  1  0.52300566  0.47263164  0.72284682  1
  Li  Li25  1  0.97699434  0.52736836  0.22284682  1
  Li  Li26  1  0.27736836  0.77300566  0.47284682  1
  Li  Li27  1  0.22263164  0.22699434  0.97284682  1
  Li  Li28  1  0.97699434  0.47263164  0.27715318  1
  Li  Li29  1  0.52300566  0.52736836  0.77715318  1
  Li  Li30  1  0.22263164  0.77300566  0.52715318  1
  Li  Li31  1  0.27736836  0.22699434  0.02715318  1
  Li  Li32  1  0.48406847  0.68914958  0.77442658  1
  Li  Li33  1  0.01593153  0.31085042  0.27442658  1
  Li  Li34  1  0.56085042  0.23406847  0.02442658  1
  Li  Li35  1  0.93914958  0.76593153  0.52442658  1
  Li  Li36  1  0.01593153  0.68914958  0.22557342  1
  Li  Li37  1  0.48406847  0.31085042  0.72557342  1
  Li  Li38  1  0.93914958  0.23406847  0.97557342  1
  Li  Li39  1  0.56085042  0.76593153  0.47557342  1
  Li  Li40  1  0.51593153  0.31085042  0.22557342  1
  Li  Li41  1  0.98406847  0.68914958  0.72557342  1
  Li  Li42  1  0.43914958  0.76593153  0.97557342  1
  Li  Li43  1  0.06085042  0.23406847  0.47557342  1
  Li  Li44  1  0.98406847  0.31085042  0.77442658  1
  Li  Li45  1  0.51593153  0.68914958  0.27442658  1
  Li  Li46  1  0.06085042  0.76593153  0.02442658  1
  Li  Li47  1  0.43914958  0.23406847  0.52442658  1
  Li  Li48  1  0.98406847  0.18914958  0.27442658  1
  Li  Li49  1  0.51593153  0.81085042  0.77442658  1
  Li  Li50  1  0.06085042  0.73406847  0.52442658  1
  Li  Li51  1  0.43914958  0.26593153  0.02442658  1
  Li  Li52  1  0.51593153  0.18914958  0.72557342  1
  Li  Li53  1  0.98406847  0.81085042  0.22557342  1
  Li  Li54  1  0.43914958  0.73406847  0.47557342  1
  Li  Li55  1  0.06085042  0.26593153  0.97557342  1
  Li  Li56  1  0.01593153  0.81085042  0.72557342  1
  Li  Li57  1  0.48406847  0.18914958  0.22557342  1
  Li  Li58  1  0.93914958  0.26593153  0.47557342  1
  Li  Li59  1  0.56085042  0.73406847  0.97557342  1
  Li  Li60  1  0.48406847  0.81085042  0.27442658  1
  Li  Li61  1  0.01593153  0.18914958  0.77442658  1
  Li  Li62  1  0.56085042  0.26593153  0.52442658  1
  Li  Li63  1  0.93914958  0.73406847  0.02442658  1
  O  O64  1  0.00000000  0.25000000  0.72644670  1
  O  O65  1  0.00000000  0.75000000  0.97644670  1
  O  O66  1  0.50000000  0.25000000  0.27355330  1
  O  O67  1  0.50000000  0.75000000  0.02355330  1
  O  O68  1  0.00000000  0.75000000  0.27355330  1
  O  O69  1  0.00000000  0.25000000  0.02355330  1
  O  O70  1  0.50000000  0.75000000  0.72644670  1
  O  O71  1  0.50000000  0.25000000  0.97644670  1
  O  O72  1  0.50000000  0.75000000  0.22644670  1
  O  O73  1  0.50000000  0.25000000  0.47644670  1
  O  O74  1  0.00000000  0.75000000  0.77355330  1
  O  O75  1  0.00000000  0.25000000  0.52355330  1
  O  O76  1  0.50000000  0.25000000  0.77355330  1
  O  O77  1  0.50000000  0.75000000  0.52355330  1
  O  O78  1  0.00000000  0.25000000  0.22644670  1
  O  O79  1  0.00000000  0.75000000  0.47644670  1
  S  S80  1  0.99195966  0.98299042  0.11710177  1
  S  S81  1  -0.49195966  -0.98299042  0.61710177  1
  S  S82  1  -0.73299042  1.74195966  0.36710177  1
  S  S83  1  1.23299042  -0.74195966  0.86710177  1
  S  S84  1  -0.49195966  0.98299042  -0.11710177  1
  S  S85  1  0.99195966  -0.98299042  0.38289823  1
  S  S86  1  1.23299042  1.74195966  0.63289823  1
  S  S87  1  -0.73299042  -0.74195966  0.13289823  1
  S  S88  1  -0.99195966  -0.98299042  -0.11710177  1
  S  S89  1  1.49195966  0.98299042  0.38289823  1
  S  S90  1  1.73299042  -0.74195966  0.63289823  1
  S  S91  1  -0.23299042  1.74195966  0.13289823  1
  S  S92  1  1.49195966  -0.98299042  0.11710177  1
  S  S93  1  -0.99195966  0.98299042  0.61710177  1
  S  S94  1  -0.23299042  -0.74195966  0.36710177  1
  S  S95  1  1.73299042  1.74195966  0.86710177  1
  S  S96  1  1.49195966  1.48299042  0.61710177  1
  S  S97  1  0.00804034  -0.48299042  1.11710177  1
  S  S98  1  -0.23299042  2.24195966  0.86710177  1
  S  S99  1  1.73299042  -0.24195966  1.36710177  1
  S  S100  1  0.00804034  1.48299042  0.38289823  1
  S  S101  1  1.49195966  -0.48299042  0.88289823  1
  S  S102  1  1.73299042  2.24195966  1.13289823  1
  S  S103  1  -0.23299042  -0.24195966  0.63289823  1
  S  S104  1  -0.49195966  -0.48299042  0.38289823  1
  S  S105  1  1.99195966  1.48299042  0.88289823  1
  S  S106  1  2.23299042  -0.24195966  1.13289823  1
  S  S107  1  0.26700958  2.24195966  0.63289823  1
  S  S108  1  1.99195966  -0.48299042  0.61710177  1
  S  S109  1  -0.49195966  1.48299042  1.11710177  1
  S  S110  1  0.26700958  -0.24195966  0.86710177  1
  S  S111  1  2.23299042  2.24195966  1.36710177  1
  S  S112  1  0.00000000  0.25000000  0.12500000  1
  S  S113  1  0.00000000  0.75000000  0.37500000  1
  S  S114  1  0.00000000  0.75000000  0.87500000  1
  S  S115  1  0.00000000  0.25000000  0.62500000  1
  S  S116  1  0.50000000  0.75000000  0.62500000  1
  S  S117  1  0.50000000  0.25000000  0.87500000  1
  S  S118  1  0.50000000  0.25000000  0.37500000  1
  S  S119  1  0.50000000  0.75000000  0.12500000  1
  S  S120  1  0.00000000  0.00000000  0.00000000  1
  S  S121  1  0.50000000  0.00000000  0.50000000  1
  S  S122  1  0.25000000  0.75000000  0.25000000  1
  S  S123  1  0.25000000  0.25000000  0.75000000  1
  S  S124  1  0.50000000  0.00000000  0.00000000  1
  S  S125  1  0.00000000  0.00000000  0.50000000  1
  S  S126  1  0.25000000  0.75000000  0.75000000  1
  S  S127  1  0.25000000  0.25000000  0.25000000  1
  S  S128  1  0.50000000  0.50000000  0.50000000  1
  S  S129  1  0.00000000  0.50000000  0.00000000  1
  S  S130  1  0.75000000  0.25000000  0.75000000  1
  S  S131  1  0.75000000  0.75000000  0.25000000  1
  S  S132  1  0.00000000  0.50000000  0.50000000  1
  S  S133  1  0.50000000  0.50000000  0.00000000  1
  S  S134  1  0.75000000  0.25000000  0.25000000  1
  S  S135  1  0.75000000  0.75000000  0.75000000  1
  S  S136  1  0.00000000  0.25000000  0.37500000  1
  S  S137  1  0.00000000  0.75000000  0.62500000  1
  S  S138  1  0.50000000  0.25000000  0.62500000  1
  S  S139  1  0.50000000  0.75000000  0.37500000  1
  S  S140  1  0.50000000  0.75000000  0.87500000  1
  S  S141  1  0.50000000  0.25000000  0.12500000  1
  S  S142  1  0.00000000  0.75000000  0.12500000  1
  S  S143  1  0.00000000  0.25000000  0.87500000  1
  Sr  Sr144  1  0.21001761  0.51265364  0.93344784  1
  Sr  Sr145  1  0.28998239  0.48734636  0.43344784  1
  Sr  Sr146  1  0.73734636  0.96001761  0.18344784  1
  Sr  Sr147  1  0.76265364  0.03998239  0.68344784  1
  Sr  Sr148  1  0.28998239  0.51265364  0.06655216  1
  Sr  Sr149  1  0.21001761  0.48734636  0.56655216  1
  Sr  Sr150  1  0.76265364  0.96001761  0.81655216  1
  Sr  Sr151  1  0.73734636  0.03998239  0.31655216  1
  Sr  Sr152  1  0.78998239  0.48734636  0.06655216  1
  Sr  Sr153  1  0.71001761  0.51265364  0.56655216  1
  Sr  Sr154  1  0.26265364  0.03998239  0.81655216  1
  Sr  Sr155  1  0.23734636  0.96001761  0.31655216  1
  Sr  Sr156  1  0.71001761  0.48734636  0.93344784  1
  Sr  Sr157  1  0.78998239  0.51265364  0.43344784  1
  Sr  Sr158  1  0.23734636  0.03998239  0.18344784  1
  Sr  Sr159  1  0.26265364  0.96001761  0.68344784  1
  Sr  Sr160  1  0.71001761  0.01265364  0.43344784  1
  Sr  Sr161  1  0.78998239  0.98734636  0.93344784  1
  Sr  Sr162  1  0.23734636  0.46001761  0.68344784  1
  Sr  Sr163  1  0.26265364  0.53998239  0.18344784  1
  Sr  Sr164  1  0.78998239  0.01265364  0.56655216  1
  Sr  Sr165  1  0.71001761  0.98734636  0.06655216  1
  Sr  Sr166  1  0.26265364  0.46001761  0.31655216  1
  Sr  Sr167  1  0.23734636  0.53998239  0.81655216  1
  Sr  Sr168  1  0.28998239  0.98734636  0.56655216  1
  Sr  Sr169  1  0.21001761  0.01265364  0.06655216  1
  Sr  Sr170  1  0.76265364  0.53998239  0.31655216  1
  Sr  Sr171  1  0.73734636  0.46001761  0.81655216  1
  Sr  Sr172  1  0.21001761  0.98734636  0.43344784  1
  Sr  Sr173  1  0.28998239  0.01265364  0.93344784  1
  Sr  Sr174  1  0.73734636  0.53998239  0.68344784  1
  Sr  Sr175  1  0.76265364  0.46001761  0.18344784  1
  Sr  Sr176  1  0.10936960  0.35936960  0.12500000  1
  Sr  Sr177  1  0.39063040  0.64063040  0.62500000  1
  Sr  Sr178  1  0.89063040  0.85936960  0.37500000  1
  Sr  Sr179  1  0.60936960  0.14063040  0.87500000  1
  Sr  Sr180  1  0.89063040  0.64063040  0.87500000  1
  Sr  Sr181  1  0.60936960  0.35936960  0.37500000  1
  Sr  Sr182  1  0.10936960  0.14063040  0.62500000  1
  Sr  Sr183  1  0.39063040  0.85936960  0.12500000  1
  Sr  Sr184  1  0.60936960  0.85936960  0.62500000  1
  Sr  Sr185  1  0.89063040  0.14063040  0.12500000  1
  Sr  Sr186  1  0.39063040  0.35936960  0.87500000  1
  Sr  Sr187  1  0.10936960  0.64063040  0.37500000  1
  Sr  Sr188  1  0.39063040  0.14063040  0.37500000  1
  Sr  Sr189  1  0.10936960  0.85936960  0.87500000  1
  Sr  Sr190  1  0.60936960  0.64063040  0.12500000  1
  Sr  Sr191  1  0.89063040  0.35936960  0.62500000  1
