# generated using pymatgen
data_KLi2B(BrCl)3
_symmetry_space_group_name_H-M   'P 1'
_cell_length_a   9.32681566
_cell_length_b   9.32681566
_cell_length_c   31.19959774
_cell_angle_alpha   90.00000000
_cell_angle_beta   90.00000000
_cell_angle_gamma   120.00000000
_symmetry_Int_Tables_number   1
_chemical_formula_structural   KLi2B(BrCl)3
_chemical_formula_sum   'K12 Li24 B12 Br36 Cl36'
_cell_volume   2350.42508070
_cell_formula_units_Z   12
loop_
 _symmetry_equiv_pos_site_id
 _symmetry_equiv_pos_as_xyz
  1  'x, y, z'
loop_
 _atom_site_type_symbol
 _atom_site_label
 _atom_site_symmetry_multiplicity
 _atom_site_fract_x
 _atom_site_fract_y
 _atom_site_fract_z
 _atom_site_occupancy
  B  B0  1  0.94104463  0.81366048  0.25000000  1
  B  B1  1  0.18633952  0.12738414  0.25000000  1
  B  B2  1  0.87261586  0.05895537  0.25000000  1
  B  B3  1  0.05895537  0.18633952  0.75000000  1
  B  B4  1  0.81366048  0.87261586  0.75000000  1
  B  B5  1  0.12738414  0.94104463  0.75000000  1
  B  B6  1  0.00000000  0.00000000  0.19247079  1
  B  B7  1  0.00000000  0.00000000  0.69247079  1
  B  B8  1  0.00000000  0.00000000  0.80752921  1
  B  B9  1  0.00000000  0.00000000  0.30752921  1
  B  B10  1  0.00000000  0.00000000  0.00000000  1
  B  B11  1  0.00000000  0.00000000  0.50000000  1
  Br  Br12  1  0.63241957  0.71505455  0.84194977  1
  Br  Br13  1  0.28494545  0.91736502  0.84194977  1
  Br  Br14  1  0.08263498  0.36758043  0.84194977  1
  Br  Br15  1  0.36758043  0.28494545  0.34194977  1
  Br  Br16  1  0.71505455  0.08263498  0.34194977  1
  Br  Br17  1  0.91736502  0.63241957  0.34194977  1
  Br  Br18  1  0.36758043  0.28494545  0.15805023  1
  Br  Br19  1  0.71505455  0.08263498  0.15805023  1
  Br  Br20  1  0.91736502  0.63241957  0.15805023  1
  Br  Br21  1  0.63241957  0.71505455  0.65805023  1
  Br  Br22  1  0.28494545  0.91736502  0.65805023  1
  Br  Br23  1  0.08263498  0.36758043  0.65805023  1
  Br  Br24  1  0.81339832  0.32044604  0.25000000  1
  Br  Br25  1  0.67955396  0.49295228  0.25000000  1
  Br  Br26  1  0.50704772  0.18660168  0.25000000  1
  Br  Br27  1  0.18660168  0.67955396  0.75000000  1
  Br  Br28  1  0.32044604  0.50704772  0.75000000  1
  Br  Br29  1  0.49295228  0.81339832  0.75000000  1
  Br  Br30  1  0.50000000  0.00000000  0.00000000  1
  Br  Br31  1  0.00000000  0.50000000  0.00000000  1
  Br  Br32  1  0.50000000  0.50000000  0.00000000  1
  Br  Br33  1  0.50000000  0.00000000  0.50000000  1
  Br  Br34  1  0.00000000  0.50000000  0.50000000  1
  Br  Br35  1  0.50000000  0.50000000  0.50000000  1
  Br  Br36  1  0.21254548  0.41471570  0.09396660  1
  Br  Br37  1  0.58528430  0.79782978  0.09396660  1
  Br  Br38  1  0.20217022  0.78745452  0.09396660  1
  Br  Br39  1  0.78745452  0.58528430  0.59396660  1
  Br  Br40  1  0.41471570  0.20217022  0.59396660  1
  Br  Br41  1  0.79782978  0.21254548  0.59396660  1
  Br  Br42  1  0.78745452  0.58528430  0.90603340  1
  Br  Br43  1  0.41471570  0.20217022  0.90603340  1
  Br  Br44  1  0.79782978  0.21254548  0.90603340  1
  Br  Br45  1  0.21254548  0.41471570  0.40603340  1
  Br  Br46  1  0.58528430  0.79782978  0.40603340  1
  Br  Br47  1  0.20217022  0.78745452  0.40603340  1
  Cl  Cl48  1  0.66747628  0.70171656  0.25000000  1
  Cl  Cl49  1  0.29828344  0.96575972  0.25000000  1
  Cl  Cl50  1  0.03424028  0.33252372  0.25000000  1
  Cl  Cl51  1  0.33252372  0.29828344  0.75000000  1
  Cl  Cl52  1  0.70171656  0.03424028  0.75000000  1
  Cl  Cl53  1  0.96575972  0.66747628  0.75000000  1
  Cl  Cl54  1  0.00000000  0.00000000  0.25000000  1
  Cl  Cl55  1  0.00000000  0.00000000  0.75000000  1
  Cl  Cl56  1  0.92779740  0.08834281  0.90399779  1
  Cl  Cl57  1  0.91165719  0.83945459  0.90399779  1
  Cl  Cl58  1  0.16054541  0.07220260  0.90399779  1
  Cl  Cl59  1  0.07220260  0.91165719  0.40399779  1
  Cl  Cl60  1  0.08834281  0.16054541  0.40399779  1
  Cl  Cl61  1  0.83945459  0.92779740  0.40399779  1
  Cl  Cl62  1  0.07220260  0.91165719  0.09600221  1
  Cl  Cl63  1  0.08834281  0.16054541  0.09600221  1
  Cl  Cl64  1  0.83945459  0.92779740  0.09600221  1
  Cl  Cl65  1  0.92779740  0.08834281  0.59600221  1
  Cl  Cl66  1  0.91165719  0.83945459  0.59600221  1
  Cl  Cl67  1  0.16054541  0.07220260  0.59600221  1
  Cl  Cl68  1  0.66666667  0.33333333  0.25000000  1
  Cl  Cl69  1  0.33333333  0.66666667  0.75000000  1
  Cl  Cl70  1  0.33333333  0.66666667  0.25000000  1
  Cl  Cl71  1  0.66666667  0.33333333  0.75000000  1
  Cl  Cl72  1  0.75325269  0.11954830  0.39519409  1
  Cl  Cl73  1  0.88045170  0.63370439  0.39519409  1
  Cl  Cl74  1  0.36629561  0.24674731  0.39519409  1
  Cl  Cl75  1  0.24674731  0.88045170  0.89519409  1
  Cl  Cl76  1  0.11954830  0.36629561  0.89519409  1
  Cl  Cl77  1  0.63370439  0.75325269  0.89519409  1
  Cl  Cl78  1  0.24674731  0.88045170  0.60480591  1
  Cl  Cl79  1  0.11954830  0.36629561  0.60480591  1
  Cl  Cl80  1  0.63370439  0.75325269  0.60480591  1
  Cl  Cl81  1  0.75325269  0.11954830  0.10480591  1
  Cl  Cl82  1  0.88045170  0.63370439  0.10480591  1
  Cl  Cl83  1  0.36629561  0.24674731  0.10480591  1
  K  K84  1  0.77608503  0.69879536  0.49895780  1
  K  K85  1  -0.69879536  0.07728967  0.49895780  1
  K  K86  1  -0.07728967  -0.77608503  0.49895780  1
  K  K87  1  -0.77608503  -0.69879536  0.99895780  1
  K  K88  1  0.69879536  -0.07728967  0.99895780  1
  K  K89  1  0.07728967  0.77608503  0.99895780  1
  K  K90  1  -0.77608503  -0.69879536  -0.49895780  1
  K  K91  1  0.69879536  -0.07728967  -0.49895780  1
  K  K92  1  0.07728967  0.77608503  -0.49895780  1
  K  K93  1  0.77608503  0.69879536  0.00104220  1
  K  K94  1  -0.69879536  0.07728967  0.00104220  1
  K  K95  1  -0.07728967  -0.77608503  0.00104220  1
  Li  Li96  1  0.00829780  0.42083135  0.71193757  1
  Li  Li97  1  0.57916865  0.58746644  0.71193757  1
  Li  Li98  1  0.41253356  0.99170220  0.71193757  1
  Li  Li99  1  0.99170220  0.57916865  0.21193757  1
  Li  Li100  1  0.42083135  0.41253356  0.21193757  1
  Li  Li101  1  0.58746644  0.00829780  0.21193757  1
  Li  Li102  1  0.99170220  0.57916865  0.28806243  1
  Li  Li103  1  0.42083135  0.41253356  0.28806243  1
  Li  Li104  1  0.58746644  0.00829780  0.28806243  1
  Li  Li105  1  0.00829780  0.42083135  0.78806243  1
  Li  Li106  1  0.57916865  0.58746644  0.78806243  1
  Li  Li107  1  0.41253356  0.99170220  0.78806243  1
  Li  Li108  1  0.14559165  0.69590568  0.25000000  1
  Li  Li109  1  0.30409432  0.44968597  0.25000000  1
  Li  Li110  1  0.55031403  0.85440835  0.25000000  1
  Li  Li111  1  0.85440835  0.30409432  0.75000000  1
  Li  Li112  1  0.69590568  0.55031403  0.75000000  1
  Li  Li113  1  0.44968597  0.14559165  0.75000000  1
  Li  Li114  1  0.45809609  0.48355476  0.25000000  1
  Li  Li115  1  0.51644524  0.97454132  0.25000000  1
  Li  Li116  1  0.02545868  0.54190391  0.25000000  1
  Li  Li117  1  0.54190391  0.51644524  0.75000000  1
  Li  Li118  1  0.48355476  0.02545868  0.75000000  1
  Li  Li119  1  0.97454132  0.45809609  0.75000000  1
