# generated using pymatgen
data_Li3TeI
_symmetry_space_group_name_H-M   'P 1'
_cell_length_a   7.26148969
_cell_length_b   7.26148969
_cell_length_c   8.14615609
_cell_angle_alpha   90.00000000
_cell_angle_beta   90.00000000
_cell_angle_gamma   90.00000000
_symmetry_Int_Tables_number   1
_chemical_formula_structural   Li3TeI
_chemical_formula_sum   'Li12 Te4 I4'
_cell_volume   429.54055802
_cell_formula_units_Z   4
loop_
 _symmetry_equiv_pos_site_id
 _symmetry_equiv_pos_as_xyz
  1  'x, y, z'
loop_
 _atom_site_type_symbol
 _atom_site_label
 _atom_site_symmetry_multiplicity
 _atom_site_fract_x
 _atom_site_fract_y
 _atom_site_fract_z
 _atom_site_occupancy
  I  I0  1  0.50000000  0.50000000  0.50000000  1
  I  I1  1  0.00000000  0.00000000  0.38981405  1
  I  I2  1  0.00000000  0.00000000  0.61018595  1
  I  I3  1  0.00000000  0.00000000  0.00000000  1
  Li  Li4  1  0.15511300  0.50000000  0.50000000  1
  Li  Li5  1  0.84488700  0.50000000  0.50000000  1
  Li  Li6  1  0.50000000  0.15511300  0.50000000  1
  Li  Li7  1  0.50000000  0.84488700  0.50000000  1
  Li  Li8  1  0.17230160  0.17230160  0.50000000  1
  Li  Li9  1  0.82769840  0.82769840  0.50000000  1
  Li  Li10  1  0.82769840  0.17230160  0.50000000  1
  Li  Li11  1  0.17230160  0.82769840  0.50000000  1
  Li  Li12  1  0.79714702  0.79714702  -0.00000000  1
  Li  Li13  1  0.20285298  0.20285298  0.00000000  1
  Li  Li14  1  0.20285298  0.79714702  -0.00000000  1
  Li  Li15  1  0.79714702  0.20285298  -0.00000000  1
  Te  Te16  1  0.34418758  0.50000000  0.00000000  1
  Te  Te17  1  -0.34418758  0.50000000  -0.00000000  1
  Te  Te18  1  0.50000000  0.34418758  0.00000000  1
  Te  Te19  1  0.50000000  -0.34418758  -0.00000000  1
