# generated using pymatgen
data_K2Sr2Li4MgSe6
_symmetry_space_group_name_H-M   'P 1'
_cell_length_a   6.17197154
_cell_length_b   16.74783667
_cell_length_c   8.74854458
_cell_angle_alpha   90.00000000
_cell_angle_beta   90.00000000
_cell_angle_gamma   90.00000000
_symmetry_Int_Tables_number   1
_chemical_formula_structural   K2Sr2Li4MgSe6
_chemical_formula_sum   'K4 Sr4 Li8 Mg2 Se12'
_cell_volume   904.31230676
_cell_formula_units_Z   2
loop_
 _symmetry_equiv_pos_site_id
 _symmetry_equiv_pos_as_xyz
  1  'x, y, z'
loop_
 _atom_site_type_symbol
 _atom_site_label
 _atom_site_symmetry_multiplicity
 _atom_site_fract_x
 _atom_site_fract_y
 _atom_site_fract_z
 _atom_site_occupancy
  K  K0  1  0.21262900  0.61752551  0.00000000  1
  K  K1  1  0.78737100  0.38247449  -0.00000000  1
  K  K2  1  0.28737100  0.11752551  0.00000000  1
  K  K3  1  0.71262900  0.88247449  -0.00000000  1
  Li  Li4  1  0.03879632  0.19073405  0.21275490  1
  Li  Li5  1  0.96120368  0.80926595  0.21275490  1
  Li  Li6  1  0.46120368  0.69073405  0.78724510  1
  Li  Li7  1  0.53879632  0.30926595  0.78724510  1
  Li  Li8  1  0.96120368  0.80926595  0.78724510  1
  Li  Li9  1  0.03879632  0.19073405  0.78724510  1
  Li  Li10  1  0.53879632  0.30926595  0.21275490  1
  Li  Li11  1  0.46120368  0.69073405  0.21275490  1
  Mg  Mg12  1  0.00000000  0.00000000  0.00000000  1
  Mg  Mg13  1  0.50000000  0.50000000  0.00000000  1
  Se  Se14  1  0.13982231  0.86819135  0.19879108  1
  Se  Se15  1  -0.13982231  -0.86819135  0.19879108  1
  Se  Se16  1  0.36017769  1.36819135  -0.19879108  1
  Se  Se17  1  0.63982231  -0.36819135  -0.19879108  1
  Se  Se18  1  -0.13982231  -0.86819135  -0.19879108  1
  Se  Se19  1  0.13982231  0.86819135  -0.19879108  1
  Se  Se20  1  0.63982231  -0.36819135  0.19879108  1
  Se  Se21  1  0.36017769  1.36819135  0.19879108  1
  Se  Se22  1  0.50621506  0.43958677  0.50000000  1
  Se  Se23  1  0.49378494  0.56041323  0.50000000  1
  Se  Se24  1  0.99378494  0.93958677  0.50000000  1
  Se  Se25  1  0.00621506  0.06041323  0.50000000  1
  Sr  Sr26  1  0.56335805  0.70273046  0.00000000  1
  Sr  Sr27  1  0.43664195  0.29726954  0.00000000  1
  Sr  Sr28  1  0.93664195  0.20273046  0.00000000  1
  Sr  Sr29  1  0.06335805  0.79726954  -0.00000000  1
