# generated using pymatgen
data_KNa3F4
_symmetry_space_group_name_H-M   'P 1'
_cell_length_a   10.25622781
_cell_length_b   10.25622781
_cell_length_c   15.67503071
_cell_angle_alpha   90.00000000
_cell_angle_beta   90.00000000
_cell_angle_gamma   90.00000000
_symmetry_Int_Tables_number   1
_chemical_formula_structural   KNa3F4
_chemical_formula_sum   'K8 Na24 F32'
_cell_volume   1648.85975537
_cell_formula_units_Z   8
loop_
 _symmetry_equiv_pos_site_id
 _symmetry_equiv_pos_as_xyz
  1  'x, y, z'
loop_
 _atom_site_type_symbol
 _atom_site_label
 _atom_site_symmetry_multiplicity
 _atom_site_fract_x
 _atom_site_fract_y
 _atom_site_fract_z
 _atom_site_occupancy
  F  F0  1  0.87793998  0.15802750  0.80332796  1
  F  F1  1  -0.37793998  -0.15802750  1.30332796  1
  F  F2  1  0.09197250  1.62793998  1.05332796  1
  F  F3  1  0.40802750  -0.62793998  1.55332796  1
  F  F4  1  -0.37793998  0.15802750  -0.30332796  1
  F  F5  1  0.87793998  -0.15802750  -0.80332796  1
  F  F6  1  0.40802750  1.62793998  -0.55332796  1
  F  F7  1  0.09197250  -0.62793998  -0.05332796  1
  F  F8  1  -0.87793998  -0.15802750  -0.80332796  1
  F  F9  1  1.37793998  0.15802750  -0.30332796  1
  F  F10  1  0.90802750  -0.62793998  -0.05332796  1
  F  F11  1  0.59197250  1.62793998  -0.55332796  1
  F  F12  1  1.37793998  -0.15802750  1.30332796  1
  F  F13  1  -0.87793998  0.15802750  0.80332796  1
  F  F14  1  0.59197250  -0.62793998  1.55332796  1
  F  F15  1  0.90802750  1.62793998  1.05332796  1
  F  F16  1  1.37793998  0.65802750  1.30332796  1
  F  F17  1  0.12206002  0.34197250  1.80332796  1
  F  F18  1  0.59197250  2.12793998  1.55332796  1
  F  F19  1  0.90802750  -0.12793998  2.05332796  1
  F  F20  1  0.12206002  0.65802750  0.19667204  1
  F  F21  1  1.37793998  0.34197250  -0.30332796  1
  F  F22  1  0.90802750  2.12793998  -0.05332796  1
  F  F23  1  0.59197250  -0.12793998  0.44667204  1
  F  F24  1  -0.37793998  0.34197250  -0.30332796  1
  F  F25  1  1.87793998  0.65802750  0.19667204  1
  F  F26  1  1.40802750  -0.12793998  0.44667204  1
  F  F27  1  1.09197250  2.12793998  -0.05332796  1
  F  F28  1  1.87793998  0.34197250  1.80332796  1
  F  F29  1  -0.37793998  0.65802750  1.30332796  1
  F  F30  1  1.09197250  -0.12793998  2.05332796  1
  F  F31  1  1.40802750  2.12793998  1.55332796  1
  K  K32  1  0.00000000  0.25000000  0.47096995  1
  K  K33  1  0.00000000  0.75000000  0.72096995  1
  K  K34  1  0.50000000  0.25000000  0.02903005  1
  K  K35  1  0.50000000  0.75000000  0.77903005  1
  K  K36  1  0.50000000  0.75000000  0.97096995  1
  K  K37  1  0.50000000  0.25000000  0.22096995  1
  K  K38  1  0.00000000  0.75000000  0.52903005  1
  K  K39  1  0.00000000  0.25000000  0.27903005  1
  Na  Na40  1  0.15119564  0.40119564  0.87500000  1
  Na  Na41  1  0.34880436  0.59880436  0.37500000  1
  Na  Na42  1  0.84880436  0.90119564  0.12500000  1
  Na  Na43  1  0.65119564  0.09880436  0.62500000  1
  Na  Na44  1  0.84880436  0.59880436  0.12500000  1
  Na  Na45  1  0.65119564  0.40119564  0.62500000  1
  Na  Na46  1  0.15119564  0.09880436  0.87500000  1
  Na  Na47  1  0.34880436  0.90119564  0.37500000  1
  Na  Na48  1  0.65119564  0.90119564  0.37500000  1
  Na  Na49  1  0.84880436  0.09880436  0.87500000  1
  Na  Na50  1  0.34880436  0.40119564  0.62500000  1
  Na  Na51  1  0.15119564  0.59880436  0.12500000  1
  Na  Na52  1  0.34880436  0.09880436  0.62500000  1
  Na  Na53  1  0.15119564  0.90119564  0.12500000  1
  Na  Na54  1  0.65119564  0.59880436  0.37500000  1
  Na  Na55  1  0.84880436  0.40119564  0.87500000  1
  Na  Na56  1  0.00000000  0.25000000  0.81650636  1
  Na  Na57  1  0.00000000  0.75000000  0.06650636  1
  Na  Na58  1  0.50000000  0.25000000  0.68349364  1
  Na  Na59  1  0.50000000  0.75000000  0.43349364  1
  Na  Na60  1  0.50000000  0.75000000  0.31650636  1
  Na  Na61  1  0.50000000  0.25000000  0.56650636  1
  Na  Na62  1  0.00000000  0.75000000  0.18349364  1
  Na  Na63  1  0.00000000  0.25000000  0.93349364  1
