# generated using pymatgen
data_Li3Mo2P4SeO3
_symmetry_space_group_name_H-M   'P 1'
_cell_length_a   3.87357264
_cell_length_b   4.39135734
_cell_length_c   4.64299420
_cell_angle_alpha   89.12714250
_cell_angle_beta   92.34671048
_cell_angle_gamma   91.62282777
_symmetry_Int_Tables_number   1
_chemical_formula_structural   Li3Mo2P4SeO3
_chemical_formula_sum   'Li3 Mo2 P4 Se1 O3'
_cell_volume   78.87273471
_cell_formula_units_Z   1
loop_
 _symmetry_equiv_pos_site_id
 _symmetry_equiv_pos_as_xyz
  1  'x, y, z'
loop_
 _atom_site_type_symbol
 _atom_site_label
 _atom_site_symmetry_multiplicity
 _atom_site_fract_x
 _atom_site_fract_y
 _atom_site_fract_z
 _atom_site_occupancy
  Li  Li0  1  0.00000000  0.00000000  0.00000000  1
  Li  Li1  1  0.50000000  0.50000000  0.50000000  1
  Li  Li2  1  0.50000000  0.50000000  0.00000000  1
  Mo  Mo3  1  0.50000000  0.00000000  0.50000000  1
  Mo  Mo4  1  0.00000000  0.50000000  0.50000000  1
  P  P5  1  0.88074678  0.69544734  0.00152749  1
  P  P6  1  0.83149115  0.11799011  0.71981370  1
  P  P7  1  0.82252518  0.60882451  0.68236241  1
  P  P8  1  0.11508962  0.59355816  0.92576052  1
  Se  Se9  1  0.88790457  0.74555551  0.41746574  1
  O  O10  1  0.18893921  0.28955994  0.34955236  1
  O  O11  1  0.36379050  0.81692262  0.77837787  1
  O  O12  1  0.66309112  0.73917228  0.86904494  1
