# generated using pymatgen
data_K6Li18SnTe2F24
_symmetry_space_group_name_H-M   'P 1'
_cell_length_a   17.15778037
_cell_length_b   17.15778037
_cell_length_c   17.15778037
_cell_angle_alpha   90.00000000
_cell_angle_beta   90.00000000
_cell_angle_gamma   90.00000000
_symmetry_Int_Tables_number   1
_chemical_formula_structural   K6Li18SnTe2F24
_chemical_formula_sum   'K48 Li144 Sn8 Te16 F192'
_cell_volume   5051.06913606
_cell_formula_units_Z   8
loop_
 _symmetry_equiv_pos_site_id
 _symmetry_equiv_pos_as_xyz
  1  'x, y, z'
loop_
 _atom_site_type_symbol
 _atom_site_label
 _atom_site_symmetry_multiplicity
 _atom_site_fract_x
 _atom_site_fract_y
 _atom_site_fract_z
 _atom_site_occupancy
  F  F0  1  0.68177803  0.68177803  0.56166889  1
  F  F1  1  0.31822197  0.31822197  0.56166889  1
  F  F2  1  0.31822197  0.68177803  0.43833111  1
  F  F3  1  0.68177803  0.31822197  0.43833111  1
  F  F4  1  0.56166889  0.68177803  0.68177803  1
  F  F5  1  0.56166889  0.31822197  0.31822197  1
  F  F6  1  0.43833111  0.31822197  0.68177803  1
  F  F7  1  0.43833111  0.68177803  0.31822197  1
  F  F8  1  0.68177803  0.56166889  0.68177803  1
  F  F9  1  0.31822197  0.56166889  0.31822197  1
  F  F10  1  0.68177803  0.43833111  0.31822197  1
  F  F11  1  0.31822197  0.43833111  0.68177803  1
  F  F12  1  0.68177803  0.18177803  0.06166889  1
  F  F13  1  0.31822197  0.81822197  0.06166889  1
  F  F14  1  0.31822197  0.18177803  0.93833111  1
  F  F15  1  0.68177803  0.81822197  0.93833111  1
  F  F16  1  0.56166889  0.18177803  0.18177803  1
  F  F17  1  0.56166889  0.81822197  0.81822197  1
  F  F18  1  0.43833111  0.81822197  0.18177803  1
  F  F19  1  0.43833111  0.18177803  0.81822197  1
  F  F20  1  0.68177803  0.06166889  0.18177803  1
  F  F21  1  0.31822197  0.06166889  0.81822197  1
  F  F22  1  0.68177803  0.93833111  0.81822197  1
  F  F23  1  0.31822197  0.93833111  0.18177803  1
  F  F24  1  0.18177803  0.68177803  0.06166889  1
  F  F25  1  0.81822197  0.31822197  0.06166889  1
  F  F26  1  0.81822197  0.68177803  0.93833111  1
  F  F27  1  0.18177803  0.31822197  0.93833111  1
  F  F28  1  0.06166889  0.68177803  0.18177803  1
  F  F29  1  0.06166889  0.31822197  0.81822197  1
  F  F30  1  0.93833111  0.31822197  0.18177803  1
  F  F31  1  0.93833111  0.68177803  0.81822197  1
  F  F32  1  0.18177803  0.56166889  0.18177803  1
  F  F33  1  0.81822197  0.56166889  0.81822197  1
  F  F34  1  0.18177803  0.43833111  0.81822197  1
  F  F35  1  0.81822197  0.43833111  0.18177803  1
  F  F36  1  0.18177803  0.18177803  0.56166889  1
  F  F37  1  0.81822197  0.81822197  0.56166889  1
  F  F38  1  0.81822197  0.18177803  0.43833111  1
  F  F39  1  0.18177803  0.81822197  0.43833111  1
  F  F40  1  0.06166889  0.18177803  0.68177803  1
  F  F41  1  0.06166889  0.81822197  0.31822197  1
  F  F42  1  0.93833111  0.81822197  0.68177803  1
  F  F43  1  0.93833111  0.18177803  0.31822197  1
  F  F44  1  0.18177803  0.06166889  0.68177803  1
  F  F45  1  0.81822197  0.06166889  0.31822197  1
  F  F46  1  0.18177803  0.93833111  0.31822197  1
  F  F47  1  0.81822197  0.93833111  0.68177803  1
  F  F48  1  0.00000000  0.00000000  0.00000000  1
  F  F49  1  0.00000000  0.50000000  0.50000000  1
  F  F50  1  0.50000000  0.00000000  0.50000000  1
  F  F51  1  0.50000000  0.50000000  0.00000000  1
  F  F52  1  0.03070958  0.03070958  0.03070958  1
  F  F53  1  0.96929042  0.96929042  0.03070958  1
  F  F54  1  0.96929042  0.03070958  0.96929042  1
  F  F55  1  0.03070958  0.96929042  0.96929042  1
  F  F56  1  0.03070958  0.53070958  0.53070958  1
  F  F57  1  0.96929042  0.46929042  0.53070958  1
  F  F58  1  0.96929042  0.53070958  0.46929042  1
  F  F59  1  0.03070958  0.46929042  0.46929042  1
  F  F60  1  0.53070958  0.03070958  0.53070958  1
  F  F61  1  0.46929042  0.96929042  0.53070958  1
  F  F62  1  0.46929042  0.03070958  0.46929042  1
  F  F63  1  0.53070958  0.96929042  0.46929042  1
  F  F64  1  0.53070958  0.53070958  0.03070958  1
  F  F65  1  0.46929042  0.46929042  0.03070958  1
  F  F66  1  0.46929042  0.53070958  0.96929042  1
  F  F67  1  0.53070958  0.46929042  0.96929042  1
  F  F68  1  0.43851019  0.43851019  0.12230725  1
  F  F69  1  0.56148981  0.56148981  0.12230725  1
  F  F70  1  0.56148981  0.43851019  0.87769275  1
  F  F71  1  0.43851019  0.56148981  0.87769275  1
  F  F72  1  0.12230725  0.43851019  0.43851019  1
  F  F73  1  0.12230725  0.56148981  0.56148981  1
  F  F74  1  0.87769275  0.56148981  0.43851019  1
  F  F75  1  0.87769275  0.43851019  0.56148981  1
  F  F76  1  0.43851019  0.12230725  0.43851019  1
  F  F77  1  0.56148981  0.12230725  0.56148981  1
  F  F78  1  0.43851019  0.87769275  0.56148981  1
  F  F79  1  0.56148981  0.87769275  0.43851019  1
  F  F80  1  0.43851019  0.93851019  0.62230725  1
  F  F81  1  0.56148981  0.06148981  0.62230725  1
  F  F82  1  0.56148981  0.93851019  0.37769275  1
  F  F83  1  0.43851019  0.06148981  0.37769275  1
  F  F84  1  0.12230725  0.93851019  0.93851019  1
  F  F85  1  0.12230725  0.06148981  0.06148981  1
  F  F86  1  0.87769275  0.06148981  0.93851019  1
  F  F87  1  0.87769275  0.93851019  0.06148981  1
  F  F88  1  0.43851019  0.62230725  0.93851019  1
  F  F89  1  0.56148981  0.62230725  0.06148981  1
  F  F90  1  0.43851019  0.37769275  0.06148981  1
  F  F91  1  0.56148981  0.37769275  0.93851019  1
  F  F92  1  0.93851019  0.43851019  0.62230725  1
  F  F93  1  0.06148981  0.56148981  0.62230725  1
  F  F94  1  0.06148981  0.43851019  0.37769275  1
  F  F95  1  0.93851019  0.56148981  0.37769275  1
  F  F96  1  0.62230725  0.43851019  0.93851019  1
  F  F97  1  0.62230725  0.56148981  0.06148981  1
  F  F98  1  0.37769275  0.56148981  0.93851019  1
  F  F99  1  0.37769275  0.43851019  0.06148981  1
  F  F100  1  0.93851019  0.12230725  0.93851019  1
  F  F101  1  0.06148981  0.12230725  0.06148981  1
  F  F102  1  0.93851019  0.87769275  0.06148981  1
  F  F103  1  0.06148981  0.87769275  0.93851019  1
  F  F104  1  0.93851019  0.93851019  0.12230725  1
  F  F105  1  0.06148981  0.06148981  0.12230725  1
  F  F106  1  0.06148981  0.93851019  0.87769275  1
  F  F107  1  0.93851019  0.06148981  0.87769275  1
  F  F108  1  0.62230725  0.93851019  0.43851019  1
  F  F109  1  0.62230725  0.06148981  0.56148981  1
  F  F110  1  0.37769275  0.06148981  0.43851019  1
  F  F111  1  0.37769275  0.93851019  0.56148981  1
  F  F112  1  0.93851019  0.62230725  0.43851019  1
  F  F113  1  0.06148981  0.62230725  0.56148981  1
  F  F114  1  0.93851019  0.37769275  0.56148981  1
  F  F115  1  0.06148981  0.37769275  0.43851019  1
  F  F116  1  0.65428925  0.65428925  0.09987820  1
  F  F117  1  0.34571075  0.34571075  0.09987820  1
  F  F118  1  0.34571075  0.65428925  0.90012180  1
  F  F119  1  0.65428925  0.34571075  0.90012180  1
  F  F120  1  0.09987820  0.65428925  0.65428925  1
  F  F121  1  0.09987820  0.34571075  0.34571075  1
  F  F122  1  0.90012180  0.34571075  0.65428925  1
  F  F123  1  0.90012180  0.65428925  0.34571075  1
  F  F124  1  0.65428925  0.09987820  0.65428925  1
  F  F125  1  0.34571075  0.09987820  0.34571075  1
  F  F126  1  0.65428925  0.90012180  0.34571075  1
  F  F127  1  0.34571075  0.90012180  0.65428925  1
  F  F128  1  0.65428925  0.15428925  0.59987820  1
  F  F129  1  0.34571075  0.84571075  0.59987820  1
  F  F130  1  0.34571075  0.15428925  0.40012180  1
  F  F131  1  0.65428925  0.84571075  0.40012180  1
  F  F132  1  0.09987820  0.15428925  0.15428925  1
  F  F133  1  0.09987820  0.84571075  0.84571075  1
  F  F134  1  0.90012180  0.84571075  0.15428925  1
  F  F135  1  0.90012180  0.15428925  0.84571075  1
  F  F136  1  0.65428925  0.59987820  0.15428925  1
  F  F137  1  0.34571075  0.59987820  0.84571075  1
  F  F138  1  0.65428925  0.40012180  0.84571075  1
  F  F139  1  0.34571075  0.40012180  0.15428925  1
  F  F140  1  0.15428925  0.65428925  0.59987820  1
  F  F141  1  0.84571075  0.34571075  0.59987820  1
  F  F142  1  0.84571075  0.65428925  0.40012180  1
  F  F143  1  0.15428925  0.34571075  0.40012180  1
  F  F144  1  0.59987820  0.65428925  0.15428925  1
  F  F145  1  0.59987820  0.34571075  0.84571075  1
  F  F146  1  0.40012180  0.34571075  0.15428925  1
  F  F147  1  0.40012180  0.65428925  0.84571075  1
  F  F148  1  0.15428925  0.09987820  0.15428925  1
  F  F149  1  0.84571075  0.09987820  0.84571075  1
  F  F150  1  0.15428925  0.90012180  0.84571075  1
  F  F151  1  0.84571075  0.90012180  0.15428925  1
  F  F152  1  0.15428925  0.15428925  0.09987820  1
  F  F153  1  0.84571075  0.84571075  0.09987820  1
  F  F154  1  0.84571075  0.15428925  0.90012180  1
  F  F155  1  0.15428925  0.84571075  0.90012180  1
  F  F156  1  0.59987820  0.15428925  0.65428925  1
  F  F157  1  0.59987820  0.84571075  0.34571075  1
  F  F158  1  0.40012180  0.84571075  0.65428925  1
  F  F159  1  0.40012180  0.15428925  0.34571075  1
  F  F160  1  0.15428925  0.59987820  0.65428925  1
  F  F161  1  0.84571075  0.59987820  0.34571075  1
  F  F162  1  0.15428925  0.40012180  0.34571075  1
  F  F163  1  0.84571075  0.40012180  0.65428925  1
  F  F164  1  0.97988406  0.25000000  0.25000000  1
  F  F165  1  0.02011594  0.75000000  0.25000000  1
  F  F166  1  0.25000000  0.97988406  0.25000000  1
  F  F167  1  0.25000000  0.02011594  0.75000000  1
  F  F168  1  0.25000000  0.25000000  0.97988406  1
  F  F169  1  0.75000000  0.25000000  0.02011594  1
  F  F170  1  0.97988406  0.75000000  0.75000000  1
  F  F171  1  0.02011594  0.25000000  0.75000000  1
  F  F172  1  0.25000000  0.47988406  0.75000000  1
  F  F173  1  0.25000000  0.52011594  0.25000000  1
  F  F174  1  0.25000000  0.75000000  0.47988406  1
  F  F175  1  0.75000000  0.75000000  0.52011594  1
  F  F176  1  0.47988406  0.25000000  0.75000000  1
  F  F177  1  0.52011594  0.75000000  0.75000000  1
  F  F178  1  0.75000000  0.97988406  0.75000000  1
  F  F179  1  0.75000000  0.02011594  0.25000000  1
  F  F180  1  0.75000000  0.25000000  0.47988406  1
  F  F181  1  0.25000000  0.25000000  0.52011594  1
  F  F182  1  0.47988406  0.75000000  0.25000000  1
  F  F183  1  0.52011594  0.25000000  0.25000000  1
  F  F184  1  0.75000000  0.47988406  0.25000000  1
  F  F185  1  0.75000000  0.52011594  0.75000000  1
  F  F186  1  0.75000000  0.75000000  0.97988406  1
  F  F187  1  0.25000000  0.75000000  0.02011594  1
  F  F188  1  0.25000000  0.25000000  0.25000000  1
  F  F189  1  0.25000000  0.75000000  0.75000000  1
  F  F190  1  0.75000000  0.25000000  0.75000000  1
  F  F191  1  0.75000000  0.75000000  0.25000000  1
  K  K192  1  0.36160984  0.25000000  0.25000000  1
  K  K193  1  0.63839016  0.75000000  0.25000000  1
  K  K194  1  0.25000000  0.36160984  0.25000000  1
  K  K195  1  0.25000000  0.63839016  0.75000000  1
  K  K196  1  0.25000000  0.25000000  0.36160984  1
  K  K197  1  0.75000000  0.25000000  0.63839016  1
  K  K198  1  0.36160984  0.75000000  0.75000000  1
  K  K199  1  0.63839016  0.25000000  0.75000000  1
  K  K200  1  0.25000000  0.86160984  0.75000000  1
  K  K201  1  0.25000000  0.13839016  0.25000000  1
  K  K202  1  0.25000000  0.75000000  0.86160984  1
  K  K203  1  0.75000000  0.75000000  0.13839016  1
  K  K204  1  0.86160984  0.25000000  0.75000000  1
  K  K205  1  0.13839016  0.75000000  0.75000000  1
  K  K206  1  0.75000000  0.36160984  0.75000000  1
  K  K207  1  0.75000000  0.63839016  0.25000000  1
  K  K208  1  0.75000000  0.25000000  0.86160984  1
  K  K209  1  0.25000000  0.25000000  0.13839016  1
  K  K210  1  0.86160984  0.75000000  0.25000000  1
  K  K211  1  0.13839016  0.25000000  0.25000000  1
  K  K212  1  0.75000000  0.86160984  0.25000000  1
  K  K213  1  0.75000000  0.13839016  0.75000000  1
  K  K214  1  0.75000000  0.75000000  0.36160984  1
  K  K215  1  0.25000000  0.75000000  0.63839016  1
  K  K216  1  0.34657473  0.00000000  0.00000000  1
  K  K217  1  0.65342527  0.00000000  0.00000000  1
  K  K218  1  0.00000000  0.34657473  0.00000000  1
  K  K219  1  0.00000000  0.65342527  0.00000000  1
  K  K220  1  0.00000000  0.00000000  0.34657473  1
  K  K221  1  0.00000000  0.00000000  0.65342527  1
  K  K222  1  0.34657473  0.50000000  0.50000000  1
  K  K223  1  0.65342527  0.50000000  0.50000000  1
  K  K224  1  0.00000000  0.84657473  0.50000000  1
  K  K225  1  0.00000000  0.15342527  0.50000000  1
  K  K226  1  0.00000000  0.50000000  0.84657473  1
  K  K227  1  0.00000000  0.50000000  0.15342527  1
  K  K228  1  0.84657473  0.00000000  0.50000000  1
  K  K229  1  0.15342527  0.00000000  0.50000000  1
  K  K230  1  0.50000000  0.34657473  0.50000000  1
  K  K231  1  0.50000000  0.65342527  0.50000000  1
  K  K232  1  0.50000000  0.00000000  0.84657473  1
  K  K233  1  0.50000000  0.00000000  0.15342527  1
  K  K234  1  0.84657473  0.50000000  0.00000000  1
  K  K235  1  0.15342527  0.50000000  0.00000000  1
  K  K236  1  0.50000000  0.84657473  0.00000000  1
  K  K237  1  0.50000000  0.15342527  0.00000000  1
  K  K238  1  0.50000000  0.50000000  0.34657473  1
  K  K239  1  0.50000000  0.50000000  0.65342527  1
  Li  Li240  1  0.58468419  0.58468419  0.30301154  1
  Li  Li241  1  0.41531581  0.41531581  0.30301154  1
  Li  Li242  1  0.41531581  0.58468419  0.69698846  1
  Li  Li243  1  0.58468419  0.41531581  0.69698846  1
  Li  Li244  1  0.30301154  0.58468419  0.58468419  1
  Li  Li245  1  0.30301154  0.41531581  0.41531581  1
  Li  Li246  1  0.69698846  0.41531581  0.58468419  1
  Li  Li247  1  0.69698846  0.58468419  0.41531581  1
  Li  Li248  1  0.58468419  0.30301154  0.58468419  1
  Li  Li249  1  0.41531581  0.30301154  0.41531581  1
  Li  Li250  1  0.58468419  0.69698846  0.41531581  1
  Li  Li251  1  0.41531581  0.69698846  0.58468419  1
  Li  Li252  1  0.58468419  0.08468419  0.80301154  1
  Li  Li253  1  0.41531581  0.91531581  0.80301154  1
  Li  Li254  1  0.41531581  0.08468419  0.19698846  1
  Li  Li255  1  0.58468419  0.91531581  0.19698846  1
  Li  Li256  1  0.30301154  0.08468419  0.08468419  1
  Li  Li257  1  0.30301154  0.91531581  0.91531581  1
  Li  Li258  1  0.69698846  0.91531581  0.08468419  1
  Li  Li259  1  0.69698846  0.08468419  0.91531581  1
  Li  Li260  1  0.58468419  0.80301154  0.08468419  1
  Li  Li261  1  0.41531581  0.80301154  0.91531581  1
  Li  Li262  1  0.58468419  0.19698846  0.91531581  1
  Li  Li263  1  0.41531581  0.19698846  0.08468419  1
  Li  Li264  1  0.08468419  0.58468419  0.80301154  1
  Li  Li265  1  0.91531581  0.41531581  0.80301154  1
  Li  Li266  1  0.91531581  0.58468419  0.19698846  1
  Li  Li267  1  0.08468419  0.41531581  0.19698846  1
  Li  Li268  1  0.80301154  0.58468419  0.08468419  1
  Li  Li269  1  0.80301154  0.41531581  0.91531581  1
  Li  Li270  1  0.19698846  0.41531581  0.08468419  1
  Li  Li271  1  0.19698846  0.58468419  0.91531581  1
  Li  Li272  1  0.08468419  0.30301154  0.08468419  1
  Li  Li273  1  0.91531581  0.30301154  0.91531581  1
  Li  Li274  1  0.08468419  0.69698846  0.91531581  1
  Li  Li275  1  0.91531581  0.69698846  0.08468419  1
  Li  Li276  1  0.08468419  0.08468419  0.30301154  1
  Li  Li277  1  0.91531581  0.91531581  0.30301154  1
  Li  Li278  1  0.91531581  0.08468419  0.69698846  1
  Li  Li279  1  0.08468419  0.91531581  0.69698846  1
  Li  Li280  1  0.80301154  0.08468419  0.58468419  1
  Li  Li281  1  0.80301154  0.91531581  0.41531581  1
  Li  Li282  1  0.19698846  0.91531581  0.58468419  1
  Li  Li283  1  0.19698846  0.08468419  0.41531581  1
  Li  Li284  1  0.08468419  0.80301154  0.58468419  1
  Li  Li285  1  0.91531581  0.80301154  0.41531581  1
  Li  Li286  1  0.08468419  0.19698846  0.41531581  1
  Li  Li287  1  0.91531581  0.19698846  0.58468419  1
  Li  Li288  1  0.89410453  0.97824271  0.83266449  1
  Li  Li289  1  -0.89410453  -0.97824271  0.83266449  1
  Li  Li290  1  -0.89410453  0.97824271  -0.83266449  1
  Li  Li291  1  0.89410453  -0.97824271  -0.83266449  1
  Li  Li292  1  0.83266449  0.89410453  0.97824271  1
  Li  Li293  1  0.83266449  -0.89410453  -0.97824271  1
  Li  Li294  1  -0.83266449  -0.89410453  0.97824271  1
  Li  Li295  1  -0.83266449  0.89410453  -0.97824271  1
  Li  Li296  1  0.97824271  0.83266449  0.89410453  1
  Li  Li297  1  -0.97824271  0.83266449  -0.89410453  1
  Li  Li298  1  0.97824271  -0.83266449  -0.89410453  1
  Li  Li299  1  -0.97824271  -0.83266449  0.89410453  1
  Li  Li300  1  0.97824271  0.89410453  0.83266449  1
  Li  Li301  1  -0.97824271  -0.89410453  0.83266449  1
  Li  Li302  1  0.97824271  -0.89410453  -0.83266449  1
  Li  Li303  1  -0.97824271  0.89410453  -0.83266449  1
  Li  Li304  1  0.89410453  0.83266449  0.97824271  1
  Li  Li305  1  -0.89410453  0.83266449  -0.97824271  1
  Li  Li306  1  -0.89410453  -0.83266449  0.97824271  1
  Li  Li307  1  0.89410453  -0.83266449  -0.97824271  1
  Li  Li308  1  0.83266449  0.97824271  0.89410453  1
  Li  Li309  1  0.83266449  -0.97824271  -0.89410453  1
  Li  Li310  1  -0.83266449  0.97824271  -0.89410453  1
  Li  Li311  1  -0.83266449  -0.97824271  0.89410453  1
  Li  Li312  1  0.89410453  1.47824271  1.33266449  1
  Li  Li313  1  -0.89410453  -0.47824271  1.33266449  1
  Li  Li314  1  -0.89410453  1.47824271  -0.33266449  1
  Li  Li315  1  0.89410453  -0.47824271  -0.33266449  1
  Li  Li316  1  0.83266449  1.39410453  1.47824271  1
  Li  Li317  1  0.83266449  -0.39410453  -0.47824271  1
  Li  Li318  1  -0.83266449  -0.39410453  1.47824271  1
  Li  Li319  1  -0.83266449  1.39410453  -0.47824271  1
  Li  Li320  1  0.97824271  1.33266449  1.39410453  1
  Li  Li321  1  -0.97824271  1.33266449  -0.39410453  1
  Li  Li322  1  0.97824271  -0.33266449  -0.39410453  1
  Li  Li323  1  -0.97824271  -0.33266449  1.39410453  1
  Li  Li324  1  0.97824271  1.39410453  1.33266449  1
  Li  Li325  1  -0.97824271  -0.39410453  1.33266449  1
  Li  Li326  1  0.97824271  -0.39410453  -0.33266449  1
  Li  Li327  1  -0.97824271  1.39410453  -0.33266449  1
  Li  Li328  1  0.89410453  1.33266449  1.47824271  1
  Li  Li329  1  -0.89410453  1.33266449  -0.47824271  1
  Li  Li330  1  -0.89410453  -0.33266449  1.47824271  1
  Li  Li331  1  0.89410453  -0.33266449  -0.47824271  1
  Li  Li332  1  0.83266449  1.47824271  1.39410453  1
  Li  Li333  1  0.83266449  -0.47824271  -0.39410453  1
  Li  Li334  1  -0.83266449  1.47824271  -0.39410453  1
  Li  Li335  1  -0.83266449  -0.47824271  1.39410453  1
  Li  Li336  1  1.39410453  0.97824271  1.33266449  1
  Li  Li337  1  -0.39410453  -0.97824271  1.33266449  1
  Li  Li338  1  -0.39410453  0.97824271  -0.33266449  1
  Li  Li339  1  1.39410453  -0.97824271  -0.33266449  1
  Li  Li340  1  1.33266449  0.89410453  1.47824271  1
  Li  Li341  1  1.33266449  -0.89410453  -0.47824271  1
  Li  Li342  1  -0.33266449  -0.89410453  1.47824271  1
  Li  Li343  1  -0.33266449  0.89410453  -0.47824271  1
  Li  Li344  1  1.47824271  0.83266449  1.39410453  1
  Li  Li345  1  -0.47824271  0.83266449  -0.39410453  1
  Li  Li346  1  1.47824271  -0.83266449  -0.39410453  1
  Li  Li347  1  -0.47824271  -0.83266449  1.39410453  1
  Li  Li348  1  1.47824271  0.89410453  1.33266449  1
  Li  Li349  1  -0.47824271  -0.89410453  1.33266449  1
  Li  Li350  1  1.47824271  -0.89410453  -0.33266449  1
  Li  Li351  1  -0.47824271  0.89410453  -0.33266449  1
  Li  Li352  1  1.39410453  0.83266449  1.47824271  1
  Li  Li353  1  -0.39410453  0.83266449  -0.47824271  1
  Li  Li354  1  -0.39410453  -0.83266449  1.47824271  1
  Li  Li355  1  1.39410453  -0.83266449  -0.47824271  1
  Li  Li356  1  1.33266449  0.97824271  1.39410453  1
  Li  Li357  1  1.33266449  -0.97824271  -0.39410453  1
  Li  Li358  1  -0.33266449  0.97824271  -0.39410453  1
  Li  Li359  1  -0.33266449  -0.97824271  1.39410453  1
  Li  Li360  1  1.39410453  1.47824271  0.83266449  1
  Li  Li361  1  -0.39410453  -0.47824271  0.83266449  1
  Li  Li362  1  -0.39410453  1.47824271  -0.83266449  1
  Li  Li363  1  1.39410453  -0.47824271  -0.83266449  1
  Li  Li364  1  1.33266449  1.39410453  0.97824271  1
  Li  Li365  1  1.33266449  -0.39410453  -0.97824271  1
  Li  Li366  1  -0.33266449  -0.39410453  0.97824271  1
  Li  Li367  1  -0.33266449  1.39410453  -0.97824271  1
  Li  Li368  1  1.47824271  1.33266449  0.89410453  1
  Li  Li369  1  -0.47824271  1.33266449  -0.89410453  1
  Li  Li370  1  1.47824271  -0.33266449  -0.89410453  1
  Li  Li371  1  -0.47824271  -0.33266449  0.89410453  1
  Li  Li372  1  1.47824271  1.39410453  0.83266449  1
  Li  Li373  1  -0.47824271  -0.39410453  0.83266449  1
  Li  Li374  1  1.47824271  -0.39410453  -0.83266449  1
  Li  Li375  1  -0.47824271  1.39410453  -0.83266449  1
  Li  Li376  1  1.39410453  1.33266449  0.97824271  1
  Li  Li377  1  -0.39410453  1.33266449  -0.97824271  1
  Li  Li378  1  -0.39410453  -0.33266449  0.97824271  1
  Li  Li379  1  1.39410453  -0.33266449  -0.97824271  1
  Li  Li380  1  1.33266449  1.47824271  0.89410453  1
  Li  Li381  1  1.33266449  -0.47824271  -0.89410453  1
  Li  Li382  1  -0.33266449  1.47824271  -0.89410453  1
  Li  Li383  1  -0.33266449  -0.47824271  0.89410453  1
  Sn  Sn384  1  0.50000000  0.50000000  0.50000000  1
  Sn  Sn385  1  0.50000000  0.00000000  0.00000000  1
  Sn  Sn386  1  0.00000000  0.50000000  0.00000000  1
  Sn  Sn387  1  0.00000000  0.00000000  0.50000000  1
  Sn  Sn388  1  0.75000000  0.75000000  0.75000000  1
  Sn  Sn389  1  0.75000000  0.25000000  0.25000000  1
  Sn  Sn390  1  0.25000000  0.75000000  0.25000000  1
  Sn  Sn391  1  0.25000000  0.25000000  0.75000000  1
  Te  Te392  1  0.35501228  0.35501228  0.35501228  1
  Te  Te393  1  0.64498772  0.64498772  0.35501228  1
  Te  Te394  1  0.64498772  0.35501228  0.64498772  1
  Te  Te395  1  0.35501228  0.64498772  0.64498772  1
  Te  Te396  1  0.35501228  0.85501228  0.85501228  1
  Te  Te397  1  0.64498772  0.14498772  0.85501228  1
  Te  Te398  1  0.64498772  0.85501228  0.14498772  1
  Te  Te399  1  0.35501228  0.14498772  0.14498772  1
  Te  Te400  1  0.85501228  0.35501228  0.85501228  1
  Te  Te401  1  0.14498772  0.64498772  0.85501228  1
  Te  Te402  1  0.14498772  0.35501228  0.14498772  1
  Te  Te403  1  0.85501228  0.64498772  0.14498772  1
  Te  Te404  1  0.85501228  0.85501228  0.35501228  1
  Te  Te405  1  0.14498772  0.14498772  0.35501228  1
  Te  Te406  1  0.14498772  0.85501228  0.64498772  1
  Te  Te407  1  0.85501228  0.14498772  0.64498772  1
