# generated using pymatgen
data_CaHf(ClF2)2
_symmetry_space_group_name_H-M   'P 1'
_cell_length_a   10.24257674
_cell_length_b   10.24257674
_cell_length_c   9.31270925
_cell_angle_alpha   90.00000000
_cell_angle_beta   90.00000000
_cell_angle_gamma   120.00000000
_symmetry_Int_Tables_number   1
_chemical_formula_structural   CaHf(ClF2)2
_chemical_formula_sum   'Ca6 Hf6 Cl12 F24'
_cell_volume   846.10668976
_cell_formula_units_Z   6
loop_
 _symmetry_equiv_pos_site_id
 _symmetry_equiv_pos_as_xyz
  1  'x, y, z'
loop_
 _atom_site_type_symbol
 _atom_site_label
 _atom_site_symmetry_multiplicity
 _atom_site_fract_x
 _atom_site_fract_y
 _atom_site_fract_z
 _atom_site_occupancy
  Ca  Ca0  1  0.21984071  0.43968143  0.25000000  1
  Ca  Ca1  1  0.56031857  0.78015929  0.25000000  1
  Ca  Ca2  1  0.21984071  0.78015929  0.25000000  1
  Ca  Ca3  1  0.78015929  0.56031857  0.75000000  1
  Ca  Ca4  1  0.43968143  0.21984071  0.75000000  1
  Ca  Ca5  1  0.78015929  0.21984071  0.75000000  1
  Cl  Cl6  1  0.25964543  0.00000000  0.00000000  1
  Cl  Cl7  1  0.00000000  0.25964543  0.00000000  1
  Cl  Cl8  1  0.74035457  0.74035457  -0.00000000  1
  Cl  Cl9  1  0.74035457  0.00000000  0.50000000  1
  Cl  Cl10  1  0.00000000  0.74035457  0.50000000  1
  Cl  Cl11  1  0.25964543  0.25964543  0.50000000  1
  Cl  Cl12  1  0.74035457  0.00000000  -0.00000000  1
  Cl  Cl13  1  0.00000000  0.74035457  -0.00000000  1
  Cl  Cl14  1  0.25964543  0.25964543  0.00000000  1
  Cl  Cl15  1  0.25964543  0.00000000  0.50000000  1
  Cl  Cl16  1  0.00000000  0.25964543  0.50000000  1
  Cl  Cl17  1  0.74035457  0.74035457  0.50000000  1
  F  F18  1  0.17422062  0.34844124  0.39106696  1
  F  F19  1  -0.34844124  -0.17422062  0.39106696  1
  F  F20  1  0.17422062  -0.17422062  0.39106696  1
  F  F21  1  -0.17422062  -0.34844124  0.89106696  1
  F  F22  1  0.34844124  0.17422062  0.89106696  1
  F  F23  1  -0.17422062  0.17422062  0.89106696  1
  F  F24  1  0.34844124  0.17422062  -0.39106696  1
  F  F25  1  -0.17422062  -0.34844124  -0.39106696  1
  F  F26  1  -0.17422062  0.17422062  -0.39106696  1
  F  F27  1  -0.34844124  -0.17422062  0.10893304  1
  F  F28  1  0.17422062  0.34844124  0.10893304  1
  F  F29  1  0.17422062  -0.17422062  0.10893304  1
  F  F30  1  0.33333333  0.66666667  0.96013311  1
  F  F31  1  0.66666667  0.33333333  0.46013311  1
  F  F32  1  0.66666667  0.33333333  0.03986689  1
  F  F33  1  0.33333333  0.66666667  0.53986689  1
  F  F34  1  0.07377150  0.14754299  0.25000000  1
  F  F35  1  0.85245701  0.92622850  0.25000000  1
  F  F36  1  0.07377150  0.92622850  0.25000000  1
  F  F37  1  0.92622850  0.85245701  0.75000000  1
  F  F38  1  0.14754299  0.07377150  0.75000000  1
  F  F39  1  0.92622850  0.07377150  0.75000000  1
  F  F40  1  0.00000000  0.00000000  0.00000000  1
  F  F41  1  0.00000000  0.00000000  0.50000000  1
  Hf  Hf42  1  0.50000000  -0.00000000  0.00000000  1
  Hf  Hf43  1  0.00000000  0.50000000  0.00000000  1
  Hf  Hf44  1  0.50000000  0.50000000  0.00000000  1
  Hf  Hf45  1  0.50000000  -0.00000000  0.50000000  1
  Hf  Hf46  1  0.00000000  0.50000000  0.50000000  1
  Hf  Hf47  1  0.50000000  0.50000000  0.50000000  1
