# generated using pymatgen
data_Sr2SnS4
_symmetry_space_group_name_H-M   'P 1'
_cell_length_a   19.05341700
_cell_length_b   19.05341700
_cell_length_c   19.05341700
_cell_angle_alpha   90.00000000
_cell_angle_beta   90.00000000
_cell_angle_gamma   90.00000000
_symmetry_Int_Tables_number   1
_chemical_formula_structural   Sr2SnS4
_chemical_formula_sum   'Sr96 Sn48 S192'
_cell_volume   6917.01340357
_cell_formula_units_Z   48
loop_
 _symmetry_equiv_pos_site_id
 _symmetry_equiv_pos_as_xyz
  1  'x, y, z'
loop_
 _atom_site_type_symbol
 _atom_site_label
 _atom_site_symmetry_multiplicity
 _atom_site_fract_x
 _atom_site_fract_y
 _atom_site_fract_z
 _atom_site_occupancy
  S  S0  1  0.18755190  0.23757266  0.38067819  1
  S  S1  1  -0.18755190  -0.23757266  0.38067819  1
  S  S2  1  -0.18755190  0.23757266  -0.38067819  1
  S  S3  1  0.18755190  -0.23757266  -0.38067819  1
  S  S4  1  0.38067819  0.18755190  0.23757266  1
  S  S5  1  0.38067819  -0.18755190  -0.23757266  1
  S  S6  1  -0.38067819  -0.18755190  0.23757266  1
  S  S7  1  -0.38067819  0.18755190  -0.23757266  1
  S  S8  1  0.23757266  0.38067819  0.18755190  1
  S  S9  1  -0.23757266  0.38067819  -0.18755190  1
  S  S10  1  0.23757266  -0.38067819  -0.18755190  1
  S  S11  1  -0.23757266  -0.38067819  0.18755190  1
  S  S12  1  0.23757266  0.18755190  0.38067819  1
  S  S13  1  -0.23757266  -0.18755190  0.38067819  1
  S  S14  1  0.23757266  -0.18755190  -0.38067819  1
  S  S15  1  -0.23757266  0.18755190  -0.38067819  1
  S  S16  1  0.18755190  0.38067819  0.23757266  1
  S  S17  1  -0.18755190  0.38067819  -0.23757266  1
  S  S18  1  -0.18755190  -0.38067819  0.23757266  1
  S  S19  1  0.18755190  -0.38067819  -0.23757266  1
  S  S20  1  0.38067819  0.23757266  0.18755190  1
  S  S21  1  0.38067819  -0.23757266  -0.18755190  1
  S  S22  1  -0.38067819  0.23757266  -0.18755190  1
  S  S23  1  -0.38067819  -0.23757266  0.18755190  1
  S  S24  1  0.18755190  0.73757266  0.88067819  1
  S  S25  1  -0.18755190  0.26242734  0.88067819  1
  S  S26  1  -0.18755190  0.73757266  0.11932181  1
  S  S27  1  0.18755190  0.26242734  0.11932181  1
  S  S28  1  0.38067819  0.68755190  0.73757266  1
  S  S29  1  0.38067819  0.31244810  0.26242734  1
  S  S30  1  -0.38067819  0.31244810  0.73757266  1
  S  S31  1  -0.38067819  0.68755190  0.26242734  1
  S  S32  1  0.23757266  0.88067819  0.68755190  1
  S  S33  1  -0.23757266  0.88067819  0.31244810  1
  S  S34  1  0.23757266  0.11932181  0.31244810  1
  S  S35  1  -0.23757266  0.11932181  0.68755190  1
  S  S36  1  0.23757266  0.68755190  0.88067819  1
  S  S37  1  -0.23757266  0.31244810  0.88067819  1
  S  S38  1  0.23757266  0.31244810  0.11932181  1
  S  S39  1  -0.23757266  0.68755190  0.11932181  1
  S  S40  1  0.18755190  0.88067819  0.73757266  1
  S  S41  1  -0.18755190  0.88067819  0.26242734  1
  S  S42  1  -0.18755190  0.11932181  0.73757266  1
  S  S43  1  0.18755190  0.11932181  0.26242734  1
  S  S44  1  0.38067819  0.73757266  0.68755190  1
  S  S45  1  0.38067819  0.26242734  0.31244810  1
  S  S46  1  -0.38067819  0.73757266  0.31244810  1
  S  S47  1  -0.38067819  0.26242734  0.68755190  1
  S  S48  1  0.68755190  0.23757266  0.88067819  1
  S  S49  1  0.31244810  -0.23757266  0.88067819  1
  S  S50  1  0.31244810  0.23757266  0.11932181  1
  S  S51  1  0.68755190  -0.23757266  0.11932181  1
  S  S52  1  0.88067819  0.18755190  0.73757266  1
  S  S53  1  0.88067819  -0.18755190  0.26242734  1
  S  S54  1  0.11932181  -0.18755190  0.73757266  1
  S  S55  1  0.11932181  0.18755190  0.26242734  1
  S  S56  1  0.73757266  0.38067819  0.68755190  1
  S  S57  1  0.26242734  0.38067819  0.31244810  1
  S  S58  1  0.73757266  -0.38067819  0.31244810  1
  S  S59  1  0.26242734  -0.38067819  0.68755190  1
  S  S60  1  0.73757266  0.18755190  0.88067819  1
  S  S61  1  0.26242734  -0.18755190  0.88067819  1
  S  S62  1  0.73757266  -0.18755190  0.11932181  1
  S  S63  1  0.26242734  0.18755190  0.11932181  1
  S  S64  1  0.68755190  0.38067819  0.73757266  1
  S  S65  1  0.31244810  0.38067819  0.26242734  1
  S  S66  1  0.31244810  -0.38067819  0.73757266  1
  S  S67  1  0.68755190  -0.38067819  0.26242734  1
  S  S68  1  0.88067819  0.23757266  0.68755190  1
  S  S69  1  0.88067819  -0.23757266  0.31244810  1
  S  S70  1  0.11932181  0.23757266  0.31244810  1
  S  S71  1  0.11932181  -0.23757266  0.68755190  1
  S  S72  1  0.68755190  0.73757266  0.38067819  1
  S  S73  1  0.31244810  0.26242734  0.38067819  1
  S  S74  1  0.31244810  0.73757266  -0.38067819  1
  S  S75  1  0.68755190  0.26242734  -0.38067819  1
  S  S76  1  0.88067819  0.68755190  0.23757266  1
  S  S77  1  0.88067819  0.31244810  -0.23757266  1
  S  S78  1  0.11932181  0.31244810  0.23757266  1
  S  S79  1  0.11932181  0.68755190  -0.23757266  1
  S  S80  1  0.73757266  0.88067819  0.18755190  1
  S  S81  1  0.26242734  0.88067819  -0.18755190  1
  S  S82  1  0.73757266  0.11932181  -0.18755190  1
  S  S83  1  0.26242734  0.11932181  0.18755190  1
  S  S84  1  0.73757266  0.68755190  0.38067819  1
  S  S85  1  0.26242734  0.31244810  0.38067819  1
  S  S86  1  0.73757266  0.31244810  -0.38067819  1
  S  S87  1  0.26242734  0.68755190  -0.38067819  1
  S  S88  1  0.68755190  0.88067819  0.23757266  1
  S  S89  1  0.31244810  0.88067819  -0.23757266  1
  S  S90  1  0.31244810  0.11932181  0.23757266  1
  S  S91  1  0.68755190  0.11932181  -0.23757266  1
  S  S92  1  0.88067819  0.73757266  0.18755190  1
  S  S93  1  0.88067819  0.26242734  -0.18755190  1
  S  S94  1  0.11932181  0.73757266  -0.18755190  1
  S  S95  1  0.11932181  0.26242734  0.18755190  1
  S  S96  1  0.32274599  0.45948607  0.39377794  1
  S  S97  1  0.67725401  0.54051393  0.39377794  1
  S  S98  1  0.67725401  0.45948607  0.60622206  1
  S  S99  1  0.32274599  0.54051393  0.60622206  1
  S  S100  1  0.39377794  0.32274599  0.45948607  1
  S  S101  1  0.39377794  0.67725401  0.54051393  1
  S  S102  1  0.60622206  0.67725401  0.45948607  1
  S  S103  1  0.60622206  0.32274599  0.54051393  1
  S  S104  1  0.45948607  0.39377794  0.32274599  1
  S  S105  1  0.54051393  0.39377794  0.67725401  1
  S  S106  1  0.45948607  0.60622206  0.67725401  1
  S  S107  1  0.54051393  0.60622206  0.32274599  1
  S  S108  1  0.45948607  0.32274599  0.39377794  1
  S  S109  1  0.54051393  0.67725401  0.39377794  1
  S  S110  1  0.45948607  0.67725401  0.60622206  1
  S  S111  1  0.54051393  0.32274599  0.60622206  1
  S  S112  1  0.32274599  0.39377794  0.45948607  1
  S  S113  1  0.67725401  0.39377794  0.54051393  1
  S  S114  1  0.67725401  0.60622206  0.45948607  1
  S  S115  1  0.32274599  0.60622206  0.54051393  1
  S  S116  1  0.39377794  0.45948607  0.32274599  1
  S  S117  1  0.39377794  0.54051393  0.67725401  1
  S  S118  1  0.60622206  0.45948607  0.67725401  1
  S  S119  1  0.60622206  0.54051393  0.32274599  1
  S  S120  1  0.32274599  0.95948607  0.89377794  1
  S  S121  1  0.67725401  0.04051393  0.89377794  1
  S  S122  1  0.67725401  0.95948607  0.10622206  1
  S  S123  1  0.32274599  0.04051393  0.10622206  1
  S  S124  1  0.39377794  0.82274599  0.95948607  1
  S  S125  1  0.39377794  0.17725401  0.04051393  1
  S  S126  1  0.60622206  0.17725401  0.95948607  1
  S  S127  1  0.60622206  0.82274599  0.04051393  1
  S  S128  1  0.45948607  0.89377794  0.82274599  1
  S  S129  1  0.54051393  0.89377794  0.17725401  1
  S  S130  1  0.45948607  0.10622206  0.17725401  1
  S  S131  1  0.54051393  0.10622206  0.82274599  1
  S  S132  1  0.45948607  0.82274599  0.89377794  1
  S  S133  1  0.54051393  0.17725401  0.89377794  1
  S  S134  1  0.45948607  0.17725401  0.10622206  1
  S  S135  1  0.54051393  0.82274599  0.10622206  1
  S  S136  1  0.32274599  0.89377794  0.95948607  1
  S  S137  1  0.67725401  0.89377794  0.04051393  1
  S  S138  1  0.67725401  0.10622206  0.95948607  1
  S  S139  1  0.32274599  0.10622206  0.04051393  1
  S  S140  1  0.39377794  0.95948607  0.82274599  1
  S  S141  1  0.39377794  0.04051393  0.17725401  1
  S  S142  1  0.60622206  0.95948607  0.17725401  1
  S  S143  1  0.60622206  0.04051393  0.82274599  1
  S  S144  1  0.82274599  0.45948607  0.89377794  1
  S  S145  1  0.17725401  0.54051393  0.89377794  1
  S  S146  1  0.17725401  0.45948607  0.10622206  1
  S  S147  1  0.82274599  0.54051393  0.10622206  1
  S  S148  1  0.89377794  0.32274599  0.95948607  1
  S  S149  1  0.89377794  0.67725401  0.04051393  1
  S  S150  1  0.10622206  0.67725401  0.95948607  1
  S  S151  1  0.10622206  0.32274599  0.04051393  1
  S  S152  1  0.95948607  0.39377794  0.82274599  1
  S  S153  1  0.04051393  0.39377794  0.17725401  1
  S  S154  1  0.95948607  0.60622206  0.17725401  1
  S  S155  1  0.04051393  0.60622206  0.82274599  1
  S  S156  1  0.95948607  0.32274599  0.89377794  1
  S  S157  1  0.04051393  0.67725401  0.89377794  1
  S  S158  1  0.95948607  0.67725401  0.10622206  1
  S  S159  1  0.04051393  0.32274599  0.10622206  1
  S  S160  1  0.82274599  0.39377794  0.95948607  1
  S  S161  1  0.17725401  0.39377794  0.04051393  1
  S  S162  1  0.17725401  0.60622206  0.95948607  1
  S  S163  1  0.82274599  0.60622206  0.04051393  1
  S  S164  1  0.89377794  0.45948607  0.82274599  1
  S  S165  1  0.89377794  0.54051393  0.17725401  1
  S  S166  1  0.10622206  0.45948607  0.17725401  1
  S  S167  1  0.10622206  0.54051393  0.82274599  1
  S  S168  1  0.82274599  0.95948607  0.39377794  1
  S  S169  1  0.17725401  0.04051393  0.39377794  1
  S  S170  1  0.17725401  0.95948607  0.60622206  1
  S  S171  1  0.82274599  0.04051393  0.60622206  1
  S  S172  1  0.89377794  0.82274599  0.45948607  1
  S  S173  1  0.89377794  0.17725401  0.54051393  1
  S  S174  1  0.10622206  0.17725401  0.45948607  1
  S  S175  1  0.10622206  0.82274599  0.54051393  1
  S  S176  1  0.95948607  0.89377794  0.32274599  1
  S  S177  1  0.04051393  0.89377794  0.67725401  1
  S  S178  1  0.95948607  0.10622206  0.67725401  1
  S  S179  1  0.04051393  0.10622206  0.32274599  1
  S  S180  1  0.95948607  0.82274599  0.39377794  1
  S  S181  1  0.04051393  0.17725401  0.39377794  1
  S  S182  1  0.95948607  0.17725401  0.60622206  1
  S  S183  1  0.04051393  0.82274599  0.60622206  1
  S  S184  1  0.82274599  0.89377794  0.45948607  1
  S  S185  1  0.17725401  0.89377794  0.54051393  1
  S  S186  1  0.17725401  0.10622206  0.45948607  1
  S  S187  1  0.82274599  0.10622206  0.54051393  1
  S  S188  1  0.89377794  0.95948607  0.32274599  1
  S  S189  1  0.89377794  0.04051393  0.67725401  1
  S  S190  1  0.10622206  0.95948607  0.67725401  1
  S  S191  1  0.10622206  0.04051393  0.32274599  1
  Sn  Sn192  1  0.73802906  0.00000000  0.00000000  1
  Sn  Sn193  1  0.26197094  0.00000000  0.00000000  1
  Sn  Sn194  1  0.00000000  0.73802906  0.00000000  1
  Sn  Sn195  1  0.00000000  0.26197094  0.00000000  1
  Sn  Sn196  1  0.00000000  0.00000000  0.73802906  1
  Sn  Sn197  1  0.00000000  0.00000000  0.26197094  1
  Sn  Sn198  1  0.73802906  0.50000000  0.50000000  1
  Sn  Sn199  1  0.26197094  0.50000000  0.50000000  1
  Sn  Sn200  1  0.00000000  0.23802906  0.50000000  1
  Sn  Sn201  1  0.00000000  0.76197094  0.50000000  1
  Sn  Sn202  1  0.00000000  0.50000000  0.23802906  1
  Sn  Sn203  1  0.00000000  0.50000000  0.76197094  1
  Sn  Sn204  1  0.23802906  -0.00000000  0.50000000  1
  Sn  Sn205  1  0.76197094  -0.00000000  0.50000000  1
  Sn  Sn206  1  0.50000000  0.73802906  0.50000000  1
  Sn  Sn207  1  0.50000000  0.26197094  0.50000000  1
  Sn  Sn208  1  0.50000000  0.00000000  0.23802906  1
  Sn  Sn209  1  0.50000000  0.00000000  0.76197094  1
  Sn  Sn210  1  0.23802906  0.50000000  -0.00000000  1
  Sn  Sn211  1  0.76197094  0.50000000  0.00000000  1
  Sn  Sn212  1  0.50000000  0.23802906  -0.00000000  1
  Sn  Sn213  1  0.50000000  0.76197094  0.00000000  1
  Sn  Sn214  1  0.50000000  0.50000000  0.73802906  1
  Sn  Sn215  1  0.50000000  0.50000000  0.26197094  1
  Sn  Sn216  1  0.38551042  -0.00000000  -0.00000000  1
  Sn  Sn217  1  0.61448958  0.00000000  0.00000000  1
  Sn  Sn218  1  0.00000000  0.38551042  -0.00000000  1
  Sn  Sn219  1  0.00000000  0.61448958  0.00000000  1
  Sn  Sn220  1  0.00000000  0.00000000  0.38551042  1
  Sn  Sn221  1  0.00000000  0.00000000  0.61448958  1
  Sn  Sn222  1  0.38551042  0.50000000  0.50000000  1
  Sn  Sn223  1  0.61448958  0.50000000  0.50000000  1
  Sn  Sn224  1  0.00000000  0.88551042  0.50000000  1
  Sn  Sn225  1  0.00000000  0.11448958  0.50000000  1
  Sn  Sn226  1  0.00000000  0.50000000  0.88551042  1
  Sn  Sn227  1  0.00000000  0.50000000  0.11448958  1
  Sn  Sn228  1  0.88551042  0.00000000  0.50000000  1
  Sn  Sn229  1  0.11448958  0.00000000  0.50000000  1
  Sn  Sn230  1  0.50000000  0.38551042  0.50000000  1
  Sn  Sn231  1  0.50000000  0.61448958  0.50000000  1
  Sn  Sn232  1  0.50000000  0.00000000  0.88551042  1
  Sn  Sn233  1  0.50000000  0.00000000  0.11448958  1
  Sn  Sn234  1  0.88551042  0.50000000  0.00000000  1
  Sn  Sn235  1  0.11448958  0.50000000  -0.00000000  1
  Sn  Sn236  1  0.50000000  0.88551042  0.00000000  1
  Sn  Sn237  1  0.50000000  0.11448958  -0.00000000  1
  Sn  Sn238  1  0.50000000  0.50000000  0.38551042  1
  Sn  Sn239  1  0.50000000  0.50000000  0.61448958  1
  Sr  Sr240  1  0.06219672  0.25000000  0.25000000  1
  Sr  Sr241  1  0.93780328  0.75000000  0.25000000  1
  Sr  Sr242  1  0.25000000  0.06219672  0.25000000  1
  Sr  Sr243  1  0.25000000  0.93780328  0.75000000  1
  Sr  Sr244  1  0.25000000  0.25000000  0.06219672  1
  Sr  Sr245  1  0.75000000  0.25000000  0.93780328  1
  Sr  Sr246  1  0.06219672  0.75000000  0.75000000  1
  Sr  Sr247  1  0.93780328  0.25000000  0.75000000  1
  Sr  Sr248  1  0.25000000  0.56219672  0.75000000  1
  Sr  Sr249  1  0.25000000  0.43780328  0.25000000  1
  Sr  Sr250  1  0.25000000  0.75000000  0.56219672  1
  Sr  Sr251  1  0.75000000  0.75000000  0.43780328  1
  Sr  Sr252  1  0.56219672  0.25000000  0.75000000  1
  Sr  Sr253  1  0.43780328  0.75000000  0.75000000  1
  Sr  Sr254  1  0.75000000  0.06219672  0.75000000  1
  Sr  Sr255  1  0.75000000  0.93780328  0.25000000  1
  Sr  Sr256  1  0.75000000  0.25000000  0.56219672  1
  Sr  Sr257  1  0.25000000  0.25000000  0.43780328  1
  Sr  Sr258  1  0.56219672  0.75000000  0.25000000  1
  Sr  Sr259  1  0.43780328  0.25000000  0.25000000  1
  Sr  Sr260  1  0.75000000  0.56219672  0.25000000  1
  Sr  Sr261  1  0.75000000  0.43780328  0.75000000  1
  Sr  Sr262  1  0.75000000  0.75000000  0.06219672  1
  Sr  Sr263  1  0.25000000  0.75000000  0.93780328  1
  Sr  Sr264  1  0.50000000  0.50000000  0.50000000  1
  Sr  Sr265  1  0.50000000  0.00000000  0.00000000  1
  Sr  Sr266  1  0.00000000  0.50000000  0.00000000  1
  Sr  Sr267  1  0.00000000  0.00000000  0.50000000  1
  Sr  Sr268  1  0.90162434  0.25000000  0.25000000  1
  Sr  Sr269  1  0.09837566  0.75000000  0.25000000  1
  Sr  Sr270  1  0.25000000  0.90162434  0.25000000  1
  Sr  Sr271  1  0.25000000  0.09837566  0.75000000  1
  Sr  Sr272  1  0.25000000  0.25000000  0.90162434  1
  Sr  Sr273  1  0.75000000  0.25000000  0.09837566  1
  Sr  Sr274  1  0.90162434  0.75000000  0.75000000  1
  Sr  Sr275  1  0.09837566  0.25000000  0.75000000  1
  Sr  Sr276  1  0.25000000  0.40162434  0.75000000  1
  Sr  Sr277  1  0.25000000  0.59837566  0.25000000  1
  Sr  Sr278  1  0.25000000  0.75000000  0.40162434  1
  Sr  Sr279  1  0.75000000  0.75000000  0.59837566  1
  Sr  Sr280  1  0.40162434  0.25000000  0.75000000  1
  Sr  Sr281  1  0.59837566  0.75000000  0.75000000  1
  Sr  Sr282  1  0.75000000  0.90162434  0.75000000  1
  Sr  Sr283  1  0.75000000  0.09837566  0.25000000  1
  Sr  Sr284  1  0.75000000  0.25000000  0.40162434  1
  Sr  Sr285  1  0.25000000  0.25000000  0.59837566  1
  Sr  Sr286  1  0.40162434  0.75000000  0.25000000  1
  Sr  Sr287  1  0.59837566  0.25000000  0.25000000  1
  Sr  Sr288  1  0.75000000  0.40162434  0.25000000  1
  Sr  Sr289  1  0.75000000  0.59837566  0.75000000  1
  Sr  Sr290  1  0.75000000  0.75000000  0.90162434  1
  Sr  Sr291  1  0.25000000  0.75000000  0.09837566  1
  Sr  Sr292  1  0.85851643  -0.00000000  -0.00000000  1
  Sr  Sr293  1  0.14148357  0.00000000  0.00000000  1
  Sr  Sr294  1  0.00000000  0.85851643  -0.00000000  1
  Sr  Sr295  1  0.00000000  0.14148357  0.00000000  1
  Sr  Sr296  1  0.00000000  0.00000000  0.85851643  1
  Sr  Sr297  1  0.00000000  0.00000000  0.14148357  1
  Sr  Sr298  1  0.85851643  0.50000000  0.50000000  1
  Sr  Sr299  1  0.14148357  0.50000000  0.50000000  1
  Sr  Sr300  1  0.00000000  0.35851643  0.50000000  1
  Sr  Sr301  1  0.00000000  0.64148357  0.50000000  1
  Sr  Sr302  1  0.00000000  0.50000000  0.35851643  1
  Sr  Sr303  1  0.00000000  0.50000000  0.64148357  1
  Sr  Sr304  1  0.35851643  0.00000000  0.50000000  1
  Sr  Sr305  1  0.64148357  -0.00000000  0.50000000  1
  Sr  Sr306  1  0.50000000  0.85851643  0.50000000  1
  Sr  Sr307  1  0.50000000  0.14148357  0.50000000  1
  Sr  Sr308  1  0.50000000  0.00000000  0.35851643  1
  Sr  Sr309  1  0.50000000  0.00000000  0.64148357  1
  Sr  Sr310  1  0.35851643  0.50000000  0.00000000  1
  Sr  Sr311  1  0.64148357  0.50000000  -0.00000000  1
  Sr  Sr312  1  0.50000000  0.35851643  -0.00000000  1
  Sr  Sr313  1  0.50000000  0.64148357  -0.00000000  1
  Sr  Sr314  1  0.50000000  0.50000000  0.85851643  1
  Sr  Sr315  1  0.50000000  0.50000000  0.14148357  1
  Sr  Sr316  1  0.81971406  0.81971406  0.81971406  1
  Sr  Sr317  1  0.18028594  0.18028594  0.81971406  1
  Sr  Sr318  1  0.18028594  0.81971406  0.18028594  1
  Sr  Sr319  1  0.81971406  0.18028594  0.18028594  1
  Sr  Sr320  1  0.81971406  0.31971406  0.31971406  1
  Sr  Sr321  1  0.18028594  0.68028594  0.31971406  1
  Sr  Sr322  1  0.18028594  0.31971406  0.68028594  1
  Sr  Sr323  1  0.81971406  0.68028594  0.68028594  1
  Sr  Sr324  1  0.31971406  0.81971406  0.31971406  1
  Sr  Sr325  1  0.68028594  0.18028594  0.31971406  1
  Sr  Sr326  1  0.68028594  0.81971406  0.68028594  1
  Sr  Sr327  1  0.31971406  0.18028594  0.68028594  1
  Sr  Sr328  1  0.31971406  0.31971406  0.81971406  1
  Sr  Sr329  1  0.68028594  0.68028594  0.81971406  1
  Sr  Sr330  1  0.68028594  0.31971406  0.18028594  1
  Sr  Sr331  1  0.31971406  0.68028594  0.18028594  1
  Sr  Sr332  1  0.25000000  0.25000000  0.25000000  1
  Sr  Sr333  1  0.25000000  0.75000000  0.75000000  1
  Sr  Sr334  1  0.75000000  0.25000000  0.75000000  1
  Sr  Sr335  1  0.75000000  0.75000000  0.25000000  1
