# generated using pymatgen
data_Li2Se
_symmetry_space_group_name_H-M   'P 1'
_cell_length_a   5.00714846
_cell_length_b   5.00714846
_cell_length_c   8.37820704
_cell_angle_alpha   90.00000000
_cell_angle_beta   90.00000000
_cell_angle_gamma   120.00000000
_symmetry_Int_Tables_number   1
_chemical_formula_structural   Li2Se
_chemical_formula_sum   'Li6 Se3'
_cell_volume   181.91254769
_cell_formula_units_Z   3
loop_
 _symmetry_equiv_pos_site_id
 _symmetry_equiv_pos_as_xyz
  1  'x, y, z'
loop_
 _atom_site_type_symbol
 _atom_site_label
 _atom_site_symmetry_multiplicity
 _atom_site_fract_x
 _atom_site_fract_y
 _atom_site_fract_z
 _atom_site_occupancy
  Li  Li0  1  0.33333333  0.66666667  0.00000000  1
  Li  Li1  1  0.00000000  0.00000000  0.18779180  1
  Li  Li2  1  0.00000000  0.00000000  0.81220820  1
  Li  Li3  1  0.16191923  -0.16191923  -0.00000000  1
  Li  Li4  1  0.16191923  0.32383846  -0.00000000  1
  Li  Li5  1  -0.32383846  -0.16191923  0.00000000  1
  Se  Se6  1  0.33333333  0.66666667  0.50000000  1
  Se  Se7  1  0.66666667  0.33333333  0.00000000  1
  Se  Se8  1  0.00000000  0.00000000  0.00000000  1
