# generated using pymatgen
data_LiB2I6Cl
_symmetry_space_group_name_H-M   'P 1'
_cell_length_a   7.21127107
_cell_length_b   5.52175137
_cell_length_c   12.81010566
_cell_angle_alpha   90.00000000
_cell_angle_beta   90.00000000
_cell_angle_gamma   90.00000000
_symmetry_Int_Tables_number   1
_chemical_formula_structural   LiB2I6Cl
_chemical_formula_sum   'Li4 B8 I24 Cl4'
_cell_volume   510.08362347
_cell_formula_units_Z   4
loop_
 _symmetry_equiv_pos_site_id
 _symmetry_equiv_pos_as_xyz
  1  'x, y, z'
loop_
 _atom_site_type_symbol
 _atom_site_label
 _atom_site_symmetry_multiplicity
 _atom_site_fract_x
 _atom_site_fract_y
 _atom_site_fract_z
 _atom_site_occupancy
  B  B0  1  0.61126855  0.16077847  0.92162311  1
  B  B1  1  -0.61126855  -0.16077847  0.92162311  1
  B  B2  1  -0.11126855  0.66077847  -0.92162311  1
  B  B3  1  1.11126855  0.33922153  -0.92162311  1
  B  B4  1  -0.61126855  -0.16077847  -0.92162311  1
  B  B5  1  0.61126855  0.16077847  -0.92162311  1
  B  B6  1  1.11126855  0.33922153  0.92162311  1
  B  B7  1  -0.11126855  0.66077847  0.92162311  1
  Cl  Cl8  1  0.67436423  0.19059266  0.50000000  1
  Cl  Cl9  1  0.32563577  0.80940734  0.50000000  1
  Cl  Cl10  1  0.82563577  0.69059266  0.50000000  1
  Cl  Cl11  1  0.17436423  0.30940734  0.50000000  1
  I  I12  1  0.00000000  0.00000000  0.40580413  1
  I  I13  1  0.50000000  0.50000000  0.59419587  1
  I  I14  1  0.00000000  0.00000000  0.59419587  1
  I  I15  1  0.50000000  0.50000000  0.40580413  1
  I  I16  1  0.91725892  0.36487881  0.25837013  1
  I  I17  1  0.08274108  0.63512119  0.25837013  1
  I  I18  1  0.58274108  0.86487881  0.74162987  1
  I  I19  1  0.41725892  0.13512119  0.74162987  1
  I  I20  1  0.08274108  0.63512119  0.74162987  1
  I  I21  1  0.91725892  0.36487881  0.74162987  1
  I  I22  1  0.41725892  0.13512119  0.25837013  1
  I  I23  1  0.58274108  0.86487881  0.25837013  1
  I  I24  1  0.00000000  0.00000000  0.17924912  1
  I  I25  1  0.50000000  0.50000000  0.82075088  1
  I  I26  1  0.00000000  0.00000000  0.82075088  1
  I  I27  1  0.50000000  0.50000000  0.17924912  1
  I  I28  1  0.90495765  0.41985817  0.59681977  1
  I  I29  1  0.09504235  0.58014183  0.59681977  1
  I  I30  1  0.59504235  0.91985817  0.40318023  1
  I  I31  1  0.40495765  0.08014183  0.40318023  1
  I  I32  1  0.09504235  0.58014183  0.40318023  1
  I  I33  1  0.90495765  0.41985817  0.40318023  1
  I  I34  1  0.40495765  0.08014183  0.59681977  1
  I  I35  1  0.59504235  0.91985817  0.59681977  1
  Li  Li36  1  0.08920504  0.77273040  0.00000000  1
  Li  Li37  1  0.91079496  0.22726960  -0.00000000  1
  Li  Li38  1  0.41079496  0.27273040  -0.00000000  1
  Li  Li39  1  0.58920504  0.72726960  0.00000000  1
