# generated using pymatgen
data_Li4Hf3(SBr2)4
_symmetry_space_group_name_H-M   'P 1'
_cell_length_a   24.07177175
_cell_length_b   24.07177175
_cell_length_c   3.62901649
_cell_angle_alpha   90.00000000
_cell_angle_beta   90.00000000
_cell_angle_gamma   90.00000000
_symmetry_Int_Tables_number   1
_chemical_formula_structural   Li4Hf3(SBr2)4
_chemical_formula_sum   'Li16 Hf12 S16 Br32'
_cell_volume   2102.83431600
_cell_formula_units_Z   4
loop_
 _symmetry_equiv_pos_site_id
 _symmetry_equiv_pos_as_xyz
  1  'x, y, z'
loop_
 _atom_site_type_symbol
 _atom_site_label
 _atom_site_symmetry_multiplicity
 _atom_site_fract_x
 _atom_site_fract_y
 _atom_site_fract_z
 _atom_site_occupancy
  Br  Br0  1  0.10010915  0.74203947  0.32563147  1
  Br  Br1  1  -0.10010915  -0.74203947  0.32563147  1
  Br  Br2  1  -0.74203947  0.10010915  0.32563147  1
  Br  Br3  1  0.74203947  -0.10010915  0.32563147  1
  Br  Br4  1  -0.10010915  0.74203947  -0.32563147  1
  Br  Br5  1  0.10010915  -0.74203947  -0.32563147  1
  Br  Br6  1  0.74203947  0.10010915  -0.32563147  1
  Br  Br7  1  -0.74203947  -0.10010915  -0.32563147  1
  Br  Br8  1  -0.10010915  -0.74203947  -0.32563147  1
  Br  Br9  1  0.10010915  0.74203947  -0.32563147  1
  Br  Br10  1  0.74203947  -0.10010915  -0.32563147  1
  Br  Br11  1  -0.74203947  0.10010915  -0.32563147  1
  Br  Br12  1  0.10010915  -0.74203947  0.32563147  1
  Br  Br13  1  -0.10010915  0.74203947  0.32563147  1
  Br  Br14  1  -0.74203947  -0.10010915  0.32563147  1
  Br  Br15  1  0.74203947  0.10010915  0.32563147  1
  Br  Br16  1  0.75778702  0.62397735  0.67012902  1
  Br  Br17  1  0.24221298  0.37602265  0.67012902  1
  Br  Br18  1  0.37602265  0.75778702  0.67012902  1
  Br  Br19  1  0.62397735  0.24221298  0.67012902  1
  Br  Br20  1  0.24221298  0.62397735  0.32987098  1
  Br  Br21  1  0.75778702  0.37602265  0.32987098  1
  Br  Br22  1  0.62397735  0.75778702  0.32987098  1
  Br  Br23  1  0.37602265  0.24221298  0.32987098  1
  Br  Br24  1  0.24221298  0.37602265  0.32987098  1
  Br  Br25  1  0.75778702  0.62397735  0.32987098  1
  Br  Br26  1  0.62397735  0.24221298  0.32987098  1
  Br  Br27  1  0.37602265  0.75778702  0.32987098  1
  Br  Br28  1  0.75778702  0.37602265  0.67012902  1
  Br  Br29  1  0.24221298  0.62397735  0.67012902  1
  Br  Br30  1  0.37602265  0.24221298  0.67012902  1
  Br  Br31  1  0.62397735  0.75778702  0.67012902  1
  Hf  Hf32  1  0.91587281  0.80502109  0.50000000  1
  Hf  Hf33  1  0.08412719  0.19497891  0.50000000  1
  Hf  Hf34  1  0.19497891  0.91587281  0.50000000  1
  Hf  Hf35  1  0.80502109  0.08412719  0.50000000  1
  Hf  Hf36  1  0.08412719  0.80502109  0.50000000  1
  Hf  Hf37  1  0.91587281  0.19497891  0.50000000  1
  Hf  Hf38  1  0.80502109  0.91587281  0.50000000  1
  Hf  Hf39  1  0.19497891  0.08412719  0.50000000  1
  Hf  Hf40  1  0.95045573  0.95045573  0.00000000  1
  Hf  Hf41  1  0.04954427  0.04954427  0.00000000  1
  Hf  Hf42  1  0.04954427  0.95045573  0.00000000  1
  Hf  Hf43  1  0.95045573  0.04954427  0.00000000  1
  Li  Li44  1  0.90876009  0.50000000  0.00000000  1
  Li  Li45  1  0.09123991  0.50000000  0.00000000  1
  Li  Li46  1  0.50000000  0.90876009  0.00000000  1
  Li  Li47  1  0.50000000  0.09123991  0.00000000  1
  Li  Li48  1  0.00000000  0.50000000  0.27514621  1
  Li  Li49  1  0.50000000  0.00000000  0.27514621  1
  Li  Li50  1  0.00000000  0.50000000  0.72485379  1
  Li  Li51  1  0.50000000  0.00000000  0.72485379  1
  Li  Li52  1  0.55693379  0.55693379  0.50000000  1
  Li  Li53  1  0.44306621  0.44306621  0.50000000  1
  Li  Li54  1  0.44306621  0.55693379  0.50000000  1
  Li  Li55  1  0.55693379  0.44306621  0.50000000  1
  Li  Li56  1  0.91211472  0.00000000  0.50000000  1
  Li  Li57  1  0.08788528  0.00000000  0.50000000  1
  Li  Li58  1  0.00000000  0.91211472  0.50000000  1
  Li  Li59  1  0.00000000  0.08788528  0.50000000  1
  S  S60  1  0.00000000  0.00000000  0.50000000  1
  S  S61  1  0.84124548  0.36158930  0.50000000  1
  S  S62  1  0.15875452  0.63841070  0.50000000  1
  S  S63  1  0.63841070  0.84124548  0.50000000  1
  S  S64  1  0.36158930  0.15875452  0.50000000  1
  S  S65  1  0.15875452  0.36158930  0.50000000  1
  S  S66  1  0.84124548  0.63841070  0.50000000  1
  S  S67  1  0.36158930  0.84124548  0.50000000  1
  S  S68  1  0.63841070  0.15875452  0.50000000  1
  S  S69  1  0.00000000  0.00000000  0.00000000  1
  S  S70  1  0.62735510  0.62735510  0.50000000  1
  S  S71  1  0.37264490  0.37264490  0.50000000  1
  S  S72  1  0.37264490  0.62735510  0.50000000  1
  S  S73  1  0.62735510  0.37264490  0.50000000  1
  S  S74  1  0.50000000  0.50000000  0.00000000  1
  S  S75  1  0.50000000  0.50000000  0.50000000  1
