# generated using pymatgen
data_LiLa3Nb2Si2SeCl4
_symmetry_space_group_name_H-M   'P 1'
_cell_length_a   12.01596472
_cell_length_b   11.68025684
_cell_length_c   11.75954934
_cell_angle_alpha   90.00000000
_cell_angle_beta   90.00000000
_cell_angle_gamma   90.00000000
_symmetry_Int_Tables_number   1
_chemical_formula_structural   LiLa3Nb2Si2SeCl4
_chemical_formula_sum   'Li1 La3 Nb2 Si2 Se1 Cl4'
_cell_volume   1650.44750633
_cell_formula_units_Z   1
loop_
 _symmetry_equiv_pos_site_id
 _symmetry_equiv_pos_as_xyz
  1  'x, y, z'
loop_
 _atom_site_type_symbol
 _atom_site_label
 _atom_site_symmetry_multiplicity
 _atom_site_fract_x
 _atom_site_fract_y
 _atom_site_fract_z
 _atom_site_occupancy
  Li  Li0  1  0.12500000  0.00000000  0.25000000  1
  La  La1  1  0.00000000  0.00000000  0.00000000  1
  La  La2  1  0.37500000  0.00000000  0.25000000  1
  La  La3  1  0.25000000  0.25000000  0.25000000  1
  Nb  Nb4  1  0.00000000  0.25000000  0.12500000  1
  Nb  Nb5  1  0.12111679  0.39340739  0.55416975  1
  Si  Si6  1  0.88742756  0.03699091  0.02990301  1
  Si  Si7  1  0.73849530  0.27797731  0.40444349  1
  Se  Se8  1  0.26634817  0.18444457  0.51771807  1
  Cl  Cl9  1  0.99792218  0.58402243  0.65850192  1
  Cl  Cl10  1  0.81731945  0.53546123  0.99037469  1
  Cl  Cl11  1  0.55099718  0.95265911  0.63032758  1
  Cl  Cl12  1  0.95664946  0.88445729  0.03928404  1
