# generated using pymatgen
data_Li3SeCl
_symmetry_space_group_name_H-M   'P 1'
_cell_length_a   12.96191447
_cell_length_b   12.96191447
_cell_length_c   12.96191447
_cell_angle_alpha   90.00000000
_cell_angle_beta   90.00000000
_cell_angle_gamma   90.00000000
_symmetry_Int_Tables_number   1
_chemical_formula_structural   Li3SeCl
_chemical_formula_sum   'Li72 Se24 Cl24'
_cell_volume   2177.74715202
_cell_formula_units_Z   24
loop_
 _symmetry_equiv_pos_site_id
 _symmetry_equiv_pos_as_xyz
  1  'x, y, z'
loop_
 _atom_site_type_symbol
 _atom_site_label
 _atom_site_symmetry_multiplicity
 _atom_site_fract_x
 _atom_site_fract_y
 _atom_site_fract_z
 _atom_site_occupancy
  Cl  Cl0  1  0.20978911  0.00000000  -0.00000000  1
  Cl  Cl1  1  0.79021089  0.00000000  0.00000000  1
  Cl  Cl2  1  0.00000000  0.20978911  0.00000000  1
  Cl  Cl3  1  0.00000000  0.79021089  0.00000000  1
  Cl  Cl4  1  0.00000000  0.00000000  0.20978911  1
  Cl  Cl5  1  0.00000000  0.00000000  0.79021089  1
  Cl  Cl6  1  0.20978911  0.50000000  0.50000000  1
  Cl  Cl7  1  0.79021089  0.50000000  0.50000000  1
  Cl  Cl8  1  0.00000000  0.70978911  0.50000000  1
  Cl  Cl9  1  0.00000000  0.29021089  0.50000000  1
  Cl  Cl10  1  0.00000000  0.50000000  0.70978911  1
  Cl  Cl11  1  0.00000000  0.50000000  0.29021089  1
  Cl  Cl12  1  0.70978911  -0.00000000  0.50000000  1
  Cl  Cl13  1  0.29021089  -0.00000000  0.50000000  1
  Cl  Cl14  1  0.50000000  0.20978911  0.50000000  1
  Cl  Cl15  1  0.50000000  0.79021089  0.50000000  1
  Cl  Cl16  1  0.50000000  0.00000000  0.70978911  1
  Cl  Cl17  1  0.50000000  0.00000000  0.29021089  1
  Cl  Cl18  1  0.70978911  0.50000000  -0.00000000  1
  Cl  Cl19  1  0.29021089  0.50000000  -0.00000000  1
  Cl  Cl20  1  0.50000000  0.70978911  0.00000000  1
  Cl  Cl21  1  0.50000000  0.29021089  -0.00000000  1
  Cl  Cl22  1  0.50000000  0.50000000  0.20978911  1
  Cl  Cl23  1  0.50000000  0.50000000  0.79021089  1
  Li  Li24  1  0.00000000  0.00000000  0.00000000  1
  Li  Li25  1  0.00000000  0.50000000  0.50000000  1
  Li  Li26  1  0.50000000  0.00000000  0.50000000  1
  Li  Li27  1  0.50000000  0.50000000  0.00000000  1
  Li  Li28  1  0.00000000  0.25000000  0.25000000  1
  Li  Li29  1  0.00000000  0.75000000  0.25000000  1
  Li  Li30  1  0.25000000  0.00000000  0.25000000  1
  Li  Li31  1  0.25000000  0.00000000  0.75000000  1
  Li  Li32  1  0.25000000  0.25000000  0.00000000  1
  Li  Li33  1  0.75000000  0.25000000  0.00000000  1
  Li  Li34  1  0.00000000  0.75000000  0.75000000  1
  Li  Li35  1  0.00000000  0.25000000  0.75000000  1
  Li  Li36  1  0.25000000  0.50000000  0.75000000  1
  Li  Li37  1  0.25000000  0.50000000  0.25000000  1
  Li  Li38  1  0.25000000  0.75000000  0.50000000  1
  Li  Li39  1  0.75000000  0.75000000  0.50000000  1
  Li  Li40  1  0.50000000  0.25000000  0.75000000  1
  Li  Li41  1  0.50000000  0.75000000  0.75000000  1
  Li  Li42  1  0.75000000  0.00000000  0.75000000  1
  Li  Li43  1  0.75000000  0.00000000  0.25000000  1
  Li  Li44  1  0.75000000  0.25000000  0.50000000  1
  Li  Li45  1  0.25000000  0.25000000  0.50000000  1
  Li  Li46  1  0.50000000  0.75000000  0.25000000  1
  Li  Li47  1  0.50000000  0.25000000  0.25000000  1
  Li  Li48  1  0.75000000  0.50000000  0.25000000  1
  Li  Li49  1  0.75000000  0.50000000  0.75000000  1
  Li  Li50  1  0.75000000  0.75000000  0.00000000  1
  Li  Li51  1  0.25000000  0.75000000  0.00000000  1
  Li  Li52  1  0.06811996  0.06811996  0.06811996  1
  Li  Li53  1  -0.06811996  -0.06811996  0.06811996  1
  Li  Li54  1  -0.06811996  0.06811996  -0.06811996  1
  Li  Li55  1  0.06811996  -0.06811996  -0.06811996  1
  Li  Li56  1  0.06811996  0.06811996  -0.06811996  1
  Li  Li57  1  -0.06811996  -0.06811996  -0.06811996  1
  Li  Li58  1  0.06811996  -0.06811996  0.06811996  1
  Li  Li59  1  -0.06811996  0.06811996  0.06811996  1
  Li  Li60  1  0.06811996  0.56811996  0.56811996  1
  Li  Li61  1  -0.06811996  0.43188004  0.56811996  1
  Li  Li62  1  -0.06811996  0.56811996  0.43188004  1
  Li  Li63  1  0.06811996  0.43188004  0.43188004  1
  Li  Li64  1  0.06811996  0.56811996  0.43188004  1
  Li  Li65  1  -0.06811996  0.43188004  0.43188004  1
  Li  Li66  1  0.06811996  0.43188004  0.56811996  1
  Li  Li67  1  -0.06811996  0.56811996  0.56811996  1
  Li  Li68  1  0.56811996  0.06811996  0.56811996  1
  Li  Li69  1  0.43188004  -0.06811996  0.56811996  1
  Li  Li70  1  0.43188004  0.06811996  0.43188004  1
  Li  Li71  1  0.56811996  -0.06811996  0.43188004  1
  Li  Li72  1  0.56811996  0.06811996  0.43188004  1
  Li  Li73  1  0.43188004  -0.06811996  0.43188004  1
  Li  Li74  1  0.56811996  -0.06811996  0.56811996  1
  Li  Li75  1  0.43188004  0.06811996  0.56811996  1
  Li  Li76  1  0.56811996  0.56811996  0.06811996  1
  Li  Li77  1  0.43188004  0.43188004  0.06811996  1
  Li  Li78  1  0.43188004  0.56811996  -0.06811996  1
  Li  Li79  1  0.56811996  0.43188004  -0.06811996  1
  Li  Li80  1  0.56811996  0.56811996  -0.06811996  1
  Li  Li81  1  0.43188004  0.43188004  -0.06811996  1
  Li  Li82  1  0.56811996  0.43188004  0.06811996  1
  Li  Li83  1  0.43188004  0.56811996  0.06811996  1
  Li  Li84  1  0.25000000  0.25000000  0.25000000  1
  Li  Li85  1  0.25000000  0.25000000  0.75000000  1
  Li  Li86  1  0.25000000  0.75000000  0.75000000  1
  Li  Li87  1  0.25000000  0.75000000  0.25000000  1
  Li  Li88  1  0.75000000  0.25000000  0.75000000  1
  Li  Li89  1  0.75000000  0.25000000  0.25000000  1
  Li  Li90  1  0.75000000  0.75000000  0.25000000  1
  Li  Li91  1  0.75000000  0.75000000  0.75000000  1
  Li  Li92  1  0.50000000  0.50000000  0.50000000  1
  Li  Li93  1  0.50000000  0.00000000  0.00000000  1
  Li  Li94  1  0.00000000  0.50000000  0.00000000  1
  Li  Li95  1  0.00000000  0.00000000  0.50000000  1
  Se  Se96  1  0.33196760  -0.00000000  -0.00000000  1
  Se  Se97  1  0.66803240  -0.00000000  -0.00000000  1
  Se  Se98  1  0.00000000  0.33196760  -0.00000000  1
  Se  Se99  1  0.00000000  0.66803240  -0.00000000  1
  Se  Se100  1  0.00000000  0.00000000  0.33196760  1
  Se  Se101  1  0.00000000  0.00000000  0.66803240  1
  Se  Se102  1  0.33196760  0.50000000  0.50000000  1
  Se  Se103  1  0.66803240  0.50000000  0.50000000  1
  Se  Se104  1  0.00000000  0.83196760  0.50000000  1
  Se  Se105  1  0.00000000  0.16803240  0.50000000  1
  Se  Se106  1  0.00000000  0.50000000  0.83196760  1
  Se  Se107  1  0.00000000  0.50000000  0.16803240  1
  Se  Se108  1  0.83196760  -0.00000000  0.50000000  1
  Se  Se109  1  0.16803240  0.00000000  0.50000000  1
  Se  Se110  1  0.50000000  0.33196760  0.50000000  1
  Se  Se111  1  0.50000000  0.66803240  0.50000000  1
  Se  Se112  1  0.50000000  0.00000000  0.83196760  1
  Se  Se113  1  0.50000000  0.00000000  0.16803240  1
  Se  Se114  1  0.83196760  0.50000000  -0.00000000  1
  Se  Se115  1  0.16803240  0.50000000  -0.00000000  1
  Se  Se116  1  0.50000000  0.83196760  0.00000000  1
  Se  Se117  1  0.50000000  0.16803240  -0.00000000  1
  Se  Se118  1  0.50000000  0.50000000  0.33196760  1
  Se  Se119  1  0.50000000  0.50000000  0.66803240  1
