# generated using pymatgen
data_SbBr3
_symmetry_space_group_name_H-M   'P 1'
_cell_length_a   11.96383554
_cell_length_b   11.96383554
_cell_length_c   11.96383554
_cell_angle_alpha   90.00000000
_cell_angle_beta   90.00000000
_cell_angle_gamma   90.00000000
_symmetry_Int_Tables_number   1
_chemical_formula_structural   SbBr3
_chemical_formula_sum   'Sb16 Br48'
_cell_volume   1712.42399085
_cell_formula_units_Z   16
loop_
 _symmetry_equiv_pos_site_id
 _symmetry_equiv_pos_as_xyz
  1  'x, y, z'
loop_
 _atom_site_type_symbol
 _atom_site_label
 _atom_site_symmetry_multiplicity
 _atom_site_fract_x
 _atom_site_fract_y
 _atom_site_fract_z
 _atom_site_occupancy
  Br  Br0  1  0.12500000  0.70684162  -0.45684162  1
  Br  Br1  1  0.37500000  -0.70684162  0.04315838  1
  Br  Br2  1  0.87500000  1.20684162  0.95684162  1
  Br  Br3  1  0.62500000  -0.20684162  1.45684162  1
  Br  Br4  1  -0.45684162  0.12500000  0.70684162  1
  Br  Br5  1  0.04315838  0.37500000  -0.70684162  1
  Br  Br6  1  0.95684162  0.87500000  1.20684162  1
  Br  Br7  1  1.45684162  0.62500000  -0.20684162  1
  Br  Br8  1  0.70684162  -0.45684162  0.12500000  1
  Br  Br9  1  -0.70684162  0.04315838  0.37500000  1
  Br  Br10  1  1.20684162  0.95684162  0.87500000  1
  Br  Br11  1  -0.20684162  1.45684162  0.62500000  1
  Br  Br12  1  0.87500000  -0.70684162  1.45684162  1
  Br  Br13  1  0.62500000  0.70684162  0.95684162  1
  Br  Br14  1  0.12500000  -0.20684162  0.04315838  1
  Br  Br15  1  0.37500000  1.20684162  -0.45684162  1
  Br  Br16  1  1.45684162  0.87500000  -0.70684162  1
  Br  Br17  1  0.95684162  0.62500000  0.70684162  1
  Br  Br18  1  0.04315838  0.12500000  -0.20684162  1
  Br  Br19  1  -0.45684162  0.37500000  1.20684162  1
  Br  Br20  1  -0.70684162  1.45684162  0.87500000  1
  Br  Br21  1  0.70684162  0.95684162  0.62500000  1
  Br  Br22  1  -0.20684162  0.04315838  0.12500000  1
  Br  Br23  1  1.20684162  -0.45684162  0.37500000  1
  Br  Br24  1  0.62500000  1.20684162  0.04315838  1
  Br  Br25  1  0.87500000  -0.20684162  0.54315838  1
  Br  Br26  1  1.37500000  1.70684162  1.45684162  1
  Br  Br27  1  1.12500000  0.29315838  1.95684162  1
  Br  Br28  1  0.04315838  0.62500000  1.20684162  1
  Br  Br29  1  0.54315838  0.87500000  -0.20684162  1
  Br  Br30  1  1.45684162  1.37500000  1.70684162  1
  Br  Br31  1  1.95684162  1.12500000  0.29315838  1
  Br  Br32  1  1.20684162  0.04315838  0.62500000  1
  Br  Br33  1  -0.20684162  0.54315838  0.87500000  1
  Br  Br34  1  1.70684162  1.45684162  1.37500000  1
  Br  Br35  1  0.29315838  1.95684162  1.12500000  1
  Br  Br36  1  1.37500000  -0.20684162  1.95684162  1
  Br  Br37  1  1.12500000  1.20684162  1.45684162  1
  Br  Br38  1  0.62500000  0.29315838  0.54315838  1
  Br  Br39  1  0.87500000  1.70684162  0.04315838  1
  Br  Br40  1  1.95684162  1.37500000  -0.20684162  1
  Br  Br41  1  1.45684162  1.12500000  1.20684162  1
  Br  Br42  1  0.54315838  0.62500000  0.29315838  1
  Br  Br43  1  0.04315838  0.87500000  1.70684162  1
  Br  Br44  1  -0.20684162  1.95684162  1.37500000  1
  Br  Br45  1  1.20684162  1.45684162  1.12500000  1
  Br  Br46  1  0.29315838  0.54315838  0.62500000  1
  Br  Br47  1  1.70684162  0.04315838  0.87500000  1
  Sb  Sb48  1  0.12500000  0.12500000  0.12500000  1
  Sb  Sb49  1  0.37500000  0.87500000  0.62500000  1
  Sb  Sb50  1  0.87500000  0.62500000  0.37500000  1
  Sb  Sb51  1  0.62500000  0.37500000  0.87500000  1
  Sb  Sb52  1  0.87500000  0.87500000  0.87500000  1
  Sb  Sb53  1  0.62500000  0.12500000  0.37500000  1
  Sb  Sb54  1  0.12500000  0.37500000  0.62500000  1
  Sb  Sb55  1  0.37500000  0.62500000  0.12500000  1
  Sb  Sb56  1  0.62500000  0.62500000  0.62500000  1
  Sb  Sb57  1  0.87500000  0.37500000  0.12500000  1
  Sb  Sb58  1  0.37500000  0.12500000  0.87500000  1
  Sb  Sb59  1  0.12500000  0.87500000  0.37500000  1
  Sb  Sb60  1  0.37500000  0.37500000  0.37500000  1
  Sb  Sb61  1  0.12500000  0.62500000  0.87500000  1
  Sb  Sb62  1  0.62500000  0.87500000  0.12500000  1
  Sb  Sb63  1  0.87500000  0.12500000  0.62500000  1
