# generated using pymatgen
data_Li2Ca2SbS4I
_symmetry_space_group_name_H-M   'P 1'
_cell_length_a   22.61057905
_cell_length_b   22.61057905
_cell_length_c   22.61057905
_cell_angle_alpha   90.00000000
_cell_angle_beta   90.00000000
_cell_angle_gamma   90.00000000
_symmetry_Int_Tables_number   1
_chemical_formula_structural   Li2Ca2SbS4I
_chemical_formula_sum   'Li96 Ca96 Sb48 S192 I48'
_cell_volume   11559.39365750
_cell_formula_units_Z   48
loop_
 _symmetry_equiv_pos_site_id
 _symmetry_equiv_pos_as_xyz
  1  'x, y, z'
loop_
 _atom_site_type_symbol
 _atom_site_label
 _atom_site_symmetry_multiplicity
 _atom_site_fract_x
 _atom_site_fract_y
 _atom_site_fract_z
 _atom_site_occupancy
  Ca  Ca0  1  0.13339193  0.00000000  0.00000000  1
  Ca  Ca1  1  0.86660807  -0.00000000  -0.00000000  1
  Ca  Ca2  1  0.00000000  0.13339193  0.00000000  1
  Ca  Ca3  1  0.00000000  0.86660807  -0.00000000  1
  Ca  Ca4  1  0.00000000  0.00000000  0.13339193  1
  Ca  Ca5  1  0.00000000  0.00000000  0.86660807  1
  Ca  Ca6  1  0.13339193  0.50000000  0.50000000  1
  Ca  Ca7  1  0.86660807  0.50000000  0.50000000  1
  Ca  Ca8  1  0.00000000  0.63339193  0.50000000  1
  Ca  Ca9  1  0.00000000  0.36660807  0.50000000  1
  Ca  Ca10  1  0.00000000  0.50000000  0.63339193  1
  Ca  Ca11  1  0.00000000  0.50000000  0.36660807  1
  Ca  Ca12  1  0.63339193  0.00000000  0.50000000  1
  Ca  Ca13  1  0.36660807  0.00000000  0.50000000  1
  Ca  Ca14  1  0.50000000  0.13339193  0.50000000  1
  Ca  Ca15  1  0.50000000  0.86660807  0.50000000  1
  Ca  Ca16  1  0.50000000  0.00000000  0.63339193  1
  Ca  Ca17  1  0.50000000  0.00000000  0.36660807  1
  Ca  Ca18  1  0.63339193  0.50000000  0.00000000  1
  Ca  Ca19  1  0.36660807  0.50000000  -0.00000000  1
  Ca  Ca20  1  0.50000000  0.63339193  0.00000000  1
  Ca  Ca21  1  0.50000000  0.36660807  -0.00000000  1
  Ca  Ca22  1  0.50000000  0.50000000  0.13339193  1
  Ca  Ca23  1  0.50000000  0.50000000  0.86660807  1
  Ca  Ca24  1  0.52990751  0.25000000  0.25000000  1
  Ca  Ca25  1  0.47009249  0.75000000  0.25000000  1
  Ca  Ca26  1  0.25000000  0.52990751  0.25000000  1
  Ca  Ca27  1  0.25000000  0.47009249  0.75000000  1
  Ca  Ca28  1  0.25000000  0.25000000  0.52990751  1
  Ca  Ca29  1  0.75000000  0.25000000  0.47009249  1
  Ca  Ca30  1  0.52990751  0.75000000  0.75000000  1
  Ca  Ca31  1  0.47009249  0.25000000  0.75000000  1
  Ca  Ca32  1  0.25000000  0.02990751  0.75000000  1
  Ca  Ca33  1  0.25000000  0.97009249  0.25000000  1
  Ca  Ca34  1  0.25000000  0.75000000  0.02990751  1
  Ca  Ca35  1  0.75000000  0.75000000  0.97009249  1
  Ca  Ca36  1  0.02990751  0.25000000  0.75000000  1
  Ca  Ca37  1  0.97009249  0.75000000  0.75000000  1
  Ca  Ca38  1  0.75000000  0.52990751  0.75000000  1
  Ca  Ca39  1  0.75000000  0.47009249  0.25000000  1
  Ca  Ca40  1  0.75000000  0.25000000  0.02990751  1
  Ca  Ca41  1  0.25000000  0.25000000  0.97009249  1
  Ca  Ca42  1  0.02990751  0.75000000  0.25000000  1
  Ca  Ca43  1  0.97009249  0.25000000  0.25000000  1
  Ca  Ca44  1  0.75000000  0.02990751  0.25000000  1
  Ca  Ca45  1  0.75000000  0.97009249  0.75000000  1
  Ca  Ca46  1  0.75000000  0.75000000  0.52990751  1
  Ca  Ca47  1  0.25000000  0.75000000  0.47009249  1
  Ca  Ca48  1  0.12382047  0.25000000  0.25000000  1
  Ca  Ca49  1  0.87617953  0.75000000  0.25000000  1
  Ca  Ca50  1  0.25000000  0.12382047  0.25000000  1
  Ca  Ca51  1  0.25000000  0.87617953  0.75000000  1
  Ca  Ca52  1  0.25000000  0.25000000  0.12382047  1
  Ca  Ca53  1  0.75000000  0.25000000  0.87617953  1
  Ca  Ca54  1  0.12382047  0.75000000  0.75000000  1
  Ca  Ca55  1  0.87617953  0.25000000  0.75000000  1
  Ca  Ca56  1  0.25000000  0.62382047  0.75000000  1
  Ca  Ca57  1  0.25000000  0.37617953  0.25000000  1
  Ca  Ca58  1  0.25000000  0.75000000  0.62382047  1
  Ca  Ca59  1  0.75000000  0.75000000  0.37617953  1
  Ca  Ca60  1  0.62382047  0.25000000  0.75000000  1
  Ca  Ca61  1  0.37617953  0.75000000  0.75000000  1
  Ca  Ca62  1  0.75000000  0.12382047  0.75000000  1
  Ca  Ca63  1  0.75000000  0.87617953  0.25000000  1
  Ca  Ca64  1  0.75000000  0.25000000  0.62382047  1
  Ca  Ca65  1  0.25000000  0.25000000  0.37617953  1
  Ca  Ca66  1  0.62382047  0.75000000  0.25000000  1
  Ca  Ca67  1  0.37617953  0.25000000  0.25000000  1
  Ca  Ca68  1  0.75000000  0.62382047  0.25000000  1
  Ca  Ca69  1  0.75000000  0.37617953  0.75000000  1
  Ca  Ca70  1  0.75000000  0.75000000  0.12382047  1
  Ca  Ca71  1  0.25000000  0.75000000  0.87617953  1
  Ca  Ca72  1  0.36090619  0.00000000  0.00000000  1
  Ca  Ca73  1  0.63909381  0.00000000  0.00000000  1
  Ca  Ca74  1  0.00000000  0.36090619  0.00000000  1
  Ca  Ca75  1  0.00000000  0.63909381  0.00000000  1
  Ca  Ca76  1  0.00000000  0.00000000  0.36090619  1
  Ca  Ca77  1  0.00000000  0.00000000  0.63909381  1
  Ca  Ca78  1  0.36090619  0.50000000  0.50000000  1
  Ca  Ca79  1  0.63909381  0.50000000  0.50000000  1
  Ca  Ca80  1  0.00000000  0.86090619  0.50000000  1
  Ca  Ca81  1  0.00000000  0.13909381  0.50000000  1
  Ca  Ca82  1  0.00000000  0.50000000  0.86090619  1
  Ca  Ca83  1  0.00000000  0.50000000  0.13909381  1
  Ca  Ca84  1  0.86090619  -0.00000000  0.50000000  1
  Ca  Ca85  1  0.13909381  0.00000000  0.50000000  1
  Ca  Ca86  1  0.50000000  0.36090619  0.50000000  1
  Ca  Ca87  1  0.50000000  0.63909381  0.50000000  1
  Ca  Ca88  1  0.50000000  0.00000000  0.86090619  1
  Ca  Ca89  1  0.50000000  0.00000000  0.13909381  1
  Ca  Ca90  1  0.86090619  0.50000000  -0.00000000  1
  Ca  Ca91  1  0.13909381  0.50000000  0.00000000  1
  Ca  Ca92  1  0.50000000  0.86090619  -0.00000000  1
  Ca  Ca93  1  0.50000000  0.13909381  -0.00000000  1
  Ca  Ca94  1  0.50000000  0.50000000  0.36090619  1
  Ca  Ca95  1  0.50000000  0.50000000  0.63909381  1
  I  I96  1  0.09390193  0.09390193  0.97535821  1
  I  I97  1  0.90609807  0.90609807  0.97535821  1
  I  I98  1  0.90609807  0.09390193  0.02464179  1
  I  I99  1  0.09390193  0.90609807  0.02464179  1
  I  I100  1  0.97535821  0.09390193  0.09390193  1
  I  I101  1  0.97535821  0.90609807  0.90609807  1
  I  I102  1  0.02464179  0.90609807  0.09390193  1
  I  I103  1  0.02464179  0.09390193  0.90609807  1
  I  I104  1  0.09390193  0.97535821  0.09390193  1
  I  I105  1  0.90609807  0.97535821  0.90609807  1
  I  I106  1  0.09390193  0.02464179  0.90609807  1
  I  I107  1  0.90609807  0.02464179  0.09390193  1
  I  I108  1  0.09390193  0.59390193  0.47535821  1
  I  I109  1  0.90609807  0.40609807  0.47535821  1
  I  I110  1  0.90609807  0.59390193  0.52464179  1
  I  I111  1  0.09390193  0.40609807  0.52464179  1
  I  I112  1  0.97535821  0.59390193  0.59390193  1
  I  I113  1  0.97535821  0.40609807  0.40609807  1
  I  I114  1  0.02464179  0.40609807  0.59390193  1
  I  I115  1  0.02464179  0.59390193  0.40609807  1
  I  I116  1  0.09390193  0.47535821  0.59390193  1
  I  I117  1  0.90609807  0.47535821  0.40609807  1
  I  I118  1  0.09390193  0.52464179  0.40609807  1
  I  I119  1  0.90609807  0.52464179  0.59390193  1
  I  I120  1  0.59390193  0.09390193  0.47535821  1
  I  I121  1  0.40609807  0.90609807  0.47535821  1
  I  I122  1  0.40609807  0.09390193  0.52464179  1
  I  I123  1  0.59390193  0.90609807  0.52464179  1
  I  I124  1  0.47535821  0.09390193  0.59390193  1
  I  I125  1  0.47535821  0.90609807  0.40609807  1
  I  I126  1  0.52464179  0.90609807  0.59390193  1
  I  I127  1  0.52464179  0.09390193  0.40609807  1
  I  I128  1  0.59390193  0.97535821  0.59390193  1
  I  I129  1  0.40609807  0.97535821  0.40609807  1
  I  I130  1  0.59390193  0.02464179  0.40609807  1
  I  I131  1  0.40609807  0.02464179  0.59390193  1
  I  I132  1  0.59390193  0.59390193  0.97535821  1
  I  I133  1  0.40609807  0.40609807  0.97535821  1
  I  I134  1  0.40609807  0.59390193  0.02464179  1
  I  I135  1  0.59390193  0.40609807  0.02464179  1
  I  I136  1  0.47535821  0.59390193  0.09390193  1
  I  I137  1  0.47535821  0.40609807  0.90609807  1
  I  I138  1  0.52464179  0.40609807  0.09390193  1
  I  I139  1  0.52464179  0.59390193  0.90609807  1
  I  I140  1  0.59390193  0.47535821  0.09390193  1
  I  I141  1  0.40609807  0.47535821  0.90609807  1
  I  I142  1  0.59390193  0.52464179  0.90609807  1
  I  I143  1  0.40609807  0.52464179  0.09390193  1
  Li  Li144  1  0.93977673  0.93977673  0.93977673  1
  Li  Li145  1  0.06022327  0.06022327  0.93977673  1
  Li  Li146  1  0.06022327  0.93977673  0.06022327  1
  Li  Li147  1  0.93977673  0.06022327  0.06022327  1
  Li  Li148  1  0.93977673  0.43977673  0.43977673  1
  Li  Li149  1  0.06022327  0.56022327  0.43977673  1
  Li  Li150  1  0.06022327  0.43977673  0.56022327  1
  Li  Li151  1  0.93977673  0.56022327  0.56022327  1
  Li  Li152  1  0.43977673  0.93977673  0.43977673  1
  Li  Li153  1  0.56022327  0.06022327  0.43977673  1
  Li  Li154  1  0.56022327  0.93977673  0.56022327  1
  Li  Li155  1  0.43977673  0.06022327  0.56022327  1
  Li  Li156  1  0.43977673  0.43977673  0.93977673  1
  Li  Li157  1  0.56022327  0.56022327  0.93977673  1
  Li  Li158  1  0.56022327  0.43977673  0.06022327  1
  Li  Li159  1  0.43977673  0.56022327  0.06022327  1
  Li  Li160  1  0.25000000  0.25000000  0.25000000  1
  Li  Li161  1  0.25000000  0.75000000  0.75000000  1
  Li  Li162  1  0.75000000  0.25000000  0.75000000  1
  Li  Li163  1  0.75000000  0.75000000  0.25000000  1
  Li  Li164  1  0.41604212  0.41604212  0.41604212  1
  Li  Li165  1  0.58395788  0.58395788  0.41604212  1
  Li  Li166  1  0.58395788  0.41604212  0.58395788  1
  Li  Li167  1  0.41604212  0.58395788  0.58395788  1
  Li  Li168  1  0.41604212  0.91604212  0.91604212  1
  Li  Li169  1  0.58395788  0.08395788  0.91604212  1
  Li  Li170  1  0.58395788  0.91604212  0.08395788  1
  Li  Li171  1  0.41604212  0.08395788  0.08395788  1
  Li  Li172  1  0.91604212  0.41604212  0.91604212  1
  Li  Li173  1  0.08395788  0.58395788  0.91604212  1
  Li  Li174  1  0.08395788  0.41604212  0.08395788  1
  Li  Li175  1  0.91604212  0.58395788  0.08395788  1
  Li  Li176  1  0.91604212  0.91604212  0.41604212  1
  Li  Li177  1  0.08395788  0.08395788  0.41604212  1
  Li  Li178  1  0.08395788  0.91604212  0.58395788  1
  Li  Li179  1  0.91604212  0.08395788  0.58395788  1
  Li  Li180  1  0.30573056  0.30573056  0.00932415  1
  Li  Li181  1  0.69426944  0.69426944  0.00932415  1
  Li  Li182  1  0.69426944  0.30573056  0.99067585  1
  Li  Li183  1  0.30573056  0.69426944  0.99067585  1
  Li  Li184  1  0.00932415  0.30573056  0.30573056  1
  Li  Li185  1  0.00932415  0.69426944  0.69426944  1
  Li  Li186  1  0.99067585  0.69426944  0.30573056  1
  Li  Li187  1  0.99067585  0.30573056  0.69426944  1
  Li  Li188  1  0.30573056  0.00932415  0.30573056  1
  Li  Li189  1  0.69426944  0.00932415  0.69426944  1
  Li  Li190  1  0.30573056  0.99067585  0.69426944  1
  Li  Li191  1  0.69426944  0.99067585  0.30573056  1
  Li  Li192  1  0.30573056  0.80573056  0.50932415  1
  Li  Li193  1  0.69426944  0.19426944  0.50932415  1
  Li  Li194  1  0.69426944  0.80573056  0.49067585  1
  Li  Li195  1  0.30573056  0.19426944  0.49067585  1
  Li  Li196  1  0.00932415  0.80573056  0.80573056  1
  Li  Li197  1  0.00932415  0.19426944  0.19426944  1
  Li  Li198  1  0.99067585  0.19426944  0.80573056  1
  Li  Li199  1  0.99067585  0.80573056  0.19426944  1
  Li  Li200  1  0.30573056  0.50932415  0.80573056  1
  Li  Li201  1  0.69426944  0.50932415  0.19426944  1
  Li  Li202  1  0.30573056  0.49067585  0.19426944  1
  Li  Li203  1  0.69426944  0.49067585  0.80573056  1
  Li  Li204  1  0.80573056  0.30573056  0.50932415  1
  Li  Li205  1  0.19426944  0.69426944  0.50932415  1
  Li  Li206  1  0.19426944  0.30573056  0.49067585  1
  Li  Li207  1  0.80573056  0.69426944  0.49067585  1
  Li  Li208  1  0.50932415  0.30573056  0.80573056  1
  Li  Li209  1  0.50932415  0.69426944  0.19426944  1
  Li  Li210  1  0.49067585  0.69426944  0.80573056  1
  Li  Li211  1  0.49067585  0.30573056  0.19426944  1
  Li  Li212  1  0.80573056  0.00932415  0.80573056  1
  Li  Li213  1  0.19426944  0.00932415  0.19426944  1
  Li  Li214  1  0.80573056  0.99067585  0.19426944  1
  Li  Li215  1  0.19426944  0.99067585  0.80573056  1
  Li  Li216  1  0.80573056  0.80573056  0.00932415  1
  Li  Li217  1  0.19426944  0.19426944  0.00932415  1
  Li  Li218  1  0.19426944  0.80573056  0.99067585  1
  Li  Li219  1  0.80573056  0.19426944  0.99067585  1
  Li  Li220  1  0.50932415  0.80573056  0.30573056  1
  Li  Li221  1  0.50932415  0.19426944  0.69426944  1
  Li  Li222  1  0.49067585  0.19426944  0.30573056  1
  Li  Li223  1  0.49067585  0.80573056  0.69426944  1
  Li  Li224  1  0.80573056  0.50932415  0.30573056  1
  Li  Li225  1  0.19426944  0.50932415  0.69426944  1
  Li  Li226  1  0.80573056  0.49067585  0.69426944  1
  Li  Li227  1  0.19426944  0.49067585  0.30573056  1
  Li  Li228  1  0.75000000  0.75000000  0.75000000  1
  Li  Li229  1  0.75000000  0.25000000  0.25000000  1
  Li  Li230  1  0.25000000  0.75000000  0.25000000  1
  Li  Li231  1  0.25000000  0.25000000  0.75000000  1
  Li  Li232  1  0.00000000  0.00000000  0.00000000  1
  Li  Li233  1  0.00000000  0.50000000  0.50000000  1
  Li  Li234  1  0.50000000  0.00000000  0.50000000  1
  Li  Li235  1  0.50000000  0.50000000  0.00000000  1
  Li  Li236  1  0.50000000  0.50000000  0.50000000  1
  Li  Li237  1  0.50000000  0.00000000  0.00000000  1
  Li  Li238  1  0.00000000  0.50000000  0.00000000  1
  Li  Li239  1  0.00000000  0.00000000  0.50000000  1
  S  S240  1  0.53090260  0.79583657  0.09099847  1
  S  S241  1  -0.53090260  -0.79583657  0.09099847  1
  S  S242  1  -0.53090260  0.79583657  -0.09099847  1
  S  S243  1  0.53090260  -0.79583657  -0.09099847  1
  S  S244  1  0.09099847  0.53090260  0.79583657  1
  S  S245  1  0.09099847  -0.53090260  -0.79583657  1
  S  S246  1  -0.09099847  -0.53090260  0.79583657  1
  S  S247  1  -0.09099847  0.53090260  -0.79583657  1
  S  S248  1  0.79583657  0.09099847  0.53090260  1
  S  S249  1  -0.79583657  0.09099847  -0.53090260  1
  S  S250  1  0.79583657  -0.09099847  -0.53090260  1
  S  S251  1  -0.79583657  -0.09099847  0.53090260  1
  S  S252  1  0.79583657  0.53090260  0.09099847  1
  S  S253  1  -0.79583657  -0.53090260  0.09099847  1
  S  S254  1  0.79583657  -0.53090260  -0.09099847  1
  S  S255  1  -0.79583657  0.53090260  -0.09099847  1
  S  S256  1  0.53090260  0.09099847  0.79583657  1
  S  S257  1  -0.53090260  0.09099847  -0.79583657  1
  S  S258  1  -0.53090260  -0.09099847  0.79583657  1
  S  S259  1  0.53090260  -0.09099847  -0.79583657  1
  S  S260  1  0.09099847  0.79583657  0.53090260  1
  S  S261  1  0.09099847  -0.79583657  -0.53090260  1
  S  S262  1  -0.09099847  0.79583657  -0.53090260  1
  S  S263  1  -0.09099847  -0.79583657  0.53090260  1
  S  S264  1  0.53090260  1.29583657  0.59099847  1
  S  S265  1  -0.53090260  -0.29583657  0.59099847  1
  S  S266  1  -0.53090260  1.29583657  0.40900153  1
  S  S267  1  0.53090260  -0.29583657  0.40900153  1
  S  S268  1  0.09099847  1.03090260  1.29583657  1
  S  S269  1  0.09099847  -0.03090260  -0.29583657  1
  S  S270  1  -0.09099847  -0.03090260  1.29583657  1
  S  S271  1  -0.09099847  1.03090260  -0.29583657  1
  S  S272  1  0.79583657  0.59099847  1.03090260  1
  S  S273  1  -0.79583657  0.59099847  -0.03090260  1
  S  S274  1  0.79583657  0.40900153  -0.03090260  1
  S  S275  1  -0.79583657  0.40900153  1.03090260  1
  S  S276  1  0.79583657  1.03090260  0.59099847  1
  S  S277  1  -0.79583657  -0.03090260  0.59099847  1
  S  S278  1  0.79583657  -0.03090260  0.40900153  1
  S  S279  1  -0.79583657  1.03090260  0.40900153  1
  S  S280  1  0.53090260  0.59099847  1.29583657  1
  S  S281  1  -0.53090260  0.59099847  -0.29583657  1
  S  S282  1  -0.53090260  0.40900153  1.29583657  1
  S  S283  1  0.53090260  0.40900153  -0.29583657  1
  S  S284  1  0.09099847  1.29583657  1.03090260  1
  S  S285  1  0.09099847  -0.29583657  -0.03090260  1
  S  S286  1  -0.09099847  1.29583657  -0.03090260  1
  S  S287  1  -0.09099847  -0.29583657  1.03090260  1
  S  S288  1  1.03090260  0.79583657  0.59099847  1
  S  S289  1  -0.03090260  -0.79583657  0.59099847  1
  S  S290  1  -0.03090260  0.79583657  0.40900153  1
  S  S291  1  1.03090260  -0.79583657  0.40900153  1
  S  S292  1  0.59099847  0.53090260  1.29583657  1
  S  S293  1  0.59099847  -0.53090260  -0.29583657  1
  S  S294  1  0.40900153  -0.53090260  1.29583657  1
  S  S295  1  0.40900153  0.53090260  -0.29583657  1
  S  S296  1  1.29583657  0.09099847  1.03090260  1
  S  S297  1  -0.29583657  0.09099847  -0.03090260  1
  S  S298  1  1.29583657  -0.09099847  -0.03090260  1
  S  S299  1  -0.29583657  -0.09099847  1.03090260  1
  S  S300  1  1.29583657  0.53090260  0.59099847  1
  S  S301  1  -0.29583657  -0.53090260  0.59099847  1
  S  S302  1  1.29583657  -0.53090260  0.40900153  1
  S  S303  1  -0.29583657  0.53090260  0.40900153  1
  S  S304  1  1.03090260  0.09099847  1.29583657  1
  S  S305  1  -0.03090260  0.09099847  -0.29583657  1
  S  S306  1  -0.03090260  -0.09099847  1.29583657  1
  S  S307  1  1.03090260  -0.09099847  -0.29583657  1
  S  S308  1  0.59099847  0.79583657  1.03090260  1
  S  S309  1  0.59099847  -0.79583657  -0.03090260  1
  S  S310  1  0.40900153  0.79583657  -0.03090260  1
  S  S311  1  0.40900153  -0.79583657  1.03090260  1
  S  S312  1  1.03090260  1.29583657  0.09099847  1
  S  S313  1  -0.03090260  -0.29583657  0.09099847  1
  S  S314  1  -0.03090260  1.29583657  -0.09099847  1
  S  S315  1  1.03090260  -0.29583657  -0.09099847  1
  S  S316  1  0.59099847  1.03090260  0.79583657  1
  S  S317  1  0.59099847  -0.03090260  -0.79583657  1
  S  S318  1  0.40900153  -0.03090260  0.79583657  1
  S  S319  1  0.40900153  1.03090260  -0.79583657  1
  S  S320  1  1.29583657  0.59099847  0.53090260  1
  S  S321  1  -0.29583657  0.59099847  -0.53090260  1
  S  S322  1  1.29583657  0.40900153  -0.53090260  1
  S  S323  1  -0.29583657  0.40900153  0.53090260  1
  S  S324  1  1.29583657  1.03090260  0.09099847  1
  S  S325  1  -0.29583657  -0.03090260  0.09099847  1
  S  S326  1  1.29583657  -0.03090260  -0.09099847  1
  S  S327  1  -0.29583657  1.03090260  -0.09099847  1
  S  S328  1  1.03090260  0.59099847  0.79583657  1
  S  S329  1  -0.03090260  0.59099847  -0.79583657  1
  S  S330  1  -0.03090260  0.40900153  0.79583657  1
  S  S331  1  1.03090260  0.40900153  -0.79583657  1
  S  S332  1  0.59099847  1.29583657  0.53090260  1
  S  S333  1  0.59099847  -0.29583657  -0.53090260  1
  S  S334  1  0.40900153  1.29583657  -0.53090260  1
  S  S335  1  0.40900153  -0.29583657  0.53090260  1
  S  S336  1  0.73022970  0.54936830  0.00033642  1
  S  S337  1  0.26977030  0.45063170  0.00033642  1
  S  S338  1  0.26977030  0.54936830  0.99966358  1
  S  S339  1  0.73022970  0.45063170  0.99966358  1
  S  S340  1  0.00033642  0.73022970  0.54936830  1
  S  S341  1  0.00033642  0.26977030  0.45063170  1
  S  S342  1  0.99966358  0.26977030  0.54936830  1
  S  S343  1  0.99966358  0.73022970  0.45063170  1
  S  S344  1  0.54936830  0.00033642  0.73022970  1
  S  S345  1  0.45063170  0.00033642  0.26977030  1
  S  S346  1  0.54936830  0.99966358  0.26977030  1
  S  S347  1  0.45063170  0.99966358  0.73022970  1
  S  S348  1  0.54936830  0.73022970  0.00033642  1
  S  S349  1  0.45063170  0.26977030  0.00033642  1
  S  S350  1  0.54936830  0.26977030  0.99966358  1
  S  S351  1  0.45063170  0.73022970  0.99966358  1
  S  S352  1  0.73022970  0.00033642  0.54936830  1
  S  S353  1  0.26977030  0.00033642  0.45063170  1
  S  S354  1  0.26977030  0.99966358  0.54936830  1
  S  S355  1  0.73022970  0.99966358  0.45063170  1
  S  S356  1  0.00033642  0.54936830  0.73022970  1
  S  S357  1  0.00033642  0.45063170  0.26977030  1
  S  S358  1  0.99966358  0.54936830  0.26977030  1
  S  S359  1  0.99966358  0.45063170  0.73022970  1
  S  S360  1  0.73022970  0.04936830  0.50033642  1
  S  S361  1  0.26977030  0.95063170  0.50033642  1
  S  S362  1  0.26977030  0.04936830  0.49966358  1
  S  S363  1  0.73022970  0.95063170  0.49966358  1
  S  S364  1  0.00033642  0.23022970  0.04936830  1
  S  S365  1  0.00033642  0.76977030  0.95063170  1
  S  S366  1  0.99966358  0.76977030  0.04936830  1
  S  S367  1  0.99966358  0.23022970  0.95063170  1
  S  S368  1  0.54936830  0.50033642  0.23022970  1
  S  S369  1  0.45063170  0.50033642  0.76977030  1
  S  S370  1  0.54936830  0.49966358  0.76977030  1
  S  S371  1  0.45063170  0.49966358  0.23022970  1
  S  S372  1  0.54936830  0.23022970  0.50033642  1
  S  S373  1  0.45063170  0.76977030  0.50033642  1
  S  S374  1  0.54936830  0.76977030  0.49966358  1
  S  S375  1  0.45063170  0.23022970  0.49966358  1
  S  S376  1  0.73022970  0.50033642  0.04936830  1
  S  S377  1  0.26977030  0.50033642  0.95063170  1
  S  S378  1  0.26977030  0.49966358  0.04936830  1
  S  S379  1  0.73022970  0.49966358  0.95063170  1
  S  S380  1  0.00033642  0.04936830  0.23022970  1
  S  S381  1  0.00033642  0.95063170  0.76977030  1
  S  S382  1  0.99966358  0.04936830  0.76977030  1
  S  S383  1  0.99966358  0.95063170  0.23022970  1
  S  S384  1  0.23022970  0.54936830  0.50033642  1
  S  S385  1  0.76977030  0.45063170  0.50033642  1
  S  S386  1  0.76977030  0.54936830  0.49966358  1
  S  S387  1  0.23022970  0.45063170  0.49966358  1
  S  S388  1  0.50033642  0.73022970  0.04936830  1
  S  S389  1  0.50033642  0.26977030  0.95063170  1
  S  S390  1  0.49966358  0.26977030  0.04936830  1
  S  S391  1  0.49966358  0.73022970  0.95063170  1
  S  S392  1  0.04936830  0.00033642  0.23022970  1
  S  S393  1  0.95063170  0.00033642  0.76977030  1
  S  S394  1  0.04936830  0.99966358  0.76977030  1
  S  S395  1  0.95063170  0.99966358  0.23022970  1
  S  S396  1  0.04936830  0.73022970  0.50033642  1
  S  S397  1  0.95063170  0.26977030  0.50033642  1
  S  S398  1  0.04936830  0.26977030  0.49966358  1
  S  S399  1  0.95063170  0.73022970  0.49966358  1
  S  S400  1  0.23022970  0.00033642  0.04936830  1
  S  S401  1  0.76977030  0.00033642  0.95063170  1
  S  S402  1  0.76977030  0.99966358  0.04936830  1
  S  S403  1  0.23022970  0.99966358  0.95063170  1
  S  S404  1  0.50033642  0.54936830  0.23022970  1
  S  S405  1  0.50033642  0.45063170  0.76977030  1
  S  S406  1  0.49966358  0.54936830  0.76977030  1
  S  S407  1  0.49966358  0.45063170  0.23022970  1
  S  S408  1  0.23022970  0.04936830  0.00033642  1
  S  S409  1  0.76977030  0.95063170  0.00033642  1
  S  S410  1  0.76977030  0.04936830  0.99966358  1
  S  S411  1  0.23022970  0.95063170  0.99966358  1
  S  S412  1  0.50033642  0.23022970  0.54936830  1
  S  S413  1  0.50033642  0.76977030  0.45063170  1
  S  S414  1  0.49966358  0.76977030  0.54936830  1
  S  S415  1  0.49966358  0.23022970  0.45063170  1
  S  S416  1  0.04936830  0.50033642  0.73022970  1
  S  S417  1  0.95063170  0.50033642  0.26977030  1
  S  S418  1  0.04936830  0.49966358  0.26977030  1
  S  S419  1  0.95063170  0.49966358  0.73022970  1
  S  S420  1  0.04936830  0.23022970  0.00033642  1
  S  S421  1  0.95063170  0.76977030  0.00033642  1
  S  S422  1  0.04936830  0.76977030  0.99966358  1
  S  S423  1  0.95063170  0.23022970  0.99966358  1
  S  S424  1  0.23022970  0.50033642  0.54936830  1
  S  S425  1  0.76977030  0.50033642  0.45063170  1
  S  S426  1  0.76977030  0.49966358  0.54936830  1
  S  S427  1  0.23022970  0.49966358  0.45063170  1
  S  S428  1  0.50033642  0.04936830  0.73022970  1
  S  S429  1  0.50033642  0.95063170  0.26977030  1
  S  S430  1  0.49966358  0.04936830  0.26977030  1
  S  S431  1  0.49966358  0.95063170  0.73022970  1
  Sb  Sb432  1  0.09405729  0.09405729  0.77026624  1
  Sb  Sb433  1  0.90594271  0.90594271  0.77026624  1
  Sb  Sb434  1  0.90594271  0.09405729  0.22973376  1
  Sb  Sb435  1  0.09405729  0.90594271  0.22973376  1
  Sb  Sb436  1  0.77026624  0.09405729  0.09405729  1
  Sb  Sb437  1  0.77026624  0.90594271  0.90594271  1
  Sb  Sb438  1  0.22973376  0.90594271  0.09405729  1
  Sb  Sb439  1  0.22973376  0.09405729  0.90594271  1
  Sb  Sb440  1  0.09405729  0.77026624  0.09405729  1
  Sb  Sb441  1  0.90594271  0.77026624  0.90594271  1
  Sb  Sb442  1  0.09405729  0.22973376  0.90594271  1
  Sb  Sb443  1  0.90594271  0.22973376  0.09405729  1
  Sb  Sb444  1  0.09405729  0.59405729  0.27026624  1
  Sb  Sb445  1  0.90594271  0.40594271  0.27026624  1
  Sb  Sb446  1  0.90594271  0.59405729  0.72973376  1
  Sb  Sb447  1  0.09405729  0.40594271  0.72973376  1
  Sb  Sb448  1  0.77026624  0.59405729  0.59405729  1
  Sb  Sb449  1  0.77026624  0.40594271  0.40594271  1
  Sb  Sb450  1  0.22973376  0.40594271  0.59405729  1
  Sb  Sb451  1  0.22973376  0.59405729  0.40594271  1
  Sb  Sb452  1  0.09405729  0.27026624  0.59405729  1
  Sb  Sb453  1  0.90594271  0.27026624  0.40594271  1
  Sb  Sb454  1  0.09405729  0.72973376  0.40594271  1
  Sb  Sb455  1  0.90594271  0.72973376  0.59405729  1
  Sb  Sb456  1  0.59405729  0.09405729  0.27026624  1
  Sb  Sb457  1  0.40594271  0.90594271  0.27026624  1
  Sb  Sb458  1  0.40594271  0.09405729  0.72973376  1
  Sb  Sb459  1  0.59405729  0.90594271  0.72973376  1
  Sb  Sb460  1  0.27026624  0.09405729  0.59405729  1
  Sb  Sb461  1  0.27026624  0.90594271  0.40594271  1
  Sb  Sb462  1  0.72973376  0.90594271  0.59405729  1
  Sb  Sb463  1  0.72973376  0.09405729  0.40594271  1
  Sb  Sb464  1  0.59405729  0.77026624  0.59405729  1
  Sb  Sb465  1  0.40594271  0.77026624  0.40594271  1
  Sb  Sb466  1  0.59405729  0.22973376  0.40594271  1
  Sb  Sb467  1  0.40594271  0.22973376  0.59405729  1
  Sb  Sb468  1  0.59405729  0.59405729  0.77026624  1
  Sb  Sb469  1  0.40594271  0.40594271  0.77026624  1
  Sb  Sb470  1  0.40594271  0.59405729  0.22973376  1
  Sb  Sb471  1  0.59405729  0.40594271  0.22973376  1
  Sb  Sb472  1  0.27026624  0.59405729  0.09405729  1
  Sb  Sb473  1  0.27026624  0.40594271  0.90594271  1
  Sb  Sb474  1  0.72973376  0.40594271  0.09405729  1
  Sb  Sb475  1  0.72973376  0.59405729  0.90594271  1
  Sb  Sb476  1  0.59405729  0.27026624  0.09405729  1
  Sb  Sb477  1  0.40594271  0.27026624  0.90594271  1
  Sb  Sb478  1  0.59405729  0.72973376  0.90594271  1
  Sb  Sb479  1  0.40594271  0.72973376  0.09405729  1
