# generated using pymatgen
data_Li12Sb2(SO2)3
_symmetry_space_group_name_H-M   'P 1'
_cell_length_a   11.64412708
_cell_length_b   11.64412708
_cell_length_c   10.74576855
_cell_angle_alpha   90.00000000
_cell_angle_beta   90.00000000
_cell_angle_gamma   120.00000000
_symmetry_Int_Tables_number   1
_chemical_formula_structural   Li12Sb2(SO2)3
_chemical_formula_sum   'Li48 Sb8 S12 O24'
_cell_volume   1261.77519867
_cell_formula_units_Z   4
loop_
 _symmetry_equiv_pos_site_id
 _symmetry_equiv_pos_as_xyz
  1  'x, y, z'
loop_
 _atom_site_type_symbol
 _atom_site_label
 _atom_site_symmetry_multiplicity
 _atom_site_fract_x
 _atom_site_fract_y
 _atom_site_fract_z
 _atom_site_occupancy
  Li  Li0  1  0.14145413  0.00000000  0.00000000  1
  Li  Li1  1  0.00000000  0.14145413  0.00000000  1
  Li  Li2  1  0.85854587  0.85854587  0.00000000  1
  Li  Li3  1  0.85854587  0.00000000  0.50000000  1
  Li  Li4  1  0.00000000  0.85854587  0.50000000  1
  Li  Li5  1  0.14145413  0.14145413  0.50000000  1
  Li  Li6  1  0.85854587  0.00000000  0.00000000  1
  Li  Li7  1  0.00000000  0.85854587  0.00000000  1
  Li  Li8  1  0.14145413  0.14145413  0.00000000  1
  Li  Li9  1  0.14145413  0.00000000  0.50000000  1
  Li  Li10  1  0.00000000  0.14145413  0.50000000  1
  Li  Li11  1  0.85854587  0.85854587  0.50000000  1
  Li  Li12  1  0.40099489  0.80198979  0.05490048  1
  Li  Li13  1  0.19801021  0.59900511  0.05490048  1
  Li  Li14  1  0.40099489  0.59900511  0.05490048  1
  Li  Li15  1  0.59900511  0.19801021  0.55490048  1
  Li  Li16  1  0.80198979  0.40099489  0.55490048  1
  Li  Li17  1  0.59900511  0.40099489  0.55490048  1
  Li  Li18  1  0.80198979  0.40099489  0.94509952  1
  Li  Li19  1  0.59900511  0.19801021  0.94509952  1
  Li  Li20  1  0.59900511  0.40099489  0.94509952  1
  Li  Li21  1  0.19801021  0.59900511  0.44509952  1
  Li  Li22  1  0.40099489  0.80198979  0.44509952  1
  Li  Li23  1  0.40099489  0.59900511  0.44509952  1
  Li  Li24  1  0.10499143  0.20998285  0.58770112  1
  Li  Li25  1  0.79001715  0.89500857  0.58770112  1
  Li  Li26  1  0.10499143  0.89500857  0.58770112  1
  Li  Li27  1  0.89500857  0.79001715  0.08770112  1
  Li  Li28  1  0.20998285  0.10499143  0.08770112  1
  Li  Li29  1  0.89500857  0.10499143  0.08770112  1
  Li  Li30  1  0.20998285  0.10499143  0.41229888  1
  Li  Li31  1  0.89500857  0.79001715  0.41229888  1
  Li  Li32  1  0.89500857  0.10499143  0.41229888  1
  Li  Li33  1  0.79001715  0.89500857  0.91229888  1
  Li  Li34  1  0.10499143  0.20998285  0.91229888  1
  Li  Li35  1  0.10499143  0.89500857  0.91229888  1
  Li  Li36  1  0.33333333  0.66666667  0.25000000  1
  Li  Li37  1  0.66666667  0.33333333  0.75000000  1
  Li  Li38  1  0.00000000  0.00000000  0.35457485  1
  Li  Li39  1  0.00000000  0.00000000  0.85457485  1
  Li  Li40  1  0.00000000  0.00000000  0.64542515  1
  Li  Li41  1  0.00000000  0.00000000  0.14542515  1
  Li  Li42  1  0.50000000  0.00000000  0.00000000  1
  Li  Li43  1  0.00000000  0.50000000  0.00000000  1
  Li  Li44  1  0.50000000  0.50000000  0.00000000  1
  Li  Li45  1  0.50000000  0.00000000  0.50000000  1
  Li  Li46  1  0.00000000  0.50000000  0.50000000  1
  Li  Li47  1  0.50000000  0.50000000  0.50000000  1
  O  O48  1  0.77803252  0.55606503  0.70654148  1
  O  O49  1  0.44393497  0.22196748  0.70654148  1
  O  O50  1  0.77803252  0.22196748  0.70654148  1
  O  O51  1  0.22196748  0.44393497  0.20654148  1
  O  O52  1  0.55606503  0.77803252  0.20654148  1
  O  O53  1  0.22196748  0.77803252  0.20654148  1
  O  O54  1  0.55606503  0.77803252  0.29345852  1
  O  O55  1  0.22196748  0.44393497  0.29345852  1
  O  O56  1  0.22196748  0.77803252  0.29345852  1
  O  O57  1  0.44393497  0.22196748  0.79345852  1
  O  O58  1  0.77803252  0.55606503  0.79345852  1
  O  O59  1  0.77803252  0.22196748  0.79345852  1
  O  O60  1  0.65259471  0.00000000  0.00000000  1
  O  O61  1  0.00000000  0.65259471  0.00000000  1
  O  O62  1  0.34740529  0.34740529  0.00000000  1
  O  O63  1  0.34740529  -0.00000000  0.50000000  1
  O  O64  1  0.00000000  0.34740529  0.50000000  1
  O  O65  1  0.65259471  0.65259471  0.50000000  1
  O  O66  1  0.34740529  -0.00000000  0.00000000  1
  O  O67  1  0.00000000  0.34740529  -0.00000000  1
  O  O68  1  0.65259471  0.65259471  0.00000000  1
  O  O69  1  0.65259471  0.00000000  0.50000000  1
  O  O70  1  0.00000000  0.65259471  0.50000000  1
  O  O71  1  0.34740529  0.34740529  0.50000000  1
  S  S72  1  0.74441996  0.06399600  0.25000000  1
  S  S73  1  -0.06399600  0.68042396  0.25000000  1
  S  S74  1  -0.68042396  -0.74441996  0.25000000  1
  S  S75  1  -0.74441996  -0.06399600  0.75000000  1
  S  S76  1  0.06399600  -0.68042396  0.75000000  1
  S  S77  1  0.68042396  0.74441996  0.75000000  1
  S  S78  1  0.06399600  0.74441996  0.75000000  1
  S  S79  1  0.68042396  -0.06399600  0.75000000  1
  S  S80  1  -0.74441996  -0.68042396  0.75000000  1
  S  S81  1  -0.06399600  -0.74441996  0.25000000  1
  S  S82  1  -0.68042396  0.06399600  0.25000000  1
  S  S83  1  0.74441996  0.68042396  0.25000000  1
  Sb  Sb84  1  0.40020356  0.80040712  0.25000000  1
  Sb  Sb85  1  0.19959288  0.59979644  0.25000000  1
  Sb  Sb86  1  0.40020356  0.59979644  0.25000000  1
  Sb  Sb87  1  0.59979644  0.19959288  0.75000000  1
  Sb  Sb88  1  0.80040712  0.40020356  0.75000000  1
  Sb  Sb89  1  0.59979644  0.40020356  0.75000000  1
  Sb  Sb90  1  0.00000000  0.00000000  0.00000000  1
  Sb  Sb91  1  0.00000000  0.00000000  0.50000000  1
