# generated using pymatgen
data_LiBCl4
_symmetry_space_group_name_H-M   'P 1'
_cell_length_a   4.24800899
_cell_length_b   15.08698224
_cell_length_c   7.67421767
_cell_angle_alpha   90.00000000
_cell_angle_beta   90.00000000
_cell_angle_gamma   90.00000000
_symmetry_Int_Tables_number   1
_chemical_formula_structural   LiBCl4
_chemical_formula_sum   'Li4 B4 Cl16'
_cell_volume   491.83781811
_cell_formula_units_Z   4
loop_
 _symmetry_equiv_pos_site_id
 _symmetry_equiv_pos_as_xyz
  1  'x, y, z'
loop_
 _atom_site_type_symbol
 _atom_site_label
 _atom_site_symmetry_multiplicity
 _atom_site_fract_x
 _atom_site_fract_y
 _atom_site_fract_z
 _atom_site_occupancy
  B  B0  1  0.10651339  0.25000000  0.12654312  1
  B  B1  1  0.39348661  0.75000000  0.62654312  1
  B  B2  1  0.89348661  0.75000000  0.87345688  1
  B  B3  1  0.60651339  0.25000000  0.37345688  1
  Cl  Cl4  1  0.04925692  0.70096092  0.15728376  1
  Cl  Cl5  1  0.45074308  -0.70096092  0.65728376  1
  Cl  Cl6  1  -0.04925692  1.20096092  -0.15728376  1
  Cl  Cl7  1  0.54925692  -0.20096092  0.34271624  1
  Cl  Cl8  1  -0.04925692  -0.70096092  -0.15728376  1
  Cl  Cl9  1  0.54925692  0.70096092  0.34271624  1
  Cl  Cl10  1  0.04925692  -0.20096092  0.15728376  1
  Cl  Cl11  1  0.45074308  1.20096092  0.65728376  1
  Cl  Cl12  1  0.00000000  0.00000000  0.00000000  1
  Cl  Cl13  1  0.50000000  0.00000000  0.50000000  1
  Cl  Cl14  1  0.00000000  0.50000000  0.00000000  1
  Cl  Cl15  1  0.50000000  0.50000000  0.50000000  1
  Cl  Cl16  1  0.00000000  0.00000000  0.50000000  1
  Cl  Cl17  1  0.50000000  0.00000000  -0.00000000  1
  Cl  Cl18  1  0.00000000  0.50000000  0.50000000  1
  Cl  Cl19  1  0.50000000  0.50000000  0.00000000  1
  Li  Li20  1  0.88807391  0.25000000  0.53223574  1
  Li  Li21  1  0.61192609  0.75000000  0.03223574  1
  Li  Li22  1  0.11192609  0.75000000  0.46776426  1
  Li  Li23  1  0.38807391  0.25000000  0.96776426  1
