# generated using pymatgen
data_NaLiO
_symmetry_space_group_name_H-M   'P 1'
_cell_length_a   15.63387070
_cell_length_b   14.27325721
_cell_length_c   18.23498615
_cell_angle_alpha   90.00000000
_cell_angle_beta   90.00000000
_cell_angle_gamma   90.00000000
_symmetry_Int_Tables_number   1
_chemical_formula_structural   NaLiO
_chemical_formula_sum   'Na64 Li64 O64'
_cell_volume   4069.06892074
_cell_formula_units_Z   64
loop_
 _symmetry_equiv_pos_site_id
 _symmetry_equiv_pos_as_xyz
  1  'x, y, z'
loop_
 _atom_site_type_symbol
 _atom_site_label
 _atom_site_symmetry_multiplicity
 _atom_site_fract_x
 _atom_site_fract_y
 _atom_site_fract_z
 _atom_site_occupancy
  Li  Li0  1  0.82178315  0.84896649  0.82059442  1
  Li  Li1  1  0.92821685  0.90103351  0.82059442  1
  Li  Li2  1  0.92821685  0.84896649  0.92940558  1
  Li  Li3  1  0.82178315  0.90103351  0.92940558  1
  Li  Li4  1  0.17821685  0.15103351  0.17940558  1
  Li  Li5  1  0.07178315  0.09896649  0.17940558  1
  Li  Li6  1  0.07178315  0.15103351  0.07059442  1
  Li  Li7  1  0.17821685  0.09896649  0.07059442  1
  Li  Li8  1  0.82178315  0.34896649  0.32059442  1
  Li  Li9  1  0.92821685  0.40103351  0.32059442  1
  Li  Li10  1  0.92821685  0.34896649  0.42940558  1
  Li  Li11  1  0.82178315  0.40103351  0.42940558  1
  Li  Li12  1  0.17821685  0.65103351  0.67940558  1
  Li  Li13  1  0.07178315  0.59896649  0.67940558  1
  Li  Li14  1  0.07178315  0.65103351  0.57059442  1
  Li  Li15  1  0.17821685  0.59896649  0.57059442  1
  Li  Li16  1  0.32178315  0.84896649  0.32059442  1
  Li  Li17  1  0.42821685  0.90103351  0.32059442  1
  Li  Li18  1  0.42821685  0.84896649  0.42940558  1
  Li  Li19  1  0.32178315  0.90103351  0.42940558  1
  Li  Li20  1  0.67821685  0.15103351  0.67940558  1
  Li  Li21  1  0.57178315  0.09896649  0.67940558  1
  Li  Li22  1  0.57178315  0.15103351  0.57059442  1
  Li  Li23  1  0.67821685  0.09896649  0.57059442  1
  Li  Li24  1  0.32178315  0.34896649  0.82059442  1
  Li  Li25  1  0.42821685  0.40103351  0.82059442  1
  Li  Li26  1  0.42821685  0.34896649  0.92940558  1
  Li  Li27  1  0.32178315  0.40103351  0.92940558  1
  Li  Li28  1  0.67821685  0.65103351  0.17940558  1
  Li  Li29  1  0.57178315  0.59896649  0.17940558  1
  Li  Li30  1  0.57178315  0.65103351  0.07059442  1
  Li  Li31  1  0.67821685  0.59896649  0.07059442  1
  Li  Li32  1  0.00000000  0.00000000  0.00000000  1
  Li  Li33  1  0.75000000  0.75000000  0.00000000  1
  Li  Li34  1  0.75000000  0.00000000  0.75000000  1
  Li  Li35  1  0.00000000  0.75000000  0.75000000  1
  Li  Li36  1  0.00000000  0.50000000  0.50000000  1
  Li  Li37  1  0.75000000  0.25000000  0.50000000  1
  Li  Li38  1  0.75000000  0.50000000  0.25000000  1
  Li  Li39  1  0.00000000  0.25000000  0.25000000  1
  Li  Li40  1  0.50000000  0.00000000  0.50000000  1
  Li  Li41  1  0.25000000  0.75000000  0.50000000  1
  Li  Li42  1  0.25000000  0.00000000  0.25000000  1
  Li  Li43  1  0.50000000  0.75000000  0.25000000  1
  Li  Li44  1  0.50000000  0.50000000  0.00000000  1
  Li  Li45  1  0.25000000  0.25000000  0.00000000  1
  Li  Li46  1  0.25000000  0.50000000  0.75000000  1
  Li  Li47  1  0.50000000  0.25000000  0.75000000  1
  Li  Li48  1  0.12500000  0.12500000  0.62500000  1
  Li  Li49  1  0.87500000  0.87500000  0.37500000  1
  Li  Li50  1  0.12500000  0.62500000  0.12500000  1
  Li  Li51  1  0.87500000  0.37500000  0.87500000  1
  Li  Li52  1  0.62500000  0.12500000  0.12500000  1
  Li  Li53  1  0.37500000  0.87500000  0.87500000  1
  Li  Li54  1  0.62500000  0.62500000  0.62500000  1
  Li  Li55  1  0.37500000  0.37500000  0.37500000  1
  Li  Li56  1  0.12500000  0.12500000  0.12500000  1
  Li  Li57  1  0.87500000  0.87500000  0.87500000  1
  Li  Li58  1  0.12500000  0.62500000  0.62500000  1
  Li  Li59  1  0.87500000  0.37500000  0.37500000  1
  Li  Li60  1  0.62500000  0.12500000  0.62500000  1
  Li  Li61  1  0.37500000  0.87500000  0.37500000  1
  Li  Li62  1  0.62500000  0.62500000  0.12500000  1
  Li  Li63  1  0.37500000  0.37500000  0.87500000  1
  Na  Na64  1  0.58701817  0.25468778  0.08185716  1
  Na  Na65  1  0.16298183  0.49531222  0.08185716  1
  Na  Na66  1  0.16298183  0.25468778  0.66814284  1
  Na  Na67  1  0.58701817  0.49531222  0.66814284  1
  Na  Na68  1  -0.58701817  -0.25468778  -0.08185716  1
  Na  Na69  1  0.83701817  0.50468778  -0.08185716  1
  Na  Na70  1  0.83701817  -0.25468778  0.33185716  1
  Na  Na71  1  -0.58701817  0.50468778  0.33185716  1
  Na  Na72  1  0.58701817  0.75468778  0.58185716  1
  Na  Na73  1  0.16298183  0.99531222  0.58185716  1
  Na  Na74  1  0.16298183  0.75468778  1.16814284  1
  Na  Na75  1  0.58701817  0.99531222  1.16814284  1
  Na  Na76  1  -0.58701817  0.24531222  0.41814284  1
  Na  Na77  1  0.83701817  1.00468778  0.41814284  1
  Na  Na78  1  0.83701817  0.24531222  0.83185716  1
  Na  Na79  1  -0.58701817  1.00468778  0.83185716  1
  Na  Na80  1  1.08701817  0.25468778  0.58185716  1
  Na  Na81  1  0.66298183  0.49531222  0.58185716  1
  Na  Na82  1  0.66298183  0.25468778  1.16814284  1
  Na  Na83  1  1.08701817  0.49531222  1.16814284  1
  Na  Na84  1  -0.08701817  -0.25468778  0.41814284  1
  Na  Na85  1  1.33701817  0.50468778  0.41814284  1
  Na  Na86  1  1.33701817  -0.25468778  0.83185716  1
  Na  Na87  1  -0.08701817  0.50468778  0.83185716  1
  Na  Na88  1  1.08701817  0.75468778  0.08185716  1
  Na  Na89  1  0.66298183  0.99531222  0.08185716  1
  Na  Na90  1  0.66298183  0.75468778  0.66814284  1
  Na  Na91  1  1.08701817  0.99531222  0.66814284  1
  Na  Na92  1  -0.08701817  0.24531222  -0.08185716  1
  Na  Na93  1  1.33701817  1.00468778  -0.08185716  1
  Na  Na94  1  1.33701817  0.24531222  0.33185716  1
  Na  Na95  1  -0.08701817  1.00468778  0.33185716  1
  Na  Na96  1  0.50000000  0.50000000  0.50000000  1
  Na  Na97  1  0.25000000  0.25000000  0.50000000  1
  Na  Na98  1  0.25000000  0.50000000  0.25000000  1
  Na  Na99  1  0.50000000  0.25000000  0.25000000  1
  Na  Na100  1  0.50000000  0.00000000  0.00000000  1
  Na  Na101  1  0.25000000  0.75000000  0.00000000  1
  Na  Na102  1  0.25000000  0.00000000  0.75000000  1
  Na  Na103  1  0.50000000  0.75000000  0.75000000  1
  Na  Na104  1  0.00000000  0.50000000  0.00000000  1
  Na  Na105  1  0.75000000  0.25000000  0.00000000  1
  Na  Na106  1  0.75000000  0.50000000  0.75000000  1
  Na  Na107  1  0.00000000  0.25000000  0.75000000  1
  Na  Na108  1  0.00000000  0.00000000  0.50000000  1
  Na  Na109  1  0.75000000  0.75000000  0.50000000  1
  Na  Na110  1  0.75000000  0.00000000  0.25000000  1
  Na  Na111  1  0.00000000  0.75000000  0.25000000  1
  Na  Na112  1  0.12500000  0.96523042  0.12500000  1
  Na  Na113  1  0.62500000  0.78476958  0.12500000  1
  Na  Na114  1  0.87500000  0.03476958  0.87500000  1
  Na  Na115  1  0.37500000  0.21523042  0.87500000  1
  Na  Na116  1  0.12500000  0.46523042  0.62500000  1
  Na  Na117  1  0.62500000  0.28476958  0.62500000  1
  Na  Na118  1  0.87500000  0.53476958  0.37500000  1
  Na  Na119  1  0.37500000  0.71523042  0.37500000  1
  Na  Na120  1  0.62500000  0.96523042  0.62500000  1
  Na  Na121  1  0.12500000  0.78476958  0.62500000  1
  Na  Na122  1  0.37500000  0.03476958  0.37500000  1
  Na  Na123  1  0.87500000  0.21523042  0.37500000  1
  Na  Na124  1  0.62500000  0.46523042  0.12500000  1
  Na  Na125  1  0.12500000  0.28476958  0.12500000  1
  Na  Na126  1  0.37500000  0.53476958  0.87500000  1
  Na  Na127  1  0.87500000  0.71523042  0.87500000  1
  O  O128  1  0.73836025  0.88557862  0.33795856  1
  O  O129  1  0.01163975  0.86442138  0.33795856  1
  O  O130  1  0.01163975  0.88557862  0.41204144  1
  O  O131  1  0.73836025  0.86442138  0.41204144  1
  O  O132  1  0.26163975  0.11442138  0.66204144  1
  O  O133  1  0.98836025  0.13557862  0.66204144  1
  O  O134  1  0.98836025  0.11442138  0.58795856  1
  O  O135  1  0.26163975  0.13557862  0.58795856  1
  O  O136  1  0.73836025  0.38557862  0.83795856  1
  O  O137  1  0.01163975  0.36442138  0.83795856  1
  O  O138  1  0.01163975  0.38557862  0.91204144  1
  O  O139  1  0.73836025  0.36442138  0.91204144  1
  O  O140  1  0.26163975  0.61442138  0.16204144  1
  O  O141  1  0.98836025  0.63557862  0.16204144  1
  O  O142  1  0.98836025  0.61442138  0.08795856  1
  O  O143  1  0.26163975  0.63557862  0.08795856  1
  O  O144  1  0.23836025  0.88557862  0.83795856  1
  O  O145  1  0.51163975  0.86442138  0.83795856  1
  O  O146  1  0.51163975  0.88557862  0.91204144  1
  O  O147  1  0.23836025  0.86442138  0.91204144  1
  O  O148  1  0.76163975  0.11442138  0.16204144  1
  O  O149  1  0.48836025  0.13557862  0.16204144  1
  O  O150  1  0.48836025  0.11442138  0.08795856  1
  O  O151  1  0.76163975  0.13557862  0.08795856  1
  O  O152  1  0.23836025  0.38557862  0.33795856  1
  O  O153  1  0.51163975  0.36442138  0.33795856  1
  O  O154  1  0.51163975  0.38557862  0.41204144  1
  O  O155  1  0.23836025  0.36442138  0.41204144  1
  O  O156  1  0.76163975  0.61442138  0.66204144  1
  O  O157  1  0.48836025  0.63557862  0.66204144  1
  O  O158  1  0.48836025  0.61442138  0.58795856  1
  O  O159  1  0.76163975  0.63557862  0.58795856  1
  O  O160  1  0.12500000  0.12500000  0.75669945  1
  O  O161  1  0.62500000  0.12500000  0.99330055  1
  O  O162  1  0.87500000  0.87500000  0.24330055  1
  O  O163  1  0.37500000  0.87500000  0.00669945  1
  O  O164  1  0.12500000  0.62500000  0.25669945  1
  O  O165  1  0.62500000  0.62500000  0.49330055  1
  O  O166  1  0.87500000  0.37500000  0.74330055  1
  O  O167  1  0.37500000  0.37500000  0.50669945  1
  O  O168  1  0.62500000  0.12500000  0.25669945  1
  O  O169  1  0.12500000  0.12500000  0.49330055  1
  O  O170  1  0.37500000  0.87500000  0.74330055  1
  O  O171  1  0.87500000  0.87500000  0.50669945  1
  O  O172  1  0.62500000  0.62500000  0.75669945  1
  O  O173  1  0.12500000  0.62500000  0.99330055  1
  O  O174  1  0.37500000  0.37500000  0.24330055  1
  O  O175  1  0.87500000  0.37500000  0.00669945  1
  O  O176  1  0.12500000  0.12500000  0.23453300  1
  O  O177  1  0.62500000  0.12500000  0.51546700  1
  O  O178  1  0.87500000  0.87500000  0.76546700  1
  O  O179  1  0.37500000  0.87500000  0.48453300  1
  O  O180  1  0.12500000  0.62500000  0.73453300  1
  O  O181  1  0.62500000  0.62500000  0.01546700  1
  O  O182  1  0.87500000  0.37500000  0.26546700  1
  O  O183  1  0.37500000  0.37500000  0.98453300  1
  O  O184  1  0.62500000  0.12500000  0.73453300  1
  O  O185  1  0.12500000  0.12500000  0.01546700  1
  O  O186  1  0.37500000  0.87500000  0.26546700  1
  O  O187  1  0.87500000  0.87500000  0.98453300  1
  O  O188  1  0.62500000  0.62500000  0.23453300  1
  O  O189  1  0.12500000  0.62500000  0.51546700  1
  O  O190  1  0.37500000  0.37500000  0.76546700  1
  O  O191  1  0.87500000  0.37500000  0.48453300  1
