# generated using pymatgen
data_K12Sb2Se9
_symmetry_space_group_name_H-M   'P 1'
_cell_length_a   20.64248767
_cell_length_b   20.64248767
_cell_length_c   20.64248767
_cell_angle_alpha   90.00000000
_cell_angle_beta   90.00000000
_cell_angle_gamma   90.00000000
_symmetry_Int_Tables_number   1
_chemical_formula_structural   K12Sb2Se9
_chemical_formula_sum   'K96 Sb16 Se72'
_cell_volume   8796.01784611
_cell_formula_units_Z   8
loop_
 _symmetry_equiv_pos_site_id
 _symmetry_equiv_pos_as_xyz
  1  'x, y, z'
loop_
 _atom_site_type_symbol
 _atom_site_label
 _atom_site_symmetry_multiplicity
 _atom_site_fract_x
 _atom_site_fract_y
 _atom_site_fract_z
 _atom_site_occupancy
  K  K0  1  0.61963302  0.00000000  0.00000000  1
  K  K1  1  0.38036698  0.00000000  0.00000000  1
  K  K2  1  0.00000000  0.61963302  0.00000000  1
  K  K3  1  0.00000000  0.38036698  0.00000000  1
  K  K4  1  0.00000000  0.00000000  0.61963302  1
  K  K5  1  0.00000000  0.00000000  0.38036698  1
  K  K6  1  0.61963302  0.50000000  0.50000000  1
  K  K7  1  0.38036698  0.50000000  0.50000000  1
  K  K8  1  0.00000000  0.11963302  0.50000000  1
  K  K9  1  0.00000000  0.88036698  0.50000000  1
  K  K10  1  0.00000000  0.50000000  0.11963302  1
  K  K11  1  0.00000000  0.50000000  0.88036698  1
  K  K12  1  0.11963302  -0.00000000  0.50000000  1
  K  K13  1  0.88036698  0.00000000  0.50000000  1
  K  K14  1  0.50000000  0.61963302  0.50000000  1
  K  K15  1  0.50000000  0.38036698  0.50000000  1
  K  K16  1  0.50000000  0.00000000  0.11963302  1
  K  K17  1  0.50000000  0.00000000  0.88036698  1
  K  K18  1  0.11963302  0.50000000  0.00000000  1
  K  K19  1  0.88036698  0.50000000  -0.00000000  1
  K  K20  1  0.50000000  0.11963302  0.00000000  1
  K  K21  1  0.50000000  0.88036698  0.00000000  1
  K  K22  1  0.50000000  0.50000000  0.61963302  1
  K  K23  1  0.50000000  0.50000000  0.38036698  1
  K  K24  1  0.32888660  0.32888660  0.32888660  1
  K  K25  1  0.67111340  0.67111340  0.32888660  1
  K  K26  1  0.67111340  0.32888660  0.67111340  1
  K  K27  1  0.32888660  0.67111340  0.67111340  1
  K  K28  1  0.32888660  0.82888660  0.82888660  1
  K  K29  1  0.67111340  0.17111340  0.82888660  1
  K  K30  1  0.67111340  0.82888660  0.17111340  1
  K  K31  1  0.32888660  0.17111340  0.17111340  1
  K  K32  1  0.82888660  0.32888660  0.82888660  1
  K  K33  1  0.17111340  0.67111340  0.82888660  1
  K  K34  1  0.17111340  0.32888660  0.17111340  1
  K  K35  1  0.82888660  0.67111340  0.17111340  1
  K  K36  1  0.82888660  0.82888660  0.32888660  1
  K  K37  1  0.17111340  0.17111340  0.32888660  1
  K  K38  1  0.17111340  0.82888660  0.67111340  1
  K  K39  1  0.82888660  0.17111340  0.67111340  1
  K  K40  1  0.15398899  0.15398899  0.74410923  1
  K  K41  1  -0.15398899  -0.15398899  0.74410923  1
  K  K42  1  -0.15398899  0.15398899  -0.74410923  1
  K  K43  1  0.15398899  -0.15398899  -0.74410923  1
  K  K44  1  0.74410923  0.15398899  0.15398899  1
  K  K45  1  0.74410923  -0.15398899  -0.15398899  1
  K  K46  1  -0.74410923  -0.15398899  0.15398899  1
  K  K47  1  -0.74410923  0.15398899  -0.15398899  1
  K  K48  1  0.15398899  0.74410923  0.15398899  1
  K  K49  1  -0.15398899  0.74410923  -0.15398899  1
  K  K50  1  0.15398899  -0.74410923  -0.15398899  1
  K  K51  1  -0.15398899  -0.74410923  0.15398899  1
  K  K52  1  0.15398899  0.65398899  1.24410923  1
  K  K53  1  -0.15398899  0.34601101  1.24410923  1
  K  K54  1  -0.15398899  0.65398899  -0.24410923  1
  K  K55  1  0.15398899  0.34601101  -0.24410923  1
  K  K56  1  0.74410923  0.65398899  0.65398899  1
  K  K57  1  0.74410923  0.34601101  0.34601101  1
  K  K58  1  -0.74410923  0.34601101  0.65398899  1
  K  K59  1  -0.74410923  0.65398899  0.34601101  1
  K  K60  1  0.15398899  1.24410923  0.65398899  1
  K  K61  1  -0.15398899  1.24410923  0.34601101  1
  K  K62  1  0.15398899  -0.24410923  0.34601101  1
  K  K63  1  -0.15398899  -0.24410923  0.65398899  1
  K  K64  1  0.65398899  0.15398899  1.24410923  1
  K  K65  1  0.34601101  -0.15398899  1.24410923  1
  K  K66  1  0.34601101  0.15398899  -0.24410923  1
  K  K67  1  0.65398899  -0.15398899  -0.24410923  1
  K  K68  1  1.24410923  0.15398899  0.65398899  1
  K  K69  1  1.24410923  -0.15398899  0.34601101  1
  K  K70  1  -0.24410923  -0.15398899  0.65398899  1
  K  K71  1  -0.24410923  0.15398899  0.34601101  1
  K  K72  1  0.65398899  0.74410923  0.65398899  1
  K  K73  1  0.34601101  0.74410923  0.34601101  1
  K  K74  1  0.65398899  -0.74410923  0.34601101  1
  K  K75  1  0.34601101  -0.74410923  0.65398899  1
  K  K76  1  0.65398899  0.65398899  0.74410923  1
  K  K77  1  0.34601101  0.34601101  0.74410923  1
  K  K78  1  0.34601101  0.65398899  -0.74410923  1
  K  K79  1  0.65398899  0.34601101  -0.74410923  1
  K  K80  1  1.24410923  0.65398899  0.15398899  1
  K  K81  1  1.24410923  0.34601101  -0.15398899  1
  K  K82  1  -0.24410923  0.34601101  0.15398899  1
  K  K83  1  -0.24410923  0.65398899  -0.15398899  1
  K  K84  1  0.65398899  1.24410923  0.15398899  1
  K  K85  1  0.34601101  1.24410923  -0.15398899  1
  K  K86  1  0.65398899  -0.24410923  -0.15398899  1
  K  K87  1  0.34601101  -0.24410923  0.15398899  1
  K  K88  1  0.50000000  0.50000000  0.50000000  1
  K  K89  1  0.50000000  0.00000000  0.00000000  1
  K  K90  1  0.00000000  0.50000000  0.00000000  1
  K  K91  1  0.00000000  0.00000000  0.50000000  1
  K  K92  1  0.25000000  0.25000000  0.25000000  1
  K  K93  1  0.25000000  0.75000000  0.75000000  1
  K  K94  1  0.75000000  0.25000000  0.75000000  1
  K  K95  1  0.75000000  0.75000000  0.25000000  1
  Sb  Sb96  1  0.40743518  0.40743518  0.40743518  1
  Sb  Sb97  1  0.59256482  0.59256482  0.40743518  1
  Sb  Sb98  1  0.59256482  0.40743518  0.59256482  1
  Sb  Sb99  1  0.40743518  0.59256482  0.59256482  1
  Sb  Sb100  1  0.40743518  0.90743518  0.90743518  1
  Sb  Sb101  1  0.59256482  0.09256482  0.90743518  1
  Sb  Sb102  1  0.59256482  0.90743518  0.09256482  1
  Sb  Sb103  1  0.40743518  0.09256482  0.09256482  1
  Sb  Sb104  1  0.90743518  0.40743518  0.90743518  1
  Sb  Sb105  1  0.09256482  0.59256482  0.90743518  1
  Sb  Sb106  1  0.09256482  0.40743518  0.09256482  1
  Sb  Sb107  1  0.90743518  0.59256482  0.09256482  1
  Sb  Sb108  1  0.90743518  0.90743518  0.40743518  1
  Sb  Sb109  1  0.09256482  0.09256482  0.40743518  1
  Sb  Sb110  1  0.09256482  0.90743518  0.59256482  1
  Sb  Sb111  1  0.90743518  0.09256482  0.59256482  1
  Se  Se112  1  0.10429959  0.25000000  0.25000000  1
  Se  Se113  1  0.89570041  0.75000000  0.25000000  1
  Se  Se114  1  0.25000000  0.10429959  0.25000000  1
  Se  Se115  1  0.25000000  0.89570041  0.75000000  1
  Se  Se116  1  0.25000000  0.25000000  0.10429959  1
  Se  Se117  1  0.75000000  0.25000000  0.89570041  1
  Se  Se118  1  0.10429959  0.75000000  0.75000000  1
  Se  Se119  1  0.89570041  0.25000000  0.75000000  1
  Se  Se120  1  0.25000000  0.60429959  0.75000000  1
  Se  Se121  1  0.25000000  0.39570041  0.25000000  1
  Se  Se122  1  0.25000000  0.75000000  0.60429959  1
  Se  Se123  1  0.75000000  0.75000000  0.39570041  1
  Se  Se124  1  0.60429959  0.25000000  0.75000000  1
  Se  Se125  1  0.39570041  0.75000000  0.75000000  1
  Se  Se126  1  0.75000000  0.10429959  0.75000000  1
  Se  Se127  1  0.75000000  0.89570041  0.25000000  1
  Se  Se128  1  0.75000000  0.25000000  0.60429959  1
  Se  Se129  1  0.25000000  0.25000000  0.39570041  1
  Se  Se130  1  0.60429959  0.75000000  0.25000000  1
  Se  Se131  1  0.39570041  0.25000000  0.25000000  1
  Se  Se132  1  0.75000000  0.60429959  0.25000000  1
  Se  Se133  1  0.75000000  0.39570041  0.75000000  1
  Se  Se134  1  0.75000000  0.75000000  0.10429959  1
  Se  Se135  1  0.25000000  0.75000000  0.89570041  1
  Se  Se136  1  0.14224221  0.14224221  0.14224221  1
  Se  Se137  1  0.85775779  0.85775779  0.14224221  1
  Se  Se138  1  0.85775779  0.14224221  0.85775779  1
  Se  Se139  1  0.14224221  0.85775779  0.85775779  1
  Se  Se140  1  0.14224221  0.64224221  0.64224221  1
  Se  Se141  1  0.85775779  0.35775779  0.64224221  1
  Se  Se142  1  0.85775779  0.64224221  0.35775779  1
  Se  Se143  1  0.14224221  0.35775779  0.35775779  1
  Se  Se144  1  0.64224221  0.14224221  0.64224221  1
  Se  Se145  1  0.35775779  0.85775779  0.64224221  1
  Se  Se146  1  0.35775779  0.14224221  0.35775779  1
  Se  Se147  1  0.64224221  0.85775779  0.35775779  1
  Se  Se148  1  0.64224221  0.64224221  0.14224221  1
  Se  Se149  1  0.35775779  0.35775779  0.14224221  1
  Se  Se150  1  0.35775779  0.64224221  0.85775779  1
  Se  Se151  1  0.64224221  0.35775779  0.85775779  1
  Se  Se152  1  0.57227632  0.25000000  0.25000000  1
  Se  Se153  1  0.42772368  0.75000000  0.25000000  1
  Se  Se154  1  0.25000000  0.57227632  0.25000000  1
  Se  Se155  1  0.25000000  0.42772368  0.75000000  1
  Se  Se156  1  0.25000000  0.25000000  0.57227632  1
  Se  Se157  1  0.75000000  0.25000000  0.42772368  1
  Se  Se158  1  0.57227632  0.75000000  0.75000000  1
  Se  Se159  1  0.42772368  0.25000000  0.75000000  1
  Se  Se160  1  0.25000000  0.07227632  0.75000000  1
  Se  Se161  1  0.25000000  0.92772368  0.25000000  1
  Se  Se162  1  0.25000000  0.75000000  0.07227632  1
  Se  Se163  1  0.75000000  0.75000000  0.92772368  1
  Se  Se164  1  0.07227632  0.25000000  0.75000000  1
  Se  Se165  1  0.92772368  0.75000000  0.75000000  1
  Se  Se166  1  0.75000000  0.57227632  0.75000000  1
  Se  Se167  1  0.75000000  0.42772368  0.25000000  1
  Se  Se168  1  0.75000000  0.25000000  0.07227632  1
  Se  Se169  1  0.25000000  0.25000000  0.92772368  1
  Se  Se170  1  0.07227632  0.75000000  0.25000000  1
  Se  Se171  1  0.92772368  0.25000000  0.25000000  1
  Se  Se172  1  0.75000000  0.07227632  0.25000000  1
  Se  Se173  1  0.75000000  0.92772368  0.75000000  1
  Se  Se174  1  0.75000000  0.75000000  0.57227632  1
  Se  Se175  1  0.25000000  0.75000000  0.42772368  1
  Se  Se176  1  0.75000000  0.75000000  0.75000000  1
  Se  Se177  1  0.75000000  0.25000000  0.25000000  1
  Se  Se178  1  0.25000000  0.75000000  0.25000000  1
  Se  Se179  1  0.25000000  0.25000000  0.75000000  1
  Se  Se180  1  0.00000000  0.00000000  0.00000000  1
  Se  Se181  1  0.00000000  0.50000000  0.50000000  1
  Se  Se182  1  0.50000000  0.00000000  0.50000000  1
  Se  Se183  1  0.50000000  0.50000000  0.00000000  1
