# generated using pymatgen
data_B2O3
_symmetry_space_group_name_H-M   'P 1'
_cell_length_a   9.57438839
_cell_length_b   4.01040177
_cell_length_c   6.34328928
_cell_angle_alpha   90.00000000
_cell_angle_beta   90.00000000
_cell_angle_gamma   90.00000000
_symmetry_Int_Tables_number   1
_chemical_formula_structural   B2O3
_chemical_formula_sum   'B8 O12'
_cell_volume   243.56419283
_cell_formula_units_Z   4
loop_
 _symmetry_equiv_pos_site_id
 _symmetry_equiv_pos_as_xyz
  1  'x, y, z'
loop_
 _atom_site_type_symbol
 _atom_site_label
 _atom_site_symmetry_multiplicity
 _atom_site_fract_x
 _atom_site_fract_y
 _atom_site_fract_z
 _atom_site_occupancy
  B  B0  1  0.38912188  0.89616470  0.99480038  1
  B  B1  1  0.11087812  -0.89616470  1.49480038  1
  B  B2  1  -0.38912188  1.39616470  -0.99480038  1
  B  B3  1  0.88912188  -0.39616470  -0.49480038  1
  B  B4  1  -0.38912188  -0.89616470  -0.99480038  1
  B  B5  1  0.88912188  0.89616470  -0.49480038  1
  B  B6  1  0.38912188  -0.39616470  0.99480038  1
  B  B7  1  0.11087812  1.39616470  1.49480038  1
  O  O8  1  0.50243543  0.88346645  0.44277474  1
  O  O9  1  0.99756457  0.11653355  0.94277474  1
  O  O10  1  0.49756457  0.38346645  0.55722526  1
  O  O11  1  0.00243543  0.61653355  0.05722526  1
  O  O12  1  0.49756457  0.11653355  0.55722526  1
  O  O13  1  0.00243543  0.88346645  0.05722526  1
  O  O14  1  0.50243543  0.61653355  0.44277474  1
  O  O15  1  0.99756457  0.38346645  0.94277474  1
  O  O16  1  0.81844445  0.25000000  0.77815038  1
  O  O17  1  0.68155555  0.75000000  0.27815038  1
  O  O18  1  0.18155555  0.75000000  0.22184962  1
  O  O19  1  0.31844445  0.25000000  0.72184962  1
