# generated using pymatgen
data_Li3ZrO
_symmetry_space_group_name_H-M   'P 1'
_cell_length_a   3.58991729
_cell_length_b   3.44632896
_cell_length_c   5.88573312
_cell_angle_alpha   95.43488515
_cell_angle_beta   104.98299816
_cell_angle_gamma   110.98123347
_symmetry_Int_Tables_number   1
_chemical_formula_structural   Li3ZrO
_chemical_formula_sum   'Li3 Zr1 O1'
_cell_volume   64.24746748
_cell_formula_units_Z   1
loop_
 _symmetry_equiv_pos_site_id
 _symmetry_equiv_pos_as_xyz
  1  'x, y, z'
loop_
 _atom_site_type_symbol
 _atom_site_label
 _atom_site_symmetry_multiplicity
 _atom_site_fract_x
 _atom_site_fract_y
 _atom_site_fract_z
 _atom_site_occupancy
  Li  Li0  1  0.00000000  0.00000000  0.00000000  1
  Li  Li1  1  0.33300000  0.66700000  0.25000000  1
  Li  Li2  1  0.66700000  0.33300000  0.50000000  1
  Zr  Zr3  1  0.00000000  0.00000000  0.75000000  1
  O  O4  1  0.45916411  0.39152732  0.35834947  1
