# generated using pymatgen
data_LiCaF3
_symmetry_space_group_name_H-M   'P 1'
_cell_length_a   14.06211727
_cell_length_b   14.06211727
_cell_length_c   8.83150711
_cell_angle_alpha   90.00000000
_cell_angle_beta   90.00000000
_cell_angle_gamma   120.00000000
_symmetry_Int_Tables_number   1
_chemical_formula_structural   LiCaF3
_chemical_formula_sum   'Li18 Ca18 F54'
_cell_volume   1512.40075491
_cell_formula_units_Z   18
loop_
 _symmetry_equiv_pos_site_id
 _symmetry_equiv_pos_as_xyz
  1  'x, y, z'
loop_
 _atom_site_type_symbol
 _atom_site_label
 _atom_site_symmetry_multiplicity
 _atom_site_fract_x
 _atom_site_fract_y
 _atom_site_fract_z
 _atom_site_occupancy
  Ca  Ca0  1  0.24420428  0.00000000  0.25000000  1
  Ca  Ca1  1  0.00000000  0.24420428  0.25000000  1
  Ca  Ca2  1  0.75579572  0.75579572  0.25000000  1
  Ca  Ca3  1  0.75579572  -0.00000000  0.75000000  1
  Ca  Ca4  1  0.00000000  0.75579572  0.75000000  1
  Ca  Ca5  1  0.24420428  0.24420428  0.75000000  1
  Ca  Ca6  1  0.91087095  0.33333333  0.58333333  1
  Ca  Ca7  1  0.66666667  0.57753762  0.58333333  1
  Ca  Ca8  1  0.42246238  0.08912905  0.58333333  1
  Ca  Ca9  1  0.42246238  0.33333333  0.08333333  1
  Ca  Ca10  1  0.66666667  0.08912905  0.08333333  1
  Ca  Ca11  1  0.91087095  0.57753762  0.08333333  1
  Ca  Ca12  1  0.57753762  0.66666667  0.91666667  1
  Ca  Ca13  1  0.33333333  0.91087095  0.91666667  1
  Ca  Ca14  1  0.08912905  0.42246238  0.91666667  1
  Ca  Ca15  1  0.08912905  0.66666667  0.41666667  1
  Ca  Ca16  1  0.33333333  0.42246238  0.41666667  1
  Ca  Ca17  1  0.57753762  0.91087095  0.41666667  1
  F  F18  1  0.24020943  0.46921181  0.83995771  1
  F  F19  1  -0.46921181  -0.22900238  0.83995771  1
  F  F20  1  0.22900238  -0.24020943  0.83995771  1
  F  F21  1  0.46921181  0.24020943  -0.33995771  1
  F  F22  1  -0.22900238  -0.46921181  -0.33995771  1
  F  F23  1  -0.24020943  0.22900238  -0.33995771  1
  F  F24  1  -0.24020943  -0.46921181  -0.83995771  1
  F  F25  1  0.46921181  0.22900238  -0.83995771  1
  F  F26  1  -0.22900238  0.24020943  -0.83995771  1
  F  F27  1  -0.46921181  -0.24020943  1.33995771  1
  F  F28  1  0.22900238  0.46921181  1.33995771  1
  F  F29  1  0.24020943  -0.22900238  1.33995771  1
  F  F30  1  0.90687610  0.80254514  1.17329105  1
  F  F31  1  0.19745486  0.10433095  1.17329105  1
  F  F32  1  0.89566905  0.09312390  1.17329105  1
  F  F33  1  1.13587848  0.57354276  -0.00662438  1
  F  F34  1  0.43766429  -0.13587848  -0.00662438  1
  F  F35  1  0.42645724  0.56233571  -0.00662438  1
  F  F36  1  0.42645724  -0.13587848  -0.50662438  1
  F  F37  1  1.13587848  0.56233571  -0.50662438  1
  F  F38  1  0.43766429  0.57354276  -0.50662438  1
  F  F39  1  0.19745486  0.09312390  1.67329105  1
  F  F40  1  0.89566905  0.80254514  1.67329105  1
  F  F41  1  0.90687610  0.10433095  1.67329105  1
  F  F42  1  0.57354276  1.13587848  1.50662438  1
  F  F43  1  -0.13587848  0.43766429  1.50662438  1
  F  F44  1  0.56233571  0.42645724  1.50662438  1
  F  F45  1  0.80254514  0.90687610  0.32670895  1
  F  F46  1  0.10433095  0.19745486  0.32670895  1
  F  F47  1  0.09312390  0.89566905  0.32670895  1
  F  F48  1  0.09312390  0.19745486  -0.17329105  1
  F  F49  1  0.80254514  0.89566905  -0.17329105  1
  F  F50  1  0.10433095  0.90687610  -0.17329105  1
  F  F51  1  -0.13587848  0.42645724  2.00662438  1
  F  F52  1  0.56233571  1.13587848  2.00662438  1
  F  F53  1  0.57354276  0.43766429  2.00662438  1
  F  F54  1  0.50000000  0.00000000  0.00000000  1
  F  F55  1  0.00000000  0.50000000  0.00000000  1
  F  F56  1  0.50000000  0.50000000  0.00000000  1
  F  F57  1  0.00000000  0.50000000  0.50000000  1
  F  F58  1  0.50000000  0.00000000  0.50000000  1
  F  F59  1  0.50000000  0.50000000  0.50000000  1
  F  F60  1  0.16666667  0.33333333  0.33333333  1
  F  F61  1  0.66666667  0.83333333  0.33333333  1
  F  F62  1  0.16666667  0.83333333  0.33333333  1
  F  F63  1  0.66666667  0.83333333  0.83333333  1
  F  F64  1  0.16666667  0.33333333  0.83333333  1
  F  F65  1  0.16666667  0.83333333  0.83333333  1
  F  F66  1  0.83333333  0.66666667  0.66666667  1
  F  F67  1  0.33333333  0.16666667  0.66666667  1
  F  F68  1  0.83333333  0.16666667  0.66666667  1
  F  F69  1  0.33333333  0.16666667  0.16666667  1
  F  F70  1  0.83333333  0.66666667  0.16666667  1
  F  F71  1  0.83333333  0.16666667  0.16666667  1
  Li  Li72  1  0.48171021  0.00000000  0.25000000  1
  Li  Li73  1  0.00000000  0.48171021  0.25000000  1
  Li  Li74  1  0.51828979  0.51828979  0.25000000  1
  Li  Li75  1  0.51828979  0.00000000  0.75000000  1
  Li  Li76  1  0.00000000  0.51828979  0.75000000  1
  Li  Li77  1  0.48171021  0.48171021  0.75000000  1
  Li  Li78  1  0.14837688  0.33333333  0.58333333  1
  Li  Li79  1  0.66666667  0.81504354  0.58333333  1
  Li  Li80  1  0.18495646  0.85162312  0.58333333  1
  Li  Li81  1  0.18495646  0.33333333  0.08333333  1
  Li  Li82  1  0.66666667  0.85162312  0.08333333  1
  Li  Li83  1  0.14837688  0.81504354  0.08333333  1
  Li  Li84  1  0.81504354  0.66666667  0.91666667  1
  Li  Li85  1  0.33333333  0.14837688  0.91666667  1
  Li  Li86  1  0.85162312  0.18495646  0.91666667  1
  Li  Li87  1  0.85162312  0.66666667  0.41666667  1
  Li  Li88  1  0.33333333  0.18495646  0.41666667  1
  Li  Li89  1  0.81504354  0.14837688  0.41666667  1
