# generated using pymatgen
data_Li2Hf4(Se2S)3
_symmetry_space_group_name_H-M   'P 1'
_cell_length_a   19.83183199
_cell_length_b   19.83183199
_cell_length_c   19.83183199
_cell_angle_alpha   90.00000000
_cell_angle_beta   90.00000000
_cell_angle_gamma   90.00000000
_symmetry_Int_Tables_number   1
_chemical_formula_structural   Li2Hf4(Se2S)3
_chemical_formula_sum   'Li48 Hf96 Se144 S72'
_cell_volume   7799.89046031
_cell_formula_units_Z   24
loop_
 _symmetry_equiv_pos_site_id
 _symmetry_equiv_pos_as_xyz
  1  'x, y, z'
loop_
 _atom_site_type_symbol
 _atom_site_label
 _atom_site_symmetry_multiplicity
 _atom_site_fract_x
 _atom_site_fract_y
 _atom_site_fract_z
 _atom_site_occupancy
  Hf  Hf0  1  0.12500000  0.21534854  0.03465146  1
  Hf  Hf1  1  0.37500000  0.78465146  0.53465146  1
  Hf  Hf2  1  0.87500000  0.71534854  0.46534854  1
  Hf  Hf3  1  0.62500000  0.28465146  0.96534854  1
  Hf  Hf4  1  0.03465146  0.12500000  0.21534854  1
  Hf  Hf5  1  0.53465146  0.37500000  0.78465146  1
  Hf  Hf6  1  0.46534854  0.87500000  0.71534854  1
  Hf  Hf7  1  0.96534854  0.62500000  0.28465146  1
  Hf  Hf8  1  0.21534854  0.03465146  0.12500000  1
  Hf  Hf9  1  0.78465146  0.53465146  0.37500000  1
  Hf  Hf10  1  0.71534854  0.46534854  0.87500000  1
  Hf  Hf11  1  0.28465146  0.96534854  0.62500000  1
  Hf  Hf12  1  0.62500000  0.71534854  0.53465146  1
  Hf  Hf13  1  0.87500000  0.28465146  0.03465146  1
  Hf  Hf14  1  0.37500000  0.21534854  0.96534854  1
  Hf  Hf15  1  0.12500000  0.78465146  0.46534854  1
  Hf  Hf16  1  0.53465146  0.62500000  0.71534854  1
  Hf  Hf17  1  0.03465146  0.87500000  0.28465146  1
  Hf  Hf18  1  0.96534854  0.37500000  0.21534854  1
  Hf  Hf19  1  0.46534854  0.12500000  0.78465146  1
  Hf  Hf20  1  0.71534854  0.53465146  0.62500000  1
  Hf  Hf21  1  0.28465146  0.03465146  0.87500000  1
  Hf  Hf22  1  0.21534854  0.96534854  0.37500000  1
  Hf  Hf23  1  0.78465146  0.46534854  0.12500000  1
  Hf  Hf24  1  0.87500000  0.87500000  0.87500000  1
  Hf  Hf25  1  0.62500000  0.12500000  0.37500000  1
  Hf  Hf26  1  0.12500000  0.37500000  0.62500000  1
  Hf  Hf27  1  0.37500000  0.62500000  0.12500000  1
  Hf  Hf28  1  0.37500000  0.37500000  0.37500000  1
  Hf  Hf29  1  0.12500000  0.62500000  0.87500000  1
  Hf  Hf30  1  0.62500000  0.87500000  0.12500000  1
  Hf  Hf31  1  0.87500000  0.12500000  0.62500000  1
  Hf  Hf32  1  0.71318592  0.23578923  0.86197117  1
  Hf  Hf33  1  -0.21318592  -0.23578923  1.36197117  1
  Hf  Hf34  1  -0.71318592  0.73578923  -0.36197117  1
  Hf  Hf35  1  1.21318592  0.26421077  -0.86197117  1
  Hf  Hf36  1  0.86197117  0.71318592  0.23578923  1
  Hf  Hf37  1  1.36197117  -0.21318592  -0.23578923  1
  Hf  Hf38  1  -0.36197117  -0.71318592  0.73578923  1
  Hf  Hf39  1  -0.86197117  1.21318592  0.26421077  1
  Hf  Hf40  1  0.23578923  0.86197117  0.71318592  1
  Hf  Hf41  1  -0.23578923  1.36197117  -0.21318592  1
  Hf  Hf42  1  0.73578923  -0.36197117  -0.71318592  1
  Hf  Hf43  1  0.26421077  -0.86197117  1.21318592  1
  Hf  Hf44  1  0.98578923  0.96318592  -0.61197117  1
  Hf  Hf45  1  0.51421077  0.03681408  -0.11197117  1
  Hf  Hf46  1  0.48578923  -0.46318592  1.61197117  1
  Hf  Hf47  1  0.01421077  1.46318592  1.11197117  1
  Hf  Hf48  1  1.46318592  1.11197117  0.01421077  1
  Hf  Hf49  1  -0.46318592  1.61197117  0.48578923  1
  Hf  Hf50  1  0.03681408  -0.11197117  0.51421077  1
  Hf  Hf51  1  0.96318592  -0.61197117  0.98578923  1
  Hf  Hf52  1  1.61197117  0.48578923  -0.46318592  1
  Hf  Hf53  1  1.11197117  0.01421077  1.46318592  1
  Hf  Hf54  1  -0.61197117  0.98578923  0.96318592  1
  Hf  Hf55  1  -0.11197117  0.51421077  0.03681408  1
  Hf  Hf56  1  1.21318592  0.73578923  1.36197117  1
  Hf  Hf57  1  0.28681408  0.26421077  1.86197117  1
  Hf  Hf58  1  -0.21318592  1.23578923  0.13802883  1
  Hf  Hf59  1  1.71318592  0.76421077  -0.36197117  1
  Hf  Hf60  1  1.36197117  1.21318592  0.73578923  1
  Hf  Hf61  1  1.86197117  0.28681408  0.26421077  1
  Hf  Hf62  1  0.13802883  -0.21318592  1.23578923  1
  Hf  Hf63  1  -0.36197117  1.71318592  0.76421077  1
  Hf  Hf64  1  0.73578923  1.36197117  1.21318592  1
  Hf  Hf65  1  0.26421077  1.86197117  0.28681408  1
  Hf  Hf66  1  1.23578923  0.13802883  -0.21318592  1
  Hf  Hf67  1  0.76421077  -0.36197117  1.71318592  1
  Hf  Hf68  1  1.48578923  1.46318592  -0.11197117  1
  Hf  Hf69  1  1.01421077  0.53681408  0.38802883  1
  Hf  Hf70  1  0.98578923  0.03681408  2.11197117  1
  Hf  Hf71  1  0.51421077  1.96318592  1.61197117  1
  Hf  Hf72  1  1.96318592  1.61197117  0.51421077  1
  Hf  Hf73  1  0.03681408  2.11197117  0.98578923  1
  Hf  Hf74  1  0.53681408  0.38802883  1.01421077  1
  Hf  Hf75  1  1.46318592  -0.11197117  1.48578923  1
  Hf  Hf76  1  2.11197117  0.98578923  0.03681408  1
  Hf  Hf77  1  1.61197117  0.51421077  1.96318592  1
  Hf  Hf78  1  -0.11197117  1.48578923  1.46318592  1
  Hf  Hf79  1  0.38802883  1.01421077  0.53681408  1
  Hf  Hf80  1  0.06003162  0.06003162  0.06003162  1
  Hf  Hf81  1  0.43996838  0.93996838  0.56003162  1
  Hf  Hf82  1  0.93996838  0.56003162  0.43996838  1
  Hf  Hf83  1  0.56003162  0.43996838  0.93996838  1
  Hf  Hf84  1  0.81003162  0.31003162  0.18996838  1
  Hf  Hf85  1  0.68996838  0.68996838  0.68996838  1
  Hf  Hf86  1  0.31003162  0.18996838  0.81003162  1
  Hf  Hf87  1  0.18996838  0.81003162  0.31003162  1
  Hf  Hf88  1  0.56003162  0.56003162  0.56003162  1
  Hf  Hf89  1  0.93996838  0.43996838  0.06003162  1
  Hf  Hf90  1  0.43996838  0.06003162  0.93996838  1
  Hf  Hf91  1  0.06003162  0.93996838  0.43996838  1
  Hf  Hf92  1  0.31003162  0.81003162  0.68996838  1
  Hf  Hf93  1  0.18996838  0.18996838  0.18996838  1
  Hf  Hf94  1  0.81003162  0.68996838  0.31003162  1
  Hf  Hf95  1  0.68996838  0.31003162  0.81003162  1
  Li  Li96  1  0.76353935  0.11265674  0.22984522  1
  Li  Li97  1  0.73646065  0.88734326  0.72984522  1
  Li  Li98  1  0.23646065  0.61265674  0.27015478  1
  Li  Li99  1  0.26353935  0.38734326  0.77015478  1
  Li  Li100  1  0.22984522  0.76353935  0.11265674  1
  Li  Li101  1  0.72984522  0.73646065  0.88734326  1
  Li  Li102  1  0.27015478  0.23646065  0.61265674  1
  Li  Li103  1  0.77015478  0.26353935  0.38734326  1
  Li  Li104  1  0.11265674  0.22984522  0.76353935  1
  Li  Li105  1  0.88734326  0.72984522  0.73646065  1
  Li  Li106  1  0.61265674  0.27015478  0.23646065  1
  Li  Li107  1  0.38734326  0.77015478  0.26353935  1
  Li  Li108  1  0.86265674  0.01353935  0.02015478  1
  Li  Li109  1  0.63734326  0.98646065  0.52015478  1
  Li  Li110  1  0.36265674  0.48646065  0.97984522  1
  Li  Li111  1  0.13734326  0.51353935  0.47984522  1
  Li  Li112  1  0.51353935  0.47984522  0.13734326  1
  Li  Li113  1  0.48646065  0.97984522  0.36265674  1
  Li  Li114  1  0.98646065  0.52015478  0.63734326  1
  Li  Li115  1  0.01353935  0.02015478  0.86265674  1
  Li  Li116  1  0.97984522  0.36265674  0.48646065  1
  Li  Li117  1  0.47984522  0.13734326  0.51353935  1
  Li  Li118  1  0.02015478  0.86265674  0.01353935  1
  Li  Li119  1  0.52015478  0.63734326  0.98646065  1
  Li  Li120  1  0.26353935  0.61265674  0.72984522  1
  Li  Li121  1  0.23646065  0.38734326  0.22984522  1
  Li  Li122  1  0.73646065  0.11265674  0.77015478  1
  Li  Li123  1  0.76353935  0.88734326  0.27015478  1
  Li  Li124  1  0.72984522  0.26353935  0.61265674  1
  Li  Li125  1  0.22984522  0.23646065  0.38734326  1
  Li  Li126  1  0.77015478  0.73646065  0.11265674  1
  Li  Li127  1  0.27015478  0.76353935  0.88734326  1
  Li  Li128  1  0.61265674  0.72984522  0.26353935  1
  Li  Li129  1  0.38734326  0.22984522  0.23646065  1
  Li  Li130  1  0.11265674  0.77015478  0.73646065  1
  Li  Li131  1  0.88734326  0.27015478  0.76353935  1
  Li  Li132  1  0.36265674  0.51353935  0.52015478  1
  Li  Li133  1  0.13734326  0.48646065  0.02015478  1
  Li  Li134  1  0.86265674  0.98646065  0.47984522  1
  Li  Li135  1  0.63734326  0.01353935  0.97984522  1
  Li  Li136  1  0.01353935  0.97984522  0.63734326  1
  Li  Li137  1  0.98646065  0.47984522  0.86265674  1
  Li  Li138  1  0.48646065  0.02015478  0.13734326  1
  Li  Li139  1  0.51353935  0.52015478  0.36265674  1
  Li  Li140  1  0.47984522  0.86265674  0.98646065  1
  Li  Li141  1  0.97984522  0.63734326  0.01353935  1
  Li  Li142  1  0.52015478  0.36265674  0.51353935  1
  Li  Li143  1  0.02015478  0.13734326  0.48646065  1
  S  S144  1  0.12500000  0.11891989  0.36891989  1
  S  S145  1  0.37500000  0.88108011  0.86891989  1
  S  S146  1  0.87500000  0.61891989  0.13108011  1
  S  S147  1  0.62500000  0.38108011  0.63108011  1
  S  S148  1  0.36891989  0.12500000  0.11891989  1
  S  S149  1  0.86891989  0.37500000  0.88108011  1
  S  S150  1  0.13108011  0.87500000  0.61891989  1
  S  S151  1  0.63108011  0.62500000  0.38108011  1
  S  S152  1  0.11891989  0.36891989  0.12500000  1
  S  S153  1  0.88108011  0.86891989  0.37500000  1
  S  S154  1  0.61891989  0.13108011  0.87500000  1
  S  S155  1  0.38108011  0.63108011  0.62500000  1
  S  S156  1  0.62500000  0.61891989  0.86891989  1
  S  S157  1  0.87500000  0.38108011  0.36891989  1
  S  S158  1  0.37500000  0.11891989  0.63108011  1
  S  S159  1  0.12500000  0.88108011  0.13108011  1
  S  S160  1  0.86891989  0.62500000  0.61891989  1
  S  S161  1  0.36891989  0.87500000  0.38108011  1
  S  S162  1  0.63108011  0.37500000  0.11891989  1
  S  S163  1  0.13108011  0.12500000  0.88108011  1
  S  S164  1  0.61891989  0.86891989  0.62500000  1
  S  S165  1  0.38108011  0.36891989  0.87500000  1
  S  S166  1  0.11891989  0.63108011  0.37500000  1
  S  S167  1  0.88108011  0.13108011  0.12500000  1
  S  S168  1  0.23038550  0.42372908  0.67530040  1
  S  S169  1  0.26961450  0.57627092  0.17530040  1
  S  S170  1  0.76961450  0.92372908  0.82469960  1
  S  S171  1  0.73038550  0.07627092  0.32469960  1
  S  S172  1  0.67530040  0.23038550  0.42372908  1
  S  S173  1  0.17530040  0.26961450  0.57627092  1
  S  S174  1  0.82469960  0.76961450  0.92372908  1
  S  S175  1  0.32469960  0.73038550  0.07627092  1
  S  S176  1  0.42372908  0.67530040  0.23038550  1
  S  S177  1  0.57627092  0.17530040  0.26961450  1
  S  S178  1  0.92372908  0.82469960  0.76961450  1
  S  S179  1  0.07627092  0.32469960  0.73038550  1
  S  S180  1  0.17372908  0.48038550  0.57469960  1
  S  S181  1  0.32627092  0.51961450  0.07469960  1
  S  S182  1  0.67372908  0.01961450  0.42530040  1
  S  S183  1  0.82627092  0.98038550  0.92530040  1
  S  S184  1  0.98038550  0.92530040  0.82627092  1
  S  S185  1  0.01961450  0.42530040  0.67372908  1
  S  S186  1  0.51961450  0.07469960  0.32627092  1
  S  S187  1  0.48038550  0.57469960  0.17372908  1
  S  S188  1  0.42530040  0.67372908  0.01961450  1
  S  S189  1  0.92530040  0.82627092  0.98038550  1
  S  S190  1  0.57469960  0.17372908  0.48038550  1
  S  S191  1  0.07469960  0.32627092  0.51961450  1
  S  S192  1  0.73038550  0.92372908  0.17530040  1
  S  S193  1  0.76961450  0.07627092  0.67530040  1
  S  S194  1  0.26961450  0.42372908  0.32469960  1
  S  S195  1  0.23038550  0.57627092  0.82469960  1
  S  S196  1  0.17530040  0.73038550  0.92372908  1
  S  S197  1  0.67530040  0.76961450  0.07627092  1
  S  S198  1  0.32469960  0.26961450  0.42372908  1
  S  S199  1  0.82469960  0.23038550  0.57627092  1
  S  S200  1  0.92372908  0.17530040  0.73038550  1
  S  S201  1  0.07627092  0.67530040  0.76961450  1
  S  S202  1  0.42372908  0.32469960  0.26961450  1
  S  S203  1  0.57627092  0.82469960  0.23038550  1
  S  S204  1  0.67372908  0.98038550  0.07469960  1
  S  S205  1  0.82627092  0.01961450  0.57469960  1
  S  S206  1  0.17372908  0.51961450  0.92530040  1
  S  S207  1  0.32627092  0.48038550  0.42530040  1
  S  S208  1  0.48038550  0.42530040  0.32627092  1
  S  S209  1  0.51961450  0.92530040  0.17372908  1
  S  S210  1  0.01961450  0.57469960  0.82627092  1
  S  S211  1  0.98038550  0.07469960  0.67372908  1
  S  S212  1  0.92530040  0.17372908  0.51961450  1
  S  S213  1  0.42530040  0.32627092  0.48038550  1
  S  S214  1  0.07469960  0.67372908  0.98038550  1
  S  S215  1  0.57469960  0.82627092  0.01961450  1
  Se  Se216  1  0.12500000  0.94087585  0.30912415  1
  Se  Se217  1  0.37500000  0.05912415  0.80912415  1
  Se  Se218  1  0.87500000  0.44087585  0.19087585  1
  Se  Se219  1  0.62500000  0.55912415  0.69087585  1
  Se  Se220  1  0.30912415  0.12500000  0.94087585  1
  Se  Se221  1  0.80912415  0.37500000  0.05912415  1
  Se  Se222  1  0.19087585  0.87500000  0.44087585  1
  Se  Se223  1  0.69087585  0.62500000  0.55912415  1
  Se  Se224  1  0.94087585  0.30912415  0.12500000  1
  Se  Se225  1  0.05912415  0.80912415  0.37500000  1
  Se  Se226  1  0.44087585  0.19087585  0.87500000  1
  Se  Se227  1  0.55912415  0.69087585  0.62500000  1
  Se  Se228  1  0.62500000  0.44087585  0.80912415  1
  Se  Se229  1  0.87500000  0.55912415  0.30912415  1
  Se  Se230  1  0.37500000  0.94087585  0.69087585  1
  Se  Se231  1  0.12500000  0.05912415  0.19087585  1
  Se  Se232  1  0.80912415  0.62500000  0.44087585  1
  Se  Se233  1  0.30912415  0.87500000  0.55912415  1
  Se  Se234  1  0.69087585  0.37500000  0.94087585  1
  Se  Se235  1  0.19087585  0.12500000  0.05912415  1
  Se  Se236  1  0.44087585  0.80912415  0.62500000  1
  Se  Se237  1  0.55912415  0.30912415  0.87500000  1
  Se  Se238  1  0.94087585  0.69087585  0.37500000  1
  Se  Se239  1  0.05912415  0.19087585  0.12500000  1
  Se  Se240  1  0.62500000  0.00000000  0.25000000  1
  Se  Se241  1  0.87500000  0.00000000  0.75000000  1
  Se  Se242  1  0.25000000  0.62500000  0.00000000  1
  Se  Se243  1  0.75000000  0.87500000  0.00000000  1
  Se  Se244  1  0.00000000  0.25000000  0.62500000  1
  Se  Se245  1  0.00000000  0.75000000  0.87500000  1
  Se  Se246  1  0.12500000  0.50000000  0.75000000  1
  Se  Se247  1  0.37500000  0.50000000  0.25000000  1
  Se  Se248  1  0.75000000  0.12500000  0.50000000  1
  Se  Se249  1  0.25000000  0.37500000  0.50000000  1
  Se  Se250  1  0.50000000  0.75000000  0.12500000  1
  Se  Se251  1  0.50000000  0.25000000  0.37500000  1
  Se  Se252  1  0.28347972  0.60126648  0.40475191  1
  Se  Se253  1  0.21652028  0.39873352  0.90475191  1
  Se  Se254  1  0.71652028  0.10126648  0.09524809  1
  Se  Se255  1  0.78347972  0.89873352  0.59524809  1
  Se  Se256  1  0.40475191  0.28347972  0.60126648  1
  Se  Se257  1  0.90475191  0.21652028  0.39873352  1
  Se  Se258  1  0.09524809  0.71652028  0.10126648  1
  Se  Se259  1  0.59524809  0.78347972  0.89873352  1
  Se  Se260  1  0.60126648  0.40475191  0.28347972  1
  Se  Se261  1  0.39873352  0.90475191  0.21652028  1
  Se  Se262  1  0.10126648  0.09524809  0.71652028  1
  Se  Se263  1  0.89873352  0.59524809  0.78347972  1
  Se  Se264  1  0.35126648  0.53347972  0.84524809  1
  Se  Se265  1  0.14873352  0.46652028  0.34524809  1
  Se  Se266  1  0.85126648  0.96652028  0.15475191  1
  Se  Se267  1  0.64873352  0.03347972  0.65475191  1
  Se  Se268  1  0.03347972  0.65475191  0.64873352  1
  Se  Se269  1  0.96652028  0.15475191  0.85126648  1
  Se  Se270  1  0.46652028  0.34524809  0.14873352  1
  Se  Se271  1  0.53347972  0.84524809  0.35126648  1
  Se  Se272  1  0.15475191  0.85126648  0.96652028  1
  Se  Se273  1  0.65475191  0.64873352  0.03347972  1
  Se  Se274  1  0.84524809  0.35126648  0.53347972  1
  Se  Se275  1  0.34524809  0.14873352  0.46652028  1
  Se  Se276  1  0.78347972  0.10126648  0.90475191  1
  Se  Se277  1  0.71652028  0.89873352  0.40475191  1
  Se  Se278  1  0.21652028  0.60126648  0.59524809  1
  Se  Se279  1  0.28347972  0.39873352  0.09524809  1
  Se  Se280  1  0.90475191  0.78347972  0.10126648  1
  Se  Se281  1  0.40475191  0.71652028  0.89873352  1
  Se  Se282  1  0.59524809  0.21652028  0.60126648  1
  Se  Se283  1  0.09524809  0.28347972  0.39873352  1
  Se  Se284  1  0.10126648  0.90475191  0.78347972  1
  Se  Se285  1  0.89873352  0.40475191  0.71652028  1
  Se  Se286  1  0.60126648  0.59524809  0.21652028  1
  Se  Se287  1  0.39873352  0.09524809  0.28347972  1
  Se  Se288  1  0.85126648  0.03347972  0.34524809  1
  Se  Se289  1  0.64873352  0.96652028  0.84524809  1
  Se  Se290  1  0.35126648  0.46652028  0.65475191  1
  Se  Se291  1  0.14873352  0.53347972  0.15475191  1
  Se  Se292  1  0.53347972  0.15475191  0.14873352  1
  Se  Se293  1  0.46652028  0.65475191  0.35126648  1
  Se  Se294  1  0.96652028  0.84524809  0.64873352  1
  Se  Se295  1  0.03347972  0.34524809  0.85126648  1
  Se  Se296  1  0.65475191  0.35126648  0.46652028  1
  Se  Se297  1  0.15475191  0.14873352  0.53347972  1
  Se  Se298  1  0.34524809  0.85126648  0.03347972  1
  Se  Se299  1  0.84524809  0.64873352  0.96652028  1
  Se  Se300  1  0.20957710  0.59698442  0.09832805  1
  Se  Se301  1  0.29042290  0.40301558  0.59832805  1
  Se  Se302  1  0.79042290  0.09698442  0.40167195  1
  Se  Se303  1  0.70957710  0.90301558  0.90167195  1
  Se  Se304  1  0.09832805  0.20957710  0.59698442  1
  Se  Se305  1  0.59832805  0.29042290  0.40301558  1
  Se  Se306  1  0.40167195  0.79042290  0.09698442  1
  Se  Se307  1  0.90167195  0.70957710  0.90301558  1
  Se  Se308  1  0.59698442  0.09832805  0.20957710  1
  Se  Se309  1  0.40301558  0.59832805  0.29042290  1
  Se  Se310  1  0.09698442  0.40167195  0.79042290  1
  Se  Se311  1  0.90301558  0.90167195  0.70957710  1
  Se  Se312  1  0.34698442  0.45957710  0.15167195  1
  Se  Se313  1  0.15301558  0.54042290  0.65167195  1
  Se  Se314  1  0.84698442  0.04042290  0.84832805  1
  Se  Se315  1  0.65301558  0.95957710  0.34832805  1
  Se  Se316  1  0.95957710  0.34832805  0.65301558  1
  Se  Se317  1  0.04042290  0.84832805  0.84698442  1
  Se  Se318  1  0.54042290  0.65167195  0.15301558  1
  Se  Se319  1  0.45957710  0.15167195  0.34698442  1
  Se  Se320  1  0.84832805  0.84698442  0.04042290  1
  Se  Se321  1  0.34832805  0.65301558  0.95957710  1
  Se  Se322  1  0.15167195  0.34698442  0.45957710  1
  Se  Se323  1  0.65167195  0.15301558  0.54042290  1
  Se  Se324  1  0.70957710  0.09698442  0.59832805  1
  Se  Se325  1  0.79042290  0.90301558  0.09832805  1
  Se  Se326  1  0.29042290  0.59698442  0.90167195  1
  Se  Se327  1  0.20957710  0.40301558  0.40167195  1
  Se  Se328  1  0.59832805  0.70957710  0.09698442  1
  Se  Se329  1  0.09832805  0.79042290  0.90301558  1
  Se  Se330  1  0.90167195  0.29042290  0.59698442  1
  Se  Se331  1  0.40167195  0.20957710  0.40301558  1
  Se  Se332  1  0.09698442  0.59832805  0.70957710  1
  Se  Se333  1  0.90301558  0.09832805  0.79042290  1
  Se  Se334  1  0.59698442  0.90167195  0.29042290  1
  Se  Se335  1  0.40301558  0.40167195  0.20957710  1
  Se  Se336  1  0.84698442  0.95957710  0.65167195  1
  Se  Se337  1  0.65301558  0.04042290  0.15167195  1
  Se  Se338  1  0.34698442  0.54042290  0.34832805  1
  Se  Se339  1  0.15301558  0.45957710  0.84832805  1
  Se  Se340  1  0.45957710  0.84832805  0.15301558  1
  Se  Se341  1  0.54042290  0.34832805  0.34698442  1
  Se  Se342  1  0.04042290  0.15167195  0.65301558  1
  Se  Se343  1  0.95957710  0.65167195  0.84698442  1
  Se  Se344  1  0.34832805  0.34698442  0.54042290  1
  Se  Se345  1  0.84832805  0.15301558  0.45957710  1
  Se  Se346  1  0.65167195  0.84698442  0.95957710  1
  Se  Se347  1  0.15167195  0.65301558  0.04042290  1
  Se  Se348  1  0.12500000  0.00000000  0.25000000  1
  Se  Se349  1  0.37500000  0.00000000  0.75000000  1
  Se  Se350  1  0.25000000  0.12500000  0.00000000  1
  Se  Se351  1  0.75000000  0.37500000  0.00000000  1
  Se  Se352  1  0.00000000  0.25000000  0.12500000  1
  Se  Se353  1  0.00000000  0.75000000  0.37500000  1
  Se  Se354  1  0.62500000  0.50000000  0.75000000  1
  Se  Se355  1  0.87500000  0.50000000  0.25000000  1
  Se  Se356  1  0.75000000  0.62500000  0.50000000  1
  Se  Se357  1  0.25000000  0.87500000  0.50000000  1
  Se  Se358  1  0.50000000  0.75000000  0.62500000  1
  Se  Se359  1  0.50000000  0.25000000  0.87500000  1
