# generated using pymatgen
data_LiAlP5O2
_symmetry_space_group_name_H-M   'P 1'
_cell_length_a   7.52444312
_cell_length_b   7.42129543
_cell_length_c   8.31954691
_cell_angle_alpha   90.00000000
_cell_angle_beta   90.00000000
_cell_angle_gamma   90.00000000
_symmetry_Int_Tables_number   1
_chemical_formula_structural   LiAlP5O2
_chemical_formula_sum   'Li1 Al1 P5 O2'
_cell_volume   464.57277828
_cell_formula_units_Z   1
loop_
 _symmetry_equiv_pos_site_id
 _symmetry_equiv_pos_as_xyz
  1  'x, y, z'
loop_
 _atom_site_type_symbol
 _atom_site_label
 _atom_site_symmetry_multiplicity
 _atom_site_fract_x
 _atom_site_fract_y
 _atom_site_fract_z
 _atom_site_occupancy
  Li  Li0  1  0.12500000  0.12500000  0.12500000  1
  Al  Al1  1  0.50000000  0.50000000  0.50000000  1
  O  O2  1  0.25000000  0.25000000  0.25000000  1
  O  O3  1  0.75000000  0.75000000  0.75000000  1
  P  P4  1  0.85263510  0.66001459  0.67837802  1
  P  P5  1  0.99393739  0.73256422  0.65840846  1
  P  P6  1  0.19667881  0.43315334  0.73991121  1
  P  P7  1  0.70169172  0.61979505  0.44718242  1
  P  P8  1  0.55961454  0.10633402  0.65781619  1
