# generated using pymatgen
data_K4Li3ZrSBr9
_symmetry_space_group_name_H-M   'P 1'
_cell_length_a   16.15899424
_cell_length_b   16.15899424
_cell_length_c   16.15899424
_cell_angle_alpha   90.00000000
_cell_angle_beta   90.00000000
_cell_angle_gamma   90.00000000
_symmetry_Int_Tables_number   1
_chemical_formula_structural   K4Li3ZrSBr9
_chemical_formula_sum   'K32 Li24 Zr8 S8 Br72'
_cell_volume   4219.32499421
_cell_formula_units_Z   8
loop_
 _symmetry_equiv_pos_site_id
 _symmetry_equiv_pos_as_xyz
  1  'x, y, z'
loop_
 _atom_site_type_symbol
 _atom_site_label
 _atom_site_symmetry_multiplicity
 _atom_site_fract_x
 _atom_site_fract_y
 _atom_site_fract_z
 _atom_site_occupancy
  Br  Br0  1  0.23120021  0.34298894  0.07592955  1
  Br  Br1  1  0.26879979  -0.34298894  0.57592955  1
  Br  Br2  1  -0.23120021  0.84298894  0.42407045  1
  Br  Br3  1  0.73120021  0.15701106  -0.07592955  1
  Br  Br4  1  0.07592955  0.23120021  0.34298894  1
  Br  Br5  1  0.57592955  0.26879979  -0.34298894  1
  Br  Br6  1  0.42407045  -0.23120021  0.84298894  1
  Br  Br7  1  -0.07592955  0.73120021  0.15701106  1
  Br  Br8  1  0.34298894  0.07592955  0.23120021  1
  Br  Br9  1  -0.34298894  0.57592955  0.26879979  1
  Br  Br10  1  0.84298894  0.42407045  -0.23120021  1
  Br  Br11  1  0.15701106  -0.07592955  0.73120021  1
  Br  Br12  1  1.09298894  0.48120021  0.17407045  1
  Br  Br13  1  0.40701106  0.51879979  0.67407045  1
  Br  Br14  1  0.59298894  0.01879979  0.82592955  1
  Br  Br15  1  -0.09298894  0.98120021  0.32592955  1
  Br  Br16  1  0.98120021  0.32592955  -0.09298894  1
  Br  Br17  1  0.01879979  0.82592955  0.59298894  1
  Br  Br18  1  0.51879979  0.67407045  0.40701106  1
  Br  Br19  1  0.48120021  0.17407045  1.09298894  1
  Br  Br20  1  0.82592955  0.59298894  0.01879979  1
  Br  Br21  1  0.32592955  -0.09298894  0.98120021  1
  Br  Br22  1  0.17407045  1.09298894  0.48120021  1
  Br  Br23  1  0.67407045  0.40701106  0.51879979  1
  Br  Br24  1  0.73120021  0.84298894  0.57592955  1
  Br  Br25  1  0.76879979  0.15701106  1.07592955  1
  Br  Br26  1  0.26879979  1.34298894  0.92407045  1
  Br  Br27  1  1.23120021  0.65701106  0.42407045  1
  Br  Br28  1  0.57592955  0.73120021  0.84298894  1
  Br  Br29  1  1.07592955  0.76879979  0.15701106  1
  Br  Br30  1  0.92407045  0.26879979  1.34298894  1
  Br  Br31  1  0.42407045  1.23120021  0.65701106  1
  Br  Br32  1  0.84298894  0.57592955  0.73120021  1
  Br  Br33  1  0.15701106  1.07592955  0.76879979  1
  Br  Br34  1  1.34298894  0.92407045  0.26879979  1
  Br  Br35  1  0.65701106  0.42407045  1.23120021  1
  Br  Br36  1  1.59298894  0.98120021  0.67407045  1
  Br  Br37  1  0.90701106  1.01879979  1.17407045  1
  Br  Br38  1  1.09298894  0.51879979  1.32592955  1
  Br  Br39  1  0.40701106  1.48120021  0.82592955  1
  Br  Br40  1  1.48120021  0.82592955  0.40701106  1
  Br  Br41  1  0.51879979  1.32592955  1.09298894  1
  Br  Br42  1  1.01879979  1.17407045  0.90701106  1
  Br  Br43  1  0.98120021  0.67407045  1.59298894  1
  Br  Br44  1  1.32592955  1.09298894  0.51879979  1
  Br  Br45  1  0.82592955  0.40701106  1.48120021  1
  Br  Br46  1  0.67407045  1.59298894  0.98120021  1
  Br  Br47  1  1.17407045  0.90701106  1.01879979  1
  Br  Br48  1  0.12500000  0.05364845  0.19635155  1
  Br  Br49  1  0.37500000  0.94635155  0.69635155  1
  Br  Br50  1  0.87500000  0.55364845  0.30364845  1
  Br  Br51  1  0.62500000  0.44635155  0.80364845  1
  Br  Br52  1  0.19635155  0.12500000  0.05364845  1
  Br  Br53  1  0.69635155  0.37500000  0.94635155  1
  Br  Br54  1  0.30364845  0.87500000  0.55364845  1
  Br  Br55  1  0.80364845  0.62500000  0.44635155  1
  Br  Br56  1  0.05364845  0.19635155  0.12500000  1
  Br  Br57  1  0.94635155  0.69635155  0.37500000  1
  Br  Br58  1  0.55364845  0.30364845  0.87500000  1
  Br  Br59  1  0.44635155  0.80364845  0.62500000  1
  Br  Br60  1  0.62500000  0.55364845  0.69635155  1
  Br  Br61  1  0.87500000  0.44635155  0.19635155  1
  Br  Br62  1  0.37500000  0.05364845  0.80364845  1
  Br  Br63  1  0.12500000  0.94635155  0.30364845  1
  Br  Br64  1  0.69635155  0.62500000  0.55364845  1
  Br  Br65  1  0.19635155  0.87500000  0.44635155  1
  Br  Br66  1  0.80364845  0.37500000  0.05364845  1
  Br  Br67  1  0.30364845  0.12500000  0.94635155  1
  Br  Br68  1  0.55364845  0.69635155  0.62500000  1
  Br  Br69  1  0.44635155  0.19635155  0.87500000  1
  Br  Br70  1  0.05364845  0.80364845  0.37500000  1
  Br  Br71  1  0.94635155  0.30364845  0.12500000  1
  K  K72  1  0.21309564  0.21309564  0.21309564  1
  K  K73  1  0.28690436  0.78690436  0.71309564  1
  K  K74  1  0.78690436  0.71309564  0.28690436  1
  K  K75  1  0.71309564  0.28690436  0.78690436  1
  K  K76  1  0.96309564  0.46309564  0.03690436  1
  K  K77  1  0.53690436  0.53690436  0.53690436  1
  K  K78  1  0.46309564  0.03690436  0.96309564  1
  K  K79  1  0.03690436  0.96309564  0.46309564  1
  K  K80  1  0.71309564  0.71309564  0.71309564  1
  K  K81  1  0.78690436  0.28690436  0.21309564  1
  K  K82  1  0.28690436  0.21309564  0.78690436  1
  K  K83  1  0.21309564  0.78690436  0.28690436  1
  K  K84  1  0.46309564  0.96309564  0.53690436  1
  K  K85  1  0.03690436  0.03690436  0.03690436  1
  K  K86  1  0.96309564  0.53690436  0.46309564  1
  K  K87  1  0.53690436  0.46309564  0.96309564  1
  K  K88  1  0.45470099  0.45470099  0.45470099  1
  K  K89  1  0.04529901  0.54529901  0.95470099  1
  K  K90  1  0.54529901  0.95470099  0.04529901  1
  K  K91  1  0.95470099  0.04529901  0.54529901  1
  K  K92  1  0.20470099  0.70470099  0.79529901  1
  K  K93  1  0.29529901  0.29529901  0.29529901  1
  K  K94  1  0.70470099  0.79529901  0.20470099  1
  K  K95  1  0.79529901  0.20470099  0.70470099  1
  K  K96  1  0.95470099  0.95470099  0.95470099  1
  K  K97  1  0.54529901  0.04529901  0.45470099  1
  K  K98  1  0.04529901  0.45470099  0.54529901  1
  K  K99  1  0.45470099  0.54529901  0.04529901  1
  K  K100  1  0.70470099  0.20470099  0.29529901  1
  K  K101  1  0.79529901  0.79529901  0.79529901  1
  K  K102  1  0.20470099  0.29529901  0.70470099  1
  K  K103  1  0.29529901  0.70470099  0.20470099  1
  Li  Li104  1  0.19578432  0.00000000  0.25000000  1
  Li  Li105  1  0.30421568  0.00000000  0.75000000  1
  Li  Li106  1  0.25000000  0.19578432  0.00000000  1
  Li  Li107  1  0.75000000  0.30421568  0.00000000  1
  Li  Li108  1  0.00000000  0.25000000  0.19578432  1
  Li  Li109  1  0.00000000  0.75000000  0.30421568  1
  Li  Li110  1  0.75000000  0.44578432  0.00000000  1
  Li  Li111  1  0.75000000  0.55421568  0.50000000  1
  Li  Li112  1  0.94578432  0.50000000  0.25000000  1
  Li  Li113  1  0.05421568  0.00000000  0.25000000  1
  Li  Li114  1  0.00000000  0.25000000  0.05421568  1
  Li  Li115  1  0.50000000  0.25000000  0.94578432  1
  Li  Li116  1  0.69578432  0.50000000  0.75000000  1
  Li  Li117  1  0.80421568  0.50000000  0.25000000  1
  Li  Li118  1  0.75000000  0.69578432  0.50000000  1
  Li  Li119  1  0.25000000  0.80421568  0.50000000  1
  Li  Li120  1  0.50000000  0.75000000  0.69578432  1
  Li  Li121  1  0.50000000  0.25000000  0.80421568  1
  Li  Li122  1  0.25000000  0.94578432  0.50000000  1
  Li  Li123  1  0.25000000  0.05421568  0.00000000  1
  Li  Li124  1  0.44578432  0.00000000  0.75000000  1
  Li  Li125  1  0.55421568  0.50000000  0.75000000  1
  Li  Li126  1  0.50000000  0.75000000  0.55421568  1
  Li  Li127  1  0.00000000  0.75000000  0.44578432  1
  S  S128  1  0.87500000  0.87500000  0.87500000  1
  S  S129  1  0.62500000  0.12500000  0.37500000  1
  S  S130  1  0.12500000  0.37500000  0.62500000  1
  S  S131  1  0.37500000  0.62500000  0.12500000  1
  S  S132  1  0.37500000  0.37500000  0.37500000  1
  S  S133  1  0.12500000  0.62500000  0.87500000  1
  S  S134  1  0.62500000  0.87500000  0.12500000  1
  S  S135  1  0.87500000  0.12500000  0.62500000  1
  Zr  Zr136  1  0.12500000  0.12500000  0.12500000  1
  Zr  Zr137  1  0.37500000  0.87500000  0.62500000  1
  Zr  Zr138  1  0.87500000  0.62500000  0.37500000  1
  Zr  Zr139  1  0.62500000  0.37500000  0.87500000  1
  Zr  Zr140  1  0.62500000  0.62500000  0.62500000  1
  Zr  Zr141  1  0.87500000  0.37500000  0.12500000  1
  Zr  Zr142  1  0.37500000  0.12500000  0.87500000  1
  Zr  Zr143  1  0.12500000  0.87500000  0.37500000  1
