# generated using pymatgen
data_Li2La2SiSbTeI4
_symmetry_space_group_name_H-M   'P 1'
_cell_length_a   8.06537010
_cell_length_b   6.72126014
_cell_length_c   7.07936518
_cell_angle_alpha   90.00000000
_cell_angle_beta   90.00000000
_cell_angle_gamma   90.00000000
_symmetry_Int_Tables_number   1
_chemical_formula_structural   Li2La2SiSbTeI4
_chemical_formula_sum   'Li2 La2 Si1 Sb1 Te1 I4'
_cell_volume   383.76849710
_cell_formula_units_Z   1
loop_
 _symmetry_equiv_pos_site_id
 _symmetry_equiv_pos_as_xyz
  1  'x, y, z'
loop_
 _atom_site_type_symbol
 _atom_site_label
 _atom_site_symmetry_multiplicity
 _atom_site_fract_x
 _atom_site_fract_y
 _atom_site_fract_z
 _atom_site_occupancy
  Li  Li0  1  0.12500000  0.12500000  0.12500000  1
  Li  Li1  1  0.50000000  0.50000000  0.50000000  1
  La  La2  1  0.25000000  0.25000000  0.25000000  1
  La  La3  1  0.75000000  0.75000000  0.75000000  1
  Te  Te4  1  0.29992317  0.29651045  0.91616291  1
  I  I5  1  0.32632323  0.84551573  0.01249030  1
  I  I6  1  0.36129000  0.21977006  0.02406109  1
  I  I7  1  0.43951496  0.34385430  0.24411460  1
  I  I8  1  0.54922890  0.78415687  0.19071384  1
  Sb  Sb9  1  0.92398245  0.15910192  0.93418532  1
  Si  Si10  1  0.64890784  0.75089208  0.77961381  1
