# generated using pymatgen
data_Li3TiSClO
_symmetry_space_group_name_H-M   'P 1'
_cell_length_a   3.50804841
_cell_length_b   3.69678582
_cell_length_c   3.34545660
_cell_angle_alpha   91.43485680
_cell_angle_beta   91.96659324
_cell_angle_gamma   94.02845137
_symmetry_Int_Tables_number   1
_chemical_formula_structural   Li3TiSClO
_chemical_formula_sum   'Li3 Ti1 S1 Cl1 O1'
_cell_volume   43.23648191
_cell_formula_units_Z   1
loop_
 _symmetry_equiv_pos_site_id
 _symmetry_equiv_pos_as_xyz
  1  'x, y, z'
loop_
 _atom_site_type_symbol
 _atom_site_label
 _atom_site_symmetry_multiplicity
 _atom_site_fract_x
 _atom_site_fract_y
 _atom_site_fract_z
 _atom_site_occupancy
  Li  Li0  1  0.00000000  0.00000000  0.00000000  1
  Li  Li1  1  0.50000000  0.50000000  0.50000000  1
  Li  Li2  1  0.50000000  0.50000000  0.00000000  1
  Ti  Ti3  1  0.50000000  0.00000000  0.50000000  1
  Cl  Cl4  1  0.00000000  0.50000000  0.50000000  1
  O  O5  1  0.29761118  0.72174862  0.82562566  1
  S  S6  1  0.67613150  0.96528831  0.14786714  1
