# generated using pymatgen
data_Li2La3CrSiI3
_symmetry_space_group_name_H-M   'P 1'
_cell_length_a   12.21183184
_cell_length_b   10.48851278
_cell_length_c   11.99232457
_cell_angle_alpha   90.00000000
_cell_angle_beta   90.00000000
_cell_angle_gamma   90.00000000
_symmetry_Int_Tables_number   1
_chemical_formula_structural   Li2La3CrSiI3
_chemical_formula_sum   'Li2 La3 Cr1 Si1 I3'
_cell_volume   1536.02435362
_cell_formula_units_Z   1
loop_
 _symmetry_equiv_pos_site_id
 _symmetry_equiv_pos_as_xyz
  1  'x, y, z'
loop_
 _atom_site_type_symbol
 _atom_site_label
 _atom_site_symmetry_multiplicity
 _atom_site_fract_x
 _atom_site_fract_y
 _atom_site_fract_z
 _atom_site_occupancy
  Li  Li0  1  0.12500000  0.00000000  0.25000000  1
  Li  Li1  1  0.00000000  0.00000000  0.00000000  1
  La  La2  1  0.37500000  0.00000000  0.25000000  1
  La  La3  1  0.25000000  0.25000000  0.25000000  1
  La  La4  1  0.00000000  0.25000000  0.12500000  1
  Cr  Cr5  1  0.75077566  0.30812775  0.93456021  1
  Si  Si6  1  0.20150325  0.73480942  0.84661124  1
  I  I7  1  0.82481579  0.73277059  0.61481687  1
  I  I8  1  0.04212254  0.20167860  0.45668479  1
  I  I9  1  0.48960541  0.39103446  0.56425183  1
