# generated using pymatgen
data_LiCl
_symmetry_space_group_name_H-M   'P 1'
_cell_length_a   13.98221926
_cell_length_b   13.98221926
_cell_length_c   9.21153918
_cell_angle_alpha   90.00000000
_cell_angle_beta   90.00000000
_cell_angle_gamma   120.00000000
_symmetry_Int_Tables_number   1
_chemical_formula_structural   LiCl
_chemical_formula_sum   'Li36 Cl36'
_cell_volume   1559.60655267
_cell_formula_units_Z   36
loop_
 _symmetry_equiv_pos_site_id
 _symmetry_equiv_pos_as_xyz
  1  'x, y, z'
loop_
 _atom_site_type_symbol
 _atom_site_label
 _atom_site_symmetry_multiplicity
 _atom_site_fract_x
 _atom_site_fract_y
 _atom_site_fract_z
 _atom_site_occupancy
  Cl  Cl0  1  0.77217199  0.00000000  0.25000000  1
  Cl  Cl1  1  0.00000000  0.77217199  0.25000000  1
  Cl  Cl2  1  0.22782801  0.22782801  0.25000000  1
  Cl  Cl3  1  0.22782801  0.00000000  0.75000000  1
  Cl  Cl4  1  0.00000000  0.22782801  0.75000000  1
  Cl  Cl5  1  0.77217199  0.77217199  0.75000000  1
  Cl  Cl6  1  0.43883865  0.33333333  0.58333333  1
  Cl  Cl7  1  0.66666667  0.10550532  0.58333333  1
  Cl  Cl8  1  0.89449468  0.56116135  0.58333333  1
  Cl  Cl9  1  0.89449468  0.33333333  0.08333333  1
  Cl  Cl10  1  0.66666667  0.56116135  0.08333333  1
  Cl  Cl11  1  0.43883865  0.10550532  0.08333333  1
  Cl  Cl12  1  0.10550532  0.66666667  0.91666667  1
  Cl  Cl13  1  0.33333333  0.43883865  0.91666667  1
  Cl  Cl14  1  0.56116135  0.89449468  0.91666667  1
  Cl  Cl15  1  0.56116135  0.66666667  0.41666667  1
  Cl  Cl16  1  0.33333333  0.89449468  0.41666667  1
  Cl  Cl17  1  0.10550532  0.43883865  0.41666667  1
  Cl  Cl18  1  0.27137194  0.00000000  0.25000000  1
  Cl  Cl19  1  0.00000000  0.27137194  0.25000000  1
  Cl  Cl20  1  0.72862806  0.72862806  0.25000000  1
  Cl  Cl21  1  0.72862806  0.00000000  0.75000000  1
  Cl  Cl22  1  0.00000000  0.72862806  0.75000000  1
  Cl  Cl23  1  0.27137194  0.27137194  0.75000000  1
  Cl  Cl24  1  0.93803861  0.33333333  0.58333333  1
  Cl  Cl25  1  0.66666667  0.60470528  0.58333333  1
  Cl  Cl26  1  0.39529472  0.06196139  0.58333333  1
  Cl  Cl27  1  0.39529472  0.33333333  0.08333333  1
  Cl  Cl28  1  0.66666667  0.06196139  0.08333333  1
  Cl  Cl29  1  0.93803861  0.60470528  0.08333333  1
  Cl  Cl30  1  0.60470528  0.66666667  0.91666667  1
  Cl  Cl31  1  0.33333333  0.93803861  0.91666667  1
  Cl  Cl32  1  0.06196139  0.39529472  0.91666667  1
  Cl  Cl33  1  0.06196139  0.66666667  0.41666667  1
  Cl  Cl34  1  0.33333333  0.39529472  0.41666667  1
  Cl  Cl35  1  0.60470528  0.93803861  0.41666667  1
  Li  Li36  1  0.90482987  0.32638103  0.36097950  1
  Li  Li37  1  -0.32638103  0.57844884  0.36097950  1
  Li  Li38  1  -0.57844884  -0.90482987  0.36097950  1
  Li  Li39  1  0.32638103  0.90482987  0.13902050  1
  Li  Li40  1  0.57844884  -0.32638103  0.13902050  1
  Li  Li41  1  -0.90482987  -0.57844884  0.13902050  1
  Li  Li42  1  -0.90482987  -0.32638103  -0.36097950  1
  Li  Li43  1  0.32638103  -0.57844884  -0.36097950  1
  Li  Li44  1  0.57844884  0.90482987  -0.36097950  1
  Li  Li45  1  -0.32638103  -0.90482987  0.86097950  1
  Li  Li46  1  -0.57844884  0.32638103  0.86097950  1
  Li  Li47  1  0.90482987  0.57844884  0.86097950  1
  Li  Li48  1  1.57149654  0.65971437  0.69431283  1
  Li  Li49  1  0.34028563  0.91178217  0.69431283  1
  Li  Li50  1  0.08821783  -0.57149654  0.69431283  1
  Li  Li51  1  0.99304770  1.23816320  0.47235384  1
  Li  Li52  1  1.24511550  0.00695230  0.47235384  1
  Li  Li53  1  -0.23816320  -0.24511550  0.47235384  1
  Li  Li54  1  -0.23816320  0.00695230  -0.02764616  1
  Li  Li55  1  0.99304770  -0.24511550  -0.02764616  1
  Li  Li56  1  1.24511550  1.23816320  -0.02764616  1
  Li  Li57  1  0.34028563  -0.57149654  1.19431283  1
  Li  Li58  1  0.08821783  0.65971437  1.19431283  1
  Li  Li59  1  1.57149654  0.91178217  1.19431283  1
  Li  Li60  1  1.23816320  0.99304770  1.02764616  1
  Li  Li61  1  0.00695230  1.24511550  1.02764616  1
  Li  Li62  1  -0.24511550  -0.23816320  1.02764616  1
  Li  Li63  1  0.65971437  1.57149654  0.80568717  1
  Li  Li64  1  0.91178217  0.34028563  0.80568717  1
  Li  Li65  1  -0.57149654  0.08821783  0.80568717  1
  Li  Li66  1  -0.57149654  0.34028563  0.30568717  1
  Li  Li67  1  0.65971437  0.08821783  0.30568717  1
  Li  Li68  1  0.91178217  1.57149654  0.30568717  1
  Li  Li69  1  0.00695230  -0.23816320  1.52764616  1
  Li  Li70  1  -0.24511550  0.99304770  1.52764616  1
  Li  Li71  1  1.23816320  1.24511550  1.52764616  1
