# generated using pymatgen
data_Li2Hf6Mg(SnTe9)2
_symmetry_space_group_name_H-M   'P 1'
_cell_length_a   6.00273360
_cell_length_b   6.00273360
_cell_length_c   34.81935626
_cell_angle_alpha   90.00000000
_cell_angle_beta   90.00000000
_cell_angle_gamma   120.00000000
_symmetry_Int_Tables_number   1
_chemical_formula_structural   Li2Hf6Mg(SnTe9)2
_chemical_formula_sum   'Li4 Hf12 Mg2 Sn4 Te36'
_cell_volume   1086.54948130
_cell_formula_units_Z   2
loop_
 _symmetry_equiv_pos_site_id
 _symmetry_equiv_pos_as_xyz
  1  'x, y, z'
loop_
 _atom_site_type_symbol
 _atom_site_label
 _atom_site_symmetry_multiplicity
 _atom_site_fract_x
 _atom_site_fract_y
 _atom_site_fract_z
 _atom_site_occupancy
  Hf  Hf0  1  0.33333333  0.66666667  0.64270399  1
  Hf  Hf1  1  0.66666667  0.33333333  0.14270399  1
  Hf  Hf2  1  0.66666667  0.33333333  0.35729601  1
  Hf  Hf3  1  0.33333333  0.66666667  0.85729601  1
  Hf  Hf4  1  0.66666667  0.33333333  0.25000000  1
  Hf  Hf5  1  0.33333333  0.66666667  0.75000000  1
  Hf  Hf6  1  0.33333333  0.66666667  0.98149245  1
  Hf  Hf7  1  0.66666667  0.33333333  0.48149245  1
  Hf  Hf8  1  0.66666667  0.33333333  0.01850755  1
  Hf  Hf9  1  0.33333333  0.66666667  0.51850755  1
  Hf  Hf10  1  0.00000000  0.00000000  0.00000000  1
  Hf  Hf11  1  0.00000000  0.00000000  0.50000000  1
  Li  Li12  1  0.00000000  0.00000000  0.16174799  1
  Li  Li13  1  0.00000000  0.00000000  0.66174799  1
  Li  Li14  1  0.00000000  0.00000000  0.83825201  1
  Li  Li15  1  0.00000000  0.00000000  0.33825201  1
  Mg  Mg16  1  0.00000000  0.00000000  0.25000000  1
  Mg  Mg17  1  0.00000000  0.00000000  0.75000000  1
  Sn  Sn18  1  0.00000000  0.00000000  0.91025509  1
  Sn  Sn19  1  0.00000000  0.00000000  0.41025509  1
  Sn  Sn20  1  0.00000000  0.00000000  0.08974491  1
  Sn  Sn21  1  0.00000000  0.00000000  0.58974491  1
  Te  Te22  1  0.33333333  0.66666667  0.25000000  1
  Te  Te23  1  0.66666667  0.33333333  0.75000000  1
  Te  Te24  1  0.36502426  0.31371956  0.25000000  1
  Te  Te25  1  0.68628044  0.05130470  0.25000000  1
  Te  Te26  1  0.94869530  0.63497574  0.25000000  1
  Te  Te27  1  0.63497574  0.68628044  0.75000000  1
  Te  Te28  1  0.31371956  0.94869530  0.75000000  1
  Te  Te29  1  0.05130470  0.36502426  0.75000000  1
  Te  Te30  1  0.53170856  0.46249637  0.20904110  1
  Te  Te31  1  -0.46249637  0.06921219  0.20904110  1
  Te  Te32  1  -0.06921219  -0.53170856  0.20904110  1
  Te  Te33  1  -0.53170856  -0.46249637  0.70904110  1
  Te  Te34  1  0.46249637  -0.06921219  0.70904110  1
  Te  Te35  1  0.06921219  0.53170856  0.70904110  1
  Te  Te36  1  -0.53170856  -0.46249637  -0.20904110  1
  Te  Te37  1  0.46249637  -0.06921219  -0.20904110  1
  Te  Te38  1  0.06921219  0.53170856  -0.20904110  1
  Te  Te39  1  0.53170856  0.46249637  0.29095890  1
  Te  Te40  1  -0.46249637  0.06921219  0.29095890  1
  Te  Te41  1  -0.06921219  -0.53170856  0.29095890  1
  Te  Te42  1  0.67328545  0.54209486  0.42065011  1
  Te  Te43  1  0.45790514  0.13119060  0.42065011  1
  Te  Te44  1  0.86880940  0.32671455  0.42065011  1
  Te  Te45  1  0.32671455  0.45790514  0.92065011  1
  Te  Te46  1  0.54209486  0.86880940  0.92065011  1
  Te  Te47  1  0.13119060  0.67328545  0.92065011  1
  Te  Te48  1  0.32671455  0.45790514  0.57934989  1
  Te  Te49  1  0.54209486  0.86880940  0.57934989  1
  Te  Te50  1  0.13119060  0.67328545  0.57934989  1
  Te  Te51  1  0.67328545  0.54209486  0.07934989  1
  Te  Te52  1  0.45790514  0.13119060  0.07934989  1
  Te  Te53  1  0.86880940  0.32671455  0.07934989  1
  Te  Te54  1  0.00000000  0.00000000  0.04976361  1
  Te  Te55  1  0.00000000  0.00000000  0.54976361  1
  Te  Te56  1  0.00000000  0.00000000  0.95023639  1
  Te  Te57  1  0.00000000  0.00000000  0.45023639  1
