# generated using pymatgen
data_LiAl3As2Se
_symmetry_space_group_name_H-M   'P 1'
_cell_length_a   8.10334344
_cell_length_b   6.70259060
_cell_length_c   9.17016876
_cell_angle_alpha   90.00000000
_cell_angle_beta   90.00000000
_cell_angle_gamma   90.00000000
_symmetry_Int_Tables_number   1
_chemical_formula_structural   LiAl3As2Se
_chemical_formula_sum   'Li1 Al3 As2 Se1'
_cell_volume   498.06298466
_cell_formula_units_Z   1
loop_
 _symmetry_equiv_pos_site_id
 _symmetry_equiv_pos_as_xyz
  1  'x, y, z'
loop_
 _atom_site_type_symbol
 _atom_site_label
 _atom_site_symmetry_multiplicity
 _atom_site_fract_x
 _atom_site_fract_y
 _atom_site_fract_z
 _atom_site_occupancy
  Li  Li0  1  0.12500000  0.12500000  0.12500000  1
  Al  Al1  1  0.50000000  0.50000000  0.50000000  1
  Al  Al2  1  0.25000000  0.25000000  0.25000000  1
  Al  Al3  1  0.75000000  0.75000000  0.75000000  1
  As  As4  1  0.50570098  0.37068119  0.33981290  1
  As  As5  1  0.74681619  0.56009690  0.13354274  1
  Se  Se6  1  0.12419591  0.16154791  0.36499061  1
