# generated using pymatgen
data_Li6TeBr4
_symmetry_space_group_name_H-M   'P 1'
_cell_length_a   7.76347673
_cell_length_b   7.76347673
_cell_length_c   10.02739527
_cell_angle_alpha   90.00000000
_cell_angle_beta   90.00000000
_cell_angle_gamma   120.00000000
_symmetry_Int_Tables_number   1
_chemical_formula_structural   Li6TeBr4
_chemical_formula_sum   'Li12 Te2 Br8'
_cell_volume   523.39705904
_cell_formula_units_Z   2
loop_
 _symmetry_equiv_pos_site_id
 _symmetry_equiv_pos_as_xyz
  1  'x, y, z'
loop_
 _atom_site_type_symbol
 _atom_site_label
 _atom_site_symmetry_multiplicity
 _atom_site_fract_x
 _atom_site_fract_y
 _atom_site_fract_z
 _atom_site_occupancy
  Br  Br0  1  0.00000000  0.00000000  0.37302290  1
  Br  Br1  1  0.00000000  0.00000000  0.87302290  1
  Br  Br2  1  0.00000000  0.00000000  0.62697710  1
  Br  Br3  1  0.00000000  0.00000000  0.12697710  1
  Br  Br4  1  0.00000000  0.00000000  0.25000000  1
  Br  Br5  1  0.00000000  0.00000000  0.75000000  1
  Br  Br6  1  0.66666667  0.33333333  0.25000000  1
  Br  Br7  1  0.33333333  0.66666667  0.75000000  1
  Li  Li8  1  0.01814084  0.66244650  0.17566515  1
  Li  Li9  1  -0.66244650  -0.64430566  0.17566515  1
  Li  Li10  1  0.64430566  -0.01814084  0.17566515  1
  Li  Li11  1  -0.01814084  -0.66244650  0.67566515  1
  Li  Li12  1  0.66244650  0.64430566  0.67566515  1
  Li  Li13  1  -0.64430566  0.01814084  0.67566515  1
  Li  Li14  1  -0.01814084  -0.66244650  -0.17566515  1
  Li  Li15  1  0.66244650  0.64430566  -0.17566515  1
  Li  Li16  1  -0.64430566  0.01814084  -0.17566515  1
  Li  Li17  1  0.01814084  0.66244650  0.32433485  1
  Li  Li18  1  -0.66244650  -0.64430566  0.32433485  1
  Li  Li19  1  0.64430566  -0.01814084  0.32433485  1
  Te  Te20  1  0.33333333  0.66666667  0.25000000  1
  Te  Te21  1  0.66666667  0.33333333  0.75000000  1
