# generated using pymatgen
data_Li2O
_symmetry_space_group_name_H-M   'P 1'
_cell_length_a   7.34501421
_cell_length_b   7.34501421
_cell_length_c   10.38775300
_cell_angle_alpha   90.00000000
_cell_angle_beta   90.00000000
_cell_angle_gamma   120.00000000
_symmetry_Int_Tables_number   1
_chemical_formula_structural   Li2O
_chemical_formula_sum   'Li24 O12'
_cell_volume   485.33043554
_cell_formula_units_Z   12
loop_
 _symmetry_equiv_pos_site_id
 _symmetry_equiv_pos_as_xyz
  1  'x, y, z'
loop_
 _atom_site_type_symbol
 _atom_site_label
 _atom_site_symmetry_multiplicity
 _atom_site_fract_x
 _atom_site_fract_y
 _atom_site_fract_z
 _atom_site_occupancy
  Li  Li0  1  0.51966973  0.03933946  0.25000000  1
  Li  Li1  1  0.96066054  0.48033027  0.25000000  1
  Li  Li2  1  0.51966973  0.48033027  0.25000000  1
  Li  Li3  1  0.48033027  0.96066054  0.75000000  1
  Li  Li4  1  0.03933946  0.51966973  0.75000000  1
  Li  Li5  1  0.48033027  0.51966973  0.75000000  1
  Li  Li6  1  0.50000000  0.00000000  0.00000000  1
  Li  Li7  1  0.00000000  0.50000000  0.00000000  1
  Li  Li8  1  0.50000000  0.50000000  0.00000000  1
  Li  Li9  1  0.50000000  0.00000000  0.50000000  1
  Li  Li10  1  0.00000000  0.50000000  0.50000000  1
  Li  Li11  1  0.50000000  0.50000000  0.50000000  1
  Li  Li12  1  0.76518872  -0.00000000  0.00000000  1
  Li  Li13  1  0.00000000  0.76518872  0.00000000  1
  Li  Li14  1  -0.76518872  -0.76518872  0.00000000  1
  Li  Li15  1  -0.76518872  0.00000000  0.50000000  1
  Li  Li16  1  0.00000000  -0.76518872  0.50000000  1
  Li  Li17  1  0.76518872  0.76518872  0.50000000  1
  Li  Li18  1  -0.76518872  0.00000000  0.00000000  1
  Li  Li19  1  0.00000000  -0.76518872  0.00000000  1
  Li  Li20  1  0.76518872  0.76518872  0.00000000  1
  Li  Li21  1  0.76518872  -0.00000000  0.50000000  1
  Li  Li22  1  0.00000000  0.76518872  0.50000000  1
  Li  Li23  1  -0.76518872  -0.76518872  0.50000000  1
  O  O24  1  0.14134021  0.28268043  0.45612695  1
  O  O25  1  0.71731957  0.85865979  0.45612695  1
  O  O26  1  0.14134021  0.85865979  0.45612695  1
  O  O27  1  0.85865979  0.71731957  0.95612695  1
  O  O28  1  0.28268043  0.14134021  0.95612695  1
  O  O29  1  0.85865979  0.14134021  0.95612695  1
  O  O30  1  0.28268043  0.14134021  0.54387305  1
  O  O31  1  0.85865979  0.71731957  0.54387305  1
  O  O32  1  0.85865979  0.14134021  0.54387305  1
  O  O33  1  0.71731957  0.85865979  0.04387305  1
  O  O34  1  0.14134021  0.28268043  0.04387305  1
  O  O35  1  0.14134021  0.85865979  0.04387305  1
