# generated using pymatgen
data_Sr6Li3Al2(Cl4F3)3
_symmetry_space_group_name_H-M   'P 1'
_cell_length_a   17.30080544
_cell_length_b   17.30080544
_cell_length_c   6.05396000
_cell_angle_alpha   90.00000000
_cell_angle_beta   90.00000000
_cell_angle_gamma   120.00000000
_symmetry_Int_Tables_number   1
_chemical_formula_structural   Sr6Li3Al2(Cl4F3)3
_chemical_formula_sum   'Sr12 Li6 Al4 Cl24 F18'
_cell_volume   1569.28861329
_cell_formula_units_Z   2
loop_
 _symmetry_equiv_pos_site_id
 _symmetry_equiv_pos_as_xyz
  1  'x, y, z'
loop_
 _atom_site_type_symbol
 _atom_site_label
 _atom_site_symmetry_multiplicity
 _atom_site_fract_x
 _atom_site_fract_y
 _atom_site_fract_z
 _atom_site_occupancy
  Al  Al0  1  0.00000000  0.00000000  0.25000000  1
  Al  Al1  1  0.00000000  0.00000000  0.75000000  1
  Al  Al2  1  0.33333333  0.66666667  0.25000000  1
  Al  Al3  1  0.66666667  0.33333333  0.75000000  1
  Cl  Cl4  1  0.08769352  0.79941117  0.37033922  1
  Cl  Cl5  1  -0.79941117  -0.71171765  0.37033922  1
  Cl  Cl6  1  0.71171765  -0.08769352  0.37033922  1
  Cl  Cl7  1  -0.08769352  -0.79941117  0.87033922  1
  Cl  Cl8  1  0.79941117  0.71171765  0.87033922  1
  Cl  Cl9  1  -0.71171765  0.08769352  0.87033922  1
  Cl  Cl10  1  -0.08769352  -0.79941117  -0.37033922  1
  Cl  Cl11  1  0.79941117  0.71171765  -0.37033922  1
  Cl  Cl12  1  -0.71171765  0.08769352  -0.37033922  1
  Cl  Cl13  1  0.08769352  0.79941117  0.12966078  1
  Cl  Cl14  1  -0.79941117  -0.71171765  0.12966078  1
  Cl  Cl15  1  0.71171765  -0.08769352  0.12966078  1
  Cl  Cl16  1  0.66625164  0.73838277  0.59695257  1
  Cl  Cl17  1  0.26161723  0.92786887  0.59695257  1
  Cl  Cl18  1  0.07213113  0.33374836  0.59695257  1
  Cl  Cl19  1  0.33374836  0.26161723  0.09695257  1
  Cl  Cl20  1  0.73838277  0.07213113  0.09695257  1
  Cl  Cl21  1  0.92786887  0.66625164  0.09695257  1
  Cl  Cl22  1  0.33374836  0.26161723  0.40304743  1
  Cl  Cl23  1  0.73838277  0.07213113  0.40304743  1
  Cl  Cl24  1  0.92786887  0.66625164  0.40304743  1
  Cl  Cl25  1  0.66625164  0.73838277  0.90304743  1
  Cl  Cl26  1  0.26161723  0.92786887  0.90304743  1
  Cl  Cl27  1  0.07213113  0.33374836  0.90304743  1
  F  F28  1  0.11330323  0.81445287  0.50048951  1
  F  F29  1  0.18554713  0.29885036  0.50048951  1
  F  F30  1  0.70114964  0.88669677  0.50048951  1
  F  F31  1  0.88669677  0.18554713  0.00048951  1
  F  F32  1  0.81445287  0.70114964  0.00048951  1
  F  F33  1  0.29885036  0.11330323  0.00048951  1
  F  F34  1  0.88669677  0.18554713  0.49951049  1
  F  F35  1  0.81445287  0.70114964  0.49951049  1
  F  F36  1  0.29885036  0.11330323  0.49951049  1
  F  F37  1  0.11330323  0.81445287  0.99951049  1
  F  F38  1  0.18554713  0.29885036  0.99951049  1
  F  F39  1  0.70114964  0.88669677  0.99951049  1
  F  F40  1  0.66666667  0.33333333  0.25000000  1
  F  F41  1  0.33333333  0.66666667  0.75000000  1
  F  F42  1  0.00000000  0.00000000  0.42752178  1
  F  F43  1  0.00000000  0.00000000  0.92752178  1
  F  F44  1  0.00000000  0.00000000  0.57247822  1
  F  F45  1  0.00000000  0.00000000  0.07247822  1
  Li  Li46  1  0.50000000  0.00000000  0.00000000  1
  Li  Li47  1  0.00000000  0.50000000  0.00000000  1
  Li  Li48  1  0.50000000  0.50000000  0.00000000  1
  Li  Li49  1  0.50000000  0.00000000  0.50000000  1
  Li  Li50  1  0.00000000  0.50000000  0.50000000  1
  Li  Li51  1  0.50000000  0.50000000  0.50000000  1
  Sr  Sr52  1  0.99068170  0.19832985  0.25000000  1
  Sr  Sr53  1  0.80167015  0.79235185  0.25000000  1
  Sr  Sr54  1  0.20764815  0.00931830  0.25000000  1
  Sr  Sr55  1  0.00931830  0.80167015  0.75000000  1
  Sr  Sr56  1  0.19832985  0.20764815  0.75000000  1
  Sr  Sr57  1  0.79235185  0.99068170  0.75000000  1
  Sr  Sr58  1  0.58354403  0.67265717  0.25000000  1
  Sr  Sr59  1  0.32734283  0.91088685  0.25000000  1
  Sr  Sr60  1  0.08911315  0.41645597  0.25000000  1
  Sr  Sr61  1  0.41645597  0.32734283  0.75000000  1
  Sr  Sr62  1  0.67265717  0.08911315  0.75000000  1
  Sr  Sr63  1  0.91088685  0.58354403  0.75000000  1
