# generated using pymatgen
data_LiBr
_symmetry_space_group_name_H-M   'P 1'
_cell_length_a   9.84404755
_cell_length_b   9.84404755
_cell_length_c   20.43992758
_cell_angle_alpha   90.00000000
_cell_angle_beta   90.00000000
_cell_angle_gamma   90.00000000
_symmetry_Int_Tables_number   1
_chemical_formula_structural   LiBr
_chemical_formula_sum   'Li48 Br48'
_cell_volume   1980.73674471
_cell_formula_units_Z   48
loop_
 _symmetry_equiv_pos_site_id
 _symmetry_equiv_pos_as_xyz
  1  'x, y, z'
loop_
 _atom_site_type_symbol
 _atom_site_label
 _atom_site_symmetry_multiplicity
 _atom_site_fract_x
 _atom_site_fract_y
 _atom_site_fract_z
 _atom_site_occupancy
  Br  Br0  1  0.13715241  0.05833131  0.42997968  1
  Br  Br1  1  0.36284759  -0.05833131  0.92997968  1
  Br  Br2  1  0.19166869  0.88715241  0.67997968  1
  Br  Br3  1  0.30833131  0.11284759  1.17997968  1
  Br  Br4  1  0.36284759  0.05833131  -0.42997968  1
  Br  Br5  1  0.13715241  -0.05833131  0.07002032  1
  Br  Br6  1  0.30833131  0.88715241  0.32002032  1
  Br  Br7  1  0.19166869  0.11284759  -0.17997968  1
  Br  Br8  1  -0.13715241  -0.05833131  -0.42997968  1
  Br  Br9  1  0.63715241  0.05833131  0.07002032  1
  Br  Br10  1  0.80833131  0.11284759  0.32002032  1
  Br  Br11  1  0.69166869  0.88715241  -0.17997968  1
  Br  Br12  1  0.63715241  -0.05833131  0.42997968  1
  Br  Br13  1  -0.13715241  0.05833131  0.92997968  1
  Br  Br14  1  0.69166869  0.11284759  0.67997968  1
  Br  Br15  1  0.80833131  0.88715241  1.17997968  1
  Br  Br16  1  0.63715241  0.55833131  0.92997968  1
  Br  Br17  1  0.86284759  0.44166869  1.42997968  1
  Br  Br18  1  0.69166869  1.38715241  1.17997968  1
  Br  Br19  1  0.80833131  0.61284759  1.67997968  1
  Br  Br20  1  0.86284759  0.55833131  0.07002032  1
  Br  Br21  1  0.63715241  0.44166869  0.57002032  1
  Br  Br22  1  0.80833131  1.38715241  0.82002032  1
  Br  Br23  1  0.69166869  0.61284759  0.32002032  1
  Br  Br24  1  0.36284759  0.44166869  0.07002032  1
  Br  Br25  1  1.13715241  0.55833131  0.57002032  1
  Br  Br26  1  1.30833131  0.61284759  0.82002032  1
  Br  Br27  1  1.19166869  1.38715241  0.32002032  1
  Br  Br28  1  1.13715241  0.44166869  0.92997968  1
  Br  Br29  1  0.36284759  0.55833131  1.42997968  1
  Br  Br30  1  1.19166869  0.61284759  1.17997968  1
  Br  Br31  1  1.30833131  1.38715241  1.67997968  1
  Br  Br32  1  0.00000000  0.00000000  0.00000000  1
  Br  Br33  1  0.50000000  0.00000000  0.50000000  1
  Br  Br34  1  0.25000000  0.75000000  0.25000000  1
  Br  Br35  1  0.25000000  0.25000000  0.75000000  1
  Br  Br36  1  0.50000000  0.00000000  0.00000000  1
  Br  Br37  1  0.00000000  0.00000000  0.50000000  1
  Br  Br38  1  0.25000000  0.75000000  0.75000000  1
  Br  Br39  1  0.25000000  0.25000000  0.25000000  1
  Br  Br40  1  0.50000000  0.50000000  0.50000000  1
  Br  Br41  1  0.00000000  0.50000000  0.00000000  1
  Br  Br42  1  0.75000000  0.25000000  0.75000000  1
  Br  Br43  1  0.75000000  0.75000000  0.25000000  1
  Br  Br44  1  0.00000000  0.50000000  0.50000000  1
  Br  Br45  1  0.50000000  0.50000000  0.00000000  1
  Br  Br46  1  0.75000000  0.25000000  0.25000000  1
  Br  Br47  1  0.75000000  0.75000000  0.75000000  1
  Li  Li48  1  0.00000000  0.25000000  0.12500000  1
  Li  Li49  1  0.00000000  0.75000000  0.37500000  1
  Li  Li50  1  0.00000000  0.75000000  0.87500000  1
  Li  Li51  1  0.00000000  0.25000000  0.62500000  1
  Li  Li52  1  0.50000000  0.75000000  0.62500000  1
  Li  Li53  1  0.50000000  0.25000000  0.87500000  1
  Li  Li54  1  0.50000000  0.25000000  0.37500000  1
  Li  Li55  1  0.50000000  0.75000000  0.12500000  1
  Li  Li56  1  0.00000000  0.25000000  0.20476104  1
  Li  Li57  1  0.00000000  0.75000000  0.45476104  1
  Li  Li58  1  0.50000000  0.25000000  0.79523896  1
  Li  Li59  1  0.50000000  0.75000000  0.54523896  1
  Li  Li60  1  0.00000000  0.75000000  0.79523896  1
  Li  Li61  1  0.00000000  0.25000000  0.54523896  1
  Li  Li62  1  0.50000000  0.75000000  0.20476104  1
  Li  Li63  1  0.50000000  0.25000000  0.45476104  1
  Li  Li64  1  0.50000000  0.75000000  0.70476104  1
  Li  Li65  1  0.50000000  0.25000000  0.95476104  1
  Li  Li66  1  0.00000000  0.75000000  0.29523896  1
  Li  Li67  1  0.00000000  0.25000000  0.04523896  1
  Li  Li68  1  0.50000000  0.25000000  0.29523896  1
  Li  Li69  1  0.50000000  0.75000000  0.04523896  1
  Li  Li70  1  0.00000000  0.25000000  0.70476104  1
  Li  Li71  1  0.00000000  0.75000000  0.95476104  1
  Li  Li72  1  0.00000000  0.25000000  0.97382904  1
  Li  Li73  1  0.00000000  0.75000000  0.22382904  1
  Li  Li74  1  0.50000000  0.25000000  0.02617096  1
  Li  Li75  1  0.50000000  0.75000000  0.77617096  1
  Li  Li76  1  0.00000000  0.75000000  0.02617096  1
  Li  Li77  1  0.00000000  0.25000000  0.77617096  1
  Li  Li78  1  0.50000000  0.75000000  0.97382904  1
  Li  Li79  1  0.50000000  0.25000000  0.22382904  1
  Li  Li80  1  0.50000000  0.75000000  0.47382904  1
  Li  Li81  1  0.50000000  0.25000000  0.72382904  1
  Li  Li82  1  0.00000000  0.75000000  0.52617096  1
  Li  Li83  1  0.00000000  0.25000000  0.27617096  1
  Li  Li84  1  0.50000000  0.25000000  0.52617096  1
  Li  Li85  1  0.50000000  0.75000000  0.27617096  1
  Li  Li86  1  0.00000000  0.25000000  0.47382904  1
  Li  Li87  1  0.00000000  0.75000000  0.72382904  1
  Li  Li88  1  0.00000000  0.25000000  0.37500000  1
  Li  Li89  1  0.00000000  0.75000000  0.62500000  1
  Li  Li90  1  0.50000000  0.25000000  0.62500000  1
  Li  Li91  1  0.50000000  0.75000000  0.37500000  1
  Li  Li92  1  0.50000000  0.75000000  0.87500000  1
  Li  Li93  1  0.50000000  0.25000000  0.12500000  1
  Li  Li94  1  0.00000000  0.75000000  0.12500000  1
  Li  Li95  1  0.00000000  0.25000000  0.87500000  1
