# generated using pymatgen
data_Na3LiCa2(BrF3)2
_symmetry_space_group_name_H-M   'P 1'
_cell_length_a   8.73484106
_cell_length_b   8.73484106
_cell_length_c   14.63146650
_cell_angle_alpha   90.00000000
_cell_angle_beta   90.00000000
_cell_angle_gamma   120.00000000
_symmetry_Int_Tables_number   1
_chemical_formula_structural   Na3LiCa2(BrF3)2
_chemical_formula_sum   'Na9 Li3 Ca6 Br6 F18'
_cell_volume   966.78188153
_cell_formula_units_Z   3
loop_
 _symmetry_equiv_pos_site_id
 _symmetry_equiv_pos_as_xyz
  1  'x, y, z'
loop_
 _atom_site_type_symbol
 _atom_site_label
 _atom_site_symmetry_multiplicity
 _atom_site_fract_x
 _atom_site_fract_y
 _atom_site_fract_z
 _atom_site_occupancy
  Br  Br0  1  0.00000000  0.00000000  0.14186571  1
  Br  Br1  1  0.00000000  0.00000000  0.85813429  1
  Br  Br2  1  0.66666667  0.33333333  0.47519904  1
  Br  Br3  1  0.66666667  0.33333333  0.19146762  1
  Br  Br4  1  0.33333333  0.66666667  0.80853238  1
  Br  Br5  1  0.33333333  0.66666667  0.52480096  1
  Ca  Ca6  1  0.00000000  0.00000000  0.35032185  1
  Ca  Ca7  1  0.00000000  0.00000000  0.64967815  1
  Ca  Ca8  1  0.66666667  0.33333333  0.68365518  1
  Ca  Ca9  1  0.66666667  0.33333333  0.98301148  1
  Ca  Ca10  1  0.33333333  0.66666667  0.01698852  1
  Ca  Ca11  1  0.33333333  0.66666667  0.31634482  1
  F  F12  1  0.00000000  0.00000000  0.00000000  1
  F  F13  1  0.66666667  0.33333333  0.33333333  1
  F  F14  1  0.33333333  0.66666667  0.66666667  1
  F  F15  1  0.50000000  0.00000000  0.00000000  1
  F  F16  1  0.00000000  0.50000000  0.00000000  1
  F  F17  1  0.50000000  0.50000000  0.00000000  1
  F  F18  1  1.16666667  0.33333333  0.33333333  1
  F  F19  1  0.66666667  0.83333333  0.33333333  1
  F  F20  1  1.16666667  0.83333333  0.33333333  1
  F  F21  1  0.83333333  0.66666667  0.66666667  1
  F  F22  1  0.33333333  1.16666667  0.66666667  1
  F  F23  1  0.83333333  1.16666667  0.66666667  1
  F  F24  1  0.00000000  0.00000000  0.07646955  1
  F  F25  1  0.00000000  0.00000000  0.92353045  1
  F  F26  1  0.66666667  0.33333333  0.40980289  1
  F  F27  1  0.66666667  0.33333333  0.25686378  1
  F  F28  1  0.33333333  0.66666667  0.74313622  1
  F  F29  1  0.33333333  0.66666667  0.59019711  1
  Li  Li30  1  0.00000000  0.00000000  0.50000000  1
  Li  Li31  1  0.66666667  0.33333333  0.83333333  1
  Li  Li32  1  0.33333333  0.66666667  0.16666667  1
  Na  Na33  1  0.50000000  0.00000000  0.50000000  1
  Na  Na34  1  0.00000000  0.50000000  0.50000000  1
  Na  Na35  1  0.50000000  0.50000000  0.50000000  1
  Na  Na36  1  0.16666667  0.33333333  0.83333333  1
  Na  Na37  1  0.66666667  0.83333333  0.83333333  1
  Na  Na38  1  0.16666667  0.83333333  0.83333333  1
  Na  Na39  1  0.83333333  0.66666667  0.16666667  1
  Na  Na40  1  0.33333333  0.16666667  0.16666667  1
  Na  Na41  1  0.83333333  0.16666667  0.16666667  1
