# generated using pymatgen
data_Li2O
_symmetry_space_group_name_H-M   'P 1'
_cell_length_a   4.76393293
_cell_length_b   7.98711899
_cell_length_c   10.98697605
_cell_angle_alpha   90.00000000
_cell_angle_beta   90.00000000
_cell_angle_gamma   90.00000000
_symmetry_Int_Tables_number   1
_chemical_formula_structural   Li2O
_chemical_formula_sum   'Li16 O8'
_cell_volume   418.05552834
_cell_formula_units_Z   8
loop_
 _symmetry_equiv_pos_site_id
 _symmetry_equiv_pos_as_xyz
  1  'x, y, z'
loop_
 _atom_site_type_symbol
 _atom_site_label
 _atom_site_symmetry_multiplicity
 _atom_site_fract_x
 _atom_site_fract_y
 _atom_site_fract_z
 _atom_site_occupancy
  Li  Li0  1  0.22522839  0.17371732  0.73407900  1
  Li  Li1  1  -0.22522839  -0.17371732  0.73407900  1
  Li  Li2  1  0.27477161  0.67371732  -0.73407900  1
  Li  Li3  1  0.72522839  0.32628268  -0.73407900  1
  Li  Li4  1  -0.22522839  -0.17371732  -0.73407900  1
  Li  Li5  1  0.22522839  0.17371732  -0.73407900  1
  Li  Li6  1  0.72522839  0.32628268  0.73407900  1
  Li  Li7  1  0.27477161  0.67371732  0.73407900  1
  Li  Li8  1  0.88334269  0.22858995  0.15614765  1
  Li  Li9  1  0.11665731  0.77141005  0.15614765  1
  Li  Li10  1  0.61665731  0.72858995  0.84385235  1
  Li  Li11  1  0.38334269  0.27141005  0.84385235  1
  Li  Li12  1  0.11665731  0.77141005  0.84385235  1
  Li  Li13  1  0.88334269  0.22858995  0.84385235  1
  Li  Li14  1  0.38334269  0.27141005  0.15614765  1
  Li  Li15  1  0.61665731  0.72858995  0.15614765  1
  O  O16  1  0.86818273  0.27806296  0.94000164  1
  O  O17  1  0.13181727  0.72193704  0.94000164  1
  O  O18  1  0.63181727  0.77806296  0.05999836  1
  O  O19  1  0.36818273  0.22193704  0.05999836  1
  O  O20  1  0.13181727  0.72193704  0.05999836  1
  O  O21  1  0.86818273  0.27806296  0.05999836  1
  O  O22  1  0.36818273  0.22193704  0.94000164  1
  O  O23  1  0.63181727  0.77806296  0.94000164  1
