# generated using pymatgen
data_LiBr
_symmetry_space_group_name_H-M   'P 1'
_cell_length_a   7.48901493
_cell_length_b   7.48901493
_cell_length_c   3.65050561
_cell_angle_alpha   90.00000000
_cell_angle_beta   90.00000000
_cell_angle_gamma   120.00000000
_symmetry_Int_Tables_number   1
_chemical_formula_structural   LiBr
_chemical_formula_sum   'Li8 Br8'
_cell_volume   177.30992438
_cell_formula_units_Z   8
loop_
 _symmetry_equiv_pos_site_id
 _symmetry_equiv_pos_as_xyz
  1  'x, y, z'
loop_
 _atom_site_type_symbol
 _atom_site_label
 _atom_site_symmetry_multiplicity
 _atom_site_fract_x
 _atom_site_fract_y
 _atom_site_fract_z
 _atom_site_occupancy
  Br  Br0  1  0.39845161  0.79690322  0.25000000  1
  Br  Br1  1  0.20309678  0.60154839  0.25000000  1
  Br  Br2  1  0.39845161  0.60154839  0.25000000  1
  Br  Br3  1  0.60154839  0.20309678  0.75000000  1
  Br  Br4  1  0.79690322  0.39845161  0.75000000  1
  Br  Br5  1  0.60154839  0.39845161  0.75000000  1
  Br  Br6  1  0.00000000  0.00000000  0.25000000  1
  Br  Br7  1  0.00000000  0.00000000  0.75000000  1
  Li  Li8  1  0.33333333  0.66666667  0.75000000  1
  Li  Li9  1  0.66666667  0.33333333  0.25000000  1
  Li  Li10  1  0.50000000  0.00000000  -0.00000000  1
  Li  Li11  1  0.00000000  0.50000000  0.00000000  1
  Li  Li12  1  0.50000000  0.50000000  0.00000000  1
  Li  Li13  1  0.50000000  0.00000000  0.50000000  1
  Li  Li14  1  0.00000000  0.50000000  0.50000000  1
  Li  Li15  1  0.50000000  0.50000000  0.50000000  1
