# generated using pymatgen
data_LiTi3O3
_symmetry_space_group_name_H-M   'P 1'
_cell_length_a   3.95513856
_cell_length_b   3.39938559
_cell_length_c   6.21566083
_cell_angle_alpha   91.13981325
_cell_angle_beta   119.82980449
_cell_angle_gamma   102.61625179
_symmetry_Int_Tables_number   1
_chemical_formula_structural   LiTi3O3
_chemical_formula_sum   'Li1 Ti3 O3'
_cell_volume   69.92664403
_cell_formula_units_Z   1
loop_
 _symmetry_equiv_pos_site_id
 _symmetry_equiv_pos_as_xyz
  1  'x, y, z'
loop_
 _atom_site_type_symbol
 _atom_site_label
 _atom_site_symmetry_multiplicity
 _atom_site_fract_x
 _atom_site_fract_y
 _atom_site_fract_z
 _atom_site_occupancy
  Li  Li0  1  0.00000000  0.00000000  0.00000000  1
  Ti  Ti1  1  0.33300000  0.66700000  0.25000000  1
  Ti  Ti2  1  0.66700000  0.33300000  0.50000000  1
  Ti  Ti3  1  0.00000000  0.00000000  0.75000000  1
  O  O4  1  0.08593445  0.66987968  0.17954959  1
  O  O5  1  0.13667471  0.61215900  0.28335241  1
  O  O6  1  0.58278225  0.94194590  0.53695074  1
