# generated using pymatgen
data_Li3ScO
_symmetry_space_group_name_H-M   'P 1'
_cell_length_a   3.53517160
_cell_length_b   3.86126039
_cell_length_c   6.97705557
_cell_angle_alpha   108.79618466
_cell_angle_beta   90.58623355
_cell_angle_gamma   108.67137728
_symmetry_Int_Tables_number   1
_chemical_formula_structural   Li3ScO
_chemical_formula_sum   'Li3 Sc1 O1'
_cell_volume   84.72896311
_cell_formula_units_Z   1
loop_
 _symmetry_equiv_pos_site_id
 _symmetry_equiv_pos_as_xyz
  1  'x, y, z'
loop_
 _atom_site_type_symbol
 _atom_site_label
 _atom_site_symmetry_multiplicity
 _atom_site_fract_x
 _atom_site_fract_y
 _atom_site_fract_z
 _atom_site_occupancy
  Li  Li0  1  0.00000000  0.00000000  0.00000000  1
  Li  Li1  1  0.33300000  0.66700000  0.25000000  1
  Li  Li2  1  0.66700000  0.33300000  0.50000000  1
  Sc  Sc3  1  0.00000000  0.00000000  0.75000000  1
  O  O4  1  0.95102805  0.48007758  0.68999245  1
