# generated using pymatgen
data_Li4CaTeSeF2
_symmetry_space_group_name_H-M   'P 1'
_cell_length_a   10.38494805
_cell_length_b   10.38494805
_cell_length_c   5.46054174
_cell_angle_alpha   90.00000000
_cell_angle_beta   90.00000000
_cell_angle_gamma   120.00000000
_symmetry_Int_Tables_number   1
_chemical_formula_structural   Li4CaTeSeF2
_chemical_formula_sum   'Li12 Ca3 Te3 Se3 F6'
_cell_volume   510.00568710
_cell_formula_units_Z   3
loop_
 _symmetry_equiv_pos_site_id
 _symmetry_equiv_pos_as_xyz
  1  'x, y, z'
loop_
 _atom_site_type_symbol
 _atom_site_label
 _atom_site_symmetry_multiplicity
 _atom_site_fract_x
 _atom_site_fract_y
 _atom_site_fract_z
 _atom_site_occupancy
  Ca  Ca0  1  0.00000000  0.00000000  0.00000000  1
  Ca  Ca1  1  0.33333333  0.66666667  0.31156491  1
  Ca  Ca2  1  0.33333333  0.66666667  0.68843509  1
  F  F3  1  0.66666667  0.33333333  0.50000000  1
  F  F4  1  0.84330918  0.15669082  -0.00000000  1
  F  F5  1  0.84330918  0.68661836  -0.00000000  1
  F  F6  1  0.31338164  0.15669082  0.00000000  1
  F  F7  1  0.66666667  0.33333333  0.87851258  1
  F  F8  1  0.66666667  0.33333333  0.12148742  1
  Li  Li9  1  0.90893876  0.09106124  0.50000000  1
  Li  Li10  1  0.90893876  0.81787753  0.50000000  1
  Li  Li11  1  0.18212247  0.09106124  0.50000000  1
  Li  Li12  1  0.00096351  0.76609499  0.74297104  1
  Li  Li13  1  -0.76609499  -0.76513148  0.74297104  1
  Li  Li14  1  0.76513148  -0.00096351  0.74297104  1
  Li  Li15  1  -0.76609499  -0.00096351  -0.74297104  1
  Li  Li16  1  0.76513148  0.76609499  -0.74297104  1
  Li  Li17  1  0.00096351  -0.76513148  -0.74297104  1
  Li  Li18  1  0.77543693  0.22456307  -0.00000000  1
  Li  Li19  1  0.77543693  0.55087386  0.00000000  1
  Li  Li20  1  0.44912614  0.22456307  -0.00000000  1
  Se  Se21  1  0.45924259  0.54075741  0.50000000  1
  Se  Se22  1  0.45924259  0.91848517  0.50000000  1
  Se  Se23  1  0.08151483  0.54075741  0.50000000  1
  Te  Te24  1  0.55190651  0.44809349  0.50000000  1
  Te  Te25  1  0.55190651  0.10381302  0.50000000  1
  Te  Te26  1  0.89618698  0.44809349  0.50000000  1
