# generated using pymatgen
data_Li5LaI
_symmetry_space_group_name_H-M   'P 1'
_cell_length_a   3.16411257
_cell_length_b   3.07618770
_cell_length_c   5.47653452
_cell_angle_alpha   118.29275160
_cell_angle_beta   100.98372867
_cell_angle_gamma   99.06001334
_symmetry_Int_Tables_number   1
_chemical_formula_structural   Li5LaI
_chemical_formula_sum   'Li5 La1 I1'
_cell_volume   44.14397593
_cell_formula_units_Z   1
loop_
 _symmetry_equiv_pos_site_id
 _symmetry_equiv_pos_as_xyz
  1  'x, y, z'
loop_
 _atom_site_type_symbol
 _atom_site_label
 _atom_site_symmetry_multiplicity
 _atom_site_fract_x
 _atom_site_fract_y
 _atom_site_fract_z
 _atom_site_occupancy
  Li  Li0  1  0.00000000  0.00000000  0.00000000  1
  Li  Li1  1  0.33300000  0.66700000  0.25000000  1
  Li  Li2  1  0.66700000  0.33300000  0.50000000  1
  Li  Li3  1  0.00000000  0.00000000  0.75000000  1
  Li  Li4  1  0.18616800  0.79631280  0.14370996  1
  La  La5  1  0.89284821  0.26224439  0.46520697  1
  I  I6  1  0.22962390  0.61221786  0.60441099  1
