# generated using pymatgen
data_Li2Te
_symmetry_space_group_name_H-M   'P 1'
_cell_length_a   5.98285914
_cell_length_b   5.98285914
_cell_length_c   9.59423729
_cell_angle_alpha   90.00000000
_cell_angle_beta   90.00000000
_cell_angle_gamma   120.00000000
_symmetry_Int_Tables_number   1
_chemical_formula_structural   Li2Te
_chemical_formula_sum   'Li12 Te6'
_cell_volume   297.41210625
_cell_formula_units_Z   6
loop_
 _symmetry_equiv_pos_site_id
 _symmetry_equiv_pos_as_xyz
  1  'x, y, z'
loop_
 _atom_site_type_symbol
 _atom_site_label
 _atom_site_symmetry_multiplicity
 _atom_site_fract_x
 _atom_site_fract_y
 _atom_site_fract_z
 _atom_site_occupancy
  Li  Li0  1  0.29701024  0.92104556  0.83295379  1
  Li  Li1  1  -0.92104556  -0.62403532  0.83295379  1
  Li  Li2  1  0.62403532  -0.29701024  0.83295379  1
  Li  Li3  1  -0.29701024  -0.92104556  1.33295379  1
  Li  Li4  1  0.92104556  0.62403532  1.33295379  1
  Li  Li5  1  -0.62403532  0.29701024  1.33295379  1
  Li  Li6  1  -0.29701024  -0.92104556  -0.83295379  1
  Li  Li7  1  0.92104556  0.62403532  -0.83295379  1
  Li  Li8  1  -0.62403532  0.29701024  -0.83295379  1
  Li  Li9  1  0.29701024  0.92104556  -0.33295379  1
  Li  Li10  1  -0.92104556  -0.62403532  -0.33295379  1
  Li  Li11  1  0.62403532  -0.29701024  -0.33295379  1
  Te  Te12  1  0.33333333  0.66666667  0.25000000  1
  Te  Te13  1  0.66666667  0.33333333  0.75000000  1
  Te  Te14  1  0.00000000  0.00000000  0.25000000  1
  Te  Te15  1  0.00000000  0.00000000  0.75000000  1
  Te  Te16  1  0.00000000  0.00000000  0.00000000  1
  Te  Te17  1  0.00000000  0.00000000  0.50000000  1
