# generated using pymatgen
data_Li2O
_symmetry_space_group_name_H-M   'P 1'
_cell_length_a   7.64841383
_cell_length_b   7.64841383
_cell_length_c   18.80337268
_cell_angle_alpha   90.00000000
_cell_angle_beta   90.00000000
_cell_angle_gamma   120.00000000
_symmetry_Int_Tables_number   1
_chemical_formula_structural   Li2O
_chemical_formula_sum   'Li36 O18'
_cell_volume   952.59685063
_cell_formula_units_Z   18
loop_
 _symmetry_equiv_pos_site_id
 _symmetry_equiv_pos_as_xyz
  1  'x, y, z'
loop_
 _atom_site_type_symbol
 _atom_site_label
 _atom_site_symmetry_multiplicity
 _atom_site_fract_x
 _atom_site_fract_y
 _atom_site_fract_z
 _atom_site_occupancy
  Li  Li0  1  0.50000000  0.00000000  0.00000000  1
  Li  Li1  1  0.00000000  0.50000000  0.00000000  1
  Li  Li2  1  0.50000000  0.50000000  0.00000000  1
  Li  Li3  1  0.16666667  0.33333333  0.33333333  1
  Li  Li4  1  0.66666667  0.83333333  0.33333333  1
  Li  Li5  1  0.16666667  0.83333333  0.33333333  1
  Li  Li6  1  0.83333333  0.66666667  0.66666667  1
  Li  Li7  1  0.33333333  0.16666667  0.66666667  1
  Li  Li8  1  0.83333333  0.16666667  0.66666667  1
  Li  Li9  1  0.00000000  0.00000000  0.50000000  1
  Li  Li10  1  0.66666667  0.33333333  0.83333333  1
  Li  Li11  1  0.33333333  0.66666667  0.16666667  1
  Li  Li12  1  0.31874549  0.00000000  0.00000000  1
  Li  Li13  1  0.00000000  0.31874549  0.00000000  1
  Li  Li14  1  -0.31874549  -0.31874549  -0.00000000  1
  Li  Li15  1  -0.31874549  -0.00000000  -0.00000000  1
  Li  Li16  1  0.00000000  -0.31874549  0.00000000  1
  Li  Li17  1  0.31874549  0.31874549  0.00000000  1
  Li  Li18  1  0.98541215  0.33333333  0.33333333  1
  Li  Li19  1  0.66666667  0.65207882  0.33333333  1
  Li  Li20  1  0.34792118  0.01458785  0.33333333  1
  Li  Li21  1  0.34792118  0.33333333  0.33333333  1
  Li  Li22  1  0.66666667  0.01458785  0.33333333  1
  Li  Li23  1  0.98541215  0.65207882  0.33333333  1
  Li  Li24  1  0.65207882  0.66666667  0.66666667  1
  Li  Li25  1  0.33333333  0.98541215  0.66666667  1
  Li  Li26  1  0.01458785  0.34792118  0.66666667  1
  Li  Li27  1  0.01458785  0.66666667  0.66666667  1
  Li  Li28  1  0.33333333  0.34792118  0.66666667  1
  Li  Li29  1  0.65207882  0.98541215  0.66666667  1
  Li  Li30  1  0.00000000  0.00000000  0.16807925  1
  Li  Li31  1  0.00000000  0.00000000  0.83192075  1
  Li  Li32  1  0.66666667  0.33333333  0.50141258  1
  Li  Li33  1  0.66666667  0.33333333  0.16525409  1
  Li  Li34  1  0.33333333  0.66666667  0.83474591  1
  Li  Li35  1  0.33333333  0.66666667  0.49858742  1
  O  O36  1  0.00000000  0.00000000  0.56494076  1
  O  O37  1  0.00000000  0.00000000  0.43505924  1
  O  O38  1  0.66666667  0.33333333  0.89827410  1
  O  O39  1  0.66666667  0.33333333  0.76839257  1
  O  O40  1  0.33333333  0.66666667  0.23160743  1
  O  O41  1  0.33333333  0.66666667  0.10172590  1
  O  O42  1  0.00000000  0.00000000  0.00000000  1
  O  O43  1  0.66666667  0.33333333  0.33333333  1
  O  O44  1  0.33333333  0.66666667  0.66666667  1
  O  O45  1  0.50000000  0.00000000  0.50000000  1
  O  O46  1  0.00000000  0.50000000  0.50000000  1
  O  O47  1  0.50000000  0.50000000  0.50000000  1
  O  O48  1  0.16666667  0.33333333  0.83333333  1
  O  O49  1  0.66666667  0.83333333  0.83333333  1
  O  O50  1  0.16666667  0.83333333  0.83333333  1
  O  O51  1  0.83333333  0.66666667  0.16666667  1
  O  O52  1  0.33333333  0.16666667  0.16666667  1
  O  O53  1  0.83333333  0.16666667  0.16666667  1
