# generated using pymatgen
data_Li4MgZr2Te6O
_symmetry_space_group_name_H-M   'P 1'
_cell_length_a   10.81189618
_cell_length_b   9.92280355
_cell_length_c   8.12885860
_cell_angle_alpha   90.00000000
_cell_angle_beta   90.00000000
_cell_angle_gamma   90.00000000
_symmetry_Int_Tables_number   1
_chemical_formula_structural   Li4MgZr2Te6O
_chemical_formula_sum   'Li16 Mg4 Zr8 Te24 O4'
_cell_volume   872.09908169
_cell_formula_units_Z   4
loop_
 _symmetry_equiv_pos_site_id
 _symmetry_equiv_pos_as_xyz
  1  'x, y, z'
loop_
 _atom_site_type_symbol
 _atom_site_label
 _atom_site_symmetry_multiplicity
 _atom_site_fract_x
 _atom_site_fract_y
 _atom_site_fract_z
 _atom_site_occupancy
  Li  Li0  1  0.54941428  0.37583812  0.68747299  1
  Li  Li1  1  -0.04941428  -0.37583812  1.18747299  1
  Li  Li2  1  -0.54941428  0.87583812  -0.68747299  1
  Li  Li3  1  1.04941428  0.12416188  -0.18747299  1
  Li  Li4  1  -0.54941428  -0.37583812  -0.68747299  1
  Li  Li5  1  1.04941428  0.37583812  -0.18747299  1
  Li  Li6  1  0.54941428  0.12416188  0.68747299  1
  Li  Li7  1  -0.04941428  0.87583812  1.18747299  1
  Li  Li8  1  0.72040458  0.25000000  0.17246324  1
  Li  Li9  1  0.77959542  0.75000000  0.67246324  1
  Li  Li10  1  0.27959542  0.75000000  0.82753676  1
  Li  Li11  1  0.22040458  0.25000000  0.32753676  1
  Li  Li12  1  0.47929805  0.25000000  0.32759298  1
  Li  Li13  1  0.02070195  0.75000000  0.82759298  1
  Li  Li14  1  0.52070195  0.75000000  0.67240702  1
  Li  Li15  1  0.97929805  0.25000000  0.17240702  1
  Mg  Mg16  1  0.05598939  0.25000000  0.45124347  1
  Mg  Mg17  1  0.44401061  0.75000000  0.95124347  1
  Mg  Mg18  1  0.94401061  0.75000000  0.54875653  1
  Mg  Mg19  1  0.55598939  0.25000000  0.04875653  1
  O  O20  1  0.00000000  0.00000000  0.00000000  1
  O  O21  1  0.50000000  0.00000000  0.50000000  1
  O  O22  1  0.00000000  0.50000000  0.00000000  1
  O  O23  1  0.50000000  0.50000000  0.50000000  1
  Te  Te24  1  0.83284350  0.54677557  0.23366271  1
  Te  Te25  1  0.66715650  0.45322443  0.73366271  1
  Te  Te26  1  0.16715650  0.04677557  0.76633729  1
  Te  Te27  1  0.33284350  0.95322443  0.26633729  1
  Te  Te28  1  0.16715650  0.45322443  0.76633729  1
  Te  Te29  1  0.33284350  0.54677557  0.26633729  1
  Te  Te30  1  0.83284350  0.95322443  0.23366271  1
  Te  Te31  1  0.66715650  0.04677557  0.73366271  1
  Te  Te32  1  0.79501736  0.01722829  0.69515141  1
  Te  Te33  1  0.70498264  0.98277171  0.19515141  1
  Te  Te34  1  0.20498264  0.51722829  0.30484859  1
  Te  Te35  1  0.29501736  0.48277171  0.80484859  1
  Te  Te36  1  0.20498264  0.98277171  0.30484859  1
  Te  Te37  1  0.29501736  0.01722829  0.80484859  1
  Te  Te38  1  0.79501736  0.48277171  0.69515141  1
  Te  Te39  1  0.70498264  0.51722829  0.19515141  1
  Te  Te40  1  0.13183690  0.42175030  0.51556398  1
  Te  Te41  1  0.36816310  0.57824970  0.01556398  1
  Te  Te42  1  0.86816310  0.92175030  0.48443602  1
  Te  Te43  1  0.63183690  0.07824970  0.98443602  1
  Te  Te44  1  0.86816310  0.57824970  0.48443602  1
  Te  Te45  1  0.63183690  0.42175030  0.98443602  1
  Te  Te46  1  0.13183690  0.07824970  0.51556398  1
  Te  Te47  1  0.36816310  0.92175030  0.01556398  1
  Zr  Zr48  1  0.31745808  0.25000000  0.05507837  1
  Zr  Zr49  1  0.18254192  0.75000000  0.55507837  1
  Zr  Zr50  1  0.68254192  0.75000000  0.94492163  1
  Zr  Zr51  1  0.81745808  0.25000000  0.44492163  1
  Zr  Zr52  1  0.74828425  0.25000000  0.95219963  1
  Zr  Zr53  1  0.75171575  0.75000000  0.45219963  1
  Zr  Zr54  1  0.25171575  0.75000000  0.04780037  1
  Zr  Zr55  1  0.24828425  0.25000000  0.54780037  1
