# generated using pymatgen
data_LiF
_symmetry_space_group_name_H-M   'P 1'
_cell_length_a   10.95873853
_cell_length_b   10.95873853
_cell_length_c   8.65166907
_cell_angle_alpha   90.00000000
_cell_angle_beta   90.00000000
_cell_angle_gamma   120.00000000
_symmetry_Int_Tables_number   1
_chemical_formula_structural   LiF
_chemical_formula_sum   'Li36 F36'
_cell_volume   899.81175161
_cell_formula_units_Z   36
loop_
 _symmetry_equiv_pos_site_id
 _symmetry_equiv_pos_as_xyz
  1  'x, y, z'
loop_
 _atom_site_type_symbol
 _atom_site_label
 _atom_site_symmetry_multiplicity
 _atom_site_fract_x
 _atom_site_fract_y
 _atom_site_fract_z
 _atom_site_occupancy
  F  F0  1  0.99642229  0.22540437  0.67052311  1
  F  F1  1  -0.22540437  0.77101792  0.67052311  1
  F  F2  1  -0.77101792  -0.99642229  0.67052311  1
  F  F3  1  0.22540437  0.99642229  -0.67052311  1
  F  F4  1  0.77101792  -0.22540437  -0.67052311  1
  F  F5  1  -0.99642229  -0.77101792  -0.67052311  1
  F  F6  1  -0.99642229  -0.22540437  -0.67052311  1
  F  F7  1  0.22540437  -0.77101792  -0.67052311  1
  F  F8  1  0.77101792  0.99642229  -0.67052311  1
  F  F9  1  -0.22540437  -0.99642229  0.67052311  1
  F  F10  1  -0.77101792  0.22540437  0.67052311  1
  F  F11  1  0.99642229  0.77101792  0.67052311  1
  F  F12  1  1.66308896  0.55873771  1.00385644  1
  F  F13  1  0.44126229  1.10435125  1.00385644  1
  F  F14  1  -0.10435125  -0.66308896  1.00385644  1
  F  F15  1  0.89207104  1.32975562  -0.33718977  1
  F  F16  1  1.43768458  0.10792896  -0.33718977  1
  F  F17  1  -0.32975562  -0.43768458  -0.33718977  1
  F  F18  1  -0.32975562  0.10792896  -0.33718977  1
  F  F19  1  0.89207104  -0.43768458  -0.33718977  1
  F  F20  1  1.43768458  1.32975562  -0.33718977  1
  F  F21  1  0.44126229  -0.66308896  1.00385644  1
  F  F22  1  -0.10435125  0.55873771  1.00385644  1
  F  F23  1  1.66308896  1.10435125  1.00385644  1
  F  F24  1  1.32975562  0.89207104  1.33718977  1
  F  F25  1  0.10792896  1.43768458  1.33718977  1
  F  F26  1  -0.43768458  -0.32975562  1.33718977  1
  F  F27  1  0.55873771  1.66308896  -0.00385644  1
  F  F28  1  1.10435125  0.44126229  -0.00385644  1
  F  F29  1  -0.66308896  -0.10435125  -0.00385644  1
  F  F30  1  -0.66308896  0.44126229  -0.00385644  1
  F  F31  1  0.55873771  -0.10435125  -0.00385644  1
  F  F32  1  1.10435125  1.66308896  -0.00385644  1
  F  F33  1  0.10792896  -0.32975562  1.33718977  1
  F  F34  1  -0.43768458  0.89207104  1.33718977  1
  F  F35  1  1.32975562  1.43768458  1.33718977  1
  Li  Li36  1  0.17482120  0.82517880  0.14746722  1
  Li  Li37  1  0.17482120  0.34964241  0.14746722  1
  Li  Li38  1  0.65035759  0.82517880  0.14746722  1
  Li  Li39  1  0.82517880  0.17482120  0.85253278  1
  Li  Li40  1  0.34964241  0.17482120  0.85253278  1
  Li  Li41  1  0.82517880  0.65035759  0.85253278  1
  Li  Li42  1  0.84148787  0.15851213  0.48080055  1
  Li  Li43  1  0.84148787  0.68297574  0.48080055  1
  Li  Li44  1  0.31702426  0.15851213  0.48080055  1
  Li  Li45  1  0.49184546  0.50815454  0.18586612  1
  Li  Li46  1  0.01630907  0.50815454  0.18586612  1
  Li  Li47  1  0.49184546  0.98369093  0.18586612  1
  Li  Li48  1  0.50815454  0.49184546  0.81413388  1
  Li  Li49  1  0.50815454  0.01630907  0.81413388  1
  Li  Li50  1  0.98369093  0.49184546  0.81413388  1
  Li  Li51  1  0.15851213  0.84148787  0.51919945  1
  Li  Li52  1  0.68297574  0.84148787  0.51919945  1
  Li  Li53  1  0.15851213  0.31702426  0.51919945  1
  Li  Li54  1  0.50000000  0.00000000  0.00000000  1
  Li  Li55  1  0.00000000  0.50000000  -0.00000000  1
  Li  Li56  1  0.50000000  0.50000000  0.00000000  1
  Li  Li57  1  0.16666667  0.33333333  0.33333333  1
  Li  Li58  1  0.66666667  0.83333333  0.33333333  1
  Li  Li59  1  0.16666667  0.83333333  0.33333333  1
  Li  Li60  1  0.83333333  0.66666667  0.66666667  1
  Li  Li61  1  0.33333333  0.16666667  0.66666667  1
  Li  Li62  1  0.83333333  0.16666667  0.66666667  1
  Li  Li63  1  0.50000000  0.00000000  0.50000000  1
  Li  Li64  1  0.00000000  0.50000000  0.50000000  1
  Li  Li65  1  0.50000000  0.50000000  0.50000000  1
  Li  Li66  1  0.16666667  0.33333333  0.83333333  1
  Li  Li67  1  0.66666667  0.83333333  0.83333333  1
  Li  Li68  1  0.16666667  0.83333333  0.83333333  1
  Li  Li69  1  0.83333333  0.66666667  0.16666667  1
  Li  Li70  1  0.33333333  0.16666667  0.16666667  1
  Li  Li71  1  0.83333333  0.16666667  0.16666667  1
