# generated using pymatgen
data_LiAlTeBr2
_symmetry_space_group_name_H-M   'P 1'
_cell_length_a   10.41596095
_cell_length_b   7.89924055
_cell_length_c   6.64125577
_cell_angle_alpha   90.00000000
_cell_angle_beta   90.00000000
_cell_angle_gamma   90.00000000
_symmetry_Int_Tables_number   1
_chemical_formula_structural   LiAlTeBr2
_chemical_formula_sum   'Li4 Al4 Te4 Br8'
_cell_volume   546.43044548
_cell_formula_units_Z   4
loop_
 _symmetry_equiv_pos_site_id
 _symmetry_equiv_pos_as_xyz
  1  'x, y, z'
loop_
 _atom_site_type_symbol
 _atom_site_label
 _atom_site_symmetry_multiplicity
 _atom_site_fract_x
 _atom_site_fract_y
 _atom_site_fract_z
 _atom_site_occupancy
  Al  Al0  1  0.00000000  0.00000000  0.80271424  1
  Al  Al1  1  0.50000000  0.50000000  0.19728576  1
  Al  Al2  1  0.00000000  0.00000000  0.19728576  1
  Al  Al3  1  0.50000000  0.50000000  0.80271424  1
  Br  Br4  1  0.28823147  0.60181720  0.39532228  1
  Br  Br5  1  -0.28823147  -0.60181720  0.39532228  1
  Br  Br6  1  0.21176853  1.10181720  -0.39532228  1
  Br  Br7  1  0.78823147  -0.10181720  -0.39532228  1
  Br  Br8  1  -0.28823147  -0.60181720  -0.39532228  1
  Br  Br9  1  0.28823147  0.60181720  -0.39532228  1
  Br  Br10  1  0.78823147  -0.10181720  0.39532228  1
  Br  Br11  1  0.21176853  1.10181720  0.39532228  1
  Li  Li12  1  0.19207046  0.89766581  0.50000000  1
  Li  Li13  1  0.80792954  0.10233419  0.50000000  1
  Li  Li14  1  0.30792954  0.39766581  0.50000000  1
  Li  Li15  1  0.69207046  0.60233419  0.50000000  1
  Te  Te16  1  0.00000000  0.50000000  0.79603217  1
  Te  Te17  1  0.50000000  0.00000000  0.20396783  1
  Te  Te18  1  0.00000000  0.50000000  0.20396783  1
  Te  Te19  1  0.50000000  0.00000000  0.79603217  1
