# generated using pymatgen
data_Li2O
_symmetry_space_group_name_H-M   'P 1'
_cell_length_a   11.61005364
_cell_length_b   11.61005364
_cell_length_c   11.61005364
_cell_angle_alpha   90.00000000
_cell_angle_beta   90.00000000
_cell_angle_gamma   90.00000000
_symmetry_Int_Tables_number   1
_chemical_formula_structural   Li2O
_chemical_formula_sum   'Li48 O24'
_cell_volume   1564.95797076
_cell_formula_units_Z   24
loop_
 _symmetry_equiv_pos_site_id
 _symmetry_equiv_pos_as_xyz
  1  'x, y, z'
loop_
 _atom_site_type_symbol
 _atom_site_label
 _atom_site_symmetry_multiplicity
 _atom_site_fract_x
 _atom_site_fract_y
 _atom_site_fract_z
 _atom_site_occupancy
  Li  Li0  1  0.50000000  0.50000000  0.50000000  1
  Li  Li1  1  0.25000000  0.75000000  0.00000000  1
  Li  Li2  1  0.75000000  0.00000000  0.25000000  1
  Li  Li3  1  0.00000000  0.25000000  0.75000000  1
  Li  Li4  1  0.50000000  0.00000000  0.00000000  1
  Li  Li5  1  0.25000000  0.25000000  0.50000000  1
  Li  Li6  1  0.75000000  0.50000000  0.75000000  1
  Li  Li7  1  0.00000000  0.75000000  0.25000000  1
  Li  Li8  1  0.00000000  0.50000000  0.00000000  1
  Li  Li9  1  0.75000000  0.75000000  0.50000000  1
  Li  Li10  1  0.25000000  0.00000000  0.75000000  1
  Li  Li11  1  0.50000000  0.25000000  0.25000000  1
  Li  Li12  1  0.00000000  0.00000000  0.50000000  1
  Li  Li13  1  0.75000000  0.25000000  0.00000000  1
  Li  Li14  1  0.25000000  0.50000000  0.25000000  1
  Li  Li15  1  0.50000000  0.75000000  0.75000000  1
  Li  Li16  1  0.19895485  0.19895485  0.19895485  1
  Li  Li17  1  0.55104515  0.05104515  0.69895485  1
  Li  Li18  1  0.05104515  0.69895485  0.55104515  1
  Li  Li19  1  0.69895485  0.55104515  0.05104515  1
  Li  Li20  1  0.94895485  0.44895485  0.30104515  1
  Li  Li21  1  -0.19895485  -0.19895485  -0.19895485  1
  Li  Li22  1  0.44895485  0.30104515  0.94895485  1
  Li  Li23  1  0.30104515  0.94895485  0.44895485  1
  Li  Li24  1  0.19895485  0.69895485  0.69895485  1
  Li  Li25  1  0.55104515  0.55104515  1.19895485  1
  Li  Li26  1  0.05104515  1.19895485  1.05104515  1
  Li  Li27  1  0.69895485  1.05104515  0.55104515  1
  Li  Li28  1  0.94895485  0.94895485  0.80104515  1
  Li  Li29  1  -0.19895485  0.30104515  0.30104515  1
  Li  Li30  1  0.44895485  0.80104515  1.44895485  1
  Li  Li31  1  0.30104515  1.44895485  0.94895485  1
  Li  Li32  1  0.69895485  0.19895485  0.69895485  1
  Li  Li33  1  1.05104515  0.05104515  1.19895485  1
  Li  Li34  1  0.55104515  0.69895485  1.05104515  1
  Li  Li35  1  1.19895485  0.55104515  0.55104515  1
  Li  Li36  1  1.44895485  0.44895485  0.80104515  1
  Li  Li37  1  0.30104515  -0.19895485  0.30104515  1
  Li  Li38  1  0.94895485  0.30104515  1.44895485  1
  Li  Li39  1  0.80104515  0.94895485  0.94895485  1
  Li  Li40  1  0.69895485  0.69895485  0.19895485  1
  Li  Li41  1  1.05104515  0.55104515  0.69895485  1
  Li  Li42  1  0.55104515  1.19895485  0.55104515  1
  Li  Li43  1  1.19895485  1.05104515  0.05104515  1
  Li  Li44  1  1.44895485  0.94895485  0.30104515  1
  Li  Li45  1  0.30104515  0.30104515  -0.19895485  1
  Li  Li46  1  0.94895485  0.80104515  0.94895485  1
  Li  Li47  1  0.80104515  1.44895485  0.44895485  1
  O  O48  1  0.12500000  0.12500000  0.12500000  1
  O  O49  1  0.87500000  0.37500000  0.37500000  1
  O  O50  1  0.12500000  0.62500000  0.62500000  1
  O  O51  1  0.87500000  0.87500000  0.87500000  1
  O  O52  1  0.62500000  0.12500000  0.62500000  1
  O  O53  1  0.37500000  0.37500000  0.87500000  1
  O  O54  1  0.62500000  0.62500000  0.12500000  1
  O  O55  1  0.37500000  0.87500000  0.37500000  1
  O  O56  1  0.00000000  0.00000000  0.00000000  1
  O  O57  1  0.75000000  0.25000000  0.50000000  1
  O  O58  1  0.25000000  0.50000000  0.75000000  1
  O  O59  1  0.50000000  0.75000000  0.25000000  1
  O  O60  1  0.00000000  0.50000000  0.50000000  1
  O  O61  1  0.75000000  0.75000000  0.00000000  1
  O  O62  1  0.25000000  0.00000000  0.25000000  1
  O  O63  1  0.50000000  0.25000000  0.75000000  1
  O  O64  1  0.50000000  0.00000000  0.50000000  1
  O  O65  1  0.25000000  0.25000000  0.00000000  1
  O  O66  1  0.75000000  0.50000000  0.25000000  1
  O  O67  1  0.00000000  0.75000000  0.75000000  1
  O  O68  1  0.50000000  0.50000000  0.00000000  1
  O  O69  1  0.25000000  0.75000000  0.50000000  1
  O  O70  1  0.75000000  0.00000000  0.75000000  1
  O  O71  1  0.00000000  0.25000000  0.25000000  1
