# generated using pymatgen
data_LiI
_symmetry_space_group_name_H-M   'P 1'
_cell_length_a   15.87756349
_cell_length_b   15.87756349
_cell_length_c   26.20066575
_cell_angle_alpha   90.00000000
_cell_angle_beta   90.00000000
_cell_angle_gamma   120.00000000
_symmetry_Int_Tables_number   1
_chemical_formula_structural   LiI
_chemical_formula_sum   'Li108 I108'
_cell_volume   5720.19289659
_cell_formula_units_Z   108
loop_
 _symmetry_equiv_pos_site_id
 _symmetry_equiv_pos_as_xyz
  1  'x, y, z'
loop_
 _atom_site_type_symbol
 _atom_site_label
 _atom_site_symmetry_multiplicity
 _atom_site_fract_x
 _atom_site_fract_y
 _atom_site_fract_z
 _atom_site_occupancy
  I  I0  1  0.00000000  0.00000000  0.00000000  1
  I  I1  1  0.00000000  0.00000000  0.50000000  1
  I  I2  1  0.66666667  0.33333333  0.33333333  1
  I  I3  1  0.66666667  0.33333333  0.83333333  1
  I  I4  1  0.33333333  0.66666667  0.66666667  1
  I  I5  1  0.33333333  0.66666667  0.16666667  1
  I  I6  1  0.15574615  0.56473600  0.91180262  1
  I  I7  1  -0.56473600  -0.40898985  0.91180262  1
  I  I8  1  0.40898985  -0.15574615  0.91180262  1
  I  I9  1  0.56473600  0.15574615  -0.41180262  1
  I  I10  1  -0.40898985  -0.56473600  -0.41180262  1
  I  I11  1  -0.15574615  0.40898985  -0.41180262  1
  I  I12  1  -0.15574615  -0.56473600  -0.91180262  1
  I  I13  1  0.56473600  0.40898985  -0.91180262  1
  I  I14  1  -0.40898985  0.15574615  -0.91180262  1
  I  I15  1  -0.56473600  -0.15574615  1.41180262  1
  I  I16  1  0.40898985  0.56473600  1.41180262  1
  I  I17  1  0.15574615  -0.40898985  1.41180262  1
  I  I18  1  0.82241282  0.89806933  1.24513596  1
  I  I19  1  0.10193067  -0.07565652  1.24513596  1
  I  I20  1  1.07565652  0.17758718  1.24513596  1
  I  I21  1  1.23140266  0.48907948  -0.07846929  1
  I  I22  1  0.25767682  -0.23140266  -0.07846929  1
  I  I23  1  0.51092052  0.74232318  -0.07846929  1
  I  I24  1  0.51092052  -0.23140266  -0.57846929  1
  I  I25  1  1.23140266  0.74232318  -0.57846929  1
  I  I26  1  0.25767682  0.48907948  -0.57846929  1
  I  I27  1  0.10193067  0.17758718  1.74513596  1
  I  I28  1  1.07565652  0.89806933  1.74513596  1
  I  I29  1  0.82241282  -0.07565652  1.74513596  1
  I  I30  1  0.48907948  1.23140266  1.57846929  1
  I  I31  1  -0.23140266  0.25767682  1.57846929  1
  I  I32  1  0.74232318  0.51092052  1.57846929  1
  I  I33  1  0.89806933  0.82241282  0.25486404  1
  I  I34  1  -0.07565652  0.10193067  0.25486404  1
  I  I35  1  0.17758718  1.07565652  0.25486404  1
  I  I36  1  0.17758718  0.10193067  -0.24513596  1
  I  I37  1  0.89806933  1.07565652  -0.24513596  1
  I  I38  1  -0.07565652  0.82241282  -0.24513596  1
  I  I39  1  -0.23140266  0.51092052  2.07846929  1
  I  I40  1  0.74232318  1.23140266  2.07846929  1
  I  I41  1  0.48907948  0.25767682  2.07846929  1
  I  I42  1  0.33666769  0.46469709  0.64964175  1
  I  I43  1  0.53530291  0.87197060  0.64964175  1
  I  I44  1  0.12802940  0.66333231  0.64964175  1
  I  I45  1  0.46469709  0.33666769  0.85035825  1
  I  I46  1  0.87197060  0.53530291  0.85035825  1
  I  I47  1  0.66333231  0.12802940  0.85035825  1
  I  I48  1  0.66333231  0.53530291  0.35035825  1
  I  I49  1  0.46469709  0.12802940  0.35035825  1
  I  I50  1  0.87197060  0.33666769  0.35035825  1
  I  I51  1  0.53530291  0.66333231  0.14964175  1
  I  I52  1  0.12802940  0.46469709  0.14964175  1
  I  I53  1  0.33666769  0.87197060  0.14964175  1
  I  I54  1  0.00333436  0.79803043  0.98297509  1
  I  I55  1  0.20196957  0.20530393  0.98297509  1
  I  I56  1  0.79469607  0.99666564  0.98297509  1
  I  I57  1  0.13136376  0.67000102  0.18369158  1
  I  I58  1  0.53863726  0.86863624  0.18369158  1
  I  I59  1  0.32999898  0.46136274  0.18369158  1
  I  I60  1  0.32999898  0.86863624  0.68369158  1
  I  I61  1  0.13136376  0.46136274  0.68369158  1
  I  I62  1  0.53863726  0.67000102  0.68369158  1
  I  I63  1  0.20196957  0.99666564  0.48297509  1
  I  I64  1  0.79469607  0.79803043  0.48297509  1
  I  I65  1  0.00333436  0.20530393  0.48297509  1
  I  I66  1  0.67000102  0.13136376  0.31630842  1
  I  I67  1  0.86863624  0.53863726  0.31630842  1
  I  I68  1  0.46136274  0.32999898  0.31630842  1
  I  I69  1  0.79803043  0.00333436  0.51702491  1
  I  I70  1  0.20530393  0.20196957  0.51702491  1
  I  I71  1  0.99666564  0.79469607  0.51702491  1
  I  I72  1  0.99666564  0.20196957  0.01702491  1
  I  I73  1  0.79803043  0.79469607  0.01702491  1
  I  I74  1  0.20530393  0.00333436  0.01702491  1
  I  I75  1  0.86863624  0.32999898  0.81630842  1
  I  I76  1  0.46136274  0.13136376  0.81630842  1
  I  I77  1  0.67000102  0.53863726  0.81630842  1
  I  I78  1  0.50000000  -0.00000000  -0.00000000  1
  I  I79  1  0.00000000  0.50000000  -0.00000000  1
  I  I80  1  0.50000000  0.50000000  -0.00000000  1
  I  I81  1  0.00000000  0.50000000  0.50000000  1
  I  I82  1  0.50000000  -0.00000000  0.50000000  1
  I  I83  1  0.50000000  0.50000000  0.50000000  1
  I  I84  1  0.16666667  0.33333333  0.33333333  1
  I  I85  1  0.66666667  0.83333333  0.33333333  1
  I  I86  1  0.16666667  0.83333333  0.33333333  1
  I  I87  1  0.66666667  0.83333333  0.83333333  1
  I  I88  1  0.16666667  0.33333333  0.83333333  1
  I  I89  1  0.16666667  0.83333333  0.83333333  1
  I  I90  1  0.83333333  0.66666667  0.66666667  1
  I  I91  1  0.33333333  0.16666667  0.66666667  1
  I  I92  1  0.83333333  0.16666667  0.66666667  1
  I  I93  1  0.33333333  0.16666667  0.16666667  1
  I  I94  1  0.83333333  0.66666667  0.16666667  1
  I  I95  1  0.83333333  0.16666667  0.16666667  1
  I  I96  1  0.00000000  0.00000000  0.78140962  1
  I  I97  1  0.00000000  0.00000000  0.71859038  1
  I  I98  1  0.00000000  0.00000000  0.21859038  1
  I  I99  1  0.00000000  0.00000000  0.28140962  1
  I  I100  1  0.66666667  0.33333333  0.11474296  1
  I  I101  1  0.66666667  0.33333333  0.05192371  1
  I  I102  1  0.66666667  0.33333333  0.55192371  1
  I  I103  1  0.66666667  0.33333333  0.61474296  1
  I  I104  1  0.33333333  0.66666667  0.44807629  1
  I  I105  1  0.33333333  0.66666667  0.38525704  1
  I  I106  1  0.33333333  0.66666667  0.88525704  1
  I  I107  1  0.33333333  0.66666667  0.94807629  1
  Li  Li108  1  0.08358291  0.22592762  0.98434912  1
  Li  Li109  1  0.77407238  0.85765529  0.98434912  1
  Li  Li110  1  0.14234471  0.91641709  0.98434912  1
  Li  Li111  1  0.22592762  0.08358291  0.51565088  1
  Li  Li112  1  0.85765529  0.77407238  0.51565088  1
  Li  Li113  1  0.91641709  0.14234471  0.51565088  1
  Li  Li114  1  0.91641709  0.77407238  0.01565088  1
  Li  Li115  1  0.22592762  0.14234471  0.01565088  1
  Li  Li116  1  0.85765529  0.08358291  0.01565088  1
  Li  Li117  1  0.77407238  0.91641709  0.48434912  1
  Li  Li118  1  0.14234471  0.22592762  0.48434912  1
  Li  Li119  1  0.08358291  0.85765529  0.48434912  1
  Li  Li120  1  0.75024958  0.55926096  0.31768245  1
  Li  Li121  1  0.44073904  0.19098862  0.31768245  1
  Li  Li122  1  0.80901138  0.24975042  0.31768245  1
  Li  Li123  1  0.89259429  0.41691624  0.84898421  1
  Li  Li124  1  0.52432195  0.10740571  0.84898421  1
  Li  Li125  1  0.58308376  0.47567805  0.84898421  1
  Li  Li126  1  0.58308376  0.10740571  0.34898421  1
  Li  Li127  1  0.89259429  0.47567805  0.34898421  1
  Li  Li128  1  0.52432195  0.41691624  0.34898421  1
  Li  Li129  1  0.44073904  0.24975042  0.81768245  1
  Li  Li130  1  0.80901138  0.55926096  0.81768245  1
  Li  Li131  1  0.75024958  0.19098862  0.81768245  1
  Li  Li132  1  0.41691624  0.89259429  0.65101579  1
  Li  Li133  1  0.10740571  0.52432195  0.65101579  1
  Li  Li134  1  0.47567805  0.58308376  0.65101579  1
  Li  Li135  1  0.55926096  0.75024958  0.18231755  1
  Li  Li136  1  0.19098862  0.44073904  0.18231755  1
  Li  Li137  1  0.24975042  0.80901138  0.18231755  1
  Li  Li138  1  0.24975042  0.44073904  0.68231755  1
  Li  Li139  1  0.55926096  0.80901138  0.68231755  1
  Li  Li140  1  0.19098862  0.75024958  0.68231755  1
  Li  Li141  1  0.10740571  0.58308376  0.15101579  1
  Li  Li142  1  0.47567805  0.89259429  0.15101579  1
  Li  Li143  1  0.41691624  0.52432195  0.15101579  1
  Li  Li144  1  0.97820238  0.07023489  0.60597484  1
  Li  Li145  1  0.92976511  0.90796749  0.60597484  1
  Li  Li146  1  0.09203251  0.02179762  0.60597484  1
  Li  Li147  1  0.07023489  0.97820238  0.89402516  1
  Li  Li148  1  0.90796749  0.92976511  0.89402516  1
  Li  Li149  1  0.02179762  0.09203251  0.89402516  1
  Li  Li150  1  0.02179762  0.92976511  0.39402516  1
  Li  Li151  1  0.07023489  0.09203251  0.39402516  1
  Li  Li152  1  0.90796749  0.97820238  0.39402516  1
  Li  Li153  1  0.92976511  0.02179762  0.10597484  1
  Li  Li154  1  0.09203251  0.07023489  0.10597484  1
  Li  Li155  1  0.97820238  0.90796749  0.10597484  1
  Li  Li156  1  0.64486905  0.40356822  0.93930818  1
  Li  Li157  1  0.59643178  0.24130083  0.93930818  1
  Li  Li158  1  0.75869917  0.35513095  0.93930818  1
  Li  Li159  1  0.73690155  0.31153572  0.22735849  1
  Li  Li160  1  0.57463416  0.26309845  0.22735849  1
  Li  Li161  1  0.68846428  0.42536584  0.22735849  1
  Li  Li162  1  0.68846428  0.26309845  0.72735849  1
  Li  Li163  1  0.73690155  0.42536584  0.72735849  1
  Li  Li164  1  0.57463416  0.31153572  0.72735849  1
  Li  Li165  1  0.59643178  0.35513095  0.43930818  1
  Li  Li166  1  0.75869917  0.40356822  0.43930818  1
  Li  Li167  1  0.64486905  0.24130083  0.43930818  1
  Li  Li168  1  0.31153572  0.73690155  0.27264151  1
  Li  Li169  1  0.26309845  0.57463416  0.27264151  1
  Li  Li170  1  0.42536584  0.68846428  0.27264151  1
  Li  Li171  1  0.40356822  0.64486905  0.56069182  1
  Li  Li172  1  0.24130083  0.59643178  0.56069182  1
  Li  Li173  1  0.35513095  0.75869917  0.56069182  1
  Li  Li174  1  0.35513095  0.59643178  0.06069182  1
  Li  Li175  1  0.40356822  0.75869917  0.06069182  1
  Li  Li176  1  0.24130083  0.64486905  0.06069182  1
  Li  Li177  1  0.26309845  0.68846428  0.77264151  1
  Li  Li178  1  0.42536584  0.73690155  0.77264151  1
  Li  Li179  1  0.31153572  0.57463416  0.77264151  1
  Li  Li180  1  0.31540854  0.91966101  0.73162987  1
  Li  Li181  1  0.08033899  0.39574753  0.73162987  1
  Li  Li182  1  0.60425247  0.68459146  0.73162987  1
  Li  Li183  1  0.91966101  0.31540854  0.76837013  1
  Li  Li184  1  0.39574753  0.08033899  0.76837013  1
  Li  Li185  1  0.68459146  0.60425247  0.76837013  1
  Li  Li186  1  0.68459146  0.08033899  0.26837013  1
  Li  Li187  1  0.91966101  0.60425247  0.26837013  1
  Li  Li188  1  0.39574753  0.31540854  0.26837013  1
  Li  Li189  1  0.08033899  0.68459146  0.23162987  1
  Li  Li190  1  0.60425247  0.91966101  0.23162987  1
  Li  Li191  1  0.31540854  0.39574753  0.23162987  1
  Li  Li192  1  0.98207521  0.25299435  0.06496320  1
  Li  Li193  1  0.74700565  0.72908086  0.06496320  1
  Li  Li194  1  0.27091914  0.01792479  0.06496320  1
  Li  Li195  1  0.58632768  0.64874188  0.10170347  1
  Li  Li196  1  0.06241420  0.41367232  0.10170347  1
  Li  Li197  1  0.35125812  0.93758580  0.10170347  1
  Li  Li198  1  0.35125812  0.41367232  0.60170347  1
  Li  Li199  1  0.58632768  0.93758580  0.60170347  1
  Li  Li200  1  0.06241420  0.64874188  0.60170347  1
  Li  Li201  1  0.74700565  0.01792479  0.56496320  1
  Li  Li202  1  0.27091914  0.25299435  0.56496320  1
  Li  Li203  1  0.98207521  0.72908086  0.56496320  1
  Li  Li204  1  0.64874188  0.58632768  0.39829653  1
  Li  Li205  1  0.41367232  0.06241420  0.39829653  1
  Li  Li206  1  0.93758580  0.35125812  0.39829653  1
  Li  Li207  1  0.25299435  0.98207521  0.43503680  1
  Li  Li208  1  0.72908086  0.74700565  0.43503680  1
  Li  Li209  1  0.01792479  0.27091914  0.43503680  1
  Li  Li210  1  0.01792479  0.74700565  0.93503680  1
  Li  Li211  1  0.25299435  0.27091914  0.93503680  1
  Li  Li212  1  0.72908086  0.98207521  0.93503680  1
  Li  Li213  1  0.41367232  0.35125812  0.89829653  1
  Li  Li214  1  0.93758580  0.58632768  0.89829653  1
  Li  Li215  1  0.64874188  0.06241420  0.89829653  1
