# generated using pymatgen
data_Li3FeP3Br7
_symmetry_space_group_name_H-M   'P 1'
_cell_length_a   8.96124748
_cell_length_b   10.49211980
_cell_length_c   8.35276832
_cell_angle_alpha   90.00000000
_cell_angle_beta   90.00000000
_cell_angle_gamma   90.00000000
_symmetry_Int_Tables_number   1
_chemical_formula_structural   Li3FeP3Br7
_chemical_formula_sum   'Li3 Fe1 P3 Br7'
_cell_volume   785.34801027
_cell_formula_units_Z   1
loop_
 _symmetry_equiv_pos_site_id
 _symmetry_equiv_pos_as_xyz
  1  'x, y, z'
loop_
 _atom_site_type_symbol
 _atom_site_label
 _atom_site_symmetry_multiplicity
 _atom_site_fract_x
 _atom_site_fract_y
 _atom_site_fract_z
 _atom_site_occupancy
  Li  Li0  1  0.00000000  0.00000000  0.00000000  1
  Li  Li1  1  0.50000000  0.50000000  0.50000000  1
  Li  Li2  1  0.25000000  0.25000000  0.25000000  1
  Fe  Fe3  1  0.75000000  0.25000000  0.00000000  1
  Br  Br4  1  0.25000000  0.75000000  0.50000000  1
  Br  Br5  1  0.46439590  0.03998830  0.88905224  1
  Br  Br6  1  0.11129515  0.64908021  0.97274023  1
  Br  Br7  1  0.80068407  0.85307083  0.62175926  1
  Br  Br8  1  0.36146732  0.51394579  0.57590666  1
  Br  Br9  1  0.98161956  0.29670813  0.51798520  1
  Br  Br10  1  0.93703836  0.07023307  0.88275701  1
  P  P11  1  0.95460736  0.77450465  0.01245914  1
  P  P12  1  0.28653739  0.82166928  0.21940681  1
  P  P13  1  0.15309765  0.09156933  0.47080638  1
