# generated using pymatgen
data_HfS2
_symmetry_space_group_name_H-M   'P 1'
_cell_length_a   11.65709861
_cell_length_b   11.65709861
_cell_length_c   11.65709861
_cell_angle_alpha   90.00000000
_cell_angle_beta   90.00000000
_cell_angle_gamma   90.00000000
_symmetry_Int_Tables_number   1
_chemical_formula_structural   HfS2
_chemical_formula_sum   'Hf24 S48'
_cell_volume   1584.05920885
_cell_formula_units_Z   24
loop_
 _symmetry_equiv_pos_site_id
 _symmetry_equiv_pos_as_xyz
  1  'x, y, z'
loop_
 _atom_site_type_symbol
 _atom_site_label
 _atom_site_symmetry_multiplicity
 _atom_site_fract_x
 _atom_site_fract_y
 _atom_site_fract_z
 _atom_site_occupancy
  Hf  Hf0  1  0.28084491  0.28084491  0.28084491  1
  Hf  Hf1  1  0.21915509  0.71915509  0.78084491  1
  Hf  Hf2  1  0.71915509  0.78084491  0.21915509  1
  Hf  Hf3  1  0.78084491  0.21915509  0.71915509  1
  Hf  Hf4  1  0.03084491  0.53084491  0.96915509  1
  Hf  Hf5  1  0.46915509  0.46915509  0.46915509  1
  Hf  Hf6  1  0.53084491  0.96915509  0.03084491  1
  Hf  Hf7  1  0.96915509  0.03084491  0.53084491  1
  Hf  Hf8  1  0.78084491  0.78084491  0.78084491  1
  Hf  Hf9  1  0.71915509  0.21915509  0.28084491  1
  Hf  Hf10  1  0.21915509  0.28084491  0.71915509  1
  Hf  Hf11  1  0.28084491  0.71915509  0.21915509  1
  Hf  Hf12  1  0.53084491  0.03084491  0.46915509  1
  Hf  Hf13  1  0.96915509  0.96915509  0.96915509  1
  Hf  Hf14  1  0.03084491  0.46915509  0.53084491  1
  Hf  Hf15  1  0.46915509  0.53084491  0.03084491  1
  Hf  Hf16  1  0.12500000  0.12500000  0.12500000  1
  Hf  Hf17  1  0.37500000  0.87500000  0.62500000  1
  Hf  Hf18  1  0.87500000  0.62500000  0.37500000  1
  Hf  Hf19  1  0.62500000  0.37500000  0.87500000  1
  Hf  Hf20  1  0.62500000  0.62500000  0.62500000  1
  Hf  Hf21  1  0.87500000  0.37500000  0.12500000  1
  Hf  Hf22  1  0.37500000  0.12500000  0.87500000  1
  Hf  Hf23  1  0.12500000  0.87500000  0.37500000  1
  S  S24  1  0.20053597  0.28771606  0.39863031  1
  S  S25  1  0.29946403  -0.28771606  0.89863031  1
  S  S26  1  -0.20053597  0.78771606  0.10136969  1
  S  S27  1  0.70053597  0.21228394  -0.39863031  1
  S  S28  1  0.39863031  0.20053597  0.28771606  1
  S  S29  1  0.89863031  0.29946403  -0.28771606  1
  S  S30  1  0.10136969  -0.20053597  0.78771606  1
  S  S31  1  -0.39863031  0.70053597  0.21228394  1
  S  S32  1  0.28771606  0.39863031  0.20053597  1
  S  S33  1  -0.28771606  0.89863031  0.29946403  1
  S  S34  1  0.78771606  0.10136969  -0.20053597  1
  S  S35  1  0.21228394  -0.39863031  0.70053597  1
  S  S36  1  1.03771606  0.45053597  -0.14863031  1
  S  S37  1  0.46228394  0.54946403  0.35136969  1
  S  S38  1  0.53771606  0.04946403  1.14863031  1
  S  S39  1  -0.03771606  0.95053597  0.64863031  1
  S  S40  1  0.95053597  0.64863031  -0.03771606  1
  S  S41  1  0.04946403  1.14863031  0.53771606  1
  S  S42  1  0.54946403  0.35136969  0.46228394  1
  S  S43  1  0.45053597  -0.14863031  1.03771606  1
  S  S44  1  1.14863031  0.53771606  0.04946403  1
  S  S45  1  0.64863031  -0.03771606  0.95053597  1
  S  S46  1  -0.14863031  1.03771606  0.45053597  1
  S  S47  1  0.35136969  0.46228394  0.54946403  1
  S  S48  1  0.70053597  0.78771606  0.89863031  1
  S  S49  1  0.79946403  0.21228394  1.39863031  1
  S  S50  1  0.29946403  1.28771606  0.60136969  1
  S  S51  1  1.20053597  0.71228394  0.10136969  1
  S  S52  1  0.89863031  0.70053597  0.78771606  1
  S  S53  1  1.39863031  0.79946403  0.21228394  1
  S  S54  1  0.60136969  0.29946403  1.28771606  1
  S  S55  1  0.10136969  1.20053597  0.71228394  1
  S  S56  1  0.78771606  0.89863031  0.70053597  1
  S  S57  1  0.21228394  1.39863031  0.79946403  1
  S  S58  1  1.28771606  0.60136969  0.29946403  1
  S  S59  1  0.71228394  0.10136969  1.20053597  1
  S  S60  1  1.53771606  0.95053597  0.35136969  1
  S  S61  1  0.96228394  1.04946403  0.85136969  1
  S  S62  1  1.03771606  0.54946403  1.64863031  1
  S  S63  1  0.46228394  1.45053597  1.14863031  1
  S  S64  1  1.45053597  1.14863031  0.46228394  1
  S  S65  1  0.54946403  1.64863031  1.03771606  1
  S  S66  1  1.04946403  0.85136969  0.96228394  1
  S  S67  1  0.95053597  0.35136969  1.53771606  1
  S  S68  1  1.64863031  1.03771606  0.54946403  1
  S  S69  1  1.14863031  0.46228394  1.45053597  1
  S  S70  1  0.35136969  1.53771606  0.95053597  1
  S  S71  1  0.85136969  0.96228394  1.04946403  1
