# generated using pymatgen
data_Li6Cl4O
_symmetry_space_group_name_H-M   'P 1'
_cell_length_a   11.42543274
_cell_length_b   11.42543274
_cell_length_c   11.42543274
_cell_angle_alpha   90.00000000
_cell_angle_beta   90.00000000
_cell_angle_gamma   90.00000000
_symmetry_Int_Tables_number   1
_chemical_formula_structural   Li6Cl4O
_chemical_formula_sum   'Li48 Cl32 O8'
_cell_volume   1491.48185394
_cell_formula_units_Z   8
loop_
 _symmetry_equiv_pos_site_id
 _symmetry_equiv_pos_as_xyz
  1  'x, y, z'
loop_
 _atom_site_type_symbol
 _atom_site_label
 _atom_site_symmetry_multiplicity
 _atom_site_fract_x
 _atom_site_fract_y
 _atom_site_fract_z
 _atom_site_occupancy
  Cl  Cl0  1  0.45230055  0.45230055  0.45230055  1
  Cl  Cl1  1  0.29769945  0.79769945  0.95230055  1
  Cl  Cl2  1  0.79769945  0.95230055  0.29769945  1
  Cl  Cl3  1  0.95230055  0.29769945  0.79769945  1
  Cl  Cl4  1  0.20230055  0.70230055  0.04769945  1
  Cl  Cl5  1  0.54769945  0.54769945  0.54769945  1
  Cl  Cl6  1  0.70230055  0.04769945  0.20230055  1
  Cl  Cl7  1  0.04769945  0.20230055  0.70230055  1
  Cl  Cl8  1  0.45230055  0.95230055  0.95230055  1
  Cl  Cl9  1  0.29769945  0.29769945  0.45230055  1
  Cl  Cl10  1  0.79769945  0.45230055  0.79769945  1
  Cl  Cl11  1  0.95230055  0.79769945  0.29769945  1
  Cl  Cl12  1  0.20230055  0.20230055  0.54769945  1
  Cl  Cl13  1  0.54769945  0.04769945  0.04769945  1
  Cl  Cl14  1  0.70230055  0.54769945  0.70230055  1
  Cl  Cl15  1  0.04769945  0.70230055  0.20230055  1
  Cl  Cl16  1  0.95230055  0.45230055  0.95230055  1
  Cl  Cl17  1  0.79769945  0.79769945  0.45230055  1
  Cl  Cl18  1  0.29769945  0.95230055  0.79769945  1
  Cl  Cl19  1  0.45230055  0.29769945  0.29769945  1
  Cl  Cl20  1  0.70230055  0.70230055  0.54769945  1
  Cl  Cl21  1  0.04769945  0.54769945  0.04769945  1
  Cl  Cl22  1  0.20230055  0.04769945  0.70230055  1
  Cl  Cl23  1  0.54769945  0.20230055  0.20230055  1
  Cl  Cl24  1  0.95230055  0.95230055  0.45230055  1
  Cl  Cl25  1  0.79769945  0.29769945  0.95230055  1
  Cl  Cl26  1  0.29769945  0.45230055  0.29769945  1
  Cl  Cl27  1  0.45230055  0.79769945  0.79769945  1
  Cl  Cl28  1  0.70230055  0.20230055  0.04769945  1
  Cl  Cl29  1  0.04769945  0.04769945  0.54769945  1
  Cl  Cl30  1  0.20230055  0.54769945  0.20230055  1
  Cl  Cl31  1  0.54769945  0.70230055  0.70230055  1
  Li  Li32  1  0.00000000  0.00000000  0.00000000  1
  Li  Li33  1  0.75000000  0.25000000  0.50000000  1
  Li  Li34  1  0.25000000  0.50000000  0.75000000  1
  Li  Li35  1  0.50000000  0.75000000  0.25000000  1
  Li  Li36  1  0.00000000  0.50000000  0.50000000  1
  Li  Li37  1  0.75000000  0.75000000  0.00000000  1
  Li  Li38  1  0.25000000  0.00000000  0.25000000  1
  Li  Li39  1  0.50000000  0.25000000  0.75000000  1
  Li  Li40  1  0.50000000  0.00000000  0.50000000  1
  Li  Li41  1  0.25000000  0.25000000  0.00000000  1
  Li  Li42  1  0.75000000  0.50000000  0.25000000  1
  Li  Li43  1  0.00000000  0.75000000  0.75000000  1
  Li  Li44  1  0.50000000  0.50000000  0.00000000  1
  Li  Li45  1  0.25000000  0.75000000  0.50000000  1
  Li  Li46  1  0.75000000  0.00000000  0.75000000  1
  Li  Li47  1  0.00000000  0.25000000  0.25000000  1
  Li  Li48  1  0.31684905  0.31684905  0.31684905  1
  Li  Li49  1  0.43315095  -0.06684905  0.81684905  1
  Li  Li50  1  -0.06684905  0.81684905  0.43315095  1
  Li  Li51  1  0.81684905  0.43315095  -0.06684905  1
  Li  Li52  1  1.06684905  0.56684905  0.18315095  1
  Li  Li53  1  -0.31684905  -0.31684905  -0.31684905  1
  Li  Li54  1  0.56684905  0.18315095  1.06684905  1
  Li  Li55  1  0.18315095  1.06684905  0.56684905  1
  Li  Li56  1  0.31684905  0.81684905  0.81684905  1
  Li  Li57  1  0.43315095  0.43315095  1.31684905  1
  Li  Li58  1  -0.06684905  1.31684905  0.93315095  1
  Li  Li59  1  0.81684905  0.93315095  0.43315095  1
  Li  Li60  1  1.06684905  1.06684905  0.68315095  1
  Li  Li61  1  -0.31684905  0.18315095  0.18315095  1
  Li  Li62  1  0.56684905  0.68315095  1.56684905  1
  Li  Li63  1  0.18315095  1.56684905  1.06684905  1
  Li  Li64  1  0.81684905  0.31684905  0.81684905  1
  Li  Li65  1  0.93315095  -0.06684905  1.31684905  1
  Li  Li66  1  0.43315095  0.81684905  0.93315095  1
  Li  Li67  1  1.31684905  0.43315095  0.43315095  1
  Li  Li68  1  1.56684905  0.56684905  0.68315095  1
  Li  Li69  1  0.18315095  -0.31684905  0.18315095  1
  Li  Li70  1  1.06684905  0.18315095  1.56684905  1
  Li  Li71  1  0.68315095  1.06684905  1.06684905  1
  Li  Li72  1  0.81684905  0.81684905  0.31684905  1
  Li  Li73  1  0.93315095  0.43315095  0.81684905  1
  Li  Li74  1  0.43315095  1.31684905  0.43315095  1
  Li  Li75  1  1.31684905  0.93315095  -0.06684905  1
  Li  Li76  1  1.56684905  1.06684905  0.18315095  1
  Li  Li77  1  0.18315095  0.18315095  -0.31684905  1
  Li  Li78  1  1.06684905  0.68315095  1.06684905  1
  Li  Li79  1  0.68315095  1.56684905  0.56684905  1
  O  O80  1  0.12500000  0.12500000  0.12500000  1
  O  O81  1  0.87500000  0.37500000  0.37500000  1
  O  O82  1  0.12500000  0.62500000  0.62500000  1
  O  O83  1  0.87500000  0.87500000  0.87500000  1
  O  O84  1  0.62500000  0.12500000  0.62500000  1
  O  O85  1  0.37500000  0.37500000  0.87500000  1
  O  O86  1  0.62500000  0.62500000  0.12500000  1
  O  O87  1  0.37500000  0.87500000  0.37500000  1
