# generated using pymatgen
data_LiBr
_symmetry_space_group_name_H-M   'P 1'
_cell_length_a   11.98275196
_cell_length_b   11.98275196
_cell_length_c   11.98275196
_cell_angle_alpha   90.00000000
_cell_angle_beta   90.00000000
_cell_angle_gamma   90.00000000
_symmetry_Int_Tables_number   1
_chemical_formula_structural   LiBr
_chemical_formula_sum   'Li32 Br32'
_cell_volume   1720.55955148
_cell_formula_units_Z   32
loop_
 _symmetry_equiv_pos_site_id
 _symmetry_equiv_pos_as_xyz
  1  'x, y, z'
loop_
 _atom_site_type_symbol
 _atom_site_label
 _atom_site_symmetry_multiplicity
 _atom_site_fract_x
 _atom_site_fract_y
 _atom_site_fract_z
 _atom_site_occupancy
  Br  Br0  1  0.12500000  0.12500000  0.12500000  1
  Br  Br1  1  0.37500000  0.87500000  0.62500000  1
  Br  Br2  1  0.87500000  0.62500000  0.37500000  1
  Br  Br3  1  0.62500000  0.37500000  0.87500000  1
  Br  Br4  1  0.87500000  0.87500000  0.87500000  1
  Br  Br5  1  0.62500000  0.12500000  0.37500000  1
  Br  Br6  1  0.12500000  0.37500000  0.62500000  1
  Br  Br7  1  0.37500000  0.62500000  0.12500000  1
  Br  Br8  1  0.62500000  0.62500000  0.62500000  1
  Br  Br9  1  0.87500000  0.37500000  0.12500000  1
  Br  Br10  1  0.37500000  0.12500000  0.87500000  1
  Br  Br11  1  0.12500000  0.87500000  0.37500000  1
  Br  Br12  1  0.37500000  0.37500000  0.37500000  1
  Br  Br13  1  0.12500000  0.62500000  0.87500000  1
  Br  Br14  1  0.62500000  0.87500000  0.12500000  1
  Br  Br15  1  0.87500000  0.12500000  0.62500000  1
  Br  Br16  1  0.00000000  0.00000000  0.00000000  1
  Br  Br17  1  0.50000000  -0.00000000  0.50000000  1
  Br  Br18  1  0.00000000  0.50000000  0.50000000  1
  Br  Br19  1  0.50000000  0.50000000  -0.00000000  1
  Br  Br20  1  0.75000000  0.25000000  0.25000000  1
  Br  Br21  1  0.75000000  0.75000000  0.75000000  1
  Br  Br22  1  0.25000000  0.25000000  0.75000000  1
  Br  Br23  1  0.25000000  0.75000000  0.25000000  1
  Br  Br24  1  0.50000000  0.50000000  0.50000000  1
  Br  Br25  1  0.00000000  0.50000000  -0.00000000  1
  Br  Br26  1  0.50000000  -0.00000000  -0.00000000  1
  Br  Br27  1  0.00000000  0.00000000  0.50000000  1
  Br  Br28  1  0.25000000  0.75000000  0.75000000  1
  Br  Br29  1  0.25000000  0.25000000  0.25000000  1
  Br  Br30  1  0.75000000  0.75000000  0.25000000  1
  Br  Br31  1  0.75000000  0.25000000  0.75000000  1
  Li  Li32  1  0.93577989  0.93577989  0.93577989  1
  Li  Li33  1  -0.43577989  -0.93577989  1.43577989  1
  Li  Li34  1  -0.93577989  1.43577989  -0.43577989  1
  Li  Li35  1  1.43577989  -0.43577989  -0.93577989  1
  Li  Li36  1  1.68577989  1.18577989  -0.68577989  1
  Li  Li37  1  -0.18577989  -0.18577989  -0.18577989  1
  Li  Li38  1  1.18577989  -0.68577989  1.68577989  1
  Li  Li39  1  -0.68577989  1.68577989  1.18577989  1
  Li  Li40  1  -0.93577989  -0.93577989  -0.93577989  1
  Li  Li41  1  1.43577989  0.93577989  -0.43577989  1
  Li  Li42  1  0.93577989  -0.43577989  1.43577989  1
  Li  Li43  1  -0.43577989  1.43577989  0.93577989  1
  Li  Li44  1  -0.68577989  -0.18577989  1.68577989  1
  Li  Li45  1  1.18577989  1.18577989  1.18577989  1
  Li  Li46  1  -0.18577989  1.68577989  -0.68577989  1
  Li  Li47  1  1.68577989  -0.68577989  -0.18577989  1
  Li  Li48  1  1.43577989  1.43577989  1.43577989  1
  Li  Li49  1  0.06422011  -0.43577989  1.93577989  1
  Li  Li50  1  -0.43577989  1.93577989  0.06422011  1
  Li  Li51  1  1.93577989  0.06422011  -0.43577989  1
  Li  Li52  1  2.18577989  1.68577989  -0.18577989  1
  Li  Li53  1  0.31422011  0.31422011  0.31422011  1
  Li  Li54  1  1.68577989  -0.18577989  2.18577989  1
  Li  Li55  1  -0.18577989  2.18577989  1.68577989  1
  Li  Li56  1  -0.43577989  -0.43577989  -0.43577989  1
  Li  Li57  1  1.93577989  1.43577989  0.06422011  1
  Li  Li58  1  1.43577989  0.06422011  1.93577989  1
  Li  Li59  1  0.06422011  1.93577989  1.43577989  1
  Li  Li60  1  -0.18577989  0.31422011  2.18577989  1
  Li  Li61  1  1.68577989  1.68577989  1.68577989  1
  Li  Li62  1  0.31422011  2.18577989  -0.18577989  1
  Li  Li63  1  2.18577989  -0.18577989  0.31422011  1
