# generated using pymatgen
data_Li4TiO
_symmetry_space_group_name_H-M   'P 1'
_cell_length_a   3.40108822
_cell_length_b   3.25744248
_cell_length_c   5.68634864
_cell_angle_alpha   97.08114774
_cell_angle_beta   91.03942269
_cell_angle_gamma   109.90980329
_symmetry_Int_Tables_number   1
_chemical_formula_structural   Li4TiO
_chemical_formula_sum   'Li4 Ti1 O1'
_cell_volume   58.65884632
_cell_formula_units_Z   1
loop_
 _symmetry_equiv_pos_site_id
 _symmetry_equiv_pos_as_xyz
  1  'x, y, z'
loop_
 _atom_site_type_symbol
 _atom_site_label
 _atom_site_symmetry_multiplicity
 _atom_site_fract_x
 _atom_site_fract_y
 _atom_site_fract_z
 _atom_site_occupancy
  Li  Li0  1  0.00000000  0.00000000  0.00000000  1
  Li  Li1  1  0.33300000  0.66700000  0.25000000  1
  Li  Li2  1  0.66700000  0.33300000  0.50000000  1
  Li  Li3  1  0.00000000  0.00000000  0.75000000  1
  Ti  Ti4  1  0.04221594  0.75622686  0.96369858  1
  O  O5  1  0.38460515  0.04300700  0.93803109  1
