# generated using pymatgen
data_HfMg(BrF2)2
_symmetry_space_group_name_H-M   'P 1'
_cell_length_a   11.87638069
_cell_length_b   11.36326978
_cell_length_c   9.41176670
_cell_angle_alpha   90.00000000
_cell_angle_beta   90.00000000
_cell_angle_gamma   90.00000000
_symmetry_Int_Tables_number   1
_chemical_formula_structural   HfMg(BrF2)2
_chemical_formula_sum   'Hf16 Mg16 Br32 F64'
_cell_volume   1270.16043676
_cell_formula_units_Z   16
loop_
 _symmetry_equiv_pos_site_id
 _symmetry_equiv_pos_as_xyz
  1  'x, y, z'
loop_
 _atom_site_type_symbol
 _atom_site_label
 _atom_site_symmetry_multiplicity
 _atom_site_fract_x
 _atom_site_fract_y
 _atom_site_fract_z
 _atom_site_occupancy
  Br  Br0  1  0.50000000  0.50000000  0.50000000  1
  Br  Br1  1  0.25000000  0.25000000  0.50000000  1
  Br  Br2  1  0.25000000  0.50000000  0.25000000  1
  Br  Br3  1  0.50000000  0.25000000  0.25000000  1
  Br  Br4  1  0.50000000  -0.00000000  0.00000000  1
  Br  Br5  1  0.25000000  0.75000000  0.00000000  1
  Br  Br6  1  0.25000000  -0.00000000  0.75000000  1
  Br  Br7  1  0.50000000  0.75000000  0.75000000  1
  Br  Br8  1  0.00000000  0.50000000  0.00000000  1
  Br  Br9  1  0.75000000  0.25000000  0.00000000  1
  Br  Br10  1  0.75000000  0.50000000  0.75000000  1
  Br  Br11  1  0.00000000  0.25000000  0.75000000  1
  Br  Br12  1  0.00000000  0.00000000  0.50000000  1
  Br  Br13  1  0.75000000  0.75000000  0.50000000  1
  Br  Br14  1  0.75000000  0.00000000  0.25000000  1
  Br  Br15  1  0.00000000  0.75000000  0.25000000  1
  Br  Br16  1  0.12500000  0.82238891  0.12500000  1
  Br  Br17  1  0.62500000  0.92761109  0.12500000  1
  Br  Br18  1  0.87500000  0.17761109  0.87500000  1
  Br  Br19  1  0.37500000  0.07238891  0.87500000  1
  Br  Br20  1  0.12500000  0.32238891  0.62500000  1
  Br  Br21  1  0.62500000  0.42761109  0.62500000  1
  Br  Br22  1  0.87500000  0.67761109  0.37500000  1
  Br  Br23  1  0.37500000  0.57238891  0.37500000  1
  Br  Br24  1  0.62500000  0.82238891  0.62500000  1
  Br  Br25  1  0.12500000  0.92761109  0.62500000  1
  Br  Br26  1  0.37500000  0.17761109  0.37500000  1
  Br  Br27  1  0.87500000  0.07238891  0.37500000  1
  Br  Br28  1  0.62500000  0.32238891  0.12500000  1
  Br  Br29  1  0.12500000  0.42761109  0.12500000  1
  Br  Br30  1  0.37500000  0.67761109  0.87500000  1
  Br  Br31  1  0.87500000  0.57238891  0.87500000  1
  F  F32  1  0.77280572  0.25196775  0.86810613  1
  F  F33  1  -0.02280572  0.49803225  0.86810613  1
  F  F34  1  -0.02280572  0.25196775  -0.11810613  1
  F  F35  1  0.77280572  0.49803225  -0.11810613  1
  F  F36  1  -0.77280572  -0.25196775  -0.86810613  1
  F  F37  1  1.02280572  0.50196775  -0.86810613  1
  F  F38  1  1.02280572  -0.25196775  1.11810613  1
  F  F39  1  -0.77280572  0.50196775  1.11810613  1
  F  F40  1  0.77280572  0.75196775  1.36810613  1
  F  F41  1  -0.02280572  0.99803225  1.36810613  1
  F  F42  1  -0.02280572  0.75196775  0.38189387  1
  F  F43  1  0.77280572  0.99803225  0.38189387  1
  F  F44  1  -0.77280572  0.24803225  -0.36810613  1
  F  F45  1  1.02280572  1.00196775  -0.36810613  1
  F  F46  1  1.02280572  0.24803225  1.61810613  1
  F  F47  1  -0.77280572  1.00196775  1.61810613  1
  F  F48  1  1.27280572  0.25196775  1.36810613  1
  F  F49  1  0.47719428  0.49803225  1.36810613  1
  F  F50  1  0.47719428  0.25196775  0.38189387  1
  F  F51  1  1.27280572  0.49803225  0.38189387  1
  F  F52  1  -0.27280572  -0.25196775  -0.36810613  1
  F  F53  1  1.52280572  0.50196775  -0.36810613  1
  F  F54  1  1.52280572  -0.25196775  1.61810613  1
  F  F55  1  -0.27280572  0.50196775  1.61810613  1
  F  F56  1  1.27280572  0.75196775  0.86810613  1
  F  F57  1  0.47719428  0.99803225  0.86810613  1
  F  F58  1  0.47719428  0.75196775  -0.11810613  1
  F  F59  1  1.27280572  0.99803225  -0.11810613  1
  F  F60  1  -0.27280572  0.24803225  -0.86810613  1
  F  F61  1  1.52280572  1.00196775  -0.86810613  1
  F  F62  1  1.52280572  0.24803225  1.11810613  1
  F  F63  1  -0.27280572  1.00196775  1.11810613  1
  F  F64  1  0.38529267  0.77415075  0.74501966  1
  F  F65  1  0.36470733  0.97584925  0.74501966  1
  F  F66  1  0.36470733  0.77415075  0.00498034  1
  F  F67  1  0.38529267  0.97584925  0.00498034  1
  F  F68  1  0.61470733  0.22584925  0.25498034  1
  F  F69  1  0.63529267  0.02415075  0.25498034  1
  F  F70  1  0.63529267  0.22584925  0.99501966  1
  F  F71  1  0.61470733  0.02415075  0.99501966  1
  F  F72  1  0.38529267  0.27415075  0.24501966  1
  F  F73  1  0.36470733  0.47584925  0.24501966  1
  F  F74  1  0.36470733  0.27415075  0.50498034  1
  F  F75  1  0.38529267  0.47584925  0.50498034  1
  F  F76  1  0.61470733  0.72584925  0.75498034  1
  F  F77  1  0.63529267  0.52415075  0.75498034  1
  F  F78  1  0.63529267  0.72584925  0.49501966  1
  F  F79  1  0.61470733  0.52415075  0.49501966  1
  F  F80  1  0.88529267  0.77415075  0.24501966  1
  F  F81  1  0.86470733  0.97584925  0.24501966  1
  F  F82  1  0.86470733  0.77415075  0.50498034  1
  F  F83  1  0.88529267  0.97584925  0.50498034  1
  F  F84  1  0.11470733  0.22584925  0.75498034  1
  F  F85  1  0.13529267  0.02415075  0.75498034  1
  F  F86  1  0.13529267  0.22584925  0.49501966  1
  F  F87  1  0.11470733  0.02415075  0.49501966  1
  F  F88  1  0.88529267  0.27415075  0.74501966  1
  F  F89  1  0.86470733  0.47584925  0.74501966  1
  F  F90  1  0.86470733  0.27415075  0.00498034  1
  F  F91  1  0.88529267  0.47584925  0.00498034  1
  F  F92  1  0.11470733  0.72584925  0.25498034  1
  F  F93  1  0.13529267  0.52415075  0.25498034  1
  F  F94  1  0.13529267  0.72584925  0.99501966  1
  F  F95  1  0.11470733  0.52415075  0.99501966  1
  Hf  Hf96  1  0.00000000  0.00000000  0.00000000  1
  Hf  Hf97  1  0.75000000  0.75000000  0.00000000  1
  Hf  Hf98  1  0.75000000  0.00000000  0.75000000  1
  Hf  Hf99  1  0.00000000  0.75000000  0.75000000  1
  Hf  Hf100  1  0.00000000  0.50000000  0.50000000  1
  Hf  Hf101  1  0.75000000  0.25000000  0.50000000  1
  Hf  Hf102  1  0.75000000  0.50000000  0.25000000  1
  Hf  Hf103  1  0.00000000  0.25000000  0.25000000  1
  Hf  Hf104  1  0.50000000  -0.00000000  0.50000000  1
  Hf  Hf105  1  0.25000000  0.75000000  0.50000000  1
  Hf  Hf106  1  0.25000000  -0.00000000  0.25000000  1
  Hf  Hf107  1  0.50000000  0.75000000  0.25000000  1
  Hf  Hf108  1  0.50000000  0.50000000  0.00000000  1
  Hf  Hf109  1  0.25000000  0.25000000  0.00000000  1
  Hf  Hf110  1  0.25000000  0.50000000  0.75000000  1
  Hf  Hf111  1  0.50000000  0.25000000  0.75000000  1
  Mg  Mg112  1  0.12500000  0.12500000  0.12500000  1
  Mg  Mg113  1  0.87500000  0.87500000  0.87500000  1
  Mg  Mg114  1  0.12500000  0.62500000  0.62500000  1
  Mg  Mg115  1  0.87500000  0.37500000  0.37500000  1
  Mg  Mg116  1  0.62500000  0.12500000  0.62500000  1
  Mg  Mg117  1  0.37500000  0.87500000  0.37500000  1
  Mg  Mg118  1  0.62500000  0.62500000  0.12500000  1
  Mg  Mg119  1  0.37500000  0.37500000  0.87500000  1
  Mg  Mg120  1  0.12500000  0.12500000  0.62500000  1
  Mg  Mg121  1  0.87500000  0.87500000  0.37500000  1
  Mg  Mg122  1  0.12500000  0.62500000  0.12500000  1
  Mg  Mg123  1  0.87500000  0.37500000  0.87500000  1
  Mg  Mg124  1  0.62500000  0.12500000  0.12500000  1
  Mg  Mg125  1  0.37500000  0.87500000  0.87500000  1
  Mg  Mg126  1  0.62500000  0.62500000  0.62500000  1
  Mg  Mg127  1  0.37500000  0.37500000  0.37500000  1
