# generated using pymatgen
data_K2Mg3Sn8Te2(S4F)4
_symmetry_space_group_name_H-M   'P 1'
_cell_length_a   7.31911907
_cell_length_b   19.58221939
_cell_length_c   11.02449475
_cell_angle_alpha   90.00000000
_cell_angle_beta   90.00000000
_cell_angle_gamma   90.00000000
_symmetry_Int_Tables_number   1
_chemical_formula_structural   K2Mg3Sn8Te2(S4F)4
_chemical_formula_sum   'K4 Mg6 Sn16 Te4 S32 F8'
_cell_volume   1580.08124887
_cell_formula_units_Z   2
loop_
 _symmetry_equiv_pos_site_id
 _symmetry_equiv_pos_as_xyz
  1  'x, y, z'
loop_
 _atom_site_type_symbol
 _atom_site_label
 _atom_site_symmetry_multiplicity
 _atom_site_fract_x
 _atom_site_fract_y
 _atom_site_fract_z
 _atom_site_occupancy
  F  F0  1  0.95390420  0.93318140  0.00000000  1
  F  F1  1  0.04609580  0.06681860  0.00000000  1
  F  F2  1  0.54609580  0.43318140  0.50000000  1
  F  F3  1  0.45390420  0.56681860  0.50000000  1
  F  F4  1  0.00000000  0.00000000  0.00000000  1
  F  F5  1  0.50000000  0.50000000  0.50000000  1
  F  F6  1  0.00000000  0.50000000  -0.00000000  1
  F  F7  1  0.50000000  0.00000000  0.50000000  1
  K  K8  1  0.00000000  0.50000000  0.62347616  1
  K  K9  1  0.50000000  0.00000000  0.87652384  1
  K  K10  1  0.00000000  0.50000000  0.37652384  1
  K  K11  1  0.50000000  0.00000000  0.12347616  1
  Mg  Mg12  1  0.00000000  0.00000000  0.50000000  1
  Mg  Mg13  1  0.50000000  0.50000000  0.00000000  1
  Mg  Mg14  1  0.00000000  0.50000000  0.84770506  1
  Mg  Mg15  1  0.50000000  0.00000000  0.65229494  1
  Mg  Mg16  1  0.00000000  0.50000000  0.15229494  1
  Mg  Mg17  1  0.50000000  0.00000000  0.34770506  1
  S  S18  1  0.32168567  0.56841645  0.62646872  1
  S  S19  1  -0.32168567  -0.56841645  0.62646872  1
  S  S20  1  0.17831433  1.06841645  -0.12646872  1
  S  S21  1  0.82168567  -0.06841645  -0.12646872  1
  S  S22  1  -0.32168567  -0.56841645  -0.62646872  1
  S  S23  1  0.32168567  0.56841645  -0.62646872  1
  S  S24  1  0.82168567  -0.06841645  1.12646872  1
  S  S25  1  0.17831433  1.06841645  1.12646872  1
  S  S26  1  0.48565952  0.11966812  0.42370804  1
  S  S27  1  0.51434048  0.88033188  0.42370804  1
  S  S28  1  0.01434048  0.61966812  0.07629196  1
  S  S29  1  0.98565952  0.38033188  0.07629196  1
  S  S30  1  0.51434048  0.88033188  0.57629196  1
  S  S31  1  0.48565952  0.11966812  0.57629196  1
  S  S32  1  0.98565952  0.38033188  0.92370804  1
  S  S33  1  0.01434048  0.61966812  0.92370804  1
  S  S34  1  0.12275445  0.34430652  0.00000000  1
  S  S35  1  0.87724555  0.65569348  0.00000000  1
  S  S36  1  0.37724555  0.84430652  0.50000000  1
  S  S37  1  0.62275445  0.15569348  0.50000000  1
  S  S38  1  0.21768896  0.84166316  0.81681978  1
  S  S39  1  0.78231104  0.15833684  0.81681978  1
  S  S40  1  0.28231104  0.34166316  0.68318022  1
  S  S41  1  0.71768896  0.65833684  0.68318022  1
  S  S42  1  0.78231104  0.15833684  0.18318022  1
  S  S43  1  0.21768896  0.84166316  0.18318022  1
  S  S44  1  0.71768896  0.65833684  0.31681978  1
  S  S45  1  0.28231104  0.34166316  0.31681978  1
  S  S46  1  0.34306713  0.37212267  0.00000000  1
  S  S47  1  0.65693287  0.62787733  0.00000000  1
  S  S48  1  0.15693287  0.87212267  0.50000000  1
  S  S49  1  0.84306713  0.12787733  0.50000000  1
  Sn  Sn50  1  0.41077636  0.74357674  0.39960505  1
  Sn  Sn51  1  0.58922364  0.25642326  0.39960505  1
  Sn  Sn52  1  0.08922364  0.24357674  0.10039495  1
  Sn  Sn53  1  0.91077636  0.75642326  0.10039495  1
  Sn  Sn54  1  0.58922364  0.25642326  0.60039495  1
  Sn  Sn55  1  0.41077636  0.74357674  0.60039495  1
  Sn  Sn56  1  0.91077636  0.75642326  0.89960505  1
  Sn  Sn57  1  0.08922364  0.24357674  0.89960505  1
  Sn  Sn58  1  0.97918804  0.72432050  0.73295313  1
  Sn  Sn59  1  0.02081196  0.27567950  0.73295313  1
  Sn  Sn60  1  0.52081196  0.22432050  0.76704687  1
  Sn  Sn61  1  0.47918804  0.77567950  0.76704687  1
  Sn  Sn62  1  0.02081196  0.27567950  0.26704687  1
  Sn  Sn63  1  0.97918804  0.72432050  0.26704687  1
  Sn  Sn64  1  0.47918804  0.77567950  0.23295313  1
  Sn  Sn65  1  0.52081196  0.22432050  0.23295313  1
  Te  Te66  1  0.00000000  0.00000000  0.69771324  1
  Te  Te67  1  0.50000000  0.50000000  0.80228676  1
  Te  Te68  1  0.00000000  0.00000000  0.30228676  1
  Te  Te69  1  0.50000000  0.50000000  0.19771324  1
