# generated using pymatgen
data_Li3Ti3PN5O
_symmetry_space_group_name_H-M   'P 1'
_cell_length_a   8.25879247
_cell_length_b   8.60682742
_cell_length_c   8.32870682
_cell_angle_alpha   90.00000000
_cell_angle_beta   90.00000000
_cell_angle_gamma   90.00000000
_symmetry_Int_Tables_number   1
_chemical_formula_structural   Li3Ti3PN5O
_chemical_formula_sum   'Li3 Ti3 P1 N5 O1'
_cell_volume   592.02115036
_cell_formula_units_Z   1
loop_
 _symmetry_equiv_pos_site_id
 _symmetry_equiv_pos_as_xyz
  1  'x, y, z'
loop_
 _atom_site_type_symbol
 _atom_site_label
 _atom_site_symmetry_multiplicity
 _atom_site_fract_x
 _atom_site_fract_y
 _atom_site_fract_z
 _atom_site_occupancy
  Li  Li0  1  0.00000000  0.00000000  0.00000000  1
  Li  Li1  1  0.50000000  0.50000000  0.50000000  1
  Li  Li2  1  0.25000000  0.25000000  0.25000000  1
  Ti  Ti3  1  0.75000000  0.25000000  0.00000000  1
  Ti  Ti4  1  0.25000000  0.75000000  0.50000000  1
  Ti  Ti5  1  0.24770089  0.90085325  0.41415741  1
  P  P6  1  0.96116164  0.68170380  0.72479634  1
  N  N7  1  0.99092945  0.02105899  0.54098163  1
  N  N8  1  0.01188284  0.77881525  0.97627369  1
  N  N9  1  0.84562395  0.03871996  0.21256035  1
  N  N10  1  0.85714132  0.72660251  0.30761409  1
  N  N11  1  0.17405189  0.04370091  0.06756696  1
  O  O12  1  0.17613831  0.61363944  0.09795887  1
