# generated using pymatgen
data_Li3B(I2F)2
_symmetry_space_group_name_H-M   'P 1'
_cell_length_a   16.85444535
_cell_length_b   16.85444535
_cell_length_c   16.85444535
_cell_angle_alpha   90.00000000
_cell_angle_beta   90.00000000
_cell_angle_gamma   90.00000000
_symmetry_Int_Tables_number   1
_chemical_formula_structural   Li3B(I2F)2
_chemical_formula_sum   'Li72 B24 I96 F48'
_cell_volume   4787.88153062
_cell_formula_units_Z   24
loop_
 _symmetry_equiv_pos_site_id
 _symmetry_equiv_pos_as_xyz
  1  'x, y, z'
loop_
 _atom_site_type_symbol
 _atom_site_label
 _atom_site_symmetry_multiplicity
 _atom_site_fract_x
 _atom_site_fract_y
 _atom_site_fract_z
 _atom_site_occupancy
  B  B0  1  0.25000000  0.25000000  0.25000000  1
  B  B1  1  0.25000000  0.75000000  0.75000000  1
  B  B2  1  0.75000000  0.25000000  0.75000000  1
  B  B3  1  0.75000000  0.75000000  0.25000000  1
  B  B4  1  0.03498775  0.03498775  0.03498775  1
  B  B5  1  0.96501225  0.96501225  0.03498775  1
  B  B6  1  0.96501225  0.03498775  0.96501225  1
  B  B7  1  0.03498775  0.96501225  0.96501225  1
  B  B8  1  0.03498775  0.53498775  0.53498775  1
  B  B9  1  0.96501225  0.46501225  0.53498775  1
  B  B10  1  0.96501225  0.53498775  0.46501225  1
  B  B11  1  0.03498775  0.46501225  0.46501225  1
  B  B12  1  0.53498775  0.03498775  0.53498775  1
  B  B13  1  0.46501225  0.96501225  0.53498775  1
  B  B14  1  0.46501225  0.03498775  0.46501225  1
  B  B15  1  0.53498775  0.96501225  0.46501225  1
  B  B16  1  0.53498775  0.53498775  0.03498775  1
  B  B17  1  0.46501225  0.46501225  0.03498775  1
  B  B18  1  0.46501225  0.53498775  0.96501225  1
  B  B19  1  0.53498775  0.46501225  0.96501225  1
  B  B20  1  0.00000000  0.00000000  0.00000000  1
  B  B21  1  0.00000000  0.50000000  0.50000000  1
  B  B22  1  0.50000000  0.00000000  0.50000000  1
  B  B23  1  0.50000000  0.50000000  0.00000000  1
  F  F24  1  0.31674662  0.31674662  0.31674662  1
  F  F25  1  0.68325338  0.68325338  0.31674662  1
  F  F26  1  0.68325338  0.31674662  0.68325338  1
  F  F27  1  0.31674662  0.68325338  0.68325338  1
  F  F28  1  0.31674662  0.81674662  0.81674662  1
  F  F29  1  0.68325338  0.18325338  0.81674662  1
  F  F30  1  0.68325338  0.81674662  0.18325338  1
  F  F31  1  0.31674662  0.18325338  0.18325338  1
  F  F32  1  0.81674662  0.31674662  0.81674662  1
  F  F33  1  0.18325338  0.68325338  0.81674662  1
  F  F34  1  0.18325338  0.31674662  0.18325338  1
  F  F35  1  0.81674662  0.68325338  0.18325338  1
  F  F36  1  0.81674662  0.81674662  0.31674662  1
  F  F37  1  0.18325338  0.18325338  0.31674662  1
  F  F38  1  0.18325338  0.81674662  0.68325338  1
  F  F39  1  0.81674662  0.18325338  0.68325338  1
  F  F40  1  0.38222043  0.00000000  0.00000000  1
  F  F41  1  0.61777957  0.00000000  0.00000000  1
  F  F42  1  0.00000000  0.38222043  0.00000000  1
  F  F43  1  0.00000000  0.61777957  0.00000000  1
  F  F44  1  0.00000000  0.00000000  0.38222043  1
  F  F45  1  0.00000000  0.00000000  0.61777957  1
  F  F46  1  0.38222043  0.50000000  0.50000000  1
  F  F47  1  0.61777957  0.50000000  0.50000000  1
  F  F48  1  0.00000000  0.88222043  0.50000000  1
  F  F49  1  0.00000000  0.11777957  0.50000000  1
  F  F50  1  0.00000000  0.50000000  0.88222043  1
  F  F51  1  0.00000000  0.50000000  0.11777957  1
  F  F52  1  0.88222043  0.00000000  0.50000000  1
  F  F53  1  0.11777957  0.00000000  0.50000000  1
  F  F54  1  0.50000000  0.38222043  0.50000000  1
  F  F55  1  0.50000000  0.61777957  0.50000000  1
  F  F56  1  0.50000000  0.00000000  0.88222043  1
  F  F57  1  0.50000000  0.00000000  0.11777957  1
  F  F58  1  0.88222043  0.50000000  -0.00000000  1
  F  F59  1  0.11777957  0.50000000  -0.00000000  1
  F  F60  1  0.50000000  0.88222043  -0.00000000  1
  F  F61  1  0.50000000  0.11777957  -0.00000000  1
  F  F62  1  0.50000000  0.50000000  0.38222043  1
  F  F63  1  0.50000000  0.50000000  0.61777957  1
  F  F64  1  0.75000000  0.75000000  0.75000000  1
  F  F65  1  0.75000000  0.25000000  0.25000000  1
  F  F66  1  0.25000000  0.75000000  0.25000000  1
  F  F67  1  0.25000000  0.25000000  0.75000000  1
  F  F68  1  0.50000000  0.50000000  0.50000000  1
  F  F69  1  0.50000000  0.00000000  0.00000000  1
  F  F70  1  0.00000000  0.50000000  0.00000000  1
  F  F71  1  0.00000000  0.00000000  0.50000000  1
  I  I72  1  0.82074050  0.25000000  0.25000000  1
  I  I73  1  0.17925950  0.75000000  0.25000000  1
  I  I74  1  0.25000000  0.82074050  0.25000000  1
  I  I75  1  0.25000000  0.17925950  0.75000000  1
  I  I76  1  0.25000000  0.25000000  0.82074050  1
  I  I77  1  0.75000000  0.25000000  0.17925950  1
  I  I78  1  0.82074050  0.75000000  0.75000000  1
  I  I79  1  0.17925950  0.25000000  0.75000000  1
  I  I80  1  0.25000000  0.32074050  0.75000000  1
  I  I81  1  0.25000000  0.67925950  0.25000000  1
  I  I82  1  0.25000000  0.75000000  0.32074050  1
  I  I83  1  0.75000000  0.75000000  0.67925950  1
  I  I84  1  0.32074050  0.25000000  0.75000000  1
  I  I85  1  0.67925950  0.75000000  0.75000000  1
  I  I86  1  0.75000000  0.82074050  0.75000000  1
  I  I87  1  0.75000000  0.17925950  0.25000000  1
  I  I88  1  0.75000000  0.25000000  0.32074050  1
  I  I89  1  0.25000000  0.25000000  0.67925950  1
  I  I90  1  0.32074050  0.75000000  0.25000000  1
  I  I91  1  0.67925950  0.25000000  0.25000000  1
  I  I92  1  0.75000000  0.32074050  0.25000000  1
  I  I93  1  0.75000000  0.67925950  0.75000000  1
  I  I94  1  0.75000000  0.75000000  0.82074050  1
  I  I95  1  0.25000000  0.75000000  0.17925950  1
  I  I96  1  0.14986943  0.14986943  0.14986943  1
  I  I97  1  0.85013057  0.85013057  0.14986943  1
  I  I98  1  0.85013057  0.14986943  0.85013057  1
  I  I99  1  0.14986943  0.85013057  0.85013057  1
  I  I100  1  0.14986943  0.64986943  0.64986943  1
  I  I101  1  0.85013057  0.35013057  0.64986943  1
  I  I102  1  0.85013057  0.64986943  0.35013057  1
  I  I103  1  0.14986943  0.35013057  0.35013057  1
  I  I104  1  0.64986943  0.14986943  0.64986943  1
  I  I105  1  0.35013057  0.85013057  0.64986943  1
  I  I106  1  0.35013057  0.14986943  0.35013057  1
  I  I107  1  0.64986943  0.85013057  0.35013057  1
  I  I108  1  0.64986943  0.64986943  0.14986943  1
  I  I109  1  0.35013057  0.35013057  0.14986943  1
  I  I110  1  0.35013057  0.64986943  0.85013057  1
  I  I111  1  0.64986943  0.35013057  0.85013057  1
  I  I112  1  0.66905778  0.66905778  0.66905778  1
  I  I113  1  0.33094222  0.33094222  0.66905778  1
  I  I114  1  0.33094222  0.66905778  0.33094222  1
  I  I115  1  0.66905778  0.33094222  0.33094222  1
  I  I116  1  0.66905778  0.16905778  0.16905778  1
  I  I117  1  0.33094222  0.83094222  0.16905778  1
  I  I118  1  0.33094222  0.16905778  0.83094222  1
  I  I119  1  0.66905778  0.83094222  0.83094222  1
  I  I120  1  0.16905778  0.66905778  0.16905778  1
  I  I121  1  0.83094222  0.33094222  0.16905778  1
  I  I122  1  0.83094222  0.66905778  0.83094222  1
  I  I123  1  0.16905778  0.33094222  0.83094222  1
  I  I124  1  0.16905778  0.16905778  0.66905778  1
  I  I125  1  0.83094222  0.83094222  0.66905778  1
  I  I126  1  0.83094222  0.16905778  0.33094222  1
  I  I127  1  0.16905778  0.83094222  0.33094222  1
  I  I128  1  0.50599167  0.25000000  0.25000000  1
  I  I129  1  0.49400833  0.75000000  0.25000000  1
  I  I130  1  0.25000000  0.50599167  0.25000000  1
  I  I131  1  0.25000000  0.49400833  0.75000000  1
  I  I132  1  0.25000000  0.25000000  0.50599167  1
  I  I133  1  0.75000000  0.25000000  0.49400833  1
  I  I134  1  0.50599167  0.75000000  0.75000000  1
  I  I135  1  0.49400833  0.25000000  0.75000000  1
  I  I136  1  0.25000000  0.00599167  0.75000000  1
  I  I137  1  0.25000000  0.99400833  0.25000000  1
  I  I138  1  0.25000000  0.75000000  0.00599167  1
  I  I139  1  0.75000000  0.75000000  0.99400833  1
  I  I140  1  0.00599167  0.25000000  0.75000000  1
  I  I141  1  0.99400833  0.75000000  0.75000000  1
  I  I142  1  0.75000000  0.50599167  0.75000000  1
  I  I143  1  0.75000000  0.49400833  0.25000000  1
  I  I144  1  0.75000000  0.25000000  0.00599167  1
  I  I145  1  0.25000000  0.25000000  0.99400833  1
  I  I146  1  0.00599167  0.75000000  0.25000000  1
  I  I147  1  0.99400833  0.25000000  0.25000000  1
  I  I148  1  0.75000000  0.00599167  0.25000000  1
  I  I149  1  0.75000000  0.99400833  0.75000000  1
  I  I150  1  0.75000000  0.75000000  0.50599167  1
  I  I151  1  0.25000000  0.75000000  0.49400833  1
  I  I152  1  0.09524654  0.09524654  0.09524654  1
  I  I153  1  0.90475346  0.90475346  0.09524654  1
  I  I154  1  0.90475346  0.09524654  0.90475346  1
  I  I155  1  0.09524654  0.90475346  0.90475346  1
  I  I156  1  0.09524654  0.59524654  0.59524654  1
  I  I157  1  0.90475346  0.40475346  0.59524654  1
  I  I158  1  0.90475346  0.59524654  0.40475346  1
  I  I159  1  0.09524654  0.40475346  0.40475346  1
  I  I160  1  0.59524654  0.09524654  0.59524654  1
  I  I161  1  0.40475346  0.90475346  0.59524654  1
  I  I162  1  0.40475346  0.09524654  0.40475346  1
  I  I163  1  0.59524654  0.90475346  0.40475346  1
  I  I164  1  0.59524654  0.59524654  0.09524654  1
  I  I165  1  0.40475346  0.40475346  0.09524654  1
  I  I166  1  0.40475346  0.59524654  0.90475346  1
  I  I167  1  0.59524654  0.40475346  0.90475346  1
  Li  Li168  1  0.21954702  0.21954702  0.60016081  1
  Li  Li169  1  -0.21954702  -0.21954702  0.60016081  1
  Li  Li170  1  -0.21954702  0.21954702  -0.60016081  1
  Li  Li171  1  0.21954702  -0.21954702  -0.60016081  1
  Li  Li172  1  0.60016081  0.21954702  0.21954702  1
  Li  Li173  1  0.60016081  -0.21954702  -0.21954702  1
  Li  Li174  1  -0.60016081  -0.21954702  0.21954702  1
  Li  Li175  1  -0.60016081  0.21954702  -0.21954702  1
  Li  Li176  1  0.21954702  0.60016081  0.21954702  1
  Li  Li177  1  -0.21954702  0.60016081  -0.21954702  1
  Li  Li178  1  0.21954702  -0.60016081  -0.21954702  1
  Li  Li179  1  -0.21954702  -0.60016081  0.21954702  1
  Li  Li180  1  0.21954702  0.71954702  1.10016081  1
  Li  Li181  1  -0.21954702  0.28045298  1.10016081  1
  Li  Li182  1  -0.21954702  0.71954702  -0.10016081  1
  Li  Li183  1  0.21954702  0.28045298  -0.10016081  1
  Li  Li184  1  0.60016081  0.71954702  0.71954702  1
  Li  Li185  1  0.60016081  0.28045298  0.28045298  1
  Li  Li186  1  -0.60016081  0.28045298  0.71954702  1
  Li  Li187  1  -0.60016081  0.71954702  0.28045298  1
  Li  Li188  1  0.21954702  1.10016081  0.71954702  1
  Li  Li189  1  -0.21954702  1.10016081  0.28045298  1
  Li  Li190  1  0.21954702  -0.10016081  0.28045298  1
  Li  Li191  1  -0.21954702  -0.10016081  0.71954702  1
  Li  Li192  1  0.71954702  0.21954702  1.10016081  1
  Li  Li193  1  0.28045298  -0.21954702  1.10016081  1
  Li  Li194  1  0.28045298  0.21954702  -0.10016081  1
  Li  Li195  1  0.71954702  -0.21954702  -0.10016081  1
  Li  Li196  1  1.10016081  0.21954702  0.71954702  1
  Li  Li197  1  1.10016081  -0.21954702  0.28045298  1
  Li  Li198  1  -0.10016081  -0.21954702  0.71954702  1
  Li  Li199  1  -0.10016081  0.21954702  0.28045298  1
  Li  Li200  1  0.71954702  0.60016081  0.71954702  1
  Li  Li201  1  0.28045298  0.60016081  0.28045298  1
  Li  Li202  1  0.71954702  -0.60016081  0.28045298  1
  Li  Li203  1  0.28045298  -0.60016081  0.71954702  1
  Li  Li204  1  0.71954702  0.71954702  0.60016081  1
  Li  Li205  1  0.28045298  0.28045298  0.60016081  1
  Li  Li206  1  0.28045298  0.71954702  -0.60016081  1
  Li  Li207  1  0.71954702  0.28045298  -0.60016081  1
  Li  Li208  1  1.10016081  0.71954702  0.21954702  1
  Li  Li209  1  1.10016081  0.28045298  -0.21954702  1
  Li  Li210  1  -0.10016081  0.28045298  0.21954702  1
  Li  Li211  1  -0.10016081  0.71954702  -0.21954702  1
  Li  Li212  1  0.71954702  1.10016081  0.21954702  1
  Li  Li213  1  0.28045298  1.10016081  -0.21954702  1
  Li  Li214  1  0.71954702  -0.10016081  -0.21954702  1
  Li  Li215  1  0.28045298  -0.10016081  0.21954702  1
  Li  Li216  1  0.34086328  0.25000000  0.25000000  1
  Li  Li217  1  0.65913672  0.75000000  0.25000000  1
  Li  Li218  1  0.25000000  0.34086328  0.25000000  1
  Li  Li219  1  0.25000000  0.65913672  0.75000000  1
  Li  Li220  1  0.25000000  0.25000000  0.34086328  1
  Li  Li221  1  0.75000000  0.25000000  0.65913672  1
  Li  Li222  1  0.34086328  0.75000000  0.75000000  1
  Li  Li223  1  0.65913672  0.25000000  0.75000000  1
  Li  Li224  1  0.25000000  0.84086328  0.75000000  1
  Li  Li225  1  0.25000000  0.15913672  0.25000000  1
  Li  Li226  1  0.25000000  0.75000000  0.84086328  1
  Li  Li227  1  0.75000000  0.75000000  0.15913672  1
  Li  Li228  1  0.84086328  0.25000000  0.75000000  1
  Li  Li229  1  0.15913672  0.75000000  0.75000000  1
  Li  Li230  1  0.75000000  0.34086328  0.75000000  1
  Li  Li231  1  0.75000000  0.65913672  0.25000000  1
  Li  Li232  1  0.75000000  0.25000000  0.84086328  1
  Li  Li233  1  0.25000000  0.25000000  0.15913672  1
  Li  Li234  1  0.84086328  0.75000000  0.25000000  1
  Li  Li235  1  0.15913672  0.25000000  0.25000000  1
  Li  Li236  1  0.75000000  0.84086328  0.25000000  1
  Li  Li237  1  0.75000000  0.15913672  0.75000000  1
  Li  Li238  1  0.75000000  0.75000000  0.34086328  1
  Li  Li239  1  0.25000000  0.75000000  0.65913672  1
