# generated using pymatgen
data_Li3IBr2
_symmetry_space_group_name_H-M   'P 1'
_cell_length_a   14.67778791
_cell_length_b   14.67778791
_cell_length_c   9.72665346
_cell_angle_alpha   90.00000000
_cell_angle_beta   90.00000000
_cell_angle_gamma   120.00000000
_symmetry_Int_Tables_number   1
_chemical_formula_structural   Li3IBr2
_chemical_formula_sum   'Li36 I12 Br24'
_cell_volume   1814.74367142
_cell_formula_units_Z   12
loop_
 _symmetry_equiv_pos_site_id
 _symmetry_equiv_pos_as_xyz
  1  'x, y, z'
loop_
 _atom_site_type_symbol
 _atom_site_label
 _atom_site_symmetry_multiplicity
 _atom_site_fract_x
 _atom_site_fract_y
 _atom_site_fract_z
 _atom_site_occupancy
  Br  Br0  1  0.26447088  0.00000000  0.00000000  1
  Br  Br1  1  0.00000000  0.26447088  0.00000000  1
  Br  Br2  1  0.73552912  0.73552912  -0.00000000  1
  Br  Br3  1  0.73552912  -0.00000000  -0.00000000  1
  Br  Br4  1  0.00000000  0.73552912  -0.00000000  1
  Br  Br5  1  0.26447088  0.26447088  0.00000000  1
  Br  Br6  1  0.93113754  0.33333333  0.33333333  1
  Br  Br7  1  0.66666667  0.59780421  0.33333333  1
  Br  Br8  1  0.40219579  0.06886246  0.33333333  1
  Br  Br9  1  0.40219579  0.33333333  0.33333333  1
  Br  Br10  1  0.66666667  0.06886246  0.33333333  1
  Br  Br11  1  0.93113754  0.59780421  0.33333333  1
  Br  Br12  1  0.59780421  0.66666667  0.66666667  1
  Br  Br13  1  0.33333333  0.93113754  0.66666667  1
  Br  Br14  1  0.06886246  0.40219579  0.66666667  1
  Br  Br15  1  0.06886246  0.66666667  0.66666667  1
  Br  Br16  1  0.33333333  0.40219579  0.66666667  1
  Br  Br17  1  0.59780421  0.93113754  0.66666667  1
  Br  Br18  1  0.00000000  0.00000000  0.28558806  1
  Br  Br19  1  0.00000000  0.00000000  0.71441194  1
  Br  Br20  1  0.66666667  0.33333333  0.61892139  1
  Br  Br21  1  0.66666667  0.33333333  0.04774527  1
  Br  Br22  1  0.33333333  0.66666667  0.95225473  1
  Br  Br23  1  0.33333333  0.66666667  0.38107861  1
  I  I24  1  0.50000000  0.00000000  0.50000000  1
  I  I25  1  0.00000000  0.50000000  0.50000000  1
  I  I26  1  0.50000000  0.50000000  0.50000000  1
  I  I27  1  0.16666667  0.33333333  0.83333333  1
  I  I28  1  0.66666667  0.83333333  0.83333333  1
  I  I29  1  0.16666667  0.83333333  0.83333333  1
  I  I30  1  0.83333333  0.66666667  0.16666667  1
  I  I31  1  0.33333333  0.16666667  0.16666667  1
  I  I32  1  0.83333333  0.16666667  0.16666667  1
  I  I33  1  0.00000000  0.00000000  0.00000000  1
  I  I34  1  0.66666667  0.33333333  0.33333333  1
  I  I35  1  0.33333333  0.66666667  0.66666667  1
  Li  Li36  1  0.61218185  0.97528019  0.44163474  1
  Li  Li37  1  -0.97528019  -0.36309834  0.44163474  1
  Li  Li38  1  0.36309834  -0.61218185  0.44163474  1
  Li  Li39  1  0.97528019  0.61218185  -0.44163474  1
  Li  Li40  1  -0.36309834  -0.97528019  -0.44163474  1
  Li  Li41  1  -0.61218185  0.36309834  -0.44163474  1
  Li  Li42  1  -0.61218185  -0.97528019  -0.44163474  1
  Li  Li43  1  0.97528019  0.36309834  -0.44163474  1
  Li  Li44  1  -0.36309834  0.61218185  -0.44163474  1
  Li  Li45  1  -0.97528019  -0.61218185  0.44163474  1
  Li  Li46  1  0.36309834  0.97528019  0.44163474  1
  Li  Li47  1  0.61218185  -0.36309834  0.44163474  1
  Li  Li48  1  1.27884852  1.30861352  0.77496807  1
  Li  Li49  1  -0.30861352  -0.02976501  0.77496807  1
  Li  Li50  1  1.02976501  -0.27884852  0.77496807  1
  Li  Li51  1  1.64194686  0.94551518  -0.10830141  1
  Li  Li52  1  0.30356833  -0.64194686  -0.10830141  1
  Li  Li53  1  0.05448482  0.69643167  -0.10830141  1
  Li  Li54  1  0.05448482  -0.64194686  -0.10830141  1
  Li  Li55  1  1.64194686  0.69643167  -0.10830141  1
  Li  Li56  1  0.30356833  0.94551518  -0.10830141  1
  Li  Li57  1  -0.30861352  -0.27884852  0.77496807  1
  Li  Li58  1  1.02976501  1.30861352  0.77496807  1
  Li  Li59  1  1.27884852  -0.02976501  0.77496807  1
  Li  Li60  1  0.94551518  1.64194686  1.10830141  1
  Li  Li61  1  -0.64194686  0.30356833  1.10830141  1
  Li  Li62  1  0.69643167  0.05448482  1.10830141  1
  Li  Li63  1  1.30861352  1.27884852  0.22503193  1
  Li  Li64  1  -0.02976501  -0.30861352  0.22503193  1
  Li  Li65  1  -0.27884852  1.02976501  0.22503193  1
  Li  Li66  1  -0.27884852  -0.30861352  0.22503193  1
  Li  Li67  1  1.30861352  1.02976501  0.22503193  1
  Li  Li68  1  -0.02976501  1.27884852  0.22503193  1
  Li  Li69  1  -0.64194686  0.05448482  1.10830141  1
  Li  Li70  1  0.69643167  1.64194686  1.10830141  1
  Li  Li71  1  0.94551518  0.30356833  1.10830141  1
