# generated using pymatgen
data_Li2Te
_symmetry_space_group_name_H-M   'P 1'
_cell_length_a   8.89983533
_cell_length_b   8.89983533
_cell_length_c   8.49079326
_cell_angle_alpha   90.00000000
_cell_angle_beta   90.00000000
_cell_angle_gamma   90.00000000
_symmetry_Int_Tables_number   1
_chemical_formula_structural   Li2Te
_chemical_formula_sum   'Li32 Te16'
_cell_volume   672.53084629
_cell_formula_units_Z   16
loop_
 _symmetry_equiv_pos_site_id
 _symmetry_equiv_pos_as_xyz
  1  'x, y, z'
loop_
 _atom_site_type_symbol
 _atom_site_label
 _atom_site_symmetry_multiplicity
 _atom_site_fract_x
 _atom_site_fract_y
 _atom_site_fract_z
 _atom_site_occupancy
  Li  Li0  1  0.00000000  0.75000000  0.12500000  1
  Li  Li1  1  0.50000000  0.75000000  0.37500000  1
  Li  Li2  1  0.50000000  0.25000000  0.62500000  1
  Li  Li3  1  0.00000000  0.25000000  0.87500000  1
  Li  Li4  1  0.00000000  0.25000000  0.37500000  1
  Li  Li5  1  0.00000000  0.75000000  0.62500000  1
  Li  Li6  1  0.50000000  0.75000000  0.87500000  1
  Li  Li7  1  0.50000000  0.25000000  0.12500000  1
  Li  Li8  1  0.26978196  0.00000000  0.00000000  1
  Li  Li9  1  0.23021804  -0.00000000  0.50000000  1
  Li  Li10  1  0.25000000  0.01978196  0.25000000  1
  Li  Li11  1  0.25000000  0.98021804  0.75000000  1
  Li  Li12  1  0.73021804  -0.00000000  0.00000000  1
  Li  Li13  1  0.76978196  0.00000000  0.50000000  1
  Li  Li14  1  0.75000000  0.98021804  0.75000000  1
  Li  Li15  1  0.75000000  0.01978196  0.25000000  1
  Li  Li16  1  0.76978196  0.50000000  0.50000000  1
  Li  Li17  1  0.73021804  0.50000000  -0.00000000  1
  Li  Li18  1  0.75000000  0.51978196  0.75000000  1
  Li  Li19  1  0.75000000  0.48021804  0.25000000  1
  Li  Li20  1  0.23021804  0.50000000  0.50000000  1
  Li  Li21  1  0.26978196  0.50000000  -0.00000000  1
  Li  Li22  1  0.25000000  0.48021804  0.25000000  1
  Li  Li23  1  0.25000000  0.51978196  0.75000000  1
  Li  Li24  1  0.00000000  0.00000000  0.00000000  1
  Li  Li25  1  0.50000000  0.00000000  0.50000000  1
  Li  Li26  1  0.25000000  0.75000000  0.25000000  1
  Li  Li27  1  0.25000000  0.25000000  0.75000000  1
  Li  Li28  1  0.50000000  0.50000000  0.50000000  1
  Li  Li29  1  0.00000000  0.50000000  0.00000000  1
  Li  Li30  1  0.75000000  0.25000000  0.75000000  1
  Li  Li31  1  0.75000000  0.75000000  0.25000000  1
  Te  Te32  1  0.00000000  0.06363575  0.36576644  1
  Te  Te33  1  0.50000000  -0.06363575  0.86576644  1
  Te  Te34  1  0.18636425  0.75000000  0.61576644  1
  Te  Te35  1  0.31363575  0.25000000  1.11576644  1
  Te  Te36  1  0.50000000  0.06363575  0.13423356  1
  Te  Te37  1  0.00000000  -0.06363575  -0.36576644  1
  Te  Te38  1  0.31363575  0.75000000  -0.11576644  1
  Te  Te39  1  0.18636425  0.25000000  0.38423356  1
  Te  Te40  1  0.50000000  0.56363575  0.86576644  1
  Te  Te41  1  1.00000000  0.43636425  1.36576644  1
  Te  Te42  1  0.68636425  1.25000000  1.11576644  1
  Te  Te43  1  0.81363575  0.75000000  1.61576644  1
  Te  Te44  1  1.00000000  0.56363575  0.63423356  1
  Te  Te45  1  0.50000000  0.43636425  0.13423356  1
  Te  Te46  1  0.81363575  1.25000000  0.38423356  1
  Te  Te47  1  0.68636425  0.75000000  0.88423356  1
