# generated using pymatgen
data_LiAlCl4
_symmetry_space_group_name_H-M   'P 1'
_cell_length_a   15.16197501
_cell_length_b   15.16197501
_cell_length_c   5.97161817
_cell_angle_alpha   90.00000000
_cell_angle_beta   90.00000000
_cell_angle_gamma   120.00000000
_symmetry_Int_Tables_number   1
_chemical_formula_structural   LiAlCl4
_chemical_formula_sum   'Li9 Al9 Cl36'
_cell_volume   1188.86958314
_cell_formula_units_Z   9
loop_
 _symmetry_equiv_pos_site_id
 _symmetry_equiv_pos_as_xyz
  1  'x, y, z'
loop_
 _atom_site_type_symbol
 _atom_site_label
 _atom_site_symmetry_multiplicity
 _atom_site_fract_x
 _atom_site_fract_y
 _atom_site_fract_z
 _atom_site_occupancy
  Al  Al0  1  0.50000000  0.00000000  0.00000000  1
  Al  Al1  1  0.00000000  0.50000000  0.00000000  1
  Al  Al2  1  0.50000000  0.50000000  0.00000000  1
  Al  Al3  1  0.16666667  0.33333333  0.33333333  1
  Al  Al4  1  0.66666667  0.83333333  0.33333333  1
  Al  Al5  1  0.16666667  0.83333333  0.33333333  1
  Al  Al6  1  0.83333333  0.66666667  0.66666667  1
  Al  Al7  1  0.33333333  0.16666667  0.66666667  1
  Al  Al8  1  0.83333333  0.16666667  0.66666667  1
  Cl  Cl9  1  0.56262058  0.72805700  0.15570543  1
  Cl  Cl10  1  -0.72805700  -0.16543642  0.15570543  1
  Cl  Cl11  1  0.16543642  -0.56262058  0.15570543  1
  Cl  Cl12  1  0.72805700  0.56262058  -0.15570543  1
  Cl  Cl13  1  -0.16543642  -0.72805700  -0.15570543  1
  Cl  Cl14  1  -0.56262058  0.16543642  -0.15570543  1
  Cl  Cl15  1  -0.56262058  -0.72805700  -0.15570543  1
  Cl  Cl16  1  0.72805700  0.16543642  -0.15570543  1
  Cl  Cl17  1  -0.16543642  0.56262058  -0.15570543  1
  Cl  Cl18  1  -0.72805700  -0.56262058  0.15570543  1
  Cl  Cl19  1  0.16543642  0.72805700  0.15570543  1
  Cl  Cl20  1  0.56262058  -0.16543642  0.15570543  1
  Cl  Cl21  1  1.22928725  1.06139034  0.48903877  1
  Cl  Cl22  1  -0.06139034  0.16789691  0.48903877  1
  Cl  Cl23  1  0.83210309  -0.22928725  0.48903877  1
  Cl  Cl24  1  1.39472367  0.89595391  0.17762790  1
  Cl  Cl25  1  0.50123024  -0.39472367  0.17762790  1
  Cl  Cl26  1  0.10404609  0.49876976  0.17762790  1
  Cl  Cl27  1  0.10404609  -0.39472367  0.17762790  1
  Cl  Cl28  1  1.39472367  0.49876976  0.17762790  1
  Cl  Cl29  1  0.50123024  0.89595391  0.17762790  1
  Cl  Cl30  1  -0.06139034  -0.22928725  0.48903877  1
  Cl  Cl31  1  0.83210309  1.06139034  0.48903877  1
  Cl  Cl32  1  1.22928725  0.16789691  0.48903877  1
  Cl  Cl33  1  0.89595391  1.39472367  0.82237210  1
  Cl  Cl34  1  -0.39472367  0.50123024  0.82237210  1
  Cl  Cl35  1  0.49876976  0.10404609  0.82237210  1
  Cl  Cl36  1  1.06139034  1.22928725  0.51096123  1
  Cl  Cl37  1  0.16789691  -0.06139034  0.51096123  1
  Cl  Cl38  1  -0.22928725  0.83210309  0.51096123  1
  Cl  Cl39  1  -0.22928725  -0.06139034  0.51096123  1
  Cl  Cl40  1  1.06139034  0.83210309  0.51096123  1
  Cl  Cl41  1  0.16789691  1.22928725  0.51096123  1
  Cl  Cl42  1  -0.39472367  0.10404609  0.82237210  1
  Cl  Cl43  1  0.49876976  1.39472367  0.82237210  1
  Cl  Cl44  1  0.89595391  0.50123024  0.82237210  1
  Li  Li45  1  0.50000000  0.00000000  0.50000000  1
  Li  Li46  1  0.00000000  0.50000000  0.50000000  1
  Li  Li47  1  0.50000000  0.50000000  0.50000000  1
  Li  Li48  1  0.16666667  0.33333333  0.83333333  1
  Li  Li49  1  0.66666667  0.83333333  0.83333333  1
  Li  Li50  1  0.16666667  0.83333333  0.83333333  1
  Li  Li51  1  0.83333333  0.66666667  0.16666667  1
  Li  Li52  1  0.33333333  0.16666667  0.16666667  1
  Li  Li53  1  0.83333333  0.16666667  0.16666667  1
