# generated using pymatgen
data_Li2Te
_symmetry_space_group_name_H-M   'P 1'
_cell_length_a   13.86513993
_cell_length_b   13.86513993
_cell_length_c   9.72517590
_cell_angle_alpha   90.00000000
_cell_angle_beta   90.00000000
_cell_angle_gamma   120.00000000
_symmetry_Int_Tables_number   1
_chemical_formula_structural   Li2Te
_chemical_formula_sum   'Li36 Te18'
_cell_volume   1619.11095320
_cell_formula_units_Z   18
loop_
 _symmetry_equiv_pos_site_id
 _symmetry_equiv_pos_as_xyz
  1  'x, y, z'
loop_
 _atom_site_type_symbol
 _atom_site_label
 _atom_site_symmetry_multiplicity
 _atom_site_fract_x
 _atom_site_fract_y
 _atom_site_fract_z
 _atom_site_occupancy
  Li  Li0  1  0.22233635  0.22616761  0.84162330  1
  Li  Li1  1  -0.22616761  -0.00383126  0.84162330  1
  Li  Li2  1  0.00383126  -0.22233635  0.84162330  1
  Li  Li3  1  0.22616761  0.22233635  -0.84162330  1
  Li  Li4  1  -0.00383126  -0.22616761  -0.84162330  1
  Li  Li5  1  -0.22233635  0.00383126  -0.84162330  1
  Li  Li6  1  -0.22233635  -0.22616761  -0.84162330  1
  Li  Li7  1  0.22616761  0.00383126  -0.84162330  1
  Li  Li8  1  -0.00383126  0.22233635  -0.84162330  1
  Li  Li9  1  -0.22616761  -0.22233635  0.84162330  1
  Li  Li10  1  0.00383126  0.22616761  0.84162330  1
  Li  Li11  1  0.22233635  -0.00383126  0.84162330  1
  Li  Li12  1  0.88900302  0.55950094  1.17495663  1
  Li  Li13  1  0.44049906  0.32950208  1.17495663  1
  Li  Li14  1  0.67049792  0.11099698  1.17495663  1
  Li  Li15  1  0.89283427  0.55566968  -0.50828997  1
  Li  Li16  1  0.66283541  0.10716573  -0.50828997  1
  Li  Li17  1  0.44433032  0.33716459  -0.50828997  1
  Li  Li18  1  0.44433032  0.10716573  -0.50828997  1
  Li  Li19  1  0.89283427  0.33716459  -0.50828997  1
  Li  Li20  1  0.66283541  0.55566968  -0.50828997  1
  Li  Li21  1  0.44049906  0.11099698  1.17495663  1
  Li  Li22  1  0.67049792  0.55950094  1.17495663  1
  Li  Li23  1  0.88900302  0.32950208  1.17495663  1
  Li  Li24  1  0.55566968  0.89283427  1.50828997  1
  Li  Li25  1  0.10716573  0.66283541  1.50828997  1
  Li  Li26  1  0.33716459  0.44433032  1.50828997  1
  Li  Li27  1  0.55950094  0.88900302  -0.17495663  1
  Li  Li28  1  0.32950208  0.44049906  -0.17495663  1
  Li  Li29  1  0.11099698  0.67049792  -0.17495663  1
  Li  Li30  1  0.11099698  0.44049906  -0.17495663  1
  Li  Li31  1  0.55950094  0.67049792  -0.17495663  1
  Li  Li32  1  0.32950208  0.88900302  -0.17495663  1
  Li  Li33  1  0.10716573  0.44433032  1.50828997  1
  Li  Li34  1  0.33716459  0.89283427  1.50828997  1
  Li  Li35  1  0.55566968  0.66283541  1.50828997  1
  Te  Te36  1  0.40886258  0.59113742  0.41667845  1
  Te  Te37  1  0.40886258  0.81772516  0.41667845  1
  Te  Te38  1  0.18227484  0.59113742  0.41667845  1
  Te  Te39  1  0.59113742  0.40886258  0.58332155  1
  Te  Te40  1  0.81772516  0.40886258  0.58332155  1
  Te  Te41  1  0.59113742  0.18227484  0.58332155  1
  Te  Te42  1  0.07552925  0.92447075  0.75001179  1
  Te  Te43  1  0.07552925  0.15105850  0.75001179  1
  Te  Te44  1  0.84894150  0.92447075  0.75001179  1
  Te  Te45  1  0.25780408  0.74219592  0.91665488  1
  Te  Te46  1  0.48439183  0.74219592  0.91665488  1
  Te  Te47  1  0.25780408  0.51560817  0.91665488  1
  Te  Te48  1  0.74219592  0.25780408  0.08334512  1
  Te  Te49  1  0.74219592  0.48439183  0.08334512  1
  Te  Te50  1  0.51560817  0.25780408  0.08334512  1
  Te  Te51  1  0.92447075  0.07552925  0.24998821  1
  Te  Te52  1  0.15105850  0.07552925  0.24998821  1
  Te  Te53  1  0.92447075  0.84894150  0.24998821  1
