# generated using pymatgen
data_LiTiClO2
_symmetry_space_group_name_H-M   'P 1'
_cell_length_a   3.59377357
_cell_length_b   4.18651626
_cell_length_c   3.78632576
_cell_angle_alpha   87.61825824
_cell_angle_beta   94.19806158
_cell_angle_gamma   91.71548332
_symmetry_Int_Tables_number   1
_chemical_formula_structural   LiTiClO2
_chemical_formula_sum   'Li1 Ti1 Cl1 O2'
_cell_volume   56.74414981
_cell_formula_units_Z   1
loop_
 _symmetry_equiv_pos_site_id
 _symmetry_equiv_pos_as_xyz
  1  'x, y, z'
loop_
 _atom_site_type_symbol
 _atom_site_label
 _atom_site_symmetry_multiplicity
 _atom_site_fract_x
 _atom_site_fract_y
 _atom_site_fract_z
 _atom_site_occupancy
  Li  Li0  1  0.00000000  0.00000000  0.00000000  1
  Ti  Ti1  1  0.50000000  0.50000000  0.50000000  1
  Cl  Cl2  1  0.50000000  0.50000000  0.00000000  1
  O  O3  1  0.50000000  0.00000000  0.50000000  1
  O  O4  1  0.00000000  0.50000000  0.50000000  1
