# generated using pymatgen
data_LiTiB2Te4I3
_symmetry_space_group_name_H-M   'P 1'
_cell_length_a   11.03482649
_cell_length_b   11.03482649
_cell_length_c   27.65837255
_cell_angle_alpha   90.00000000
_cell_angle_beta   90.00000000
_cell_angle_gamma   90.00000000
_symmetry_Int_Tables_number   1
_chemical_formula_structural   LiTiB2Te4I3
_chemical_formula_sum   'Li16 Ti16 B32 Te64 I48'
_cell_volume   3367.88799612
_cell_formula_units_Z   16
loop_
 _symmetry_equiv_pos_site_id
 _symmetry_equiv_pos_as_xyz
  1  'x, y, z'
loop_
 _atom_site_type_symbol
 _atom_site_label
 _atom_site_symmetry_multiplicity
 _atom_site_fract_x
 _atom_site_fract_y
 _atom_site_fract_z
 _atom_site_occupancy
  B  B0  1  0.45782993  0.50677337  0.93710006  1
  B  B1  1  0.04217007  -0.50677337  1.43710006  1
  B  B2  1  -0.25677337  1.20782993  1.18710006  1
  B  B3  1  0.75677337  -0.20782993  1.68710006  1
  B  B4  1  0.04217007  0.50677337  -0.43710006  1
  B  B5  1  0.45782993  -0.50677337  -0.93710006  1
  B  B6  1  0.75677337  1.20782993  -0.68710006  1
  B  B7  1  -0.25677337  -0.20782993  -0.18710006  1
  B  B8  1  -0.45782993  -0.50677337  -0.93710006  1
  B  B9  1  0.95782993  0.50677337  -0.43710006  1
  B  B10  1  1.25677337  -0.20782993  -0.18710006  1
  B  B11  1  0.24322663  1.20782993  -0.68710006  1
  B  B12  1  0.95782993  -0.50677337  1.43710006  1
  B  B13  1  -0.45782993  0.50677337  0.93710006  1
  B  B14  1  0.24322663  -0.20782993  1.68710006  1
  B  B15  1  1.25677337  1.20782993  1.18710006  1
  B  B16  1  0.95782993  1.00677337  1.43710006  1
  B  B17  1  0.54217007  -0.00677337  1.93710006  1
  B  B18  1  0.24322663  1.70782993  1.68710006  1
  B  B19  1  1.25677337  0.29217007  2.18710006  1
  B  B20  1  0.54217007  1.00677337  0.06289994  1
  B  B21  1  0.95782993  -0.00677337  -0.43710006  1
  B  B22  1  1.25677337  1.70782993  -0.18710006  1
  B  B23  1  0.24322663  0.29217007  0.31289994  1
  B  B24  1  0.04217007  -0.00677337  -0.43710006  1
  B  B25  1  1.45782993  1.00677337  0.06289994  1
  B  B26  1  1.75677337  0.29217007  0.31289994  1
  B  B27  1  0.74322663  1.70782993  -0.18710006  1
  B  B28  1  1.45782993  -0.00677337  1.93710006  1
  B  B29  1  0.04217007  1.00677337  1.43710006  1
  B  B30  1  0.74322663  0.29217007  2.18710006  1
  B  B31  1  1.75677337  1.70782993  1.68710006  1
  I  I32  1  0.00000000  0.75000000  0.12500000  1
  I  I33  1  0.50000000  0.75000000  0.37500000  1
  I  I34  1  0.50000000  0.25000000  0.62500000  1
  I  I35  1  0.00000000  0.25000000  0.87500000  1
  I  I36  1  0.40942345  0.65942345  0.87500000  1
  I  I37  1  0.09057655  0.34057655  0.37500000  1
  I  I38  1  0.59057655  0.15942345  0.12500000  1
  I  I39  1  0.90942345  0.84057655  0.62500000  1
  I  I40  1  0.59057655  0.34057655  0.12500000  1
  I  I41  1  0.90942345  0.65942345  0.62500000  1
  I  I42  1  0.40942345  0.84057655  0.87500000  1
  I  I43  1  0.09057655  0.15942345  0.37500000  1
  I  I44  1  0.90942345  0.15942345  0.37500000  1
  I  I45  1  0.59057655  0.84057655  0.87500000  1
  I  I46  1  0.09057655  0.65942345  0.62500000  1
  I  I47  1  0.40942345  0.34057655  0.12500000  1
  I  I48  1  0.09057655  0.84057655  0.62500000  1
  I  I49  1  0.40942345  0.15942345  0.12500000  1
  I  I50  1  0.90942345  0.34057655  0.37500000  1
  I  I51  1  0.59057655  0.65942345  0.87500000  1
  I  I52  1  0.00000000  0.25000000  0.94988700  1
  I  I53  1  0.00000000  0.75000000  0.19988700  1
  I  I54  1  0.50000000  0.25000000  0.55011300  1
  I  I55  1  0.50000000  0.75000000  0.30011300  1
  I  I56  1  0.50000000  0.75000000  0.44988700  1
  I  I57  1  0.50000000  0.25000000  0.69988700  1
  I  I58  1  0.00000000  0.75000000  0.05011300  1
  I  I59  1  0.00000000  0.25000000  0.80011300  1
  I  I60  1  0.00000000  0.88085426  0.95651416  1
  I  I61  1  0.50000000  0.11914574  0.45651416  1
  I  I62  1  0.36914574  0.75000000  0.20651416  1
  I  I63  1  0.13085426  0.25000000  0.70651416  1
  I  I64  1  0.50000000  0.88085426  0.54348584  1
  I  I65  1  0.00000000  0.11914574  0.04348584  1
  I  I66  1  0.13085426  0.75000000  0.29348584  1
  I  I67  1  0.36914574  0.25000000  0.79348584  1
  I  I68  1  0.50000000  0.38085426  0.45651416  1
  I  I69  1  0.00000000  0.61914574  0.95651416  1
  I  I70  1  0.86914574  0.25000000  0.70651416  1
  I  I71  1  0.63085426  0.75000000  0.20651416  1
  I  I72  1  0.00000000  0.38085426  0.04348584  1
  I  I73  1  0.50000000  0.61914574  0.54348584  1
  I  I74  1  0.63085426  0.25000000  0.79348584  1
  I  I75  1  0.86914574  0.75000000  0.29348584  1
  I  I76  1  0.00000000  0.25000000  0.37500000  1
  I  I77  1  0.00000000  0.75000000  0.62500000  1
  I  I78  1  0.50000000  0.75000000  0.87500000  1
  I  I79  1  0.50000000  0.25000000  0.12500000  1
  Li  Li80  1  0.18193823  0.00000000  0.00000000  1
  Li  Li81  1  0.31806177  0.00000000  0.50000000  1
  Li  Li82  1  0.25000000  0.93193823  0.25000000  1
  Li  Li83  1  0.25000000  0.06806177  0.75000000  1
  Li  Li84  1  0.81806177  0.00000000  0.00000000  1
  Li  Li85  1  0.68193823  0.00000000  0.50000000  1
  Li  Li86  1  0.75000000  0.06806177  0.75000000  1
  Li  Li87  1  0.75000000  0.93193823  0.25000000  1
  Li  Li88  1  0.68193823  0.50000000  0.50000000  1
  Li  Li89  1  0.81806177  0.50000000  0.00000000  1
  Li  Li90  1  0.75000000  0.43193823  0.75000000  1
  Li  Li91  1  0.75000000  0.56806177  0.25000000  1
  Li  Li92  1  0.31806177  0.50000000  0.50000000  1
  Li  Li93  1  0.18193823  0.50000000  0.00000000  1
  Li  Li94  1  0.25000000  0.56806177  0.25000000  1
  Li  Li95  1  0.25000000  0.43193823  0.75000000  1
  Te  Te96  1  0.90538085  0.95556995  0.12887874  1
  Te  Te97  1  0.59461915  0.04443005  0.62887874  1
  Te  Te98  1  0.29443005  0.65538085  0.37887874  1
  Te  Te99  1  0.20556995  0.34461915  0.87887874  1
  Te  Te100  1  0.59461915  0.95556995  0.37112126  1
  Te  Te101  1  0.90538085  0.04443005  0.87112126  1
  Te  Te102  1  0.20556995  0.65538085  0.12112126  1
  Te  Te103  1  0.29443005  0.34461915  0.62112126  1
  Te  Te104  1  0.09461915  0.04443005  0.87112126  1
  Te  Te105  1  0.40538085  0.95556995  0.37112126  1
  Te  Te106  1  0.70556995  0.34461915  0.62112126  1
  Te  Te107  1  0.79443005  0.65538085  0.12112126  1
  Te  Te108  1  0.40538085  0.04443005  0.62887874  1
  Te  Te109  1  0.09461915  0.95556995  0.12887874  1
  Te  Te110  1  0.79443005  0.34461915  0.87887874  1
  Te  Te111  1  0.70556995  0.65538085  0.37887874  1
  Te  Te112  1  0.40538085  0.45556995  0.62887874  1
  Te  Te113  1  0.09461915  0.54443005  0.12887874  1
  Te  Te114  1  0.79443005  0.15538085  0.87887874  1
  Te  Te115  1  0.70556995  0.84461915  0.37887874  1
  Te  Te116  1  0.09461915  0.45556995  0.87112126  1
  Te  Te117  1  0.40538085  0.54443005  0.37112126  1
  Te  Te118  1  0.70556995  0.15538085  0.62112126  1
  Te  Te119  1  0.79443005  0.84461915  0.12112126  1
  Te  Te120  1  0.59461915  0.54443005  0.37112126  1
  Te  Te121  1  0.90538085  0.45556995  0.87112126  1
  Te  Te122  1  0.20556995  0.84461915  0.12112126  1
  Te  Te123  1  0.29443005  0.15538085  0.62112126  1
  Te  Te124  1  0.90538085  0.54443005  0.12887874  1
  Te  Te125  1  0.59461915  0.45556995  0.62887874  1
  Te  Te126  1  0.29443005  0.84461915  0.37887874  1
  Te  Te127  1  0.20556995  0.15538085  0.87887874  1
  Te  Te128  1  0.76098621  0.62322289  0.19755232  1
  Te  Te129  1  0.73901379  0.37677711  0.69755232  1
  Te  Te130  1  0.62677711  0.51098621  0.44755232  1
  Te  Te131  1  0.87322289  0.48901379  0.94755232  1
  Te  Te132  1  0.73901379  0.62322289  0.30244768  1
  Te  Te133  1  0.76098621  0.37677711  0.80244768  1
  Te  Te134  1  0.87322289  0.51098621  0.05244768  1
  Te  Te135  1  0.62677711  0.48901379  0.55244768  1
  Te  Te136  1  0.23901379  0.37677711  0.80244768  1
  Te  Te137  1  0.26098621  0.62322289  0.30244768  1
  Te  Te138  1  0.37322289  0.48901379  0.55244768  1
  Te  Te139  1  0.12677711  0.51098621  0.05244768  1
  Te  Te140  1  0.26098621  0.37677711  0.69755232  1
  Te  Te141  1  0.23901379  0.62322289  0.19755232  1
  Te  Te142  1  0.12677711  0.48901379  0.94755232  1
  Te  Te143  1  0.37322289  0.51098621  0.44755232  1
  Te  Te144  1  0.26098621  0.12322289  0.69755232  1
  Te  Te145  1  0.23901379  0.87677711  0.19755232  1
  Te  Te146  1  0.12677711  0.01098621  0.94755232  1
  Te  Te147  1  0.37322289  0.98901379  0.44755232  1
  Te  Te148  1  0.23901379  0.12322289  0.80244768  1
  Te  Te149  1  0.26098621  0.87677711  0.30244768  1
  Te  Te150  1  0.37322289  0.01098621  0.55244768  1
  Te  Te151  1  0.12677711  0.98901379  0.05244768  1
  Te  Te152  1  0.73901379  0.87677711  0.30244768  1
  Te  Te153  1  0.76098621  0.12322289  0.80244768  1
  Te  Te154  1  0.87322289  0.98901379  0.05244768  1
  Te  Te155  1  0.62677711  0.01098621  0.55244768  1
  Te  Te156  1  0.76098621  0.87677711  0.19755232  1
  Te  Te157  1  0.73901379  0.12322289  0.69755232  1
  Te  Te158  1  0.62677711  0.98901379  0.44755232  1
  Te  Te159  1  0.87322289  0.01098621  0.94755232  1
  Ti  Ti160  1  0.00000000  0.25000000  0.72598943  1
  Ti  Ti161  1  0.00000000  0.75000000  0.97598943  1
  Ti  Ti162  1  0.50000000  0.25000000  0.77401057  1
  Ti  Ti163  1  0.50000000  0.75000000  0.52401057  1
  Ti  Ti164  1  0.50000000  0.75000000  0.22598943  1
  Ti  Ti165  1  0.50000000  0.25000000  0.47598943  1
  Ti  Ti166  1  0.00000000  0.75000000  0.27401057  1
  Ti  Ti167  1  0.00000000  0.25000000  0.02401057  1
  Ti  Ti168  1  0.00000000  0.00000000  0.50000000  1
  Ti  Ti169  1  0.50000000  0.00000000  0.00000000  1
  Ti  Ti170  1  0.25000000  0.75000000  0.75000000  1
  Ti  Ti171  1  0.25000000  0.25000000  0.25000000  1
  Ti  Ti172  1  0.50000000  0.50000000  0.00000000  1
  Ti  Ti173  1  0.00000000  0.50000000  0.50000000  1
  Ti  Ti174  1  0.75000000  0.25000000  0.25000000  1
  Ti  Ti175  1  0.75000000  0.75000000  0.75000000  1
