# generated using pymatgen
data_SrLi2Cl4
_symmetry_space_group_name_H-M   'P 1'
_cell_length_a   12.81778795
_cell_length_b   12.81778795
_cell_length_c   16.71872855
_cell_angle_alpha   90.00000000
_cell_angle_beta   90.00000000
_cell_angle_gamma   120.00000000
_symmetry_Int_Tables_number   1
_chemical_formula_structural   SrLi2Cl4
_chemical_formula_sum   'Sr18 Li36 Cl72'
_cell_volume   2378.81157695
_cell_formula_units_Z   18
loop_
 _symmetry_equiv_pos_site_id
 _symmetry_equiv_pos_as_xyz
  1  'x, y, z'
loop_
 _atom_site_type_symbol
 _atom_site_label
 _atom_site_symmetry_multiplicity
 _atom_site_fract_x
 _atom_site_fract_y
 _atom_site_fract_z
 _atom_site_occupancy
  Cl  Cl0  1  0.21034691  0.78965309  0.65400005  1
  Cl  Cl1  1  0.21034691  0.42069382  0.65400005  1
  Cl  Cl2  1  0.57930618  0.78965309  0.65400005  1
  Cl  Cl3  1  0.78965309  0.21034691  0.34599995  1
  Cl  Cl4  1  0.42069382  0.21034691  0.34599995  1
  Cl  Cl5  1  0.78965309  0.57930618  0.34599995  1
  Cl  Cl6  1  0.87701358  0.12298642  0.98733338  1
  Cl  Cl7  1  0.87701358  0.75402715  0.98733338  1
  Cl  Cl8  1  0.24597285  0.12298642  0.98733338  1
  Cl  Cl9  1  0.45631976  0.54368024  0.67933329  1
  Cl  Cl10  1  0.08736048  0.54368024  0.67933329  1
  Cl  Cl11  1  0.45631976  0.91263952  0.67933329  1
  Cl  Cl12  1  0.54368024  0.45631976  0.32066671  1
  Cl  Cl13  1  0.54368024  0.08736048  0.32066671  1
  Cl  Cl14  1  0.91263952  0.45631976  0.32066671  1
  Cl  Cl15  1  0.12298642  0.87701358  0.01266662  1
  Cl  Cl16  1  0.75402715  0.87701358  0.01266662  1
  Cl  Cl17  1  0.12298642  0.24597285  0.01266662  1
  Cl  Cl18  1  0.93658246  0.59077934  0.47575012  1
  Cl  Cl19  1  -0.59077934  0.34580312  0.47575012  1
  Cl  Cl20  1  -0.34580312  -0.93658246  0.47575012  1
  Cl  Cl21  1  0.59077934  0.93658246  -0.47575012  1
  Cl  Cl22  1  0.34580312  -0.59077934  -0.47575012  1
  Cl  Cl23  1  -0.93658246  -0.34580312  -0.47575012  1
  Cl  Cl24  1  -0.93658246  -0.59077934  -0.47575012  1
  Cl  Cl25  1  0.59077934  -0.34580312  -0.47575012  1
  Cl  Cl26  1  0.34580312  0.93658246  -0.47575012  1
  Cl  Cl27  1  -0.59077934  -0.93658246  0.47575012  1
  Cl  Cl28  1  -0.34580312  0.59077934  0.47575012  1
  Cl  Cl29  1  0.93658246  0.34580312  0.47575012  1
  Cl  Cl30  1  1.60324913  0.92411267  0.80908345  1
  Cl  Cl31  1  0.07588733  0.67913646  0.80908345  1
  Cl  Cl32  1  0.32086354  -0.60324913  0.80908345  1
  Cl  Cl33  1  1.25744600  1.26991580  -0.14241679  1
  Cl  Cl34  1  1.01246979  -0.25744600  -0.14241679  1
  Cl  Cl35  1  -0.26991580  -0.01246979  -0.14241679  1
  Cl  Cl36  1  -0.26991580  -0.25744600  -0.14241679  1
  Cl  Cl37  1  1.25744600  -0.01246979  -0.14241679  1
  Cl  Cl38  1  1.01246979  1.26991580  -0.14241679  1
  Cl  Cl39  1  0.07588733  -0.60324913  0.80908345  1
  Cl  Cl40  1  0.32086354  0.92411267  0.80908345  1
  Cl  Cl41  1  1.60324913  0.67913646  0.80908345  1
  Cl  Cl42  1  1.26991580  1.25744600  1.14241679  1
  Cl  Cl43  1  -0.25744600  1.01246979  1.14241679  1
  Cl  Cl44  1  -0.01246979  -0.26991580  1.14241679  1
  Cl  Cl45  1  0.92411267  1.60324913  0.19091655  1
  Cl  Cl46  1  0.67913646  0.07588733  0.19091655  1
  Cl  Cl47  1  -0.60324913  0.32086354  0.19091655  1
  Cl  Cl48  1  -0.60324913  0.07588733  0.19091655  1
  Cl  Cl49  1  0.92411267  0.32086354  0.19091655  1
  Cl  Cl50  1  0.67913646  1.60324913  0.19091655  1
  Cl  Cl51  1  -0.25744600  -0.26991580  1.14241679  1
  Cl  Cl52  1  -0.01246979  1.25744600  1.14241679  1
  Cl  Cl53  1  1.26991580  1.01246979  1.14241679  1
  Cl  Cl54  1  0.55660022  0.44339978  0.78572393  1
  Cl  Cl55  1  0.55660022  0.11320044  0.78572393  1
  Cl  Cl56  1  0.88679956  0.44339978  0.78572393  1
  Cl  Cl57  1  0.44339978  0.55660022  0.21427607  1
  Cl  Cl58  1  0.11320044  0.55660022  0.21427607  1
  Cl  Cl59  1  0.44339978  0.88679956  0.21427607  1
  Cl  Cl60  1  0.22326688  0.77673312  0.11905726  1
  Cl  Cl61  1  0.22326688  0.44653377  0.11905726  1
  Cl  Cl62  1  0.55346623  0.77673312  0.11905726  1
  Cl  Cl63  1  0.11006645  0.88993355  0.54760940  1
  Cl  Cl64  1  0.77986710  0.88993355  0.54760940  1
  Cl  Cl65  1  0.11006645  0.22013290  0.54760940  1
  Cl  Cl66  1  0.88993355  0.11006645  0.45239060  1
  Cl  Cl67  1  0.88993355  0.77986710  0.45239060  1
  Cl  Cl68  1  0.22013290  0.11006645  0.45239060  1
  Cl  Cl69  1  0.77673312  0.22326688  0.88094274  1
  Cl  Cl70  1  0.44653377  0.22326688  0.88094274  1
  Cl  Cl71  1  0.77673312  0.55346623  0.88094274  1
  Li  Li72  1  0.83531412  0.00000000  0.00000000  1
  Li  Li73  1  0.00000000  0.83531412  -0.00000000  1
  Li  Li74  1  0.16468588  0.16468588  -0.00000000  1
  Li  Li75  1  0.16468588  0.00000000  0.00000000  1
  Li  Li76  1  0.00000000  0.16468588  -0.00000000  1
  Li  Li77  1  0.83531412  0.83531412  0.00000000  1
  Li  Li78  1  0.50198079  0.33333333  0.33333333  1
  Li  Li79  1  0.66666667  0.16864745  0.33333333  1
  Li  Li80  1  0.83135255  0.49801921  0.33333333  1
  Li  Li81  1  0.83135255  0.33333333  0.33333333  1
  Li  Li82  1  0.66666667  0.49801921  0.33333333  1
  Li  Li83  1  0.50198079  0.16864745  0.33333333  1
  Li  Li84  1  0.16864745  0.66666667  0.66666667  1
  Li  Li85  1  0.33333333  0.50198079  0.66666667  1
  Li  Li86  1  0.49801921  0.83135255  0.66666667  1
  Li  Li87  1  0.49801921  0.66666667  0.66666667  1
  Li  Li88  1  0.33333333  0.83135255  0.66666667  1
  Li  Li89  1  0.16864745  0.50198079  0.66666667  1
  Li  Li90  1  0.82162172  -0.00000000  0.50000000  1
  Li  Li91  1  0.00000000  0.82162172  0.50000000  1
  Li  Li92  1  0.17837828  0.17837828  0.50000000  1
  Li  Li93  1  0.17837828  -0.00000000  0.50000000  1
  Li  Li94  1  0.00000000  0.17837828  0.50000000  1
  Li  Li95  1  0.82162172  0.82162172  0.50000000  1
  Li  Li96  1  0.48828839  0.33333333  0.83333333  1
  Li  Li97  1  0.66666667  0.15495505  0.83333333  1
  Li  Li98  1  0.84504495  0.51171161  0.83333333  1
  Li  Li99  1  0.84504495  0.33333333  0.83333333  1
  Li  Li100  1  0.66666667  0.51171161  0.83333333  1
  Li  Li101  1  0.48828839  0.15495505  0.83333333  1
  Li  Li102  1  0.15495505  0.66666667  0.16666667  1
  Li  Li103  1  0.33333333  0.48828839  0.16666667  1
  Li  Li104  1  0.51171161  0.84504495  0.16666667  1
  Li  Li105  1  0.51171161  0.66666667  0.16666667  1
  Li  Li106  1  0.33333333  0.84504495  0.16666667  1
  Li  Li107  1  0.15495505  0.48828839  0.16666667  1
  Sr  Sr108  1  0.50000000  0.00000000  0.50000000  1
  Sr  Sr109  1  0.00000000  0.50000000  0.50000000  1
  Sr  Sr110  1  0.50000000  0.50000000  0.50000000  1
  Sr  Sr111  1  0.16666667  0.33333333  0.83333333  1
  Sr  Sr112  1  0.66666667  0.83333333  0.83333333  1
  Sr  Sr113  1  0.16666667  0.83333333  0.83333333  1
  Sr  Sr114  1  0.83333333  0.66666667  0.16666667  1
  Sr  Sr115  1  0.33333333  0.16666667  0.16666667  1
  Sr  Sr116  1  0.83333333  0.16666667  0.16666667  1
  Sr  Sr117  1  0.50000000  0.00000000  0.00000000  1
  Sr  Sr118  1  0.00000000  0.50000000  -0.00000000  1
  Sr  Sr119  1  0.50000000  0.50000000  0.00000000  1
  Sr  Sr120  1  0.16666667  0.33333333  0.33333333  1
  Sr  Sr121  1  0.66666667  0.83333333  0.33333333  1
  Sr  Sr122  1  0.16666667  0.83333333  0.33333333  1
  Sr  Sr123  1  0.83333333  0.66666667  0.66666667  1
  Sr  Sr124  1  0.33333333  0.16666667  0.66666667  1
  Sr  Sr125  1  0.83333333  0.16666667  0.66666667  1
