# generated using pymatgen
data_LiTiO3
_symmetry_space_group_name_H-M   'P 1'
_cell_length_a   3.59012870
_cell_length_b   3.43155670
_cell_length_c   3.78788181
_cell_angle_alpha   91.78714611
_cell_angle_beta   85.57773350
_cell_angle_gamma   89.94452098
_symmetry_Int_Tables_number   1
_chemical_formula_structural   LiTiO3
_chemical_formula_sum   'Li1 Ti1 O3'
_cell_volume   46.50385392
_cell_formula_units_Z   1
loop_
 _symmetry_equiv_pos_site_id
 _symmetry_equiv_pos_as_xyz
  1  'x, y, z'
loop_
 _atom_site_type_symbol
 _atom_site_label
 _atom_site_symmetry_multiplicity
 _atom_site_fract_x
 _atom_site_fract_y
 _atom_site_fract_z
 _atom_site_occupancy
  Li  Li0  1  0.00000000  0.00000000  0.00000000  1
  Ti  Ti1  1  0.50000000  0.50000000  0.50000000  1
  O  O2  1  0.50000000  0.50000000  0.00000000  1
  O  O3  1  0.50000000  0.00000000  0.50000000  1
  O  O4  1  0.00000000  0.50000000  0.50000000  1
