# generated using pymatgen
data_Li2S
_symmetry_space_group_name_H-M   'P 1'
_cell_length_a   12.15622336
_cell_length_b   12.15622336
_cell_length_c   12.15622336
_cell_angle_alpha   90.00000000
_cell_angle_beta   90.00000000
_cell_angle_gamma   90.00000000
_symmetry_Int_Tables_number   1
_chemical_formula_structural   Li2S
_chemical_formula_sum   'Li96 S48'
_cell_volume   1796.37090955
_cell_formula_units_Z   48
loop_
 _symmetry_equiv_pos_site_id
 _symmetry_equiv_pos_as_xyz
  1  'x, y, z'
loop_
 _atom_site_type_symbol
 _atom_site_label
 _atom_site_symmetry_multiplicity
 _atom_site_fract_x
 _atom_site_fract_y
 _atom_site_fract_z
 _atom_site_occupancy
  Li  Li0  1  0.64009893  0.64009893  0.78486003  1
  Li  Li1  1  -0.64009893  -0.64009893  0.78486003  1
  Li  Li2  1  -0.64009893  0.64009893  -0.78486003  1
  Li  Li3  1  0.64009893  -0.64009893  -0.78486003  1
  Li  Li4  1  0.78486003  0.64009893  0.64009893  1
  Li  Li5  1  0.78486003  -0.64009893  -0.64009893  1
  Li  Li6  1  -0.78486003  -0.64009893  0.64009893  1
  Li  Li7  1  -0.78486003  0.64009893  -0.64009893  1
  Li  Li8  1  0.64009893  0.78486003  0.64009893  1
  Li  Li9  1  -0.64009893  0.78486003  -0.64009893  1
  Li  Li10  1  0.64009893  -0.78486003  -0.64009893  1
  Li  Li11  1  -0.64009893  -0.78486003  0.64009893  1
  Li  Li12  1  0.64009893  1.14009893  1.28486003  1
  Li  Li13  1  -0.64009893  -0.14009893  1.28486003  1
  Li  Li14  1  -0.64009893  1.14009893  -0.28486003  1
  Li  Li15  1  0.64009893  -0.14009893  -0.28486003  1
  Li  Li16  1  0.78486003  1.14009893  1.14009893  1
  Li  Li17  1  0.78486003  -0.14009893  -0.14009893  1
  Li  Li18  1  -0.78486003  -0.14009893  1.14009893  1
  Li  Li19  1  -0.78486003  1.14009893  -0.14009893  1
  Li  Li20  1  0.64009893  1.28486003  1.14009893  1
  Li  Li21  1  -0.64009893  1.28486003  -0.14009893  1
  Li  Li22  1  0.64009893  -0.28486003  -0.14009893  1
  Li  Li23  1  -0.64009893  -0.28486003  1.14009893  1
  Li  Li24  1  1.14009893  0.64009893  1.28486003  1
  Li  Li25  1  -0.14009893  -0.64009893  1.28486003  1
  Li  Li26  1  -0.14009893  0.64009893  -0.28486003  1
  Li  Li27  1  1.14009893  -0.64009893  -0.28486003  1
  Li  Li28  1  1.28486003  0.64009893  1.14009893  1
  Li  Li29  1  1.28486003  -0.64009893  -0.14009893  1
  Li  Li30  1  -0.28486003  -0.64009893  1.14009893  1
  Li  Li31  1  -0.28486003  0.64009893  -0.14009893  1
  Li  Li32  1  1.14009893  0.78486003  1.14009893  1
  Li  Li33  1  -0.14009893  0.78486003  -0.14009893  1
  Li  Li34  1  1.14009893  -0.78486003  -0.14009893  1
  Li  Li35  1  -0.14009893  -0.78486003  1.14009893  1
  Li  Li36  1  1.14009893  1.14009893  0.78486003  1
  Li  Li37  1  -0.14009893  -0.14009893  0.78486003  1
  Li  Li38  1  -0.14009893  1.14009893  -0.78486003  1
  Li  Li39  1  1.14009893  -0.14009893  -0.78486003  1
  Li  Li40  1  1.28486003  1.14009893  0.64009893  1
  Li  Li41  1  1.28486003  -0.14009893  -0.64009893  1
  Li  Li42  1  -0.28486003  -0.14009893  0.64009893  1
  Li  Li43  1  -0.28486003  1.14009893  -0.64009893  1
  Li  Li44  1  1.14009893  1.28486003  0.64009893  1
  Li  Li45  1  -0.14009893  1.28486003  -0.64009893  1
  Li  Li46  1  1.14009893  -0.28486003  -0.64009893  1
  Li  Li47  1  -0.14009893  -0.28486003  0.64009893  1
  Li  Li48  1  0.89417049  0.89417049  0.89417049  1
  Li  Li49  1  0.10582951  0.10582951  0.89417049  1
  Li  Li50  1  0.10582951  0.89417049  0.10582951  1
  Li  Li51  1  0.89417049  0.10582951  0.10582951  1
  Li  Li52  1  0.89417049  0.39417049  0.39417049  1
  Li  Li53  1  0.10582951  0.60582951  0.39417049  1
  Li  Li54  1  0.10582951  0.39417049  0.60582951  1
  Li  Li55  1  0.89417049  0.60582951  0.60582951  1
  Li  Li56  1  0.39417049  0.89417049  0.39417049  1
  Li  Li57  1  0.60582951  0.10582951  0.39417049  1
  Li  Li58  1  0.60582951  0.89417049  0.60582951  1
  Li  Li59  1  0.39417049  0.10582951  0.60582951  1
  Li  Li60  1  0.39417049  0.39417049  0.89417049  1
  Li  Li61  1  0.60582951  0.60582951  0.89417049  1
  Li  Li62  1  0.60582951  0.39417049  0.10582951  1
  Li  Li63  1  0.39417049  0.60582951  0.10582951  1
  Li  Li64  1  0.50000000  0.50000000  0.50000000  1
  Li  Li65  1  0.50000000  0.00000000  0.00000000  1
  Li  Li66  1  0.00000000  0.50000000  0.00000000  1
  Li  Li67  1  0.00000000  0.00000000  0.50000000  1
  Li  Li68  1  0.75000000  0.75000000  0.75000000  1
  Li  Li69  1  0.75000000  0.25000000  0.25000000  1
  Li  Li70  1  0.25000000  0.75000000  0.25000000  1
  Li  Li71  1  0.25000000  0.25000000  0.75000000  1
  Li  Li72  1  0.35694898  0.25000000  0.25000000  1
  Li  Li73  1  0.64305102  0.75000000  0.25000000  1
  Li  Li74  1  0.25000000  0.35694898  0.25000000  1
  Li  Li75  1  0.25000000  0.64305102  0.75000000  1
  Li  Li76  1  0.25000000  0.25000000  0.35694898  1
  Li  Li77  1  0.75000000  0.25000000  0.64305102  1
  Li  Li78  1  0.35694898  0.75000000  0.75000000  1
  Li  Li79  1  0.64305102  0.25000000  0.75000000  1
  Li  Li80  1  0.25000000  0.85694898  0.75000000  1
  Li  Li81  1  0.25000000  0.14305102  0.25000000  1
  Li  Li82  1  0.25000000  0.75000000  0.85694898  1
  Li  Li83  1  0.75000000  0.75000000  0.14305102  1
  Li  Li84  1  0.85694898  0.25000000  0.75000000  1
  Li  Li85  1  0.14305102  0.75000000  0.75000000  1
  Li  Li86  1  0.75000000  0.35694898  0.75000000  1
  Li  Li87  1  0.75000000  0.64305102  0.25000000  1
  Li  Li88  1  0.75000000  0.25000000  0.85694898  1
  Li  Li89  1  0.25000000  0.25000000  0.14305102  1
  Li  Li90  1  0.85694898  0.75000000  0.25000000  1
  Li  Li91  1  0.14305102  0.25000000  0.25000000  1
  Li  Li92  1  0.75000000  0.85694898  0.25000000  1
  Li  Li93  1  0.75000000  0.14305102  0.75000000  1
  Li  Li94  1  0.75000000  0.75000000  0.35694898  1
  Li  Li95  1  0.25000000  0.75000000  0.64305102  1
  S  S96  1  0.00000000  0.00000000  0.00000000  1
  S  S97  1  0.00000000  0.50000000  0.50000000  1
  S  S98  1  0.50000000  0.00000000  0.50000000  1
  S  S99  1  0.50000000  0.50000000  0.00000000  1
  S  S100  1  0.85844801  0.25000000  0.25000000  1
  S  S101  1  0.14155199  0.75000000  0.25000000  1
  S  S102  1  0.25000000  0.85844801  0.25000000  1
  S  S103  1  0.25000000  0.14155199  0.75000000  1
  S  S104  1  0.25000000  0.25000000  0.85844801  1
  S  S105  1  0.75000000  0.25000000  0.14155199  1
  S  S106  1  0.85844801  0.75000000  0.75000000  1
  S  S107  1  0.14155199  0.25000000  0.75000000  1
  S  S108  1  0.25000000  0.35844801  0.75000000  1
  S  S109  1  0.25000000  0.64155199  0.25000000  1
  S  S110  1  0.25000000  0.75000000  0.35844801  1
  S  S111  1  0.75000000  0.75000000  0.64155199  1
  S  S112  1  0.35844801  0.25000000  0.75000000  1
  S  S113  1  0.64155199  0.75000000  0.75000000  1
  S  S114  1  0.75000000  0.85844801  0.75000000  1
  S  S115  1  0.75000000  0.14155199  0.25000000  1
  S  S116  1  0.75000000  0.25000000  0.35844801  1
  S  S117  1  0.25000000  0.25000000  0.64155199  1
  S  S118  1  0.35844801  0.75000000  0.25000000  1
  S  S119  1  0.64155199  0.25000000  0.25000000  1
  S  S120  1  0.75000000  0.35844801  0.25000000  1
  S  S121  1  0.75000000  0.64155199  0.75000000  1
  S  S122  1  0.75000000  0.75000000  0.85844801  1
  S  S123  1  0.25000000  0.75000000  0.14155199  1
  S  S124  1  0.25000000  0.25000000  0.25000000  1
  S  S125  1  0.25000000  0.75000000  0.75000000  1
  S  S126  1  0.75000000  0.25000000  0.75000000  1
  S  S127  1  0.75000000  0.75000000  0.25000000  1
  S  S128  1  0.12121463  0.12121463  0.12121463  1
  S  S129  1  0.87878537  0.87878537  0.12121463  1
  S  S130  1  0.87878537  0.12121463  0.87878537  1
  S  S131  1  0.12121463  0.87878537  0.87878537  1
  S  S132  1  0.12121463  0.62121463  0.62121463  1
  S  S133  1  0.87878537  0.37878537  0.62121463  1
  S  S134  1  0.87878537  0.62121463  0.37878537  1
  S  S135  1  0.12121463  0.37878537  0.37878537  1
  S  S136  1  0.62121463  0.12121463  0.62121463  1
  S  S137  1  0.37878537  0.87878537  0.62121463  1
  S  S138  1  0.37878537  0.12121463  0.37878537  1
  S  S139  1  0.62121463  0.87878537  0.37878537  1
  S  S140  1  0.62121463  0.62121463  0.12121463  1
  S  S141  1  0.37878537  0.37878537  0.12121463  1
  S  S142  1  0.37878537  0.62121463  0.87878537  1
  S  S143  1  0.62121463  0.37878537  0.87878537  1
