# generated using pymatgen
data_Li2TiSO2
_symmetry_space_group_name_H-M   'P 1'
_cell_length_a   3.74875752
_cell_length_b   3.06576372
_cell_length_c   4.19208474
_cell_angle_alpha   88.44421208
_cell_angle_beta   93.44871025
_cell_angle_gamma   85.76716066
_symmetry_Int_Tables_number   1
_chemical_formula_structural   Li2TiSO2
_chemical_formula_sum   'Li2 Ti1 S1 O2'
_cell_volume   47.93622898
_cell_formula_units_Z   1
loop_
 _symmetry_equiv_pos_site_id
 _symmetry_equiv_pos_as_xyz
  1  'x, y, z'
loop_
 _atom_site_type_symbol
 _atom_site_label
 _atom_site_symmetry_multiplicity
 _atom_site_fract_x
 _atom_site_fract_y
 _atom_site_fract_z
 _atom_site_occupancy
  Li  Li0  1  0.00000000  0.00000000  0.00000000  1
  Li  Li1  1  0.50000000  0.50000000  0.50000000  1
  Ti  Ti2  1  0.50000000  0.50000000  0.00000000  1
  O  O3  1  0.50000000  0.00000000  0.50000000  1
  O  O4  1  0.00000000  0.50000000  0.50000000  1
  S  S5  1  0.62696348  0.95414903  0.17846835  1
