# generated using pymatgen
data_K8Ti2Sn3Se8(IBr2)4
_symmetry_space_group_name_H-M   'P 1'
_cell_length_a   23.33698998
_cell_length_b   23.33698998
_cell_length_c   23.33698998
_cell_angle_alpha   90.00000000
_cell_angle_beta   90.00000000
_cell_angle_gamma   90.00000000
_symmetry_Int_Tables_number   1
_chemical_formula_structural   K8Ti2Sn3Se8(IBr2)4
_chemical_formula_sum   'K96 Ti24 Sn36 Se96 I48 Br96'
_cell_volume   12709.67716384
_cell_formula_units_Z   12
loop_
 _symmetry_equiv_pos_site_id
 _symmetry_equiv_pos_as_xyz
  1  'x, y, z'
loop_
 _atom_site_type_symbol
 _atom_site_label
 _atom_site_symmetry_multiplicity
 _atom_site_fract_x
 _atom_site_fract_y
 _atom_site_fract_z
 _atom_site_occupancy
  Br  Br0  1  0.70311614  0.00000000  0.25000000  1
  Br  Br1  1  0.79688386  0.00000000  0.75000000  1
  Br  Br2  1  0.25000000  0.70311614  0.00000000  1
  Br  Br3  1  0.75000000  0.79688386  0.00000000  1
  Br  Br4  1  0.00000000  0.25000000  0.70311614  1
  Br  Br5  1  0.00000000  0.75000000  0.79688386  1
  Br  Br6  1  0.75000000  0.95311614  0.00000000  1
  Br  Br7  1  0.75000000  0.04688386  0.50000000  1
  Br  Br8  1  0.45311614  0.50000000  0.25000000  1
  Br  Br9  1  0.54688386  0.00000000  0.25000000  1
  Br  Br10  1  0.00000000  0.25000000  0.54688386  1
  Br  Br11  1  0.50000000  0.25000000  0.45311614  1
  Br  Br12  1  0.20311614  0.50000000  0.75000000  1
  Br  Br13  1  0.29688386  0.50000000  0.25000000  1
  Br  Br14  1  0.75000000  0.20311614  0.50000000  1
  Br  Br15  1  0.25000000  0.29688386  0.50000000  1
  Br  Br16  1  0.50000000  0.75000000  0.20311614  1
  Br  Br17  1  0.50000000  0.25000000  0.29688386  1
  Br  Br18  1  0.25000000  0.45311614  0.50000000  1
  Br  Br19  1  0.25000000  0.54688386  0.00000000  1
  Br  Br20  1  0.95311614  0.00000000  0.75000000  1
  Br  Br21  1  0.04688386  0.50000000  0.75000000  1
  Br  Br22  1  0.50000000  0.75000000  0.04688386  1
  Br  Br23  1  0.00000000  0.75000000  0.95311614  1
  Br  Br24  1  0.65309277  0.00585158  0.09178952  1
  Br  Br25  1  0.84690723  0.99414842  0.59178952  1
  Br  Br26  1  0.34690723  0.50585158  0.40821048  1
  Br  Br27  1  0.15309277  0.49414842  0.90821048  1
  Br  Br28  1  0.09178952  0.65309277  0.00585158  1
  Br  Br29  1  0.59178952  0.84690723  0.99414842  1
  Br  Br30  1  0.40821048  0.34690723  0.50585158  1
  Br  Br31  1  0.90821048  0.15309277  0.49414842  1
  Br  Br32  1  0.00585158  0.09178952  0.65309277  1
  Br  Br33  1  0.99414842  0.59178952  0.84690723  1
  Br  Br34  1  0.50585158  0.40821048  0.34690723  1
  Br  Br35  1  0.49414842  0.90821048  0.15309277  1
  Br  Br36  1  0.75585158  0.90309277  0.15821048  1
  Br  Br37  1  0.74414842  0.09690723  0.65821048  1
  Br  Br38  1  0.25585158  0.59690723  0.84178952  1
  Br  Br39  1  0.24414842  0.40309277  0.34178952  1
  Br  Br40  1  0.40309277  0.34178952  0.24414842  1
  Br  Br41  1  0.59690723  0.84178952  0.25585158  1
  Br  Br42  1  0.09690723  0.65821048  0.74414842  1
  Br  Br43  1  0.90309277  0.15821048  0.75585158  1
  Br  Br44  1  0.84178952  0.25585158  0.59690723  1
  Br  Br45  1  0.34178952  0.24414842  0.40309277  1
  Br  Br46  1  0.15821048  0.75585158  0.90309277  1
  Br  Br47  1  0.65821048  0.74414842  0.09690723  1
  Br  Br48  1  0.15309277  0.50585158  0.59178952  1
  Br  Br49  1  0.34690723  0.49414842  0.09178952  1
  Br  Br50  1  0.84690723  0.00585158  0.90821048  1
  Br  Br51  1  0.65309277  0.99414842  0.40821048  1
  Br  Br52  1  0.59178952  0.15309277  0.50585158  1
  Br  Br53  1  0.09178952  0.34690723  0.49414842  1
  Br  Br54  1  0.90821048  0.84690723  0.00585158  1
  Br  Br55  1  0.40821048  0.65309277  0.99414842  1
  Br  Br56  1  0.50585158  0.59178952  0.15309277  1
  Br  Br57  1  0.49414842  0.09178952  0.34690723  1
  Br  Br58  1  0.00585158  0.90821048  0.84690723  1
  Br  Br59  1  0.99414842  0.40821048  0.65309277  1
  Br  Br60  1  0.25585158  0.40309277  0.65821048  1
  Br  Br61  1  0.24414842  0.59690723  0.15821048  1
  Br  Br62  1  0.75585158  0.09690723  0.34178952  1
  Br  Br63  1  0.74414842  0.90309277  0.84178952  1
  Br  Br64  1  0.90309277  0.84178952  0.74414842  1
  Br  Br65  1  0.09690723  0.34178952  0.75585158  1
  Br  Br66  1  0.59690723  0.15821048  0.24414842  1
  Br  Br67  1  0.40309277  0.65821048  0.25585158  1
  Br  Br68  1  0.34178952  0.75585158  0.09690723  1
  Br  Br69  1  0.84178952  0.74414842  0.90309277  1
  Br  Br70  1  0.65821048  0.25585158  0.40309277  1
  Br  Br71  1  0.15821048  0.24414842  0.59690723  1
  Br  Br72  1  0.12500000  0.69578425  0.94578425  1
  Br  Br73  1  0.37500000  0.30421575  0.44578425  1
  Br  Br74  1  0.87500000  0.19578425  0.55421575  1
  Br  Br75  1  0.62500000  0.80421575  0.05421575  1
  Br  Br76  1  0.94578425  0.12500000  0.69578425  1
  Br  Br77  1  0.44578425  0.37500000  0.30421575  1
  Br  Br78  1  0.55421575  0.87500000  0.19578425  1
  Br  Br79  1  0.05421575  0.62500000  0.80421575  1
  Br  Br80  1  0.69578425  0.94578425  0.12500000  1
  Br  Br81  1  0.30421575  0.44578425  0.37500000  1
  Br  Br82  1  0.19578425  0.55421575  0.87500000  1
  Br  Br83  1  0.80421575  0.05421575  0.62500000  1
  Br  Br84  1  0.62500000  0.19578425  0.44578425  1
  Br  Br85  1  0.87500000  0.80421575  0.94578425  1
  Br  Br86  1  0.37500000  0.69578425  0.05421575  1
  Br  Br87  1  0.12500000  0.30421575  0.55421575  1
  Br  Br88  1  0.44578425  0.62500000  0.19578425  1
  Br  Br89  1  0.94578425  0.87500000  0.80421575  1
  Br  Br90  1  0.05421575  0.37500000  0.69578425  1
  Br  Br91  1  0.55421575  0.12500000  0.30421575  1
  Br  Br92  1  0.19578425  0.44578425  0.62500000  1
  Br  Br93  1  0.80421575  0.94578425  0.87500000  1
  Br  Br94  1  0.69578425  0.05421575  0.37500000  1
  Br  Br95  1  0.30421575  0.55421575  0.12500000  1
  I  I96  1  0.73844784  0.79958398  0.57836748  1
  I  I97  1  0.76155216  0.20041602  0.07836748  1
  I  I98  1  0.26155216  0.29958398  0.92163252  1
  I  I99  1  0.23844784  0.70041602  0.42163252  1
  I  I100  1  0.57836748  0.73844784  0.79958398  1
  I  I101  1  0.07836748  0.76155216  0.20041602  1
  I  I102  1  0.92163252  0.26155216  0.29958398  1
  I  I103  1  0.42163252  0.23844784  0.70041602  1
  I  I104  1  0.79958398  0.57836748  0.73844784  1
  I  I105  1  0.20041602  0.07836748  0.76155216  1
  I  I106  1  0.29958398  0.92163252  0.26155216  1
  I  I107  1  0.70041602  0.42163252  0.23844784  1
  I  I108  1  0.54958398  0.98844784  0.67163252  1
  I  I109  1  0.95041602  0.01155216  0.17163252  1
  I  I110  1  0.04958398  0.51155216  0.32836748  1
  I  I111  1  0.45041602  0.48844784  0.82836748  1
  I  I112  1  0.48844784  0.82836748  0.45041602  1
  I  I113  1  0.51155216  0.32836748  0.04958398  1
  I  I114  1  0.01155216  0.17163252  0.95041602  1
  I  I115  1  0.98844784  0.67163252  0.54958398  1
  I  I116  1  0.32836748  0.04958398  0.51155216  1
  I  I117  1  0.82836748  0.45041602  0.48844784  1
  I  I118  1  0.67163252  0.54958398  0.98844784  1
  I  I119  1  0.17163252  0.95041602  0.01155216  1
  I  I120  1  0.23844784  0.29958398  0.07836748  1
  I  I121  1  0.26155216  0.70041602  0.57836748  1
  I  I122  1  0.76155216  0.79958398  0.42163252  1
  I  I123  1  0.73844784  0.20041602  0.92163252  1
  I  I124  1  0.07836748  0.23844784  0.29958398  1
  I  I125  1  0.57836748  0.26155216  0.70041602  1
  I  I126  1  0.42163252  0.76155216  0.79958398  1
  I  I127  1  0.92163252  0.73844784  0.20041602  1
  I  I128  1  0.29958398  0.07836748  0.23844784  1
  I  I129  1  0.70041602  0.57836748  0.26155216  1
  I  I130  1  0.79958398  0.42163252  0.76155216  1
  I  I131  1  0.20041602  0.92163252  0.73844784  1
  I  I132  1  0.04958398  0.48844784  0.17163252  1
  I  I133  1  0.45041602  0.51155216  0.67163252  1
  I  I134  1  0.54958398  0.01155216  0.82836748  1
  I  I135  1  0.95041602  0.98844784  0.32836748  1
  I  I136  1  0.98844784  0.32836748  0.95041602  1
  I  I137  1  0.01155216  0.82836748  0.54958398  1
  I  I138  1  0.51155216  0.67163252  0.45041602  1
  I  I139  1  0.48844784  0.17163252  0.04958398  1
  I  I140  1  0.82836748  0.54958398  0.01155216  1
  I  I141  1  0.32836748  0.95041602  0.98844784  1
  I  I142  1  0.17163252  0.04958398  0.48844784  1
  I  I143  1  0.67163252  0.45041602  0.51155216  1
  K  K144  1  0.74277560  0.68271799  0.17144705  1
  K  K145  1  -0.24277560  -0.68271799  0.67144705  1
  K  K146  1  -0.74277560  1.18271799  0.32855295  1
  K  K147  1  1.24277560  -0.18271799  -0.17144705  1
  K  K148  1  0.17144705  0.74277560  0.68271799  1
  K  K149  1  0.67144705  -0.24277560  -0.68271799  1
  K  K150  1  0.32855295  -0.74277560  1.18271799  1
  K  K151  1  -0.17144705  1.24277560  -0.18271799  1
  K  K152  1  0.68271799  0.17144705  0.74277560  1
  K  K153  1  -0.68271799  0.67144705  -0.24277560  1
  K  K154  1  1.18271799  0.32855295  -0.74277560  1
  K  K155  1  -0.18271799  -0.17144705  1.24277560  1
  K  K156  1  1.43271799  0.99277560  0.07855295  1
  K  K157  1  0.06728201  0.00722440  0.57855295  1
  K  K158  1  0.93271799  -0.49277560  0.92144705  1
  K  K159  1  -0.43271799  1.49277560  0.42144705  1
  K  K160  1  1.49277560  0.42144705  -0.43271799  1
  K  K161  1  -0.49277560  0.92144705  0.93271799  1
  K  K162  1  0.00722440  0.57855295  0.06728201  1
  K  K163  1  0.99277560  0.07855295  1.43271799  1
  K  K164  1  0.92144705  0.93271799  -0.49277560  1
  K  K165  1  0.42144705  -0.43271799  1.49277560  1
  K  K166  1  0.07855295  1.43271799  0.99277560  1
  K  K167  1  0.57855295  0.06728201  0.00722440  1
  K  K168  1  1.24277560  1.18271799  0.67144705  1
  K  K169  1  0.25722440  -0.18271799  1.17144705  1
  K  K170  1  -0.24277560  1.68271799  0.82855295  1
  K  K171  1  1.74277560  0.31728201  0.32855295  1
  K  K172  1  0.67144705  1.24277560  1.18271799  1
  K  K173  1  1.17144705  0.25722440  -0.18271799  1
  K  K174  1  0.82855295  -0.24277560  1.68271799  1
  K  K175  1  0.32855295  1.74277560  0.31728201  1
  K  K176  1  1.18271799  0.67144705  1.24277560  1
  K  K177  1  -0.18271799  1.17144705  0.25722440  1
  K  K178  1  1.68271799  0.82855295  -0.24277560  1
  K  K179  1  0.31728201  0.32855295  1.74277560  1
  K  K180  1  1.93271799  1.49277560  0.57855295  1
  K  K181  1  0.56728201  0.50722440  1.07855295  1
  K  K182  1  1.43271799  0.00722440  1.42144705  1
  K  K183  1  0.06728201  1.99277560  0.92144705  1
  K  K184  1  1.99277560  0.92144705  0.06728201  1
  K  K185  1  0.00722440  1.42144705  1.43271799  1
  K  K186  1  0.50722440  1.07855295  0.56728201  1
  K  K187  1  1.49277560  0.57855295  1.93271799  1
  K  K188  1  1.42144705  1.43271799  0.00722440  1
  K  K189  1  0.92144705  0.06728201  1.99277560  1
  K  K190  1  0.57855295  1.93271799  1.49277560  1
  K  K191  1  1.07855295  0.56728201  0.50722440  1
  K  K192  1  0.87500000  0.87500000  0.87500000  1
  K  K193  1  0.62500000  0.12500000  0.37500000  1
  K  K194  1  0.12500000  0.37500000  0.62500000  1
  K  K195  1  0.37500000  0.62500000  0.12500000  1
  K  K196  1  0.37500000  0.37500000  0.37500000  1
  K  K197  1  0.12500000  0.62500000  0.87500000  1
  K  K198  1  0.62500000  0.87500000  0.12500000  1
  K  K199  1  0.87500000  0.12500000  0.62500000  1
  K  K200  1  0.12500000  0.07746285  0.17253715  1
  K  K201  1  0.37500000  0.92253715  0.67253715  1
  K  K202  1  0.87500000  0.57746285  0.32746285  1
  K  K203  1  0.62500000  0.42253715  0.82746285  1
  K  K204  1  0.17253715  0.12500000  0.07746285  1
  K  K205  1  0.67253715  0.37500000  0.92253715  1
  K  K206  1  0.32746285  0.87500000  0.57746285  1
  K  K207  1  0.82746285  0.62500000  0.42253715  1
  K  K208  1  0.07746285  0.17253715  0.12500000  1
  K  K209  1  0.92253715  0.67253715  0.37500000  1
  K  K210  1  0.57746285  0.32746285  0.87500000  1
  K  K211  1  0.42253715  0.82746285  0.62500000  1
  K  K212  1  0.62500000  0.57746285  0.67253715  1
  K  K213  1  0.87500000  0.42253715  0.17253715  1
  K  K214  1  0.37500000  0.07746285  0.82746285  1
  K  K215  1  0.12500000  0.92253715  0.32746285  1
  K  K216  1  0.67253715  0.62500000  0.57746285  1
  K  K217  1  0.17253715  0.87500000  0.42253715  1
  K  K218  1  0.82746285  0.37500000  0.07746285  1
  K  K219  1  0.32746285  0.12500000  0.92253715  1
  K  K220  1  0.57746285  0.67253715  0.62500000  1
  K  K221  1  0.42253715  0.17253715  0.87500000  1
  K  K222  1  0.07746285  0.82746285  0.37500000  1
  K  K223  1  0.92253715  0.32746285  0.12500000  1
  K  K224  1  0.16934213  0.16934213  0.16934213  1
  K  K225  1  0.33065787  0.83065787  0.66934213  1
  K  K226  1  0.83065787  0.66934213  0.33065787  1
  K  K227  1  0.66934213  0.33065787  0.83065787  1
  K  K228  1  0.91934213  0.41934213  0.08065787  1
  K  K229  1  0.58065787  0.58065787  0.58065787  1
  K  K230  1  0.41934213  0.08065787  0.91934213  1
  K  K231  1  0.08065787  0.91934213  0.41934213  1
  K  K232  1  0.66934213  0.66934213  0.66934213  1
  K  K233  1  0.83065787  0.33065787  0.16934213  1
  K  K234  1  0.33065787  0.16934213  0.83065787  1
  K  K235  1  0.16934213  0.83065787  0.33065787  1
  K  K236  1  0.41934213  0.91934213  0.58065787  1
  K  K237  1  0.08065787  0.08065787  0.08065787  1
  K  K238  1  0.91934213  0.58065787  0.41934213  1
  K  K239  1  0.58065787  0.41934213  0.91934213  1
  Se  Se240  1  0.48777541  0.37804555  0.03770406  1
  Se  Se241  1  0.01222459  0.62195445  0.53770406  1
  Se  Se242  1  0.51222459  0.87804555  0.46229594  1
  Se  Se243  1  0.98777541  0.12195445  0.96229594  1
  Se  Se244  1  0.03770406  0.48777541  0.37804555  1
  Se  Se245  1  0.53770406  0.01222459  0.62195445  1
  Se  Se246  1  0.46229594  0.51222459  0.87804555  1
  Se  Se247  1  0.96229594  0.98777541  0.12195445  1
  Se  Se248  1  0.37804555  0.03770406  0.48777541  1
  Se  Se249  1  0.62195445  0.53770406  0.01222459  1
  Se  Se250  1  0.87804555  0.46229594  0.51222459  1
  Se  Se251  1  0.12195445  0.96229594  0.98777541  1
  Se  Se252  1  0.12804555  0.73777541  0.21229594  1
  Se  Se253  1  0.37195445  0.26222459  0.71229594  1
  Se  Se254  1  0.62804555  0.76222459  0.78770406  1
  Se  Se255  1  0.87195445  0.23777541  0.28770406  1
  Se  Se256  1  0.23777541  0.28770406  0.87195445  1
  Se  Se257  1  0.76222459  0.78770406  0.62804555  1
  Se  Se258  1  0.26222459  0.71229594  0.37195445  1
  Se  Se259  1  0.73777541  0.21229594  0.12804555  1
  Se  Se260  1  0.78770406  0.62804555  0.76222459  1
  Se  Se261  1  0.28770406  0.87195445  0.23777541  1
  Se  Se262  1  0.21229594  0.12804555  0.73777541  1
  Se  Se263  1  0.71229594  0.37195445  0.26222459  1
  Se  Se264  1  0.98777541  0.87804555  0.53770406  1
  Se  Se265  1  0.51222459  0.12195445  0.03770406  1
  Se  Se266  1  0.01222459  0.37804555  0.96229594  1
  Se  Se267  1  0.48777541  0.62195445  0.46229594  1
  Se  Se268  1  0.53770406  0.98777541  0.87804555  1
  Se  Se269  1  0.03770406  0.51222459  0.12195445  1
  Se  Se270  1  0.96229594  0.01222459  0.37804555  1
  Se  Se271  1  0.46229594  0.48777541  0.62195445  1
  Se  Se272  1  0.87804555  0.53770406  0.98777541  1
  Se  Se273  1  0.12195445  0.03770406  0.51222459  1
  Se  Se274  1  0.37804555  0.96229594  0.01222459  1
  Se  Se275  1  0.62195445  0.46229594  0.48777541  1
  Se  Se276  1  0.62804555  0.23777541  0.71229594  1
  Se  Se277  1  0.87195445  0.76222459  0.21229594  1
  Se  Se278  1  0.12804555  0.26222459  0.28770406  1
  Se  Se279  1  0.37195445  0.73777541  0.78770406  1
  Se  Se280  1  0.73777541  0.78770406  0.37195445  1
  Se  Se281  1  0.26222459  0.28770406  0.12804555  1
  Se  Se282  1  0.76222459  0.21229594  0.87195445  1
  Se  Se283  1  0.23777541  0.71229594  0.62804555  1
  Se  Se284  1  0.28770406  0.12804555  0.26222459  1
  Se  Se285  1  0.78770406  0.37195445  0.73777541  1
  Se  Se286  1  0.71229594  0.62804555  0.23777541  1
  Se  Se287  1  0.21229594  0.87195445  0.76222459  1
  Se  Se288  1  0.23974479  0.96297717  0.57995144  1
  Se  Se289  1  0.26025521  0.03702283  0.07995144  1
  Se  Se290  1  0.76025521  0.46297717  0.92004856  1
  Se  Se291  1  0.73974479  0.53702283  0.42004856  1
  Se  Se292  1  0.57995144  0.23974479  0.96297717  1
  Se  Se293  1  0.07995144  0.26025521  0.03702283  1
  Se  Se294  1  0.92004856  0.76025521  0.46297717  1
  Se  Se295  1  0.42004856  0.73974479  0.53702283  1
  Se  Se296  1  0.96297717  0.57995144  0.23974479  1
  Se  Se297  1  0.03702283  0.07995144  0.26025521  1
  Se  Se298  1  0.46297717  0.92004856  0.76025521  1
  Se  Se299  1  0.53702283  0.42004856  0.73974479  1
  Se  Se300  1  0.71297717  0.48974479  0.67004856  1
  Se  Se301  1  0.78702283  0.51025521  0.17004856  1
  Se  Se302  1  0.21297717  0.01025521  0.32995144  1
  Se  Se303  1  0.28702283  0.98974479  0.82995144  1
  Se  Se304  1  0.98974479  0.82995144  0.28702283  1
  Se  Se305  1  0.01025521  0.32995144  0.21297717  1
  Se  Se306  1  0.51025521  0.17004856  0.78702283  1
  Se  Se307  1  0.48974479  0.67004856  0.71297717  1
  Se  Se308  1  0.32995144  0.21297717  0.01025521  1
  Se  Se309  1  0.82995144  0.28702283  0.98974479  1
  Se  Se310  1  0.67004856  0.71297717  0.48974479  1
  Se  Se311  1  0.17004856  0.78702283  0.51025521  1
  Se  Se312  1  0.73974479  0.46297717  0.07995144  1
  Se  Se313  1  0.76025521  0.53702283  0.57995144  1
  Se  Se314  1  0.26025521  0.96297717  0.42004856  1
  Se  Se315  1  0.23974479  0.03702283  0.92004856  1
  Se  Se316  1  0.07995144  0.73974479  0.46297717  1
  Se  Se317  1  0.57995144  0.76025521  0.53702283  1
  Se  Se318  1  0.42004856  0.26025521  0.96297717  1
  Se  Se319  1  0.92004856  0.23974479  0.03702283  1
  Se  Se320  1  0.46297717  0.07995144  0.73974479  1
  Se  Se321  1  0.53702283  0.57995144  0.76025521  1
  Se  Se322  1  0.96297717  0.42004856  0.26025521  1
  Se  Se323  1  0.03702283  0.92004856  0.23974479  1
  Se  Se324  1  0.21297717  0.98974479  0.17004856  1
  Se  Se325  1  0.28702283  0.01025521  0.67004856  1
  Se  Se326  1  0.71297717  0.51025521  0.82995144  1
  Se  Se327  1  0.78702283  0.48974479  0.32995144  1
  Se  Se328  1  0.48974479  0.32995144  0.78702283  1
  Se  Se329  1  0.51025521  0.82995144  0.71297717  1
  Se  Se330  1  0.01025521  0.67004856  0.28702283  1
  Se  Se331  1  0.98974479  0.17004856  0.21297717  1
  Se  Se332  1  0.82995144  0.71297717  0.51025521  1
  Se  Se333  1  0.32995144  0.78702283  0.48974479  1
  Se  Se334  1  0.17004856  0.21297717  0.98974479  1
  Se  Se335  1  0.67004856  0.28702283  0.01025521  1
  Sn  Sn336  1  0.28960018  -0.00000000  0.25000000  1
  Sn  Sn337  1  0.21039982  0.00000000  0.75000000  1
  Sn  Sn338  1  0.25000000  0.28960018  -0.00000000  1
  Sn  Sn339  1  0.75000000  0.21039982  0.00000000  1
  Sn  Sn340  1  0.00000000  0.25000000  0.28960018  1
  Sn  Sn341  1  0.00000000  0.75000000  0.21039982  1
  Sn  Sn342  1  0.75000000  0.53960018  0.00000000  1
  Sn  Sn343  1  0.75000000  0.46039982  0.50000000  1
  Sn  Sn344  1  0.03960018  0.50000000  0.25000000  1
  Sn  Sn345  1  0.96039982  -0.00000000  0.25000000  1
  Sn  Sn346  1  0.00000000  0.25000000  0.96039982  1
  Sn  Sn347  1  0.50000000  0.25000000  0.03960018  1
  Sn  Sn348  1  0.78960018  0.50000000  0.75000000  1
  Sn  Sn349  1  0.71039982  0.50000000  0.25000000  1
  Sn  Sn350  1  0.75000000  0.78960018  0.50000000  1
  Sn  Sn351  1  0.25000000  0.71039982  0.50000000  1
  Sn  Sn352  1  0.50000000  0.75000000  0.78960018  1
  Sn  Sn353  1  0.50000000  0.25000000  0.71039982  1
  Sn  Sn354  1  0.25000000  0.03960018  0.50000000  1
  Sn  Sn355  1  0.25000000  0.96039982  -0.00000000  1
  Sn  Sn356  1  0.53960018  0.00000000  0.75000000  1
  Sn  Sn357  1  0.46039982  0.50000000  0.75000000  1
  Sn  Sn358  1  0.50000000  0.75000000  0.46039982  1
  Sn  Sn359  1  0.00000000  0.75000000  0.53960018  1
  Sn  Sn360  1  0.62500000  0.00000000  0.25000000  1
  Sn  Sn361  1  0.87500000  0.00000000  0.75000000  1
  Sn  Sn362  1  0.25000000  0.62500000  0.00000000  1
  Sn  Sn363  1  0.75000000  0.87500000  0.00000000  1
  Sn  Sn364  1  0.00000000  0.25000000  0.62500000  1
  Sn  Sn365  1  0.00000000  0.75000000  0.87500000  1
  Sn  Sn366  1  0.12500000  0.50000000  0.75000000  1
  Sn  Sn367  1  0.37500000  0.50000000  0.25000000  1
  Sn  Sn368  1  0.75000000  0.12500000  0.50000000  1
  Sn  Sn369  1  0.25000000  0.37500000  0.50000000  1
  Sn  Sn370  1  0.50000000  0.75000000  0.12500000  1
  Sn  Sn371  1  0.50000000  0.25000000  0.37500000  1
  Ti  Ti372  1  0.12500000  0.80697936  0.05697936  1
  Ti  Ti373  1  0.37500000  0.19302064  0.55697936  1
  Ti  Ti374  1  0.87500000  0.30697936  0.44302064  1
  Ti  Ti375  1  0.62500000  0.69302064  0.94302064  1
  Ti  Ti376  1  0.05697936  0.12500000  0.80697936  1
  Ti  Ti377  1  0.55697936  0.37500000  0.19302064  1
  Ti  Ti378  1  0.44302064  0.87500000  0.30697936  1
  Ti  Ti379  1  0.94302064  0.62500000  0.69302064  1
  Ti  Ti380  1  0.80697936  0.05697936  0.12500000  1
  Ti  Ti381  1  0.19302064  0.55697936  0.37500000  1
  Ti  Ti382  1  0.30697936  0.44302064  0.87500000  1
  Ti  Ti383  1  0.69302064  0.94302064  0.62500000  1
  Ti  Ti384  1  0.62500000  0.30697936  0.55697936  1
  Ti  Ti385  1  0.87500000  0.69302064  0.05697936  1
  Ti  Ti386  1  0.37500000  0.80697936  0.94302064  1
  Ti  Ti387  1  0.12500000  0.19302064  0.44302064  1
  Ti  Ti388  1  0.55697936  0.62500000  0.30697936  1
  Ti  Ti389  1  0.05697936  0.87500000  0.69302064  1
  Ti  Ti390  1  0.94302064  0.37500000  0.80697936  1
  Ti  Ti391  1  0.44302064  0.12500000  0.19302064  1
  Ti  Ti392  1  0.30697936  0.55697936  0.62500000  1
  Ti  Ti393  1  0.69302064  0.05697936  0.87500000  1
  Ti  Ti394  1  0.80697936  0.94302064  0.37500000  1
  Ti  Ti395  1  0.19302064  0.44302064  0.12500000  1
