# generated using pymatgen
data_Li2O
_symmetry_space_group_name_H-M   'P 1'
_cell_length_a   14.38654588
_cell_length_b   14.38654588
_cell_length_c   5.37584125
_cell_angle_alpha   90.00000000
_cell_angle_beta   90.00000000
_cell_angle_gamma   120.00000000
_symmetry_Int_Tables_number   1
_chemical_formula_structural   Li2O
_chemical_formula_sum   'Li36 O18'
_cell_volume   963.58523570
_cell_formula_units_Z   18
loop_
 _symmetry_equiv_pos_site_id
 _symmetry_equiv_pos_as_xyz
  1  'x, y, z'
loop_
 _atom_site_type_symbol
 _atom_site_label
 _atom_site_symmetry_multiplicity
 _atom_site_fract_x
 _atom_site_fract_y
 _atom_site_fract_z
 _atom_site_occupancy
  Li  Li0  1  0.50000000  0.00000000  0.00000000  1
  Li  Li1  1  0.00000000  0.50000000  0.00000000  1
  Li  Li2  1  0.50000000  0.50000000  0.00000000  1
  Li  Li3  1  0.50000000  0.00000000  0.50000000  1
  Li  Li4  1  0.00000000  0.50000000  0.50000000  1
  Li  Li5  1  0.50000000  0.50000000  0.50000000  1
  Li  Li6  1  0.17464810  0.34929621  0.51361254  1
  Li  Li7  1  0.65070379  0.82535190  0.51361254  1
  Li  Li8  1  0.17464810  0.82535190  0.51361254  1
  Li  Li9  1  0.82535190  0.65070379  0.01361254  1
  Li  Li10  1  0.34929621  0.17464810  0.01361254  1
  Li  Li11  1  0.82535190  0.17464810  0.01361254  1
  Li  Li12  1  0.34929621  0.17464810  0.48638746  1
  Li  Li13  1  0.82535190  0.65070379  0.48638746  1
  Li  Li14  1  0.82535190  0.17464810  0.48638746  1
  Li  Li15  1  0.65070379  0.82535190  0.98638746  1
  Li  Li16  1  0.17464810  0.34929621  0.98638746  1
  Li  Li17  1  0.17464810  0.82535190  0.98638746  1
  Li  Li18  1  0.38779112  0.77558223  0.25000000  1
  Li  Li19  1  0.22441777  0.61220888  0.25000000  1
  Li  Li20  1  0.38779112  0.61220888  0.25000000  1
  Li  Li21  1  0.61220888  0.22441777  0.75000000  1
  Li  Li22  1  0.77558223  0.38779112  0.75000000  1
  Li  Li23  1  0.61220888  0.38779112  0.75000000  1
  Li  Li24  1  0.10405920  0.47137440  0.25000000  1
  Li  Li25  1  0.52862560  0.63268480  0.25000000  1
  Li  Li26  1  0.36731520  0.89594080  0.25000000  1
  Li  Li27  1  0.89594080  0.52862560  0.75000000  1
  Li  Li28  1  0.47137440  0.36731520  0.75000000  1
  Li  Li29  1  0.63268480  0.10405920  0.75000000  1
  Li  Li30  1  0.47137440  0.10405920  0.75000000  1
  Li  Li31  1  0.63268480  0.52862560  0.75000000  1
  Li  Li32  1  0.89594080  0.36731520  0.75000000  1
  Li  Li33  1  0.52862560  0.89594080  0.25000000  1
  Li  Li34  1  0.36731520  0.47137440  0.25000000  1
  Li  Li35  1  0.10405920  0.63268480  0.25000000  1
  O  O36  1  0.66459416  -0.00000000  0.00000000  1
  O  O37  1  0.00000000  0.66459416  0.00000000  1
  O  O38  1  -0.66459416  -0.66459416  -0.00000000  1
  O  O39  1  -0.66459416  0.00000000  0.50000000  1
  O  O40  1  0.00000000  -0.66459416  0.50000000  1
  O  O41  1  0.66459416  0.66459416  0.50000000  1
  O  O42  1  -0.66459416  0.00000000  -0.00000000  1
  O  O43  1  0.00000000  -0.66459416  -0.00000000  1
  O  O44  1  0.66459416  0.66459416  0.00000000  1
  O  O45  1  0.66459416  -0.00000000  0.50000000  1
  O  O46  1  0.00000000  0.66459416  0.50000000  1
  O  O47  1  -0.66459416  -0.66459416  0.50000000  1
  O  O48  1  0.14039568  0.28079136  0.25000000  1
  O  O49  1  0.71920864  0.85960432  0.25000000  1
  O  O50  1  0.14039568  0.85960432  0.25000000  1
  O  O51  1  0.85960432  0.71920864  0.75000000  1
  O  O52  1  0.28079136  0.14039568  0.75000000  1
  O  O53  1  0.85960432  0.14039568  0.75000000  1
