# generated using pymatgen
data_Sb2P3(I3Br4)3
_symmetry_space_group_name_H-M   'P 1'
_cell_length_a   8.09395717
_cell_length_b   8.09395717
_cell_length_c   30.62043581
_cell_angle_alpha   90.00000000
_cell_angle_beta   90.00000000
_cell_angle_gamma   120.00000000
_symmetry_Int_Tables_number   1
_chemical_formula_structural   Sb2P3(I3Br4)3
_chemical_formula_sum   'Sb8 P12 I36 Br48'
_cell_volume   1737.25593039
_cell_formula_units_Z   4
loop_
 _symmetry_equiv_pos_site_id
 _symmetry_equiv_pos_as_xyz
  1  'x, y, z'
loop_
 _atom_site_type_symbol
 _atom_site_label
 _atom_site_symmetry_multiplicity
 _atom_site_fract_x
 _atom_site_fract_y
 _atom_site_fract_z
 _atom_site_occupancy
  Br  Br0  1  0.33333333  0.66666667  0.70759114  1
  Br  Br1  1  0.66666667  0.33333333  0.20759114  1
  Br  Br2  1  0.66666667  0.33333333  0.29240886  1
  Br  Br3  1  0.33333333  0.66666667  0.79240886  1
  Br  Br4  1  0.24972289  0.95387257  0.21465160  1
  Br  Br5  1  -0.95387257  -0.70414968  0.21465160  1
  Br  Br6  1  0.70414968  -0.24972289  0.21465160  1
  Br  Br7  1  -0.24972289  -0.95387257  0.71465160  1
  Br  Br8  1  0.95387257  0.70414968  0.71465160  1
  Br  Br9  1  -0.70414968  0.24972289  0.71465160  1
  Br  Br10  1  0.95387257  0.24972289  -0.21465160  1
  Br  Br11  1  -0.70414968  -0.95387257  -0.21465160  1
  Br  Br12  1  -0.24972289  0.70414968  -0.21465160  1
  Br  Br13  1  -0.95387257  -0.24972289  0.28534840  1
  Br  Br14  1  0.70414968  0.95387257  0.28534840  1
  Br  Br15  1  0.24972289  -0.70414968  0.28534840  1
  Br  Br16  1  -0.24972289  -0.95387257  -0.21465160  1
  Br  Br17  1  0.95387257  0.70414968  -0.21465160  1
  Br  Br18  1  -0.70414968  0.24972289  -0.21465160  1
  Br  Br19  1  0.24972289  0.95387257  0.28534840  1
  Br  Br20  1  -0.95387257  -0.70414968  0.28534840  1
  Br  Br21  1  0.70414968  -0.24972289  0.28534840  1
  Br  Br22  1  -0.95387257  -0.24972289  0.21465160  1
  Br  Br23  1  0.70414968  0.95387257  0.21465160  1
  Br  Br24  1  0.24972289  -0.70414968  0.21465160  1
  Br  Br25  1  0.95387257  0.24972289  0.71465160  1
  Br  Br26  1  -0.70414968  -0.95387257  0.71465160  1
  Br  Br27  1  -0.24972289  0.70414968  0.71465160  1
  Br  Br28  1  0.17384802  0.17148389  0.25000000  1
  Br  Br29  1  0.82851611  0.00236413  0.25000000  1
  Br  Br30  1  0.99763587  0.82615198  0.25000000  1
  Br  Br31  1  0.82615198  0.82851611  0.75000000  1
  Br  Br32  1  0.17148389  0.99763587  0.75000000  1
  Br  Br33  1  0.00236413  0.17384802  0.75000000  1
  Br  Br34  1  0.17148389  0.17384802  0.75000000  1
  Br  Br35  1  0.00236413  0.82851611  0.75000000  1
  Br  Br36  1  0.82615198  0.99763587  0.75000000  1
  Br  Br37  1  0.82851611  0.82615198  0.25000000  1
  Br  Br38  1  0.99763587  0.17148389  0.25000000  1
  Br  Br39  1  0.17384802  0.00236413  0.25000000  1
  Br  Br40  1  0.00000000  0.00000000  0.00000000  1
  Br  Br41  1  0.00000000  0.00000000  0.50000000  1
  Br  Br42  1  0.53500674  0.07001348  0.25000000  1
  Br  Br43  1  0.92998652  0.46499326  0.25000000  1
  Br  Br44  1  0.53500674  0.46499326  0.25000000  1
  Br  Br45  1  0.46499326  0.92998652  0.75000000  1
  Br  Br46  1  0.07001348  0.53500674  0.75000000  1
  Br  Br47  1  0.46499326  0.53500674  0.75000000  1
  I  I48  1  0.33333333  0.66666667  0.46110509  1
  I  I49  1  0.66666667  0.33333333  0.96110509  1
  I  I50  1  0.66666667  0.33333333  0.53889491  1
  I  I51  1  0.33333333  0.66666667  0.03889491  1
  I  I52  1  0.83047066  0.66094132  0.60115797  1
  I  I53  1  0.33905868  0.16952934  0.60115797  1
  I  I54  1  0.83047066  0.16952934  0.60115797  1
  I  I55  1  0.16952934  0.33905868  0.10115797  1
  I  I56  1  0.66094132  0.83047066  0.10115797  1
  I  I57  1  0.16952934  0.83047066  0.10115797  1
  I  I58  1  0.66094132  0.83047066  0.39884203  1
  I  I59  1  0.16952934  0.33905868  0.39884203  1
  I  I60  1  0.16952934  0.83047066  0.39884203  1
  I  I61  1  0.33905868  0.16952934  0.89884203  1
  I  I62  1  0.83047066  0.66094132  0.89884203  1
  I  I63  1  0.83047066  0.16952934  0.89884203  1
  I  I64  1  0.67263786  0.00000000  -0.00000000  1
  I  I65  1  0.00000000  0.67263786  0.00000000  1
  I  I66  1  0.32736214  0.32736214  -0.00000000  1
  I  I67  1  0.32736214  0.00000000  0.50000000  1
  I  I68  1  0.00000000  0.32736214  0.50000000  1
  I  I69  1  0.67263786  0.67263786  0.50000000  1
  I  I70  1  0.32736214  0.00000000  -0.00000000  1
  I  I71  1  0.00000000  0.32736214  0.00000000  1
  I  I72  1  0.67263786  0.67263786  -0.00000000  1
  I  I73  1  0.67263786  0.00000000  0.50000000  1
  I  I74  1  0.00000000  0.67263786  0.50000000  1
  I  I75  1  0.32736214  0.32736214  0.50000000  1
  I  I76  1  0.50000000  0.00000000  0.00000000  1
  I  I77  1  0.00000000  0.50000000  0.00000000  1
  I  I78  1  0.50000000  0.50000000  0.00000000  1
  I  I79  1  0.50000000  0.00000000  0.50000000  1
  I  I80  1  0.00000000  0.50000000  0.50000000  1
  I  I81  1  0.50000000  0.50000000  0.50000000  1
  I  I82  1  0.00000000  0.00000000  0.25000000  1
  I  I83  1  0.00000000  0.00000000  0.75000000  1
  P  P84  1  0.15528868  0.00000000  -0.00000000  1
  P  P85  1  0.00000000  0.15528868  0.00000000  1
  P  P86  1  0.84471132  0.84471132  0.00000000  1
  P  P87  1  0.84471132  0.00000000  0.50000000  1
  P  P88  1  0.00000000  0.84471132  0.50000000  1
  P  P89  1  0.15528868  0.15528868  0.50000000  1
  P  P90  1  0.84471132  0.00000000  0.00000000  1
  P  P91  1  0.00000000  0.84471132  0.00000000  1
  P  P92  1  0.15528868  0.15528868  0.00000000  1
  P  P93  1  0.15528868  0.00000000  0.50000000  1
  P  P94  1  0.00000000  0.15528868  0.50000000  1
  P  P95  1  0.84471132  0.84471132  0.50000000  1
  Sb  Sb96  1  0.33333333  0.66666667  0.75000000  1
  Sb  Sb97  1  0.66666667  0.33333333  0.25000000  1
  Sb  Sb98  1  0.20471709  0.40943419  0.25000000  1
  Sb  Sb99  1  0.59056581  0.79528291  0.25000000  1
  Sb  Sb100  1  0.20471709  0.79528291  0.25000000  1
  Sb  Sb101  1  0.79528291  0.59056581  0.75000000  1
  Sb  Sb102  1  0.40943419  0.20471709  0.75000000  1
  Sb  Sb103  1  0.79528291  0.20471709  0.75000000  1
