# generated using pymatgen
data_Li2Te
_symmetry_space_group_name_H-M   'P 1'
_cell_length_a   9.79175316
_cell_length_b   9.79175316
_cell_length_c   11.75174349
_cell_angle_alpha   90.00000000
_cell_angle_beta   90.00000000
_cell_angle_gamma   120.00000000
_symmetry_Int_Tables_number   1
_chemical_formula_structural   Li2Te
_chemical_formula_sum   'Li24 Te12'
_cell_volume   975.78435115
_cell_formula_units_Z   12
loop_
 _symmetry_equiv_pos_site_id
 _symmetry_equiv_pos_as_xyz
  1  'x, y, z'
loop_
 _atom_site_type_symbol
 _atom_site_label
 _atom_site_symmetry_multiplicity
 _atom_site_fract_x
 _atom_site_fract_y
 _atom_site_fract_z
 _atom_site_occupancy
  Li  Li0  1  0.33333333  0.66666667  0.56630634  1
  Li  Li1  1  0.66666667  0.33333333  0.06630634  1
  Li  Li2  1  0.66666667  0.33333333  0.43369366  1
  Li  Li3  1  0.33333333  0.66666667  0.93369366  1
  Li  Li4  1  0.83047015  1.66094029  0.10416530  1
  Li  Li5  1  -1.66094029  -0.83047015  0.10416530  1
  Li  Li6  1  0.83047015  -0.83047015  0.10416530  1
  Li  Li7  1  -0.83047015  -1.66094029  0.60416530  1
  Li  Li8  1  1.66094029  0.83047015  0.60416530  1
  Li  Li9  1  -0.83047015  0.83047015  0.60416530  1
  Li  Li10  1  1.66094029  0.83047015  -0.10416530  1
  Li  Li11  1  -0.83047015  -1.66094029  -0.10416530  1
  Li  Li12  1  -0.83047015  0.83047015  -0.10416530  1
  Li  Li13  1  -1.66094029  -0.83047015  0.39583470  1
  Li  Li14  1  0.83047015  1.66094029  0.39583470  1
  Li  Li15  1  0.83047015  -0.83047015  0.39583470  1
  Li  Li16  1  0.50000000  -0.00000000  0.00000000  1
  Li  Li17  1  0.00000000  0.50000000  0.00000000  1
  Li  Li18  1  0.50000000  0.50000000  0.00000000  1
  Li  Li19  1  0.50000000  -0.00000000  0.50000000  1
  Li  Li20  1  0.00000000  0.50000000  0.50000000  1
  Li  Li21  1  0.50000000  0.50000000  0.50000000  1
  Li  Li22  1  0.33333333  0.66666667  0.75000000  1
  Li  Li23  1  0.66666667  0.33333333  0.25000000  1
  Te  Te24  1  0.33333333  0.66666667  0.38818462  1
  Te  Te25  1  0.66666667  0.33333333  0.88818462  1
  Te  Te26  1  0.66666667  0.33333333  0.61181538  1
  Te  Te27  1  0.33333333  0.66666667  0.11181538  1
  Te  Te28  1  0.18421248  0.36842496  0.25000000  1
  Te  Te29  1  0.63157504  0.81578752  0.25000000  1
  Te  Te30  1  0.18421248  0.81578752  0.25000000  1
  Te  Te31  1  0.81578752  0.63157504  0.75000000  1
  Te  Te32  1  0.36842496  0.18421248  0.75000000  1
  Te  Te33  1  0.81578752  0.18421248  0.75000000  1
  Te  Te34  1  0.00000000  0.00000000  0.00000000  1
  Te  Te35  1  0.00000000  0.00000000  0.50000000  1
