# generated using pymatgen
data_Li2Zr2S3Cl4
_symmetry_space_group_name_H-M   'P 1'
_cell_length_a   7.96428335
_cell_length_b   7.96428335
_cell_length_c   21.72590993
_cell_angle_alpha   90.00000000
_cell_angle_beta   90.00000000
_cell_angle_gamma   120.00000000
_symmetry_Int_Tables_number   1
_chemical_formula_structural   Li2Zr2S3Cl4
_chemical_formula_sum   'Li12 Zr12 S18 Cl24'
_cell_volume   1193.44390842
_cell_formula_units_Z   6
loop_
 _symmetry_equiv_pos_site_id
 _symmetry_equiv_pos_as_xyz
  1  'x, y, z'
loop_
 _atom_site_type_symbol
 _atom_site_label
 _atom_site_symmetry_multiplicity
 _atom_site_fract_x
 _atom_site_fract_y
 _atom_site_fract_z
 _atom_site_occupancy
  Cl  Cl0  1  0.02572272  0.70924293  0.38135823  1
  Cl  Cl1  1  -0.70924293  -0.68352021  0.38135823  1
  Cl  Cl2  1  0.68352021  -0.02572272  0.38135823  1
  Cl  Cl3  1  -0.02572272  -0.70924293  0.88135823  1
  Cl  Cl4  1  0.70924293  0.68352021  0.88135823  1
  Cl  Cl5  1  -0.68352021  0.02572272  0.88135823  1
  Cl  Cl6  1  0.70924293  0.02572272  -0.38135823  1
  Cl  Cl7  1  -0.68352021  -0.70924293  -0.38135823  1
  Cl  Cl8  1  -0.02572272  0.68352021  -0.38135823  1
  Cl  Cl9  1  -0.70924293  -0.02572272  0.11864177  1
  Cl  Cl10  1  0.68352021  0.70924293  0.11864177  1
  Cl  Cl11  1  0.02572272  -0.68352021  0.11864177  1
  Cl  Cl12  1  -0.02572272  -0.70924293  -0.38135823  1
  Cl  Cl13  1  0.70924293  0.68352021  -0.38135823  1
  Cl  Cl14  1  -0.68352021  0.02572272  -0.38135823  1
  Cl  Cl15  1  0.02572272  0.70924293  0.11864177  1
  Cl  Cl16  1  -0.70924293  -0.68352021  0.11864177  1
  Cl  Cl17  1  0.68352021  -0.02572272  0.11864177  1
  Cl  Cl18  1  -0.70924293  -0.02572272  0.38135823  1
  Cl  Cl19  1  0.68352021  0.70924293  0.38135823  1
  Cl  Cl20  1  0.02572272  -0.68352021  0.38135823  1
  Cl  Cl21  1  0.70924293  0.02572272  0.88135823  1
  Cl  Cl22  1  -0.68352021  -0.70924293  0.88135823  1
  Cl  Cl23  1  -0.02572272  0.68352021  0.88135823  1
  Li  Li24  1  0.12359322  0.64893073  0.25000000  1
  Li  Li25  1  0.35106927  0.47466249  0.25000000  1
  Li  Li26  1  0.52533751  0.87640678  0.25000000  1
  Li  Li27  1  0.87640678  0.35106927  0.75000000  1
  Li  Li28  1  0.64893073  0.52533751  0.75000000  1
  Li  Li29  1  0.47466249  0.12359322  0.75000000  1
  Li  Li30  1  0.64893073  0.12359322  0.75000000  1
  Li  Li31  1  0.47466249  0.35106927  0.75000000  1
  Li  Li32  1  0.87640678  0.52533751  0.75000000  1
  Li  Li33  1  0.35106927  0.87640678  0.25000000  1
  Li  Li34  1  0.52533751  0.64893073  0.25000000  1
  Li  Li35  1  0.12359322  0.47466249  0.25000000  1
  S  S36  1  0.33333333  0.66666667  0.42266541  1
  S  S37  1  0.66666667  0.33333333  0.92266541  1
  S  S38  1  0.66666667  0.33333333  0.57733459  1
  S  S39  1  0.33333333  0.66666667  0.07733459  1
  S  S40  1  0.22689372  0.45378744  0.41385971  1
  S  S41  1  0.54621256  0.77310628  0.41385971  1
  S  S42  1  0.22689372  0.77310628  0.41385971  1
  S  S43  1  0.77310628  0.54621256  0.91385971  1
  S  S44  1  0.45378744  0.22689372  0.91385971  1
  S  S45  1  0.77310628  0.22689372  0.91385971  1
  S  S46  1  0.45378744  0.22689372  0.58614029  1
  S  S47  1  0.77310628  0.54621256  0.58614029  1
  S  S48  1  0.77310628  0.22689372  0.58614029  1
  S  S49  1  0.54621256  0.77310628  0.08614029  1
  S  S50  1  0.22689372  0.45378744  0.08614029  1
  S  S51  1  0.22689372  0.77310628  0.08614029  1
  S  S52  1  0.00000000  0.00000000  0.00000000  1
  S  S53  1  0.00000000  0.00000000  0.50000000  1
  Zr  Zr54  1  0.33333333  0.66666667  0.59015684  1
  Zr  Zr55  1  0.66666667  0.33333333  0.09015684  1
  Zr  Zr56  1  0.66666667  0.33333333  0.40984316  1
  Zr  Zr57  1  0.33333333  0.66666667  0.90984316  1
  Zr  Zr58  1  0.50000000  -0.00000000  -0.00000000  1
  Zr  Zr59  1  0.00000000  0.50000000  0.00000000  1
  Zr  Zr60  1  0.50000000  0.50000000  0.00000000  1
  Zr  Zr61  1  0.50000000  -0.00000000  0.50000000  1
  Zr  Zr62  1  0.00000000  0.50000000  0.50000000  1
  Zr  Zr63  1  0.50000000  0.50000000  0.50000000  1
  Zr  Zr64  1  0.33333333  0.66666667  0.25000000  1
  Zr  Zr65  1  0.66666667  0.33333333  0.75000000  1
