# generated using pymatgen
data_Li6SI4
_symmetry_space_group_name_H-M   'P 1'
_cell_length_a   4.98175254
_cell_length_b   4.98175254
_cell_length_c   8.71717243
_cell_angle_alpha   90.00000000
_cell_angle_beta   90.00000000
_cell_angle_gamma   120.00000000
_symmetry_Int_Tables_number   1
_chemical_formula_structural   Li6SI4
_chemical_formula_sum   'Li6 S1 I4'
_cell_volume   187.35727860
_cell_formula_units_Z   1
loop_
 _symmetry_equiv_pos_site_id
 _symmetry_equiv_pos_as_xyz
  1  'x, y, z'
loop_
 _atom_site_type_symbol
 _atom_site_label
 _atom_site_symmetry_multiplicity
 _atom_site_fract_x
 _atom_site_fract_y
 _atom_site_fract_z
 _atom_site_occupancy
  I  I0  1  0.33333333  0.66666667  0.50000000  1
  I  I1  1  0.66666667  0.33333333  0.50000000  1
  I  I2  1  0.33333333  0.66666667  0.00000000  1
  I  I3  1  0.66666667  0.33333333  0.00000000  1
  Li  Li4  1  0.75321799  0.00000000  0.50000000  1
  Li  Li5  1  0.00000000  0.75321799  0.50000000  1
  Li  Li6  1  -0.75321799  -0.75321799  0.50000000  1
  Li  Li7  1  0.64611481  -0.00000000  0.00000000  1
  Li  Li8  1  0.00000000  0.64611481  0.00000000  1
  Li  Li9  1  0.35388519  0.35388519  0.00000000  1
  S  S10  1  0.00000000  0.00000000  0.00000000  1
