# generated using pymatgen
data_Li2PrAlSb5O2
_symmetry_space_group_name_H-M   'P 1'
_cell_length_a   8.38910384
_cell_length_b   7.23831437
_cell_length_c   6.92644661
_cell_angle_alpha   90.00000000
_cell_angle_beta   90.00000000
_cell_angle_gamma   90.00000000
_symmetry_Int_Tables_number   1
_chemical_formula_structural   Li2PrAlSb5O2
_chemical_formula_sum   'Li2 Pr1 Al1 Sb5 O2'
_cell_volume   420.59441588
_cell_formula_units_Z   1
loop_
 _symmetry_equiv_pos_site_id
 _symmetry_equiv_pos_as_xyz
  1  'x, y, z'
loop_
 _atom_site_type_symbol
 _atom_site_label
 _atom_site_symmetry_multiplicity
 _atom_site_fract_x
 _atom_site_fract_y
 _atom_site_fract_z
 _atom_site_occupancy
  Li  Li0  1  0.12500000  0.12500000  0.12500000  1
  Li  Li1  1  0.50000000  0.50000000  0.50000000  1
  Al  Al2  1  0.25000000  0.25000000  0.25000000  1
  O  O3  1  0.75000000  0.75000000  0.75000000  1
  O  O4  1  0.42068781  0.09681075  0.88226046  1
  Sb  Sb5  1  0.34525466  0.30476201  0.17005501  1
  Sb  Sb6  1  0.94251611  0.07579602  0.16193357  1
  Sb  Sb7  1  0.70299023  0.74231226  0.91378943  1
  Sb  Sb8  1  0.26002814  0.96889058  0.06230637  1
  Sb  Sb9  1  0.90385612  0.21709301  0.28600438  1
  Pr  Pr10  1  0.43193065  0.51806412  0.97385791  1
