# generated using pymatgen
data_Li5Mn3Sb2Se2N5
_symmetry_space_group_name_H-M   'P 1'
_cell_length_a   8.98843640
_cell_length_b   10.00288476
_cell_length_c   10.35914993
_cell_angle_alpha   90.00000000
_cell_angle_beta   90.00000000
_cell_angle_gamma   90.00000000
_symmetry_Int_Tables_number   1
_chemical_formula_structural   Li5Mn3Sb2Se2N5
_chemical_formula_sum   'Li5 Mn3 Sb2 Se2 N5'
_cell_volume   931.39421006
_cell_formula_units_Z   1
loop_
 _symmetry_equiv_pos_site_id
 _symmetry_equiv_pos_as_xyz
  1  'x, y, z'
loop_
 _atom_site_type_symbol
 _atom_site_label
 _atom_site_symmetry_multiplicity
 _atom_site_fract_x
 _atom_site_fract_y
 _atom_site_fract_z
 _atom_site_occupancy
  Li  Li0  1  0.00000000  0.00000000  0.00000000  1
  Li  Li1  1  0.50000000  0.50000000  0.50000000  1
  Li  Li2  1  0.25000000  0.25000000  0.25000000  1
  Li  Li3  1  0.75000000  0.25000000  0.00000000  1
  Li  Li4  1  0.25000000  0.75000000  0.50000000  1
  Mn  Mn5  1  0.54958820  0.51101859  0.64788998  1
  Mn  Mn6  1  0.86774549  0.71606364  0.82768068  1
  Mn  Mn7  1  0.89418824  0.16148667  0.78858108  1
  N  N8  1  0.37993922  0.81635587  0.59081570  1
  N  N9  1  0.38681889  0.40910721  0.14118538  1
  N  N10  1  0.22054923  0.18706278  0.30488654  1
  N  N11  1  0.53877171  0.58310363  0.50179815  1
  N  N12  1  0.64814257  0.91789426  0.17489519  1
  Sb  Sb13  1  0.98095456  0.10749191  0.85218824  1
  Sb  Sb14  1  0.90485818  0.12183620  0.05440711  1
  Se  Se15  1  0.96092199  0.33114004  0.52254333  1
  Se  Se16  1  0.84029100  0.26505581  0.55452471  1
