# generated using pymatgen
data_LiCl
_symmetry_space_group_name_H-M   'P 1'
_cell_length_a   8.20960511
_cell_length_b   4.83426505
_cell_length_c   6.27167448
_cell_angle_alpha   90.00000000
_cell_angle_beta   90.00000000
_cell_angle_gamma   90.00000000
_symmetry_Int_Tables_number   1
_chemical_formula_structural   LiCl
_chemical_formula_sum   'Li6 Cl6'
_cell_volume   248.90649787
_cell_formula_units_Z   6
loop_
 _symmetry_equiv_pos_site_id
 _symmetry_equiv_pos_as_xyz
  1  'x, y, z'
loop_
 _atom_site_type_symbol
 _atom_site_label
 _atom_site_symmetry_multiplicity
 _atom_site_fract_x
 _atom_site_fract_y
 _atom_site_fract_z
 _atom_site_occupancy
  Cl  Cl0  1  0.00000000  0.50000000  0.50000000  1
  Cl  Cl1  1  0.50000000  0.00000000  0.50000000  1
  Cl  Cl2  1  0.41217838  0.25415525  0.50000000  1
  Cl  Cl3  1  -0.41217838  -0.25415525  0.50000000  1
  Cl  Cl4  1  0.08782162  0.75415525  0.50000000  1
  Cl  Cl5  1  0.91217838  0.24584475  0.50000000  1
  Li  Li6  1  0.97036960  0.31264022  0.00000000  1
  Li  Li7  1  0.02963040  0.68735978  0.00000000  1
  Li  Li8  1  0.52963040  0.81264022  -0.00000000  1
  Li  Li9  1  0.47036960  0.18735978  -0.00000000  1
  Li  Li10  1  0.00000000  0.00000000  0.00000000  1
  Li  Li11  1  0.50000000  0.50000000  -0.00000000  1
