# generated using pymatgen
data_Li3Al(IO)2
_symmetry_space_group_name_H-M   'P 1'
_cell_length_a   9.20720762
_cell_length_b   9.20720762
_cell_length_c   33.09552608
_cell_angle_alpha   90.00000000
_cell_angle_beta   90.00000000
_cell_angle_gamma   90.00000000
_symmetry_Int_Tables_number   1
_chemical_formula_structural   Li3Al(IO)2
_chemical_formula_sum   'Li48 Al16 I32 O32'
_cell_volume   2805.59618080
_cell_formula_units_Z   16
loop_
 _symmetry_equiv_pos_site_id
 _symmetry_equiv_pos_as_xyz
  1  'x, y, z'
loop_
 _atom_site_type_symbol
 _atom_site_label
 _atom_site_symmetry_multiplicity
 _atom_site_fract_x
 _atom_site_fract_y
 _atom_site_fract_z
 _atom_site_occupancy
  Al  Al0  1  0.48938718  -0.00000000  0.25000000  1
  Al  Al1  1  0.01061282  0.00000000  0.75000000  1
  Al  Al2  1  0.25000000  0.23938718  0.50000000  1
  Al  Al3  1  0.25000000  0.76061282  0.00000000  1
  Al  Al4  1  0.51061282  0.00000000  0.75000000  1
  Al  Al5  1  0.98938718  0.00000000  0.25000000  1
  Al  Al6  1  0.75000000  0.76061282  0.50000000  1
  Al  Al7  1  0.75000000  0.23938718  -0.00000000  1
  Al  Al8  1  0.98938718  0.50000000  0.75000000  1
  Al  Al9  1  0.51061282  0.50000000  0.25000000  1
  Al  Al10  1  0.75000000  0.73938718  -0.00000000  1
  Al  Al11  1  0.75000000  0.26061282  0.50000000  1
  Al  Al12  1  0.01061282  0.50000000  0.25000000  1
  Al  Al13  1  0.48938718  0.50000000  0.75000000  1
  Al  Al14  1  0.25000000  0.26061282  -0.00000000  1
  Al  Al15  1  0.25000000  0.73938718  0.50000000  1
  I  I16  1  0.00000000  0.25000000  0.37500000  1
  I  I17  1  0.00000000  0.75000000  0.62500000  1
  I  I18  1  0.50000000  0.25000000  0.62500000  1
  I  I19  1  0.50000000  0.75000000  0.37500000  1
  I  I20  1  0.50000000  0.75000000  0.87500000  1
  I  I21  1  0.50000000  0.25000000  0.12500000  1
  I  I22  1  0.00000000  0.75000000  0.12500000  1
  I  I23  1  0.00000000  0.25000000  0.87500000  1
  I  I24  1  0.00000000  0.25000000  0.12500000  1
  I  I25  1  0.00000000  0.75000000  0.37500000  1
  I  I26  1  0.00000000  0.75000000  0.87500000  1
  I  I27  1  0.00000000  0.25000000  0.62500000  1
  I  I28  1  0.50000000  0.75000000  0.62500000  1
  I  I29  1  0.50000000  0.25000000  0.87500000  1
  I  I30  1  0.50000000  0.25000000  0.37500000  1
  I  I31  1  0.50000000  0.75000000  0.12500000  1
  I  I32  1  0.00000000  0.25000000  0.02756198  1
  I  I33  1  0.00000000  0.75000000  0.27756198  1
  I  I34  1  0.50000000  0.25000000  0.97243802  1
  I  I35  1  0.50000000  0.75000000  0.72243802  1
  I  I36  1  0.00000000  0.75000000  0.97243802  1
  I  I37  1  0.00000000  0.25000000  0.72243802  1
  I  I38  1  0.50000000  0.75000000  0.02756198  1
  I  I39  1  0.50000000  0.25000000  0.27756198  1
  I  I40  1  0.50000000  0.75000000  0.52756198  1
  I  I41  1  0.50000000  0.25000000  0.77756198  1
  I  I42  1  0.00000000  0.75000000  0.47243802  1
  I  I43  1  0.00000000  0.25000000  0.22243802  1
  I  I44  1  0.50000000  0.25000000  0.47243802  1
  I  I45  1  0.50000000  0.75000000  0.22243802  1
  I  I46  1  0.00000000  0.25000000  0.52756198  1
  I  I47  1  0.00000000  0.75000000  0.77756198  1
  Li  Li48  1  0.27197189  0.70776144  0.81566628  1
  Li  Li49  1  0.22802811  -0.70776144  1.31566628  1
  Li  Li50  1  -0.45776144  1.02197189  1.06566628  1
  Li  Li51  1  0.95776144  -0.02197189  1.56566628  1
  Li  Li52  1  0.22802811  0.70776144  -0.81566628  1
  Li  Li53  1  0.27197189  -0.70776144  -0.31566628  1
  Li  Li54  1  0.95776144  1.02197189  -0.06566628  1
  Li  Li55  1  -0.45776144  -0.02197189  -0.56566628  1
  Li  Li56  1  -0.27197189  -0.70776144  -0.81566628  1
  Li  Li57  1  0.77197189  0.70776144  -0.31566628  1
  Li  Li58  1  1.45776144  -0.02197189  -0.06566628  1
  Li  Li59  1  0.04223856  1.02197189  -0.56566628  1
  Li  Li60  1  0.77197189  -0.70776144  0.81566628  1
  Li  Li61  1  -0.27197189  0.70776144  1.31566628  1
  Li  Li62  1  0.04223856  -0.02197189  1.06566628  1
  Li  Li63  1  1.45776144  1.02197189  1.56566628  1
  Li  Li64  1  0.77197189  1.20776144  1.31566628  1
  Li  Li65  1  0.72802811  -0.20776144  1.81566628  1
  Li  Li66  1  0.04223856  1.52197189  1.56566628  1
  Li  Li67  1  1.45776144  0.47802811  2.06566628  1
  Li  Li68  1  0.72802811  1.20776144  -0.31566628  1
  Li  Li69  1  0.77197189  -0.20776144  0.18433372  1
  Li  Li70  1  1.45776144  1.52197189  0.43433372  1
  Li  Li71  1  0.04223856  0.47802811  -0.06566628  1
  Li  Li72  1  0.22802811  -0.20776144  -0.31566628  1
  Li  Li73  1  1.27197189  1.20776144  0.18433372  1
  Li  Li74  1  1.95776144  0.47802811  0.43433372  1
  Li  Li75  1  0.54223856  1.52197189  -0.06566628  1
  Li  Li76  1  1.27197189  -0.20776144  1.31566628  1
  Li  Li77  1  0.22802811  1.20776144  1.81566628  1
  Li  Li78  1  0.54223856  0.47802811  1.56566628  1
  Li  Li79  1  1.95776144  1.52197189  2.06566628  1
  Li  Li80  1  0.22987213  0.47987213  0.12500000  1
  Li  Li81  1  0.27012787  0.52012787  0.62500000  1
  Li  Li82  1  0.77012787  0.97987213  0.37500000  1
  Li  Li83  1  0.72987213  0.02012787  0.87500000  1
  Li  Li84  1  0.77012787  0.52012787  0.87500000  1
  Li  Li85  1  0.72987213  0.47987213  0.37500000  1
  Li  Li86  1  0.22987213  0.02012787  0.62500000  1
  Li  Li87  1  0.27012787  0.97987213  0.12500000  1
  Li  Li88  1  0.72987213  0.97987213  0.62500000  1
  Li  Li89  1  0.77012787  0.02012787  0.12500000  1
  Li  Li90  1  0.27012787  0.47987213  0.87500000  1
  Li  Li91  1  0.22987213  0.52012787  0.37500000  1
  Li  Li92  1  0.27012787  0.02012787  0.37500000  1
  Li  Li93  1  0.22987213  0.97987213  0.87500000  1
  Li  Li94  1  0.72987213  0.52012787  0.12500000  1
  Li  Li95  1  0.77012787  0.47987213  0.62500000  1
  O  O96  1  0.29782841  0.00000000  0.25000000  1
  O  O97  1  0.20217159  0.00000000  0.75000000  1
  O  O98  1  0.25000000  0.04782841  0.50000000  1
  O  O99  1  0.25000000  0.95217159  0.00000000  1
  O  O100  1  0.70217159  0.00000000  0.75000000  1
  O  O101  1  0.79782841  0.00000000  0.25000000  1
  O  O102  1  0.75000000  0.95217159  0.50000000  1
  O  O103  1  0.75000000  0.04782841  -0.00000000  1
  O  O104  1  0.79782841  0.50000000  0.75000000  1
  O  O105  1  0.70217159  0.50000000  0.25000000  1
  O  O106  1  0.75000000  0.54782841  0.00000000  1
  O  O107  1  0.75000000  0.45217159  0.50000000  1
  O  O108  1  0.20217159  0.50000000  0.25000000  1
  O  O109  1  0.29782841  0.50000000  0.75000000  1
  O  O110  1  0.25000000  0.45217159  -0.00000000  1
  O  O111  1  0.25000000  0.54782841  0.50000000  1
  O  O112  1  0.00000000  0.00000000  0.00000000  1
  O  O113  1  0.50000000  0.00000000  0.50000000  1
  O  O114  1  0.25000000  0.75000000  0.25000000  1
  O  O115  1  0.25000000  0.25000000  0.75000000  1
  O  O116  1  0.50000000  0.00000000  0.00000000  1
  O  O117  1  0.00000000  0.00000000  0.50000000  1
  O  O118  1  0.25000000  0.75000000  0.75000000  1
  O  O119  1  0.25000000  0.25000000  0.25000000  1
  O  O120  1  0.50000000  0.50000000  0.50000000  1
  O  O121  1  0.00000000  0.50000000  0.00000000  1
  O  O122  1  0.75000000  0.25000000  0.75000000  1
  O  O123  1  0.75000000  0.75000000  0.25000000  1
  O  O124  1  0.00000000  0.50000000  0.50000000  1
  O  O125  1  0.50000000  0.50000000  0.00000000  1
  O  O126  1  0.75000000  0.25000000  0.25000000  1
  O  O127  1  0.75000000  0.75000000  0.75000000  1
