# generated using pymatgen
data_LiBBr2O
_symmetry_space_group_name_H-M   'P 1'
_cell_length_a   4.94155184
_cell_length_b   12.00576740
_cell_length_c   11.86942760
_cell_angle_alpha   90.00000000
_cell_angle_beta   90.00000000
_cell_angle_gamma   90.00000000
_symmetry_Int_Tables_number   1
_chemical_formula_structural   LiBBr2O
_chemical_formula_sum   'Li8 B8 Br16 O8'
_cell_volume   704.17897882
_cell_formula_units_Z   8
loop_
 _symmetry_equiv_pos_site_id
 _symmetry_equiv_pos_as_xyz
  1  'x, y, z'
loop_
 _atom_site_type_symbol
 _atom_site_label
 _atom_site_symmetry_multiplicity
 _atom_site_fract_x
 _atom_site_fract_y
 _atom_site_fract_z
 _atom_site_occupancy
  B  B0  1  0.95114289  0.25000000  0.88097252  1
  B  B1  1  0.54885711  0.75000000  0.38097252  1
  B  B2  1  0.04885711  0.75000000  0.11902748  1
  B  B3  1  0.45114289  0.25000000  0.61902748  1
  B  B4  1  0.00000000  0.00000000  0.00000000  1
  B  B5  1  0.50000000  0.00000000  0.50000000  1
  B  B6  1  0.00000000  0.50000000  -0.00000000  1
  B  B7  1  0.50000000  0.50000000  0.50000000  1
  Br  Br8  1  0.26060999  0.25000000  0.28814589  1
  Br  Br9  1  0.23939001  0.75000000  0.78814589  1
  Br  Br10  1  0.73939001  0.75000000  0.71185411  1
  Br  Br11  1  0.76060999  0.25000000  0.21185411  1
  Br  Br12  1  0.03170846  0.97712809  0.28479441  1
  Br  Br13  1  0.46829154  0.02287191  0.78479441  1
  Br  Br14  1  0.96829154  0.47712809  0.71520559  1
  Br  Br15  1  0.53170846  0.52287191  0.21520559  1
  Br  Br16  1  0.96829154  0.02287191  0.71520559  1
  Br  Br17  1  0.53170846  0.97712809  0.21520559  1
  Br  Br18  1  0.03170846  0.52287191  0.28479441  1
  Br  Br19  1  0.46829154  0.47712809  0.78479441  1
  Br  Br20  1  0.86305295  0.25000000  0.48597176  1
  Br  Br21  1  0.63694705  0.75000000  0.98597176  1
  Br  Br22  1  0.13694705  0.75000000  0.51402824  1
  Br  Br23  1  0.36305295  0.25000000  0.01402824  1
  Li  Li24  1  0.66557859  0.41927935  0.19197552  1
  Li  Li25  1  0.83442141  0.58072065  0.69197552  1
  Li  Li26  1  0.33442141  0.91927935  0.80802448  1
  Li  Li27  1  0.16557859  0.08072065  0.30802448  1
  Li  Li28  1  0.33442141  0.58072065  0.80802448  1
  Li  Li29  1  0.16557859  0.41927935  0.30802448  1
  Li  Li30  1  0.66557859  0.08072065  0.19197552  1
  Li  Li31  1  0.83442141  0.91927935  0.69197552  1
  O  O32  1  0.53118629  0.04353184  0.98079798  1
  O  O33  1  -0.03118629  -0.04353184  1.48079798  1
  O  O34  1  -0.53118629  0.54353184  -0.98079798  1
  O  O35  1  1.03118629  0.45646816  -0.48079798  1
  O  O36  1  -0.53118629  -0.04353184  -0.98079798  1
  O  O37  1  1.03118629  0.04353184  -0.48079798  1
  O  O38  1  0.53118629  0.45646816  0.98079798  1
  O  O39  1  -0.03118629  0.54353184  1.48079798  1
