# generated using pymatgen
data_LiNdTi3Se8NO
_symmetry_space_group_name_H-M   'P 1'
_cell_length_a   8.57568299
_cell_length_b   9.89480967
_cell_length_c   9.43083432
_cell_angle_alpha   90.00000000
_cell_angle_beta   90.00000000
_cell_angle_gamma   90.00000000
_symmetry_Int_Tables_number   1
_chemical_formula_structural   LiNdTi3Se8NO
_chemical_formula_sum   'Li1 Nd1 Ti3 Se8 N1 O1'
_cell_volume   800.25109753
_cell_formula_units_Z   1
loop_
 _symmetry_equiv_pos_site_id
 _symmetry_equiv_pos_as_xyz
  1  'x, y, z'
loop_
 _atom_site_type_symbol
 _atom_site_label
 _atom_site_symmetry_multiplicity
 _atom_site_fract_x
 _atom_site_fract_y
 _atom_site_fract_z
 _atom_site_occupancy
  Li  Li0  1  0.00000000  0.00000000  0.00000000  1
  Ti  Ti1  1  0.50000000  0.50000000  0.50000000  1
  Ti  Ti2  1  0.25000000  0.25000000  0.25000000  1
  Ti  Ti3  1  0.75000000  0.25000000  0.00000000  1
  Se  Se4  1  0.25000000  0.75000000  0.50000000  1
  Se  Se5  1  0.90393602  0.08141291  0.53249845  1
  Se  Se6  1  0.17675139  0.10442602  0.98927275  1
  Se  Se7  1  0.19039383  0.23750771  0.50828378  1
  Se  Se8  1  0.38244867  0.82326831  0.34068644  1
  Se  Se9  1  0.91768027  0.46337971  0.31449915  1
  Se  Se10  1  0.56003118  0.57773786  0.15787394  1
  Se  Se11  1  0.62718625  0.21632506  0.75201343  1
  N  N12  1  0.19435084  0.72823668  0.50589647  1
  O  O13  1  0.35131245  0.12257193  0.84213120  1
  Nd  Nd14  1  0.86541612  0.49740514  0.54112732  1
