# generated using pymatgen
data_NaLiTe
_symmetry_space_group_name_H-M   'P 1'
_cell_length_a   11.02786505
_cell_length_b   8.42533491
_cell_length_c   13.82329083
_cell_angle_alpha   90.00000000
_cell_angle_beta   90.00000000
_cell_angle_gamma   90.00000000
_symmetry_Int_Tables_number   1
_chemical_formula_structural   NaLiTe
_chemical_formula_sum   'Na16 Li16 Te16'
_cell_volume   1284.36972873
_cell_formula_units_Z   16
loop_
 _symmetry_equiv_pos_site_id
 _symmetry_equiv_pos_as_xyz
  1  'x, y, z'
loop_
 _atom_site_type_symbol
 _atom_site_label
 _atom_site_symmetry_multiplicity
 _atom_site_fract_x
 _atom_site_fract_y
 _atom_site_fract_z
 _atom_site_occupancy
  Li  Li0  1  0.28196351  0.28848990  0.63002072  1
  Li  Li1  1  0.71803649  0.71151010  0.63002072  1
  Li  Li2  1  0.21803649  0.78848990  0.36997928  1
  Li  Li3  1  0.78196351  0.21151010  0.36997928  1
  Li  Li4  1  0.71803649  0.71151010  0.36997928  1
  Li  Li5  1  0.28196351  0.28848990  0.36997928  1
  Li  Li6  1  0.78196351  0.21151010  0.63002072  1
  Li  Li7  1  0.21803649  0.78848990  0.63002072  1
  Li  Li8  1  0.34501689  0.52466334  0.57558468  1
  Li  Li9  1  0.65498311  0.47533666  0.57558468  1
  Li  Li10  1  0.15498311  0.02466334  0.42441532  1
  Li  Li11  1  0.84501689  0.97533666  0.42441532  1
  Li  Li12  1  0.65498311  0.47533666  0.42441532  1
  Li  Li13  1  0.34501689  0.52466334  0.42441532  1
  Li  Li14  1  0.84501689  0.97533666  0.57558468  1
  Li  Li15  1  0.15498311  0.02466334  0.57558468  1
  Na  Na16  1  0.50510205  0.80504598  0.25291996  1
  Na  Na17  1  0.49489795  0.19495402  0.25291996  1
  Na  Na18  1  0.99489795  0.30504598  0.74708004  1
  Na  Na19  1  0.00510205  0.69495402  0.74708004  1
  Na  Na20  1  0.49489795  0.19495402  0.74708004  1
  Na  Na21  1  0.50510205  0.80504598  0.74708004  1
  Na  Na22  1  0.00510205  0.69495402  0.25291996  1
  Na  Na23  1  0.99489795  0.30504598  0.25291996  1
  Na  Na24  1  0.99434748  0.28227968  0.12972276  1
  Na  Na25  1  0.00565252  0.71772032  0.12972276  1
  Na  Na26  1  0.50565252  0.78227968  0.87027724  1
  Na  Na27  1  0.49434748  0.21772032  0.87027724  1
  Na  Na28  1  0.00565252  0.71772032  0.87027724  1
  Na  Na29  1  0.99434748  0.28227968  0.87027724  1
  Na  Na30  1  0.49434748  0.21772032  0.12972276  1
  Na  Na31  1  0.50565252  0.78227968  0.12972276  1
  Te  Te32  1  0.15300014  0.90488955  0.90664416  1
  Te  Te33  1  -0.15300014  -0.90488955  0.90664416  1
  Te  Te34  1  0.34699986  1.40488955  -0.90664416  1
  Te  Te35  1  0.65300014  -0.40488955  -0.90664416  1
  Te  Te36  1  -0.15300014  -0.90488955  -0.90664416  1
  Te  Te37  1  0.15300014  0.90488955  -0.90664416  1
  Te  Te38  1  0.65300014  -0.40488955  0.90664416  1
  Te  Te39  1  0.34699986  1.40488955  0.90664416  1
  Te  Te40  1  0.60017946  0.69936855  0.41684631  1
  Te  Te41  1  0.39982054  0.30063145  0.41684631  1
  Te  Te42  1  0.89982054  0.19936855  0.58315369  1
  Te  Te43  1  0.10017946  0.80063145  0.58315369  1
  Te  Te44  1  0.39982054  0.30063145  0.58315369  1
  Te  Te45  1  0.60017946  0.69936855  0.58315369  1
  Te  Te46  1  0.10017946  0.80063145  0.41684631  1
  Te  Te47  1  0.89982054  0.19936855  0.41684631  1
