# generated using pymatgen
data_LiLaAlGeBr
_symmetry_space_group_name_H-M   'P 1'
_cell_length_a   12.19600163
_cell_length_b   12.03874967
_cell_length_c   14.46950903
_cell_angle_alpha   90.00000000
_cell_angle_beta   90.00000000
_cell_angle_gamma   90.00000000
_symmetry_Int_Tables_number   1
_chemical_formula_structural   LiLaAlGeBr
_chemical_formula_sum   'Li1 La1 Al1 Ge1 Br1'
_cell_volume   2124.48003073
_cell_formula_units_Z   1
loop_
 _symmetry_equiv_pos_site_id
 _symmetry_equiv_pos_as_xyz
  1  'x, y, z'
loop_
 _atom_site_type_symbol
 _atom_site_label
 _atom_site_symmetry_multiplicity
 _atom_site_fract_x
 _atom_site_fract_y
 _atom_site_fract_z
 _atom_site_occupancy
  Li  Li0  1  0.12500000  0.00000000  0.25000000  1
  La  La1  1  0.00000000  0.00000000  0.00000000  1
  Al  Al2  1  0.37500000  0.00000000  0.25000000  1
  Ge  Ge3  1  0.25000000  0.25000000  0.25000000  1
  Br  Br4  1  0.00000000  0.25000000  0.12500000  1
