# generated using pymatgen
data_Li2TiTe2O
_symmetry_space_group_name_H-M   'P 1'
_cell_length_a   9.13826182
_cell_length_b   10.06027680
_cell_length_c   11.32936125
_cell_angle_alpha   90.00000000
_cell_angle_beta   90.00000000
_cell_angle_gamma   90.00000000
_symmetry_Int_Tables_number   1
_chemical_formula_structural   Li2TiTe2O
_chemical_formula_sum   'Li16 Ti8 Te16 O8'
_cell_volume   1041.54719125
_cell_formula_units_Z   8
loop_
 _symmetry_equiv_pos_site_id
 _symmetry_equiv_pos_as_xyz
  1  'x, y, z'
loop_
 _atom_site_type_symbol
 _atom_site_label
 _atom_site_symmetry_multiplicity
 _atom_site_fract_x
 _atom_site_fract_y
 _atom_site_fract_z
 _atom_site_occupancy
  Li  Li0  1  0.00000000  0.00000000  0.00000000  1
  Li  Li1  1  0.50000000  0.50000000  0.50000000  1
  Li  Li2  1  0.15164823  0.43877000  0.43414876  1
  Li  Li3  1  -0.15164823  -0.43877000  0.43414876  1
  Li  Li4  1  0.34835177  0.93877000  0.06585124  1
  Li  Li5  1  0.65164823  0.06123000  0.06585124  1
  Li  Li6  1  -0.15164823  -0.43877000  -0.43414876  1
  Li  Li7  1  0.15164823  0.43877000  -0.43414876  1
  Li  Li8  1  0.65164823  0.06123000  0.93414876  1
  Li  Li9  1  0.34835177  0.93877000  0.93414876  1
  Li  Li10  1  0.00000000  0.50000000  0.00000000  1
  Li  Li11  1  0.50000000  0.00000000  0.50000000  1
  Li  Li12  1  0.86108895  0.66631175  -0.00000000  1
  Li  Li13  1  0.13891105  0.33368825  0.00000000  1
  Li  Li14  1  0.63891105  0.16631175  0.50000000  1
  Li  Li15  1  0.36108895  0.83368825  0.50000000  1
  O  O16  1  0.72786848  0.69300625  0.06689943  1
  O  O17  1  0.27213152  0.30699375  0.06689943  1
  O  O18  1  0.77213152  0.19300625  0.43310057  1
  O  O19  1  0.22786848  0.80699375  0.43310057  1
  O  O20  1  0.27213152  0.30699375  0.93310057  1
  O  O21  1  0.72786848  0.69300625  0.93310057  1
  O  O22  1  0.22786848  0.80699375  0.56689943  1
  O  O23  1  0.77213152  0.19300625  0.56689943  1
  Te  Te24  1  0.68189488  0.26206123  0.00000000  1
  Te  Te25  1  0.31810512  0.73793877  -0.00000000  1
  Te  Te26  1  0.81810512  0.76206123  0.50000000  1
  Te  Te27  1  0.18189488  0.23793877  0.50000000  1
  Te  Te28  1  0.89307259  0.62528582  0.85818997  1
  Te  Te29  1  0.10692741  0.37471418  0.85818997  1
  Te  Te30  1  0.60692741  0.12528582  0.64181003  1
  Te  Te31  1  0.39307259  0.87471418  0.64181003  1
  Te  Te32  1  0.10692741  0.37471418  0.14181003  1
  Te  Te33  1  0.89307259  0.62528582  0.14181003  1
  Te  Te34  1  0.39307259  0.87471418  0.35818997  1
  Te  Te35  1  0.60692741  0.12528582  0.35818997  1
  Te  Te36  1  0.47078581  0.26391373  -0.00000000  1
  Te  Te37  1  0.52921419  0.73608627  0.00000000  1
  Te  Te38  1  0.02921419  0.76391373  0.50000000  1
  Te  Te39  1  0.97078581  0.23608627  0.50000000  1
  Ti  Ti40  1  0.04008841  0.21122082  -0.00000000  1
  Ti  Ti41  1  0.95991159  0.78877918  -0.00000000  1
  Ti  Ti42  1  0.45991159  0.71122082  0.50000000  1
  Ti  Ti43  1  0.54008841  0.28877918  0.50000000  1
  Ti  Ti44  1  0.00000000  0.00000000  0.80950100  1
  Ti  Ti45  1  0.50000000  0.50000000  0.69049900  1
  Ti  Ti46  1  0.00000000  0.00000000  0.19049900  1
  Ti  Ti47  1  0.50000000  0.50000000  0.30950100  1
