# generated using pymatgen
data_Li5Ta2O2
_symmetry_space_group_name_H-M   'P 1'
_cell_length_a   3.52067188
_cell_length_b   4.04856558
_cell_length_c   6.30853047
_cell_angle_alpha   116.53541571
_cell_angle_beta   94.62882602
_cell_angle_gamma   96.71150659
_symmetry_Int_Tables_number   1
_chemical_formula_structural   Li5Ta2O2
_chemical_formula_sum   'Li5 Ta2 O2'
_cell_volume   78.99719177
_cell_formula_units_Z   1
loop_
 _symmetry_equiv_pos_site_id
 _symmetry_equiv_pos_as_xyz
  1  'x, y, z'
loop_
 _atom_site_type_symbol
 _atom_site_label
 _atom_site_symmetry_multiplicity
 _atom_site_fract_x
 _atom_site_fract_y
 _atom_site_fract_z
 _atom_site_occupancy
  Li  Li0  1  0.00000000  0.00000000  0.00000000  1
  Li  Li1  1  0.33300000  0.66700000  0.25000000  1
  Li  Li2  1  0.66700000  0.33300000  0.50000000  1
  Li  Li3  1  0.00000000  0.00000000  0.75000000  1
  Li  Li4  1  0.92253429  0.83444408  0.82286068  1
  Ta  Ta5  1  0.64954378  0.34595747  0.43042050  1
  Ta  Ta6  1  0.17883936  0.65992478  0.52185667  1
  O  O7  1  0.09780160  0.76442312  0.10526930  1
  O  O8  1  0.79181384  0.30335103  0.81342938  1
