# generated using pymatgen
data_Li3Si2Br3O4
_symmetry_space_group_name_H-M   'P 1'
_cell_length_a   8.59002078
_cell_length_b   12.06797350
_cell_length_c   6.69391842
_cell_angle_alpha   90.00000000
_cell_angle_beta   90.00000000
_cell_angle_gamma   90.00000000
_symmetry_Int_Tables_number   1
_chemical_formula_structural   Li3Si2Br3O4
_chemical_formula_sum   'Li12 Si8 Br12 O16'
_cell_volume   693.91931660
_cell_formula_units_Z   4
loop_
 _symmetry_equiv_pos_site_id
 _symmetry_equiv_pos_as_xyz
  1  'x, y, z'
loop_
 _atom_site_type_symbol
 _atom_site_label
 _atom_site_symmetry_multiplicity
 _atom_site_fract_x
 _atom_site_fract_y
 _atom_site_fract_z
 _atom_site_occupancy
  Br  Br0  1  0.00000000  0.00000000  0.00000000  1
  Br  Br1  1  0.50000000  -0.00000000  0.50000000  1
  Br  Br2  1  0.00000000  0.50000000  0.00000000  1
  Br  Br3  1  0.50000000  0.50000000  0.50000000  1
  Br  Br4  1  0.00000000  0.00000000  0.50000000  1
  Br  Br5  1  0.50000000  -0.00000000  0.00000000  1
  Br  Br6  1  0.00000000  0.50000000  0.50000000  1
  Br  Br7  1  0.50000000  0.50000000  0.00000000  1
  Br  Br8  1  0.18350472  0.25000000  0.02169080  1
  Br  Br9  1  0.31649528  0.75000000  0.52169080  1
  Br  Br10  1  0.81649528  0.75000000  0.97830920  1
  Br  Br11  1  0.68350472  0.25000000  0.47830920  1
  Li  Li12  1  0.28766019  0.25000000  0.69531881  1
  Li  Li13  1  0.21233981  0.75000000  0.19531881  1
  Li  Li14  1  0.71233981  0.75000000  0.30468119  1
  Li  Li15  1  0.78766019  0.25000000  0.80468119  1
  Li  Li16  1  0.89625510  0.19168329  0.96601352  1
  Li  Li17  1  0.60374490  0.80831671  0.46601352  1
  Li  Li18  1  0.10374490  0.69168329  0.03398648  1
  Li  Li19  1  0.39625510  0.30831671  0.53398648  1
  Li  Li20  1  0.10374490  0.80831671  0.03398648  1
  Li  Li21  1  0.39625510  0.19168329  0.53398648  1
  Li  Li22  1  0.89625510  0.30831671  0.96601352  1
  Li  Li23  1  0.60374490  0.69168329  0.46601352  1
  O  O24  1  0.32336349  0.67307921  0.06980212  1
  O  O25  1  0.17663651  0.32692079  0.56980212  1
  O  O26  1  0.67663651  0.17307921  0.93019788  1
  O  O27  1  0.82336349  0.82692079  0.43019788  1
  O  O28  1  0.67663651  0.32692079  0.93019788  1
  O  O29  1  0.82336349  0.67307921  0.43019788  1
  O  O30  1  0.32336349  0.82692079  0.06980212  1
  O  O31  1  0.17663651  0.17307921  0.56980212  1
  O  O32  1  0.47996957  0.68699973  0.64866524  1
  O  O33  1  0.02003043  0.31300027  0.14866524  1
  O  O34  1  0.52003043  0.18699973  0.35133476  1
  O  O35  1  0.97996957  0.81300027  0.85133476  1
  O  O36  1  0.52003043  0.31300027  0.35133476  1
  O  O37  1  0.97996957  0.68699973  0.85133476  1
  O  O38  1  0.47996957  0.81300027  0.64866524  1
  O  O39  1  0.02003043  0.18699973  0.14866524  1
  Si  Si40  1  0.92984597  0.86789964  0.71071881  1
  Si  Si41  1  -0.42984597  -0.86789964  1.21071881  1
  Si  Si42  1  -0.92984597  1.36789964  -0.71071881  1
  Si  Si43  1  1.42984597  -0.36789964  -0.21071881  1
  Si  Si44  1  -0.92984597  -0.86789964  -0.71071881  1
  Si  Si45  1  1.42984597  0.86789964  -0.21071881  1
  Si  Si46  1  0.92984597  -0.36789964  0.71071881  1
  Si  Si47  1  -0.42984597  1.36789964  1.21071881  1
