# generated using pymatgen
data_LiF
_symmetry_space_group_name_H-M   'P 1'
_cell_length_a   13.40961349
_cell_length_b   13.40961349
_cell_length_c   13.40961349
_cell_angle_alpha   90.00000000
_cell_angle_beta   90.00000000
_cell_angle_gamma   90.00000000
_symmetry_Int_Tables_number   1
_chemical_formula_structural   LiF
_chemical_formula_sum   'Li96 F96'
_cell_volume   2411.28631173
_cell_formula_units_Z   96
loop_
 _symmetry_equiv_pos_site_id
 _symmetry_equiv_pos_as_xyz
  1  'x, y, z'
loop_
 _atom_site_type_symbol
 _atom_site_label
 _atom_site_symmetry_multiplicity
 _atom_site_fract_x
 _atom_site_fract_y
 _atom_site_fract_z
 _atom_site_occupancy
  F  F0  1  0.00000000  0.88995078  0.07806116  1
  F  F1  1  0.00000000  -0.88995078  0.07806116  1
  F  F2  1  0.00000000  0.88995078  -0.07806116  1
  F  F3  1  0.00000000  -0.88995078  -0.07806116  1
  F  F4  1  0.07806116  0.00000000  0.88995078  1
  F  F5  1  0.07806116  0.00000000  -0.88995078  1
  F  F6  1  -0.07806116  0.00000000  0.88995078  1
  F  F7  1  -0.07806116  0.00000000  -0.88995078  1
  F  F8  1  0.88995078  0.07806116  -0.00000000  1
  F  F9  1  -0.88995078  0.07806116  0.00000000  1
  F  F10  1  0.88995078  -0.07806116  -0.00000000  1
  F  F11  1  -0.88995078  -0.07806116  0.00000000  1
  F  F12  1  0.88995078  -0.00000000  -0.07806116  1
  F  F13  1  -0.88995078  0.00000000  -0.07806116  1
  F  F14  1  0.88995078  -0.00000000  0.07806116  1
  F  F15  1  -0.88995078  0.00000000  0.07806116  1
  F  F16  1  0.00000000  0.07806116  -0.88995078  1
  F  F17  1  0.00000000  0.07806116  0.88995078  1
  F  F18  1  0.00000000  -0.07806116  -0.88995078  1
  F  F19  1  0.00000000  -0.07806116  0.88995078  1
  F  F20  1  0.07806116  0.88995078  0.00000000  1
  F  F21  1  0.07806116  -0.88995078  0.00000000  1
  F  F22  1  -0.07806116  0.88995078  -0.00000000  1
  F  F23  1  -0.07806116  -0.88995078  0.00000000  1
  F  F24  1  0.00000000  1.38995078  0.57806116  1
  F  F25  1  0.00000000  -0.38995078  0.57806116  1
  F  F26  1  0.00000000  1.38995078  0.42193884  1
  F  F27  1  0.00000000  -0.38995078  0.42193884  1
  F  F28  1  0.07806116  0.50000000  1.38995078  1
  F  F29  1  0.07806116  0.50000000  -0.38995078  1
  F  F30  1  -0.07806116  0.50000000  1.38995078  1
  F  F31  1  -0.07806116  0.50000000  -0.38995078  1
  F  F32  1  0.88995078  0.57806116  0.50000000  1
  F  F33  1  -0.88995078  0.57806116  0.50000000  1
  F  F34  1  0.88995078  0.42193884  0.50000000  1
  F  F35  1  -0.88995078  0.42193884  0.50000000  1
  F  F36  1  0.88995078  0.50000000  0.42193884  1
  F  F37  1  -0.88995078  0.50000000  0.42193884  1
  F  F38  1  0.88995078  0.50000000  0.57806116  1
  F  F39  1  -0.88995078  0.50000000  0.57806116  1
  F  F40  1  0.00000000  0.57806116  -0.38995078  1
  F  F41  1  0.00000000  0.57806116  1.38995078  1
  F  F42  1  0.00000000  0.42193884  -0.38995078  1
  F  F43  1  0.00000000  0.42193884  1.38995078  1
  F  F44  1  0.07806116  1.38995078  0.50000000  1
  F  F45  1  0.07806116  -0.38995078  0.50000000  1
  F  F46  1  -0.07806116  1.38995078  0.50000000  1
  F  F47  1  -0.07806116  -0.38995078  0.50000000  1
  F  F48  1  0.50000000  0.88995078  0.57806116  1
  F  F49  1  0.50000000  -0.88995078  0.57806116  1
  F  F50  1  0.50000000  0.88995078  0.42193884  1
  F  F51  1  0.50000000  -0.88995078  0.42193884  1
  F  F52  1  0.57806116  0.00000000  1.38995078  1
  F  F53  1  0.57806116  0.00000000  -0.38995078  1
  F  F54  1  0.42193884  -0.00000000  1.38995078  1
  F  F55  1  0.42193884  -0.00000000  -0.38995078  1
  F  F56  1  1.38995078  0.07806116  0.50000000  1
  F  F57  1  -0.38995078  0.07806116  0.50000000  1
  F  F58  1  1.38995078  -0.07806116  0.50000000  1
  F  F59  1  -0.38995078  -0.07806116  0.50000000  1
  F  F60  1  1.38995078  -0.00000000  0.42193884  1
  F  F61  1  -0.38995078  0.00000000  0.42193884  1
  F  F62  1  1.38995078  -0.00000000  0.57806116  1
  F  F63  1  -0.38995078  0.00000000  0.57806116  1
  F  F64  1  0.50000000  0.07806116  -0.38995078  1
  F  F65  1  0.50000000  0.07806116  1.38995078  1
  F  F66  1  0.50000000  -0.07806116  -0.38995078  1
  F  F67  1  0.50000000  -0.07806116  1.38995078  1
  F  F68  1  0.57806116  0.88995078  0.50000000  1
  F  F69  1  0.57806116  -0.88995078  0.50000000  1
  F  F70  1  0.42193884  0.88995078  0.50000000  1
  F  F71  1  0.42193884  -0.88995078  0.50000000  1
  F  F72  1  0.50000000  1.38995078  0.07806116  1
  F  F73  1  0.50000000  -0.38995078  0.07806116  1
  F  F74  1  0.50000000  1.38995078  -0.07806116  1
  F  F75  1  0.50000000  -0.38995078  -0.07806116  1
  F  F76  1  0.57806116  0.50000000  0.88995078  1
  F  F77  1  0.57806116  0.50000000  -0.88995078  1
  F  F78  1  0.42193884  0.50000000  0.88995078  1
  F  F79  1  0.42193884  0.50000000  -0.88995078  1
  F  F80  1  1.38995078  0.57806116  -0.00000000  1
  F  F81  1  -0.38995078  0.57806116  0.00000000  1
  F  F82  1  1.38995078  0.42193884  -0.00000000  1
  F  F83  1  -0.38995078  0.42193884  0.00000000  1
  F  F84  1  1.38995078  0.50000000  -0.07806116  1
  F  F85  1  -0.38995078  0.50000000  -0.07806116  1
  F  F86  1  1.38995078  0.50000000  0.07806116  1
  F  F87  1  -0.38995078  0.50000000  0.07806116  1
  F  F88  1  0.50000000  0.57806116  -0.88995078  1
  F  F89  1  0.50000000  0.57806116  0.88995078  1
  F  F90  1  0.50000000  0.42193884  -0.88995078  1
  F  F91  1  0.50000000  0.42193884  0.88995078  1
  F  F92  1  0.57806116  1.38995078  -0.00000000  1
  F  F93  1  0.57806116  -0.38995078  -0.00000000  1
  F  F94  1  0.42193884  1.38995078  -0.00000000  1
  F  F95  1  0.42193884  -0.38995078  0.00000000  1
  Li  Li96  1  0.15258661  0.15258661  0.56446360  1
  Li  Li97  1  0.84741339  0.84741339  0.56446360  1
  Li  Li98  1  0.84741339  0.15258661  0.43553640  1
  Li  Li99  1  0.15258661  0.84741339  0.43553640  1
  Li  Li100  1  0.56446360  0.15258661  0.15258661  1
  Li  Li101  1  0.56446360  0.84741339  0.84741339  1
  Li  Li102  1  0.43553640  0.84741339  0.15258661  1
  Li  Li103  1  0.43553640  0.15258661  0.84741339  1
  Li  Li104  1  0.15258661  0.56446360  0.15258661  1
  Li  Li105  1  0.84741339  0.56446360  0.84741339  1
  Li  Li106  1  0.15258661  0.43553640  0.84741339  1
  Li  Li107  1  0.84741339  0.43553640  0.15258661  1
  Li  Li108  1  0.15258661  0.15258661  0.43553640  1
  Li  Li109  1  0.84741339  0.84741339  0.43553640  1
  Li  Li110  1  0.15258661  0.84741339  0.56446360  1
  Li  Li111  1  0.84741339  0.15258661  0.56446360  1
  Li  Li112  1  0.15258661  0.56446360  0.84741339  1
  Li  Li113  1  0.84741339  0.56446360  0.15258661  1
  Li  Li114  1  0.84741339  0.43553640  0.84741339  1
  Li  Li115  1  0.15258661  0.43553640  0.15258661  1
  Li  Li116  1  0.56446360  0.15258661  0.84741339  1
  Li  Li117  1  0.56446360  0.84741339  0.15258661  1
  Li  Li118  1  0.43553640  0.15258661  0.15258661  1
  Li  Li119  1  0.43553640  0.84741339  0.84741339  1
  Li  Li120  1  0.15258661  0.65258661  0.06446360  1
  Li  Li121  1  0.84741339  0.34741339  0.06446360  1
  Li  Li122  1  0.84741339  0.65258661  0.93553640  1
  Li  Li123  1  0.15258661  0.34741339  0.93553640  1
  Li  Li124  1  0.56446360  0.65258661  0.65258661  1
  Li  Li125  1  0.56446360  0.34741339  0.34741339  1
  Li  Li126  1  0.43553640  0.34741339  0.65258661  1
  Li  Li127  1  0.43553640  0.65258661  0.34741339  1
  Li  Li128  1  0.15258661  0.06446360  0.65258661  1
  Li  Li129  1  0.84741339  0.06446360  0.34741339  1
  Li  Li130  1  0.15258661  0.93553640  0.34741339  1
  Li  Li131  1  0.84741339  0.93553640  0.65258661  1
  Li  Li132  1  0.15258661  0.65258661  0.93553640  1
  Li  Li133  1  0.84741339  0.34741339  0.93553640  1
  Li  Li134  1  0.15258661  0.34741339  0.06446360  1
  Li  Li135  1  0.84741339  0.65258661  0.06446360  1
  Li  Li136  1  0.15258661  0.06446360  0.34741339  1
  Li  Li137  1  0.84741339  0.06446360  0.65258661  1
  Li  Li138  1  0.84741339  0.93553640  0.34741339  1
  Li  Li139  1  0.15258661  0.93553640  0.65258661  1
  Li  Li140  1  0.56446360  0.65258661  0.34741339  1
  Li  Li141  1  0.56446360  0.34741339  0.65258661  1
  Li  Li142  1  0.43553640  0.65258661  0.65258661  1
  Li  Li143  1  0.43553640  0.34741339  0.34741339  1
  Li  Li144  1  0.65258661  0.15258661  0.06446360  1
  Li  Li145  1  0.34741339  0.84741339  0.06446360  1
  Li  Li146  1  0.34741339  0.15258661  0.93553640  1
  Li  Li147  1  0.65258661  0.84741339  0.93553640  1
  Li  Li148  1  0.06446360  0.15258661  0.65258661  1
  Li  Li149  1  0.06446360  0.84741339  0.34741339  1
  Li  Li150  1  0.93553640  0.84741339  0.65258661  1
  Li  Li151  1  0.93553640  0.15258661  0.34741339  1
  Li  Li152  1  0.65258661  0.56446360  0.65258661  1
  Li  Li153  1  0.34741339  0.56446360  0.34741339  1
  Li  Li154  1  0.65258661  0.43553640  0.34741339  1
  Li  Li155  1  0.34741339  0.43553640  0.65258661  1
  Li  Li156  1  0.65258661  0.15258661  0.93553640  1
  Li  Li157  1  0.34741339  0.84741339  0.93553640  1
  Li  Li158  1  0.65258661  0.84741339  0.06446360  1
  Li  Li159  1  0.34741339  0.15258661  0.06446360  1
  Li  Li160  1  0.65258661  0.56446360  0.34741339  1
  Li  Li161  1  0.34741339  0.56446360  0.65258661  1
  Li  Li162  1  0.34741339  0.43553640  0.34741339  1
  Li  Li163  1  0.65258661  0.43553640  0.65258661  1
  Li  Li164  1  0.06446360  0.15258661  0.34741339  1
  Li  Li165  1  0.06446360  0.84741339  0.65258661  1
  Li  Li166  1  0.93553640  0.15258661  0.65258661  1
  Li  Li167  1  0.93553640  0.84741339  0.34741339  1
  Li  Li168  1  0.65258661  0.65258661  0.56446360  1
  Li  Li169  1  0.34741339  0.34741339  0.56446360  1
  Li  Li170  1  0.34741339  0.65258661  0.43553640  1
  Li  Li171  1  0.65258661  0.34741339  0.43553640  1
  Li  Li172  1  0.06446360  0.65258661  0.15258661  1
  Li  Li173  1  0.06446360  0.34741339  0.84741339  1
  Li  Li174  1  0.93553640  0.34741339  0.15258661  1
  Li  Li175  1  0.93553640  0.65258661  0.84741339  1
  Li  Li176  1  0.65258661  0.06446360  0.15258661  1
  Li  Li177  1  0.34741339  0.06446360  0.84741339  1
  Li  Li178  1  0.65258661  0.93553640  0.84741339  1
  Li  Li179  1  0.34741339  0.93553640  0.15258661  1
  Li  Li180  1  0.65258661  0.65258661  0.43553640  1
  Li  Li181  1  0.34741339  0.34741339  0.43553640  1
  Li  Li182  1  0.65258661  0.34741339  0.56446360  1
  Li  Li183  1  0.34741339  0.65258661  0.56446360  1
  Li  Li184  1  0.65258661  0.06446360  0.84741339  1
  Li  Li185  1  0.34741339  0.06446360  0.15258661  1
  Li  Li186  1  0.34741339  0.93553640  0.84741339  1
  Li  Li187  1  0.65258661  0.93553640  0.15258661  1
  Li  Li188  1  0.06446360  0.65258661  0.84741339  1
  Li  Li189  1  0.06446360  0.34741339  0.15258661  1
  Li  Li190  1  0.93553640  0.65258661  0.15258661  1
  Li  Li191  1  0.93553640  0.34741339  0.84741339  1
