# generated using pymatgen
data_LiSiCl3O
_symmetry_space_group_name_H-M   'P 1'
_cell_length_a   19.38537598
_cell_length_b   19.38537598
_cell_length_c   19.38537598
_cell_angle_alpha   90.00000000
_cell_angle_beta   90.00000000
_cell_angle_gamma   90.00000000
_symmetry_Int_Tables_number   1
_chemical_formula_structural   LiSiCl3O
_chemical_formula_sum   'Li96 Si96 Cl288 O96'
_cell_volume   7284.88475588
_cell_formula_units_Z   96
loop_
 _symmetry_equiv_pos_site_id
 _symmetry_equiv_pos_as_xyz
  1  'x, y, z'
loop_
 _atom_site_type_symbol
 _atom_site_label
 _atom_site_symmetry_multiplicity
 _atom_site_fract_x
 _atom_site_fract_y
 _atom_site_fract_z
 _atom_site_occupancy
  Cl  Cl0  1  0.25902949  0.82544360  0.11926125  1
  Cl  Cl1  1  -0.25902949  -0.82544360  0.11926125  1
  Cl  Cl2  1  -0.25902949  0.82544360  -0.11926125  1
  Cl  Cl3  1  0.25902949  -0.82544360  -0.11926125  1
  Cl  Cl4  1  0.11926125  0.25902949  0.82544360  1
  Cl  Cl5  1  0.11926125  -0.25902949  -0.82544360  1
  Cl  Cl6  1  -0.11926125  -0.25902949  0.82544360  1
  Cl  Cl7  1  -0.11926125  0.25902949  -0.82544360  1
  Cl  Cl8  1  0.82544360  0.11926125  0.25902949  1
  Cl  Cl9  1  -0.82544360  0.11926125  -0.25902949  1
  Cl  Cl10  1  0.82544360  -0.11926125  -0.25902949  1
  Cl  Cl11  1  -0.82544360  -0.11926125  0.25902949  1
  Cl  Cl12  1  0.82544360  0.25902949  -0.11926125  1
  Cl  Cl13  1  -0.82544360  -0.25902949  -0.11926125  1
  Cl  Cl14  1  0.82544360  -0.25902949  0.11926125  1
  Cl  Cl15  1  -0.82544360  0.25902949  0.11926125  1
  Cl  Cl16  1  0.25902949  0.11926125  -0.82544360  1
  Cl  Cl17  1  -0.25902949  0.11926125  0.82544360  1
  Cl  Cl18  1  -0.25902949  -0.11926125  -0.82544360  1
  Cl  Cl19  1  0.25902949  -0.11926125  0.82544360  1
  Cl  Cl20  1  0.11926125  0.82544360  -0.25902949  1
  Cl  Cl21  1  0.11926125  -0.82544360  0.25902949  1
  Cl  Cl22  1  -0.11926125  0.82544360  0.25902949  1
  Cl  Cl23  1  -0.11926125  -0.82544360  -0.25902949  1
  Cl  Cl24  1  -0.25902949  -0.82544360  -0.11926125  1
  Cl  Cl25  1  0.25902949  0.82544360  -0.11926125  1
  Cl  Cl26  1  0.25902949  -0.82544360  0.11926125  1
  Cl  Cl27  1  -0.25902949  0.82544360  0.11926125  1
  Cl  Cl28  1  -0.11926125  -0.25902949  -0.82544360  1
  Cl  Cl29  1  -0.11926125  0.25902949  0.82544360  1
  Cl  Cl30  1  0.11926125  0.25902949  -0.82544360  1
  Cl  Cl31  1  0.11926125  -0.25902949  0.82544360  1
  Cl  Cl32  1  -0.82544360  -0.11926125  -0.25902949  1
  Cl  Cl33  1  0.82544360  -0.11926125  0.25902949  1
  Cl  Cl34  1  -0.82544360  0.11926125  0.25902949  1
  Cl  Cl35  1  0.82544360  0.11926125  -0.25902949  1
  Cl  Cl36  1  -0.82544360  -0.25902949  0.11926125  1
  Cl  Cl37  1  0.82544360  0.25902949  0.11926125  1
  Cl  Cl38  1  -0.82544360  0.25902949  -0.11926125  1
  Cl  Cl39  1  0.82544360  -0.25902949  -0.11926125  1
  Cl  Cl40  1  -0.25902949  -0.11926125  0.82544360  1
  Cl  Cl41  1  0.25902949  -0.11926125  -0.82544360  1
  Cl  Cl42  1  0.25902949  0.11926125  0.82544360  1
  Cl  Cl43  1  -0.25902949  0.11926125  -0.82544360  1
  Cl  Cl44  1  -0.11926125  -0.82544360  0.25902949  1
  Cl  Cl45  1  -0.11926125  0.82544360  -0.25902949  1
  Cl  Cl46  1  0.11926125  -0.82544360  -0.25902949  1
  Cl  Cl47  1  0.11926125  0.82544360  0.25902949  1
  Cl  Cl48  1  0.25902949  1.32544360  0.61926125  1
  Cl  Cl49  1  -0.25902949  -0.32544360  0.61926125  1
  Cl  Cl50  1  -0.25902949  1.32544360  0.38073875  1
  Cl  Cl51  1  0.25902949  -0.32544360  0.38073875  1
  Cl  Cl52  1  0.11926125  0.75902949  1.32544360  1
  Cl  Cl53  1  0.11926125  0.24097051  -0.32544360  1
  Cl  Cl54  1  -0.11926125  0.24097051  1.32544360  1
  Cl  Cl55  1  -0.11926125  0.75902949  -0.32544360  1
  Cl  Cl56  1  0.82544360  0.61926125  0.75902949  1
  Cl  Cl57  1  -0.82544360  0.61926125  0.24097051  1
  Cl  Cl58  1  0.82544360  0.38073875  0.24097051  1
  Cl  Cl59  1  -0.82544360  0.38073875  0.75902949  1
  Cl  Cl60  1  0.82544360  0.75902949  0.38073875  1
  Cl  Cl61  1  -0.82544360  0.24097051  0.38073875  1
  Cl  Cl62  1  0.82544360  0.24097051  0.61926125  1
  Cl  Cl63  1  -0.82544360  0.75902949  0.61926125  1
  Cl  Cl64  1  0.25902949  0.61926125  -0.32544360  1
  Cl  Cl65  1  -0.25902949  0.61926125  1.32544360  1
  Cl  Cl66  1  -0.25902949  0.38073875  -0.32544360  1
  Cl  Cl67  1  0.25902949  0.38073875  1.32544360  1
  Cl  Cl68  1  0.11926125  1.32544360  0.24097051  1
  Cl  Cl69  1  0.11926125  -0.32544360  0.75902949  1
  Cl  Cl70  1  -0.11926125  1.32544360  0.75902949  1
  Cl  Cl71  1  -0.11926125  -0.32544360  0.24097051  1
  Cl  Cl72  1  -0.25902949  -0.32544360  0.38073875  1
  Cl  Cl73  1  0.25902949  1.32544360  0.38073875  1
  Cl  Cl74  1  0.25902949  -0.32544360  0.61926125  1
  Cl  Cl75  1  -0.25902949  1.32544360  0.61926125  1
  Cl  Cl76  1  -0.11926125  0.24097051  -0.32544360  1
  Cl  Cl77  1  -0.11926125  0.75902949  1.32544360  1
  Cl  Cl78  1  0.11926125  0.75902949  -0.32544360  1
  Cl  Cl79  1  0.11926125  0.24097051  1.32544360  1
  Cl  Cl80  1  -0.82544360  0.38073875  0.24097051  1
  Cl  Cl81  1  0.82544360  0.38073875  0.75902949  1
  Cl  Cl82  1  -0.82544360  0.61926125  0.75902949  1
  Cl  Cl83  1  0.82544360  0.61926125  0.24097051  1
  Cl  Cl84  1  -0.82544360  0.24097051  0.61926125  1
  Cl  Cl85  1  0.82544360  0.75902949  0.61926125  1
  Cl  Cl86  1  -0.82544360  0.75902949  0.38073875  1
  Cl  Cl87  1  0.82544360  0.24097051  0.38073875  1
  Cl  Cl88  1  -0.25902949  0.38073875  1.32544360  1
  Cl  Cl89  1  0.25902949  0.38073875  -0.32544360  1
  Cl  Cl90  1  0.25902949  0.61926125  1.32544360  1
  Cl  Cl91  1  -0.25902949  0.61926125  -0.32544360  1
  Cl  Cl92  1  -0.11926125  -0.32544360  0.75902949  1
  Cl  Cl93  1  -0.11926125  1.32544360  0.24097051  1
  Cl  Cl94  1  0.11926125  -0.32544360  0.24097051  1
  Cl  Cl95  1  0.11926125  1.32544360  0.75902949  1
  Cl  Cl96  1  0.75902949  0.82544360  0.61926125  1
  Cl  Cl97  1  0.24097051  -0.82544360  0.61926125  1
  Cl  Cl98  1  0.24097051  0.82544360  0.38073875  1
  Cl  Cl99  1  0.75902949  -0.82544360  0.38073875  1
  Cl  Cl100  1  0.61926125  0.25902949  1.32544360  1
  Cl  Cl101  1  0.61926125  -0.25902949  -0.32544360  1
  Cl  Cl102  1  0.38073875  -0.25902949  1.32544360  1
  Cl  Cl103  1  0.38073875  0.25902949  -0.32544360  1
  Cl  Cl104  1  1.32544360  0.11926125  0.75902949  1
  Cl  Cl105  1  -0.32544360  0.11926125  0.24097051  1
  Cl  Cl106  1  1.32544360  -0.11926125  0.24097051  1
  Cl  Cl107  1  -0.32544360  -0.11926125  0.75902949  1
  Cl  Cl108  1  1.32544360  0.25902949  0.38073875  1
  Cl  Cl109  1  -0.32544360  -0.25902949  0.38073875  1
  Cl  Cl110  1  1.32544360  -0.25902949  0.61926125  1
  Cl  Cl111  1  -0.32544360  0.25902949  0.61926125  1
  Cl  Cl112  1  0.75902949  0.11926125  -0.32544360  1
  Cl  Cl113  1  0.24097051  0.11926125  1.32544360  1
  Cl  Cl114  1  0.24097051  -0.11926125  -0.32544360  1
  Cl  Cl115  1  0.75902949  -0.11926125  1.32544360  1
  Cl  Cl116  1  0.61926125  0.82544360  0.24097051  1
  Cl  Cl117  1  0.61926125  -0.82544360  0.75902949  1
  Cl  Cl118  1  0.38073875  0.82544360  0.75902949  1
  Cl  Cl119  1  0.38073875  -0.82544360  0.24097051  1
  Cl  Cl120  1  0.24097051  -0.82544360  0.38073875  1
  Cl  Cl121  1  0.75902949  0.82544360  0.38073875  1
  Cl  Cl122  1  0.75902949  -0.82544360  0.61926125  1
  Cl  Cl123  1  0.24097051  0.82544360  0.61926125  1
  Cl  Cl124  1  0.38073875  -0.25902949  -0.32544360  1
  Cl  Cl125  1  0.38073875  0.25902949  1.32544360  1
  Cl  Cl126  1  0.61926125  0.25902949  -0.32544360  1
  Cl  Cl127  1  0.61926125  -0.25902949  1.32544360  1
  Cl  Cl128  1  -0.32544360  -0.11926125  0.24097051  1
  Cl  Cl129  1  1.32544360  -0.11926125  0.75902949  1
  Cl  Cl130  1  -0.32544360  0.11926125  0.75902949  1
  Cl  Cl131  1  1.32544360  0.11926125  0.24097051  1
  Cl  Cl132  1  -0.32544360  -0.25902949  0.61926125  1
  Cl  Cl133  1  1.32544360  0.25902949  0.61926125  1
  Cl  Cl134  1  -0.32544360  0.25902949  0.38073875  1
  Cl  Cl135  1  1.32544360  -0.25902949  0.38073875  1
  Cl  Cl136  1  0.24097051  -0.11926125  1.32544360  1
  Cl  Cl137  1  0.75902949  -0.11926125  -0.32544360  1
  Cl  Cl138  1  0.75902949  0.11926125  1.32544360  1
  Cl  Cl139  1  0.24097051  0.11926125  -0.32544360  1
  Cl  Cl140  1  0.38073875  -0.82544360  0.75902949  1
  Cl  Cl141  1  0.38073875  0.82544360  0.24097051  1
  Cl  Cl142  1  0.61926125  -0.82544360  0.24097051  1
  Cl  Cl143  1  0.61926125  0.82544360  0.75902949  1
  Cl  Cl144  1  0.75902949  1.32544360  0.11926125  1
  Cl  Cl145  1  0.24097051  -0.32544360  0.11926125  1
  Cl  Cl146  1  0.24097051  1.32544360  -0.11926125  1
  Cl  Cl147  1  0.75902949  -0.32544360  -0.11926125  1
  Cl  Cl148  1  0.61926125  0.75902949  0.82544360  1
  Cl  Cl149  1  0.61926125  0.24097051  -0.82544360  1
  Cl  Cl150  1  0.38073875  0.24097051  0.82544360  1
  Cl  Cl151  1  0.38073875  0.75902949  -0.82544360  1
  Cl  Cl152  1  1.32544360  0.61926125  0.25902949  1
  Cl  Cl153  1  -0.32544360  0.61926125  -0.25902949  1
  Cl  Cl154  1  1.32544360  0.38073875  -0.25902949  1
  Cl  Cl155  1  -0.32544360  0.38073875  0.25902949  1
  Cl  Cl156  1  1.32544360  0.75902949  -0.11926125  1
  Cl  Cl157  1  -0.32544360  0.24097051  -0.11926125  1
  Cl  Cl158  1  1.32544360  0.24097051  0.11926125  1
  Cl  Cl159  1  -0.32544360  0.75902949  0.11926125  1
  Cl  Cl160  1  0.75902949  0.61926125  -0.82544360  1
  Cl  Cl161  1  0.24097051  0.61926125  0.82544360  1
  Cl  Cl162  1  0.24097051  0.38073875  -0.82544360  1
  Cl  Cl163  1  0.75902949  0.38073875  0.82544360  1
  Cl  Cl164  1  0.61926125  1.32544360  -0.25902949  1
  Cl  Cl165  1  0.61926125  -0.32544360  0.25902949  1
  Cl  Cl166  1  0.38073875  1.32544360  0.25902949  1
  Cl  Cl167  1  0.38073875  -0.32544360  -0.25902949  1
  Cl  Cl168  1  0.24097051  -0.32544360  -0.11926125  1
  Cl  Cl169  1  0.75902949  1.32544360  -0.11926125  1
  Cl  Cl170  1  0.75902949  -0.32544360  0.11926125  1
  Cl  Cl171  1  0.24097051  1.32544360  0.11926125  1
  Cl  Cl172  1  0.38073875  0.24097051  -0.82544360  1
  Cl  Cl173  1  0.38073875  0.75902949  0.82544360  1
  Cl  Cl174  1  0.61926125  0.75902949  -0.82544360  1
  Cl  Cl175  1  0.61926125  0.24097051  0.82544360  1
  Cl  Cl176  1  -0.32544360  0.38073875  -0.25902949  1
  Cl  Cl177  1  1.32544360  0.38073875  0.25902949  1
  Cl  Cl178  1  -0.32544360  0.61926125  0.25902949  1
  Cl  Cl179  1  1.32544360  0.61926125  -0.25902949  1
  Cl  Cl180  1  -0.32544360  0.24097051  0.11926125  1
  Cl  Cl181  1  1.32544360  0.75902949  0.11926125  1
  Cl  Cl182  1  -0.32544360  0.75902949  -0.11926125  1
  Cl  Cl183  1  1.32544360  0.24097051  -0.11926125  1
  Cl  Cl184  1  0.24097051  0.38073875  0.82544360  1
  Cl  Cl185  1  0.75902949  0.38073875  -0.82544360  1
  Cl  Cl186  1  0.75902949  0.61926125  0.82544360  1
  Cl  Cl187  1  0.24097051  0.61926125  -0.82544360  1
  Cl  Cl188  1  0.38073875  -0.32544360  0.25902949  1
  Cl  Cl189  1  0.38073875  1.32544360  -0.25902949  1
  Cl  Cl190  1  0.61926125  -0.32544360  -0.25902949  1
  Cl  Cl191  1  0.61926125  1.32544360  0.25902949  1
  Cl  Cl192  1  0.22486007  0.22486007  0.16354723  1
  Cl  Cl193  1  0.77513993  0.77513993  0.16354723  1
  Cl  Cl194  1  0.77513993  0.22486007  0.83645277  1
  Cl  Cl195  1  0.22486007  0.77513993  0.83645277  1
  Cl  Cl196  1  0.16354723  0.22486007  0.22486007  1
  Cl  Cl197  1  0.16354723  0.77513993  0.77513993  1
  Cl  Cl198  1  0.83645277  0.77513993  0.22486007  1
  Cl  Cl199  1  0.83645277  0.22486007  0.77513993  1
  Cl  Cl200  1  0.22486007  0.16354723  0.22486007  1
  Cl  Cl201  1  0.77513993  0.16354723  0.77513993  1
  Cl  Cl202  1  0.22486007  0.83645277  0.77513993  1
  Cl  Cl203  1  0.77513993  0.83645277  0.22486007  1
  Cl  Cl204  1  0.22486007  0.22486007  0.83645277  1
  Cl  Cl205  1  0.77513993  0.77513993  0.83645277  1
  Cl  Cl206  1  0.22486007  0.77513993  0.16354723  1
  Cl  Cl207  1  0.77513993  0.22486007  0.16354723  1
  Cl  Cl208  1  0.22486007  0.16354723  0.77513993  1
  Cl  Cl209  1  0.77513993  0.16354723  0.22486007  1
  Cl  Cl210  1  0.77513993  0.83645277  0.77513993  1
  Cl  Cl211  1  0.22486007  0.83645277  0.22486007  1
  Cl  Cl212  1  0.16354723  0.22486007  0.77513993  1
  Cl  Cl213  1  0.16354723  0.77513993  0.22486007  1
  Cl  Cl214  1  0.83645277  0.22486007  0.22486007  1
  Cl  Cl215  1  0.83645277  0.77513993  0.77513993  1
  Cl  Cl216  1  0.22486007  0.72486007  0.66354723  1
  Cl  Cl217  1  0.77513993  0.27513993  0.66354723  1
  Cl  Cl218  1  0.77513993  0.72486007  0.33645277  1
  Cl  Cl219  1  0.22486007  0.27513993  0.33645277  1
  Cl  Cl220  1  0.16354723  0.72486007  0.72486007  1
  Cl  Cl221  1  0.16354723  0.27513993  0.27513993  1
  Cl  Cl222  1  0.83645277  0.27513993  0.72486007  1
  Cl  Cl223  1  0.83645277  0.72486007  0.27513993  1
  Cl  Cl224  1  0.22486007  0.66354723  0.72486007  1
  Cl  Cl225  1  0.77513993  0.66354723  0.27513993  1
  Cl  Cl226  1  0.22486007  0.33645277  0.27513993  1
  Cl  Cl227  1  0.77513993  0.33645277  0.72486007  1
  Cl  Cl228  1  0.22486007  0.72486007  0.33645277  1
  Cl  Cl229  1  0.77513993  0.27513993  0.33645277  1
  Cl  Cl230  1  0.22486007  0.27513993  0.66354723  1
  Cl  Cl231  1  0.77513993  0.72486007  0.66354723  1
  Cl  Cl232  1  0.22486007  0.66354723  0.27513993  1
  Cl  Cl233  1  0.77513993  0.66354723  0.72486007  1
  Cl  Cl234  1  0.77513993  0.33645277  0.27513993  1
  Cl  Cl235  1  0.22486007  0.33645277  0.72486007  1
  Cl  Cl236  1  0.16354723  0.72486007  0.27513993  1
  Cl  Cl237  1  0.16354723  0.27513993  0.72486007  1
  Cl  Cl238  1  0.83645277  0.72486007  0.72486007  1
  Cl  Cl239  1  0.83645277  0.27513993  0.27513993  1
  Cl  Cl240  1  0.72486007  0.22486007  0.66354723  1
  Cl  Cl241  1  0.27513993  0.77513993  0.66354723  1
  Cl  Cl242  1  0.27513993  0.22486007  0.33645277  1
  Cl  Cl243  1  0.72486007  0.77513993  0.33645277  1
  Cl  Cl244  1  0.66354723  0.22486007  0.72486007  1
  Cl  Cl245  1  0.66354723  0.77513993  0.27513993  1
  Cl  Cl246  1  0.33645277  0.77513993  0.72486007  1
  Cl  Cl247  1  0.33645277  0.22486007  0.27513993  1
  Cl  Cl248  1  0.72486007  0.16354723  0.72486007  1
  Cl  Cl249  1  0.27513993  0.16354723  0.27513993  1
  Cl  Cl250  1  0.72486007  0.83645277  0.27513993  1
  Cl  Cl251  1  0.27513993  0.83645277  0.72486007  1
  Cl  Cl252  1  0.72486007  0.22486007  0.33645277  1
  Cl  Cl253  1  0.27513993  0.77513993  0.33645277  1
  Cl  Cl254  1  0.72486007  0.77513993  0.66354723  1
  Cl  Cl255  1  0.27513993  0.22486007  0.66354723  1
  Cl  Cl256  1  0.72486007  0.16354723  0.27513993  1
  Cl  Cl257  1  0.27513993  0.16354723  0.72486007  1
  Cl  Cl258  1  0.27513993  0.83645277  0.27513993  1
  Cl  Cl259  1  0.72486007  0.83645277  0.72486007  1
  Cl  Cl260  1  0.66354723  0.22486007  0.27513993  1
  Cl  Cl261  1  0.66354723  0.77513993  0.72486007  1
  Cl  Cl262  1  0.33645277  0.22486007  0.72486007  1
  Cl  Cl263  1  0.33645277  0.77513993  0.27513993  1
  Cl  Cl264  1  0.72486007  0.72486007  0.16354723  1
  Cl  Cl265  1  0.27513993  0.27513993  0.16354723  1
  Cl  Cl266  1  0.27513993  0.72486007  0.83645277  1
  Cl  Cl267  1  0.72486007  0.27513993  0.83645277  1
  Cl  Cl268  1  0.66354723  0.72486007  0.22486007  1
  Cl  Cl269  1  0.66354723  0.27513993  0.77513993  1
  Cl  Cl270  1  0.33645277  0.27513993  0.22486007  1
  Cl  Cl271  1  0.33645277  0.72486007  0.77513993  1
  Cl  Cl272  1  0.72486007  0.66354723  0.22486007  1
  Cl  Cl273  1  0.27513993  0.66354723  0.77513993  1
  Cl  Cl274  1  0.72486007  0.33645277  0.77513993  1
  Cl  Cl275  1  0.27513993  0.33645277  0.22486007  1
  Cl  Cl276  1  0.72486007  0.72486007  0.83645277  1
  Cl  Cl277  1  0.27513993  0.27513993  0.83645277  1
  Cl  Cl278  1  0.72486007  0.27513993  0.16354723  1
  Cl  Cl279  1  0.27513993  0.72486007  0.16354723  1
  Cl  Cl280  1  0.72486007  0.66354723  0.77513993  1
  Cl  Cl281  1  0.27513993  0.66354723  0.22486007  1
  Cl  Cl282  1  0.27513993  0.33645277  0.77513993  1
  Cl  Cl283  1  0.72486007  0.33645277  0.22486007  1
  Cl  Cl284  1  0.66354723  0.72486007  0.77513993  1
  Cl  Cl285  1  0.66354723  0.27513993  0.22486007  1
  Cl  Cl286  1  0.33645277  0.72486007  0.22486007  1
  Cl  Cl287  1  0.33645277  0.27513993  0.77513993  1
  Li  Li288  1  0.91876209  0.91876209  0.29641482  1
  Li  Li289  1  0.08123791  0.08123791  0.29641482  1
  Li  Li290  1  0.08123791  0.91876209  0.70358518  1
  Li  Li291  1  0.91876209  0.08123791  0.70358518  1
  Li  Li292  1  0.29641482  0.91876209  0.91876209  1
  Li  Li293  1  0.29641482  0.08123791  0.08123791  1
  Li  Li294  1  0.70358518  0.08123791  0.91876209  1
  Li  Li295  1  0.70358518  0.91876209  0.08123791  1
  Li  Li296  1  0.91876209  0.29641482  0.91876209  1
  Li  Li297  1  0.08123791  0.29641482  0.08123791  1
  Li  Li298  1  0.91876209  0.70358518  0.08123791  1
  Li  Li299  1  0.08123791  0.70358518  0.91876209  1
  Li  Li300  1  0.91876209  0.91876209  0.70358518  1
  Li  Li301  1  0.08123791  0.08123791  0.70358518  1
  Li  Li302  1  0.91876209  0.08123791  0.29641482  1
  Li  Li303  1  0.08123791  0.91876209  0.29641482  1
  Li  Li304  1  0.91876209  0.29641482  0.08123791  1
  Li  Li305  1  0.08123791  0.29641482  0.91876209  1
  Li  Li306  1  0.08123791  0.70358518  0.08123791  1
  Li  Li307  1  0.91876209  0.70358518  0.91876209  1
  Li  Li308  1  0.29641482  0.91876209  0.08123791  1
  Li  Li309  1  0.29641482  0.08123791  0.91876209  1
  Li  Li310  1  0.70358518  0.91876209  0.91876209  1
  Li  Li311  1  0.70358518  0.08123791  0.08123791  1
  Li  Li312  1  0.91876209  0.41876209  0.79641482  1
  Li  Li313  1  0.08123791  0.58123791  0.79641482  1
  Li  Li314  1  0.08123791  0.41876209  0.20358518  1
  Li  Li315  1  0.91876209  0.58123791  0.20358518  1
  Li  Li316  1  0.29641482  0.41876209  0.41876209  1
  Li  Li317  1  0.29641482  0.58123791  0.58123791  1
  Li  Li318  1  0.70358518  0.58123791  0.41876209  1
  Li  Li319  1  0.70358518  0.41876209  0.58123791  1
  Li  Li320  1  0.91876209  0.79641482  0.41876209  1
  Li  Li321  1  0.08123791  0.79641482  0.58123791  1
  Li  Li322  1  0.91876209  0.20358518  0.58123791  1
  Li  Li323  1  0.08123791  0.20358518  0.41876209  1
  Li  Li324  1  0.91876209  0.41876209  0.20358518  1
  Li  Li325  1  0.08123791  0.58123791  0.20358518  1
  Li  Li326  1  0.91876209  0.58123791  0.79641482  1
  Li  Li327  1  0.08123791  0.41876209  0.79641482  1
  Li  Li328  1  0.91876209  0.79641482  0.58123791  1
  Li  Li329  1  0.08123791  0.79641482  0.41876209  1
  Li  Li330  1  0.08123791  0.20358518  0.58123791  1
  Li  Li331  1  0.91876209  0.20358518  0.41876209  1
  Li  Li332  1  0.29641482  0.41876209  0.58123791  1
  Li  Li333  1  0.29641482  0.58123791  0.41876209  1
  Li  Li334  1  0.70358518  0.41876209  0.41876209  1
  Li  Li335  1  0.70358518  0.58123791  0.58123791  1
  Li  Li336  1  0.41876209  0.91876209  0.79641482  1
  Li  Li337  1  0.58123791  0.08123791  0.79641482  1
  Li  Li338  1  0.58123791  0.91876209  0.20358518  1
  Li  Li339  1  0.41876209  0.08123791  0.20358518  1
  Li  Li340  1  0.79641482  0.91876209  0.41876209  1
  Li  Li341  1  0.79641482  0.08123791  0.58123791  1
  Li  Li342  1  0.20358518  0.08123791  0.41876209  1
  Li  Li343  1  0.20358518  0.91876209  0.58123791  1
  Li  Li344  1  0.41876209  0.29641482  0.41876209  1
  Li  Li345  1  0.58123791  0.29641482  0.58123791  1
  Li  Li346  1  0.41876209  0.70358518  0.58123791  1
  Li  Li347  1  0.58123791  0.70358518  0.41876209  1
  Li  Li348  1  0.41876209  0.91876209  0.20358518  1
  Li  Li349  1  0.58123791  0.08123791  0.20358518  1
  Li  Li350  1  0.41876209  0.08123791  0.79641482  1
  Li  Li351  1  0.58123791  0.91876209  0.79641482  1
  Li  Li352  1  0.41876209  0.29641482  0.58123791  1
  Li  Li353  1  0.58123791  0.29641482  0.41876209  1
  Li  Li354  1  0.58123791  0.70358518  0.58123791  1
  Li  Li355  1  0.41876209  0.70358518  0.41876209  1
  Li  Li356  1  0.79641482  0.91876209  0.58123791  1
  Li  Li357  1  0.79641482  0.08123791  0.41876209  1
  Li  Li358  1  0.20358518  0.91876209  0.41876209  1
  Li  Li359  1  0.20358518  0.08123791  0.58123791  1
  Li  Li360  1  0.41876209  0.41876209  0.29641482  1
  Li  Li361  1  0.58123791  0.58123791  0.29641482  1
  Li  Li362  1  0.58123791  0.41876209  0.70358518  1
  Li  Li363  1  0.41876209  0.58123791  0.70358518  1
  Li  Li364  1  0.79641482  0.41876209  0.91876209  1
  Li  Li365  1  0.79641482  0.58123791  0.08123791  1
  Li  Li366  1  0.20358518  0.58123791  0.91876209  1
  Li  Li367  1  0.20358518  0.41876209  0.08123791  1
  Li  Li368  1  0.41876209  0.79641482  0.91876209  1
  Li  Li369  1  0.58123791  0.79641482  0.08123791  1
  Li  Li370  1  0.41876209  0.20358518  0.08123791  1
  Li  Li371  1  0.58123791  0.20358518  0.91876209  1
  Li  Li372  1  0.41876209  0.41876209  0.70358518  1
  Li  Li373  1  0.58123791  0.58123791  0.70358518  1
  Li  Li374  1  0.41876209  0.58123791  0.29641482  1
  Li  Li375  1  0.58123791  0.41876209  0.29641482  1
  Li  Li376  1  0.41876209  0.79641482  0.08123791  1
  Li  Li377  1  0.58123791  0.79641482  0.91876209  1
  Li  Li378  1  0.58123791  0.20358518  0.08123791  1
  Li  Li379  1  0.41876209  0.20358518  0.91876209  1
  Li  Li380  1  0.79641482  0.41876209  0.08123791  1
  Li  Li381  1  0.79641482  0.58123791  0.91876209  1
  Li  Li382  1  0.20358518  0.41876209  0.91876209  1
  Li  Li383  1  0.20358518  0.58123791  0.08123791  1
  O  O384  1  0.00000000  0.18811915  0.18811915  1
  O  O385  1  0.00000000  0.81188085  0.18811915  1
  O  O386  1  0.00000000  0.18811915  0.81188085  1
  O  O387  1  0.00000000  0.81188085  0.81188085  1
  O  O388  1  0.18811915  -0.00000000  0.18811915  1
  O  O389  1  0.18811915  -0.00000000  0.81188085  1
  O  O390  1  0.81188085  0.00000000  0.18811915  1
  O  O391  1  0.81188085  0.00000000  0.81188085  1
  O  O392  1  0.18811915  0.18811915  -0.00000000  1
  O  O393  1  0.81188085  0.18811915  0.00000000  1
  O  O394  1  0.18811915  0.81188085  0.00000000  1
  O  O395  1  0.81188085  0.81188085  -0.00000000  1
  O  O396  1  0.00000000  0.68811915  0.68811915  1
  O  O397  1  0.00000000  0.31188085  0.68811915  1
  O  O398  1  0.00000000  0.68811915  0.31188085  1
  O  O399  1  0.00000000  0.31188085  0.31188085  1
  O  O400  1  0.18811915  0.50000000  0.68811915  1
  O  O401  1  0.18811915  0.50000000  0.31188085  1
  O  O402  1  0.81188085  0.50000000  0.68811915  1
  O  O403  1  0.81188085  0.50000000  0.31188085  1
  O  O404  1  0.18811915  0.68811915  0.50000000  1
  O  O405  1  0.81188085  0.68811915  0.50000000  1
  O  O406  1  0.18811915  0.31188085  0.50000000  1
  O  O407  1  0.81188085  0.31188085  0.50000000  1
  O  O408  1  0.50000000  0.18811915  0.68811915  1
  O  O409  1  0.50000000  0.81188085  0.68811915  1
  O  O410  1  0.50000000  0.18811915  0.31188085  1
  O  O411  1  0.50000000  0.81188085  0.31188085  1
  O  O412  1  0.68811915  0.00000000  0.68811915  1
  O  O413  1  0.68811915  0.00000000  0.31188085  1
  O  O414  1  0.31188085  0.00000000  0.68811915  1
  O  O415  1  0.31188085  0.00000000  0.31188085  1
  O  O416  1  0.68811915  0.18811915  0.50000000  1
  O  O417  1  0.31188085  0.18811915  0.50000000  1
  O  O418  1  0.68811915  0.81188085  0.50000000  1
  O  O419  1  0.31188085  0.81188085  0.50000000  1
  O  O420  1  0.50000000  0.68811915  0.18811915  1
  O  O421  1  0.50000000  0.31188085  0.18811915  1
  O  O422  1  0.50000000  0.68811915  0.81188085  1
  O  O423  1  0.50000000  0.31188085  0.81188085  1
  O  O424  1  0.68811915  0.50000000  0.18811915  1
  O  O425  1  0.68811915  0.50000000  0.81188085  1
  O  O426  1  0.31188085  0.50000000  0.18811915  1
  O  O427  1  0.31188085  0.50000000  0.81188085  1
  O  O428  1  0.68811915  0.68811915  0.00000000  1
  O  O429  1  0.31188085  0.68811915  0.00000000  1
  O  O430  1  0.68811915  0.31188085  0.00000000  1
  O  O431  1  0.31188085  0.31188085  0.00000000  1
  O  O432  1  0.50000000  0.50000000  0.50000000  1
  O  O433  1  0.50000000  0.00000000  0.00000000  1
  O  O434  1  0.00000000  0.50000000  0.00000000  1
  O  O435  1  0.00000000  0.00000000  0.50000000  1
  O  O436  1  0.46545278  0.46545278  0.46545278  1
  O  O437  1  0.53454722  0.53454722  0.46545278  1
  O  O438  1  0.53454722  0.46545278  0.53454722  1
  O  O439  1  0.46545278  0.53454722  0.53454722  1
  O  O440  1  0.46545278  0.46545278  0.53454722  1
  O  O441  1  0.53454722  0.53454722  0.53454722  1
  O  O442  1  0.46545278  0.53454722  0.46545278  1
  O  O443  1  0.53454722  0.46545278  0.46545278  1
  O  O444  1  0.46545278  0.96545278  0.96545278  1
  O  O445  1  0.53454722  0.03454722  0.96545278  1
  O  O446  1  0.53454722  0.96545278  0.03454722  1
  O  O447  1  0.46545278  0.03454722  0.03454722  1
  O  O448  1  0.46545278  0.96545278  0.03454722  1
  O  O449  1  0.53454722  0.03454722  0.03454722  1
  O  O450  1  0.46545278  0.03454722  0.96545278  1
  O  O451  1  0.53454722  0.96545278  0.96545278  1
  O  O452  1  0.96545278  0.46545278  0.96545278  1
  O  O453  1  0.03454722  0.53454722  0.96545278  1
  O  O454  1  0.03454722  0.46545278  0.03454722  1
  O  O455  1  0.96545278  0.53454722  0.03454722  1
  O  O456  1  0.96545278  0.46545278  0.03454722  1
  O  O457  1  0.03454722  0.53454722  0.03454722  1
  O  O458  1  0.96545278  0.53454722  0.96545278  1
  O  O459  1  0.03454722  0.46545278  0.96545278  1
  O  O460  1  0.96545278  0.96545278  0.46545278  1
  O  O461  1  0.03454722  0.03454722  0.46545278  1
  O  O462  1  0.03454722  0.96545278  0.53454722  1
  O  O463  1  0.96545278  0.03454722  0.53454722  1
  O  O464  1  0.96545278  0.96545278  0.53454722  1
  O  O465  1  0.03454722  0.03454722  0.53454722  1
  O  O466  1  0.96545278  0.03454722  0.46545278  1
  O  O467  1  0.03454722  0.96545278  0.46545278  1
  O  O468  1  0.25000000  0.25000000  0.25000000  1
  O  O469  1  0.25000000  0.25000000  0.75000000  1
  O  O470  1  0.25000000  0.75000000  0.75000000  1
  O  O471  1  0.25000000  0.75000000  0.25000000  1
  O  O472  1  0.75000000  0.25000000  0.75000000  1
  O  O473  1  0.75000000  0.25000000  0.25000000  1
  O  O474  1  0.75000000  0.75000000  0.25000000  1
  O  O475  1  0.75000000  0.75000000  0.75000000  1
  O  O476  1  0.00000000  0.00000000  0.00000000  1
  O  O477  1  0.00000000  0.50000000  0.50000000  1
  O  O478  1  0.50000000  0.00000000  0.50000000  1
  O  O479  1  0.50000000  0.50000000  0.00000000  1
  Si  Si480  1  0.75857131  0.00000000  0.00000000  1
  Si  Si481  1  0.24142869  0.00000000  0.00000000  1
  Si  Si482  1  0.00000000  0.75857131  0.00000000  1
  Si  Si483  1  0.00000000  0.24142869  0.00000000  1
  Si  Si484  1  0.00000000  0.00000000  0.75857131  1
  Si  Si485  1  0.00000000  0.00000000  0.24142869  1
  Si  Si486  1  0.75857131  0.50000000  0.50000000  1
  Si  Si487  1  0.24142869  0.50000000  0.50000000  1
  Si  Si488  1  0.00000000  0.25857131  0.50000000  1
  Si  Si489  1  0.00000000  0.74142869  0.50000000  1
  Si  Si490  1  0.00000000  0.50000000  0.25857131  1
  Si  Si491  1  0.00000000  0.50000000  0.74142869  1
  Si  Si492  1  0.25857131  -0.00000000  0.50000000  1
  Si  Si493  1  0.74142869  0.00000000  0.50000000  1
  Si  Si494  1  0.50000000  0.75857131  0.50000000  1
  Si  Si495  1  0.50000000  0.24142869  0.50000000  1
  Si  Si496  1  0.50000000  0.00000000  0.25857131  1
  Si  Si497  1  0.50000000  0.00000000  0.74142869  1
  Si  Si498  1  0.25857131  0.50000000  0.00000000  1
  Si  Si499  1  0.74142869  0.50000000  -0.00000000  1
  Si  Si500  1  0.50000000  0.25857131  -0.00000000  1
  Si  Si501  1  0.50000000  0.74142869  -0.00000000  1
  Si  Si502  1  0.50000000  0.50000000  0.75857131  1
  Si  Si503  1  0.50000000  0.50000000  0.24142869  1
  Si  Si504  1  0.00000000  0.15169734  0.15169734  1
  Si  Si505  1  0.00000000  0.84830266  0.15169734  1
  Si  Si506  1  0.00000000  0.15169734  0.84830266  1
  Si  Si507  1  0.00000000  0.84830266  0.84830266  1
  Si  Si508  1  0.15169734  -0.00000000  0.15169734  1
  Si  Si509  1  0.15169734  -0.00000000  0.84830266  1
  Si  Si510  1  0.84830266  0.00000000  0.15169734  1
  Si  Si511  1  0.84830266  0.00000000  0.84830266  1
  Si  Si512  1  0.15169734  0.15169734  -0.00000000  1
  Si  Si513  1  0.84830266  0.15169734  0.00000000  1
  Si  Si514  1  0.15169734  0.84830266  0.00000000  1
  Si  Si515  1  0.84830266  0.84830266  0.00000000  1
  Si  Si516  1  0.00000000  0.65169734  0.65169734  1
  Si  Si517  1  0.00000000  0.34830266  0.65169734  1
  Si  Si518  1  0.00000000  0.65169734  0.34830266  1
  Si  Si519  1  0.00000000  0.34830266  0.34830266  1
  Si  Si520  1  0.15169734  0.50000000  0.65169734  1
  Si  Si521  1  0.15169734  0.50000000  0.34830266  1
  Si  Si522  1  0.84830266  0.50000000  0.65169734  1
  Si  Si523  1  0.84830266  0.50000000  0.34830266  1
  Si  Si524  1  0.15169734  0.65169734  0.50000000  1
  Si  Si525  1  0.84830266  0.65169734  0.50000000  1
  Si  Si526  1  0.15169734  0.34830266  0.50000000  1
  Si  Si527  1  0.84830266  0.34830266  0.50000000  1
  Si  Si528  1  0.50000000  0.15169734  0.65169734  1
  Si  Si529  1  0.50000000  0.84830266  0.65169734  1
  Si  Si530  1  0.50000000  0.15169734  0.34830266  1
  Si  Si531  1  0.50000000  0.84830266  0.34830266  1
  Si  Si532  1  0.65169734  0.00000000  0.65169734  1
  Si  Si533  1  0.65169734  0.00000000  0.34830266  1
  Si  Si534  1  0.34830266  0.00000000  0.65169734  1
  Si  Si535  1  0.34830266  0.00000000  0.34830266  1
  Si  Si536  1  0.65169734  0.15169734  0.50000000  1
  Si  Si537  1  0.34830266  0.15169734  0.50000000  1
  Si  Si538  1  0.65169734  0.84830266  0.50000000  1
  Si  Si539  1  0.34830266  0.84830266  0.50000000  1
  Si  Si540  1  0.50000000  0.65169734  0.15169734  1
  Si  Si541  1  0.50000000  0.34830266  0.15169734  1
  Si  Si542  1  0.50000000  0.65169734  0.84830266  1
  Si  Si543  1  0.50000000  0.34830266  0.84830266  1
  Si  Si544  1  0.65169734  0.50000000  0.15169734  1
  Si  Si545  1  0.65169734  0.50000000  0.84830266  1
  Si  Si546  1  0.34830266  0.50000000  0.15169734  1
  Si  Si547  1  0.34830266  0.50000000  0.84830266  1
  Si  Si548  1  0.65169734  0.65169734  0.00000000  1
  Si  Si549  1  0.34830266  0.65169734  0.00000000  1
  Si  Si550  1  0.65169734  0.34830266  0.00000000  1
  Si  Si551  1  0.34830266  0.34830266  0.00000000  1
  Si  Si552  1  0.00000000  0.25000000  0.25000000  1
  Si  Si553  1  0.00000000  0.75000000  0.25000000  1
  Si  Si554  1  0.25000000  0.00000000  0.25000000  1
  Si  Si555  1  0.25000000  0.00000000  0.75000000  1
  Si  Si556  1  0.25000000  0.25000000  0.00000000  1
  Si  Si557  1  0.75000000  0.25000000  -0.00000000  1
  Si  Si558  1  0.00000000  0.75000000  0.75000000  1
  Si  Si559  1  0.00000000  0.25000000  0.75000000  1
  Si  Si560  1  0.25000000  0.50000000  0.75000000  1
  Si  Si561  1  0.25000000  0.50000000  0.25000000  1
  Si  Si562  1  0.25000000  0.75000000  0.50000000  1
  Si  Si563  1  0.75000000  0.75000000  0.50000000  1
  Si  Si564  1  0.50000000  0.25000000  0.75000000  1
  Si  Si565  1  0.50000000  0.75000000  0.75000000  1
  Si  Si566  1  0.75000000  0.00000000  0.75000000  1
  Si  Si567  1  0.75000000  0.00000000  0.25000000  1
  Si  Si568  1  0.75000000  0.25000000  0.50000000  1
  Si  Si569  1  0.25000000  0.25000000  0.50000000  1
  Si  Si570  1  0.50000000  0.75000000  0.25000000  1
  Si  Si571  1  0.50000000  0.25000000  0.25000000  1
  Si  Si572  1  0.75000000  0.50000000  0.25000000  1
  Si  Si573  1  0.75000000  0.50000000  0.75000000  1
  Si  Si574  1  0.75000000  0.75000000  -0.00000000  1
  Si  Si575  1  0.25000000  0.75000000  0.00000000  1
