# generated using pymatgen
data_Li2Se
_symmetry_space_group_name_H-M   'P 1'
_cell_length_a   4.57994923
_cell_length_b   5.89305827
_cell_length_c   5.67296144
_cell_angle_alpha   90.00000000
_cell_angle_beta   90.00000000
_cell_angle_gamma   90.00000000
_symmetry_Int_Tables_number   1
_chemical_formula_structural   Li2Se
_chemical_formula_sum   'Li8 Se4'
_cell_volume   153.11270555
_cell_formula_units_Z   4
loop_
 _symmetry_equiv_pos_site_id
 _symmetry_equiv_pos_as_xyz
  1  'x, y, z'
loop_
 _atom_site_type_symbol
 _atom_site_label
 _atom_site_symmetry_multiplicity
 _atom_site_fract_x
 _atom_site_fract_y
 _atom_site_fract_z
 _atom_site_occupancy
  Li  Li0  1  0.31517004  0.72441447  0.00000000  1
  Li  Li1  1  -0.31517004  -0.72441447  -0.00000000  1
  Li  Li2  1  0.18482996  1.22441447  0.50000000  1
  Li  Li3  1  0.81517004  -0.22441447  0.50000000  1
  Li  Li4  1  0.00000000  0.50000000  0.00000000  1
  Li  Li5  1  0.50000000  0.00000000  0.50000000  1
  Li  Li6  1  0.00000000  0.00000000  0.50000000  1
  Li  Li7  1  0.50000000  0.50000000  0.00000000  1
  Se  Se8  1  0.00000000  0.50000000  0.50000000  1
  Se  Se9  1  0.50000000  0.00000000  0.00000000  1
  Se  Se10  1  0.00000000  0.00000000  0.00000000  1
  Se  Se11  1  0.50000000  0.50000000  0.50000000  1
