# generated using pymatgen
data_LiF
_symmetry_space_group_name_H-M   'P 1'
_cell_length_a   7.60142818
_cell_length_b   4.32978118
_cell_length_c   17.26015700
_cell_angle_alpha   90.00000000
_cell_angle_beta   90.00000000
_cell_angle_gamma   90.00000000
_symmetry_Int_Tables_number   1
_chemical_formula_structural   LiF
_chemical_formula_sum   'Li24 F24'
_cell_volume   568.07527396
_cell_formula_units_Z   24
loop_
 _symmetry_equiv_pos_site_id
 _symmetry_equiv_pos_as_xyz
  1  'x, y, z'
loop_
 _atom_site_type_symbol
 _atom_site_label
 _atom_site_symmetry_multiplicity
 _atom_site_fract_x
 _atom_site_fract_y
 _atom_site_fract_z
 _atom_site_occupancy
  F  F0  1  0.63059545  0.25000000  0.68161288  1
  F  F1  1  0.86940455  0.75000000  0.18161288  1
  F  F2  1  0.36940455  0.75000000  0.31838712  1
  F  F3  1  0.13059545  0.25000000  0.81838712  1
  F  F4  1  0.19761843  0.25000000  0.19870083  1
  F  F5  1  0.30238157  0.75000000  0.69870083  1
  F  F6  1  0.80238157  0.75000000  0.80129917  1
  F  F7  1  0.69761843  0.25000000  0.30129917  1
  F  F8  1  0.24091976  0.25000000  0.88420744  1
  F  F9  1  0.25908024  0.75000000  0.38420744  1
  F  F10  1  0.75908024  0.75000000  0.11579256  1
  F  F11  1  0.74091976  0.25000000  0.61579256  1
  F  F12  1  0.34948371  0.13895273  0.38019312  1
  F  F13  1  0.15051629  0.86104727  0.88019312  1
  F  F14  1  0.65051629  0.63895273  0.61980688  1
  F  F15  1  0.84948371  0.36104727  0.11980688  1
  F  F16  1  0.65051629  0.86104727  0.61980688  1
  F  F17  1  0.84948371  0.13895273  0.11980688  1
  F  F18  1  0.34948371  0.36104727  0.38019312  1
  F  F19  1  0.15051629  0.63895273  0.88019312  1
  F  F20  1  0.59768334  0.25000000  0.32630009  1
  F  F21  1  0.90231666  0.75000000  0.82630009  1
  F  F22  1  0.40231666  0.75000000  0.67369991  1
  F  F23  1  0.09768334  0.25000000  0.17369991  1
  Li  Li24  1  0.67255362  0.25000000  0.08931727  1
  Li  Li25  1  0.82744638  0.75000000  0.58931727  1
  Li  Li26  1  0.32744638  0.75000000  0.91068273  1
  Li  Li27  1  0.17255362  0.25000000  0.41068273  1
  Li  Li28  1  0.06851904  0.55449272  0.45856160  1
  Li  Li29  1  0.43148096  -0.55449272  0.95856160  1
  Li  Li30  1  -0.06851904  1.05449272  -0.45856160  1
  Li  Li31  1  0.56851904  -0.05449272  0.04143840  1
  Li  Li32  1  -0.06851904  -0.55449272  -0.45856160  1
  Li  Li33  1  0.56851904  0.55449272  0.04143840  1
  Li  Li34  1  0.06851904  -0.05449272  0.45856160  1
  Li  Li35  1  0.43148096  1.05449272  0.95856160  1
  Li  Li36  1  0.00000000  0.00000000  0.00000000  1
  Li  Li37  1  0.50000000  0.00000000  0.50000000  1
  Li  Li38  1  0.00000000  0.50000000  -0.00000000  1
  Li  Li39  1  0.50000000  0.50000000  0.50000000  1
  Li  Li40  1  0.54226040  0.25000000  0.44017838  1
  Li  Li41  1  0.95773960  0.75000000  0.94017838  1
  Li  Li42  1  0.45773960  0.75000000  0.55982162  1
  Li  Li43  1  0.04226040  0.25000000  0.05982162  1
  Li  Li44  1  0.95260095  0.25000000  0.18898123  1
  Li  Li45  1  0.54739905  0.75000000  0.68898123  1
  Li  Li46  1  0.04739905  0.75000000  0.81101877  1
  Li  Li47  1  0.45260095  0.25000000  0.31101877  1
