# generated using pymatgen
data_ZrBr4
_symmetry_space_group_name_H-M   'P 1'
_cell_length_a   6.68976695
_cell_length_b   6.68976695
_cell_length_c   19.59842891
_cell_angle_alpha   90.00000000
_cell_angle_beta   90.00000000
_cell_angle_gamma   120.00000000
_symmetry_Int_Tables_number   1
_chemical_formula_structural   ZrBr4
_chemical_formula_sum   'Zr6 Br24'
_cell_volume   759.58060356
_cell_formula_units_Z   6
loop_
 _symmetry_equiv_pos_site_id
 _symmetry_equiv_pos_as_xyz
  1  'x, y, z'
loop_
 _atom_site_type_symbol
 _atom_site_label
 _atom_site_symmetry_multiplicity
 _atom_site_fract_x
 _atom_site_fract_y
 _atom_site_fract_z
 _atom_site_occupancy
  Br  Br0  1  0.50000000  0.00000000  0.00000000  1
  Br  Br1  1  0.00000000  0.50000000  0.00000000  1
  Br  Br2  1  0.50000000  0.50000000  0.00000000  1
  Br  Br3  1  0.00000000  0.50000000  0.50000000  1
  Br  Br4  1  0.50000000  0.00000000  0.50000000  1
  Br  Br5  1  0.50000000  0.50000000  0.50000000  1
  Br  Br6  1  1.16666667  0.33333333  0.33333333  1
  Br  Br7  1  0.66666667  0.83333333  0.33333333  1
  Br  Br8  1  1.16666667  0.83333333  0.33333333  1
  Br  Br9  1  0.66666667  0.83333333  0.83333333  1
  Br  Br10  1  1.16666667  0.33333333  0.83333333  1
  Br  Br11  1  1.16666667  0.83333333  0.83333333  1
  Br  Br12  1  0.83333333  0.66666667  0.66666667  1
  Br  Br13  1  0.33333333  1.16666667  0.66666667  1
  Br  Br14  1  0.83333333  1.16666667  0.66666667  1
  Br  Br15  1  0.33333333  1.16666667  1.16666667  1
  Br  Br16  1  0.83333333  0.66666667  1.16666667  1
  Br  Br17  1  0.83333333  1.16666667  1.16666667  1
  Br  Br18  1  0.00000000  0.00000000  0.25000000  1
  Br  Br19  1  0.00000000  0.00000000  0.75000000  1
  Br  Br20  1  0.66666667  0.33333333  0.58333333  1
  Br  Br21  1  0.66666667  0.33333333  0.08333333  1
  Br  Br22  1  0.33333333  0.66666667  0.91666667  1
  Br  Br23  1  0.33333333  0.66666667  0.41666667  1
  Zr  Zr24  1  0.00000000  0.00000000  0.00000000  1
  Zr  Zr25  1  0.00000000  0.00000000  0.50000000  1
  Zr  Zr26  1  0.66666667  0.33333333  0.33333333  1
  Zr  Zr27  1  0.66666667  0.33333333  0.83333333  1
  Zr  Zr28  1  0.33333333  0.66666667  0.66666667  1
  Zr  Zr29  1  0.33333333  0.66666667  0.16666667  1
