# generated using pymatgen
data_Li4Ti3(TeO)4
_symmetry_space_group_name_H-M   'P 1'
_cell_length_a   21.05632090
_cell_length_b   21.05632090
_cell_length_c   5.90786745
_cell_angle_alpha   90.00000000
_cell_angle_beta   90.00000000
_cell_angle_gamma   90.00000000
_symmetry_Int_Tables_number   1
_chemical_formula_structural   Li4Ti3(TeO)4
_chemical_formula_sum   'Li32 Ti24 Te32 O32'
_cell_volume   2619.36321485
_cell_formula_units_Z   8
loop_
 _symmetry_equiv_pos_site_id
 _symmetry_equiv_pos_as_xyz
  1  'x, y, z'
loop_
 _atom_site_type_symbol
 _atom_site_label
 _atom_site_symmetry_multiplicity
 _atom_site_fract_x
 _atom_site_fract_y
 _atom_site_fract_z
 _atom_site_occupancy
  Li  Li0  1  0.04109085  -0.00000000  0.25000000  1
  Li  Li1  1  0.45890915  0.00000000  0.75000000  1
  Li  Li2  1  0.25000000  0.79109085  0.50000000  1
  Li  Li3  1  0.25000000  0.20890915  -0.00000000  1
  Li  Li4  1  0.95890915  -0.00000000  0.75000000  1
  Li  Li5  1  0.54109085  -0.00000000  0.25000000  1
  Li  Li6  1  0.75000000  0.20890915  0.50000000  1
  Li  Li7  1  0.75000000  0.79109085  0.00000000  1
  Li  Li8  1  0.54109085  0.50000000  0.75000000  1
  Li  Li9  1  0.95890915  0.50000000  0.25000000  1
  Li  Li10  1  0.75000000  0.29109085  0.00000000  1
  Li  Li11  1  0.75000000  0.70890915  0.50000000  1
  Li  Li12  1  0.45890915  0.50000000  0.25000000  1
  Li  Li13  1  0.04109085  0.50000000  0.75000000  1
  Li  Li14  1  0.25000000  0.70890915  0.00000000  1
  Li  Li15  1  0.25000000  0.29109085  0.50000000  1
  Li  Li16  1  0.42310971  0.00000000  0.25000000  1
  Li  Li17  1  0.07689029  0.00000000  0.75000000  1
  Li  Li18  1  0.25000000  0.17310971  0.50000000  1
  Li  Li19  1  0.25000000  0.82689029  0.00000000  1
  Li  Li20  1  0.57689029  -0.00000000  0.75000000  1
  Li  Li21  1  0.92310971  0.00000000  0.25000000  1
  Li  Li22  1  0.75000000  0.82689029  0.50000000  1
  Li  Li23  1  0.75000000  0.17310971  0.00000000  1
  Li  Li24  1  0.92310971  0.50000000  0.75000000  1
  Li  Li25  1  0.57689029  0.50000000  0.25000000  1
  Li  Li26  1  0.75000000  0.67310971  0.00000000  1
  Li  Li27  1  0.75000000  0.32689029  0.50000000  1
  Li  Li28  1  0.07689029  0.50000000  0.25000000  1
  Li  Li29  1  0.42310971  0.50000000  0.75000000  1
  Li  Li30  1  0.25000000  0.32689029  0.00000000  1
  Li  Li31  1  0.25000000  0.67310971  0.50000000  1
  O  O32  1  0.66101748  0.74759799  0.98158751  1
  O  O33  1  0.83898252  0.25240201  0.48158751  1
  O  O34  1  0.50240201  0.41101748  0.23158751  1
  O  O35  1  0.99759799  0.58898252  0.73158751  1
  O  O36  1  0.83898252  0.74759799  0.01841249  1
  O  O37  1  0.66101748  0.25240201  0.51841249  1
  O  O38  1  0.99759799  0.41101748  0.76841249  1
  O  O39  1  0.50240201  0.58898252  0.26841249  1
  O  O40  1  0.33898252  0.25240201  0.01841249  1
  O  O41  1  0.16101748  0.74759799  0.51841249  1
  O  O42  1  0.49759799  0.58898252  0.76841249  1
  O  O43  1  0.00240201  0.41101748  0.26841249  1
  O  O44  1  0.16101748  0.25240201  0.98158751  1
  O  O45  1  0.33898252  0.74759799  0.48158751  1
  O  O46  1  0.00240201  0.58898252  0.23158751  1
  O  O47  1  0.49759799  0.41101748  0.73158751  1
  O  O48  1  0.16101748  0.24759799  0.48158751  1
  O  O49  1  0.33898252  0.75240201  0.98158751  1
  O  O50  1  0.00240201  0.91101748  0.73158751  1
  O  O51  1  0.49759799  0.08898252  0.23158751  1
  O  O52  1  0.33898252  0.24759799  0.51841249  1
  O  O53  1  0.16101748  0.75240201  0.01841249  1
  O  O54  1  0.49759799  0.91101748  0.26841249  1
  O  O55  1  0.00240201  0.08898252  0.76841249  1
  O  O56  1  0.83898252  0.75240201  0.51841249  1
  O  O57  1  0.66101748  0.24759799  0.01841249  1
  O  O58  1  0.99759799  0.08898252  0.26841249  1
  O  O59  1  0.50240201  0.91101748  0.76841249  1
  O  O60  1  0.66101748  0.75240201  0.48158751  1
  O  O61  1  0.83898252  0.24759799  0.98158751  1
  O  O62  1  0.50240201  0.08898252  0.73158751  1
  O  O63  1  0.99759799  0.91101748  0.23158751  1
  Te  Te64  1  0.05645955  0.06805444  0.37347838  1
  Te  Te65  1  0.44354045  -0.06805444  0.87347838  1
  Te  Te66  1  0.18194556  0.80645955  0.62347838  1
  Te  Te67  1  0.31805444  0.19354045  1.12347838  1
  Te  Te68  1  0.44354045  0.06805444  -0.37347838  1
  Te  Te69  1  0.05645955  -0.06805444  0.12652162  1
  Te  Te70  1  0.31805444  0.80645955  0.37652162  1
  Te  Te71  1  0.18194556  0.19354045  -0.12347838  1
  Te  Te72  1  -0.05645955  -0.06805444  -0.37347838  1
  Te  Te73  1  0.55645955  0.06805444  0.12652162  1
  Te  Te74  1  0.81805444  0.19354045  0.37652162  1
  Te  Te75  1  0.68194556  0.80645955  -0.12347838  1
  Te  Te76  1  0.55645955  -0.06805444  0.37347838  1
  Te  Te77  1  -0.05645955  0.06805444  0.87347838  1
  Te  Te78  1  0.68194556  0.19354045  0.62347838  1
  Te  Te79  1  0.81805444  0.80645955  1.12347838  1
  Te  Te80  1  0.55645955  0.56805444  0.87347838  1
  Te  Te81  1  0.94354045  0.43194556  1.37347838  1
  Te  Te82  1  0.68194556  1.30645955  1.12347838  1
  Te  Te83  1  0.81805444  0.69354045  1.62347838  1
  Te  Te84  1  0.94354045  0.56805444  0.12652162  1
  Te  Te85  1  0.55645955  0.43194556  0.62652162  1
  Te  Te86  1  0.81805444  1.30645955  0.87652162  1
  Te  Te87  1  0.68194556  0.69354045  0.37652162  1
  Te  Te88  1  0.44354045  0.43194556  0.12652162  1
  Te  Te89  1  1.05645955  0.56805444  0.62652162  1
  Te  Te90  1  1.31805444  0.69354045  0.87652162  1
  Te  Te91  1  1.18194556  1.30645955  0.37652162  1
  Te  Te92  1  1.05645955  0.43194556  0.87347838  1
  Te  Te93  1  0.44354045  0.56805444  1.37347838  1
  Te  Te94  1  1.18194556  0.69354045  1.12347838  1
  Te  Te95  1  1.31805444  1.30645955  1.62347838  1
  Ti  Ti96  1  0.00000000  0.00000000  0.00000000  1
  Ti  Ti97  1  0.50000000  -0.00000000  0.50000000  1
  Ti  Ti98  1  0.25000000  0.75000000  0.25000000  1
  Ti  Ti99  1  0.25000000  0.25000000  0.75000000  1
  Ti  Ti100  1  0.50000000  -0.00000000  -0.00000000  1
  Ti  Ti101  1  0.00000000  0.00000000  0.50000000  1
  Ti  Ti102  1  0.25000000  0.75000000  0.75000000  1
  Ti  Ti103  1  0.25000000  0.25000000  0.25000000  1
  Ti  Ti104  1  0.50000000  0.50000000  0.50000000  1
  Ti  Ti105  1  0.00000000  0.50000000  0.00000000  1
  Ti  Ti106  1  0.75000000  0.25000000  0.75000000  1
  Ti  Ti107  1  0.75000000  0.75000000  0.25000000  1
  Ti  Ti108  1  0.00000000  0.50000000  0.50000000  1
  Ti  Ti109  1  0.50000000  0.50000000  0.00000000  1
  Ti  Ti110  1  0.75000000  0.25000000  0.25000000  1
  Ti  Ti111  1  0.75000000  0.75000000  0.75000000  1
  Ti  Ti112  1  0.00000000  0.25000000  0.12500000  1
  Ti  Ti113  1  0.00000000  0.75000000  0.37500000  1
  Ti  Ti114  1  0.00000000  0.75000000  0.87500000  1
  Ti  Ti115  1  0.00000000  0.25000000  0.62500000  1
  Ti  Ti116  1  0.50000000  0.75000000  0.62500000  1
  Ti  Ti117  1  0.50000000  0.25000000  0.87500000  1
  Ti  Ti118  1  0.50000000  0.25000000  0.37500000  1
  Ti  Ti119  1  0.50000000  0.75000000  0.12500000  1
