# generated using pymatgen
data_Li2Se
_symmetry_space_group_name_H-M   'P 1'
_cell_length_a   15.09135409
_cell_length_b   15.09135409
_cell_length_c   15.09135409
_cell_angle_alpha   90.00000000
_cell_angle_beta   90.00000000
_cell_angle_gamma   90.00000000
_symmetry_Int_Tables_number   1
_chemical_formula_structural   Li2Se
_chemical_formula_sum   'Li96 Se48'
_cell_volume   3437.04032046
_cell_formula_units_Z   48
loop_
 _symmetry_equiv_pos_site_id
 _symmetry_equiv_pos_as_xyz
  1  'x, y, z'
loop_
 _atom_site_type_symbol
 _atom_site_label
 _atom_site_symmetry_multiplicity
 _atom_site_fract_x
 _atom_site_fract_y
 _atom_site_fract_z
 _atom_site_occupancy
  Li  Li0  1  0.73201351  0.09995234  0.76926872  1
  Li  Li1  1  -0.23201351  -0.09995234  1.26926872  1
  Li  Li2  1  -0.73201351  0.59995234  -0.26926872  1
  Li  Li3  1  1.23201351  0.40004766  -0.76926872  1
  Li  Li4  1  0.76926872  0.73201351  0.09995234  1
  Li  Li5  1  1.26926872  -0.23201351  -0.09995234  1
  Li  Li6  1  -0.26926872  -0.73201351  0.59995234  1
  Li  Li7  1  -0.76926872  1.23201351  0.40004766  1
  Li  Li8  1  0.09995234  0.76926872  0.73201351  1
  Li  Li9  1  -0.09995234  1.26926872  -0.23201351  1
  Li  Li10  1  0.59995234  -0.26926872  -0.73201351  1
  Li  Li11  1  0.40004766  -0.76926872  1.23201351  1
  Li  Li12  1  0.84995234  0.98201351  -0.51926872  1
  Li  Li13  1  0.65004766  0.01798649  -0.01926872  1
  Li  Li14  1  0.34995234  -0.48201351  1.51926872  1
  Li  Li15  1  0.15004766  1.48201351  1.01926872  1
  Li  Li16  1  1.48201351  1.01926872  0.15004766  1
  Li  Li17  1  -0.48201351  1.51926872  0.34995234  1
  Li  Li18  1  0.01798649  -0.01926872  0.65004766  1
  Li  Li19  1  0.98201351  -0.51926872  0.84995234  1
  Li  Li20  1  1.51926872  0.34995234  -0.48201351  1
  Li  Li21  1  1.01926872  0.15004766  1.48201351  1
  Li  Li22  1  -0.51926872  0.84995234  0.98201351  1
  Li  Li23  1  -0.01926872  0.65004766  0.01798649  1
  Li  Li24  1  1.23201351  0.59995234  1.26926872  1
  Li  Li25  1  0.26798649  0.40004766  1.76926872  1
  Li  Li26  1  -0.23201351  1.09995234  0.23073128  1
  Li  Li27  1  1.73201351  0.90004766  -0.26926872  1
  Li  Li28  1  1.26926872  1.23201351  0.59995234  1
  Li  Li29  1  1.76926872  0.26798649  0.40004766  1
  Li  Li30  1  0.23073128  -0.23201351  1.09995234  1
  Li  Li31  1  -0.26926872  1.73201351  0.90004766  1
  Li  Li32  1  0.59995234  1.26926872  1.23201351  1
  Li  Li33  1  0.40004766  1.76926872  0.26798649  1
  Li  Li34  1  1.09995234  0.23073128  -0.23201351  1
  Li  Li35  1  0.90004766  -0.26926872  1.73201351  1
  Li  Li36  1  1.34995234  1.48201351  -0.01926872  1
  Li  Li37  1  1.15004766  0.51798649  0.48073128  1
  Li  Li38  1  0.84995234  0.01798649  2.01926872  1
  Li  Li39  1  0.65004766  1.98201351  1.51926872  1
  Li  Li40  1  1.98201351  1.51926872  0.65004766  1
  Li  Li41  1  0.01798649  2.01926872  0.84995234  1
  Li  Li42  1  0.51798649  0.48073128  1.15004766  1
  Li  Li43  1  1.48201351  -0.01926872  1.34995234  1
  Li  Li44  1  2.01926872  0.84995234  0.01798649  1
  Li  Li45  1  1.51926872  0.65004766  1.98201351  1
  Li  Li46  1  -0.01926872  1.34995234  1.48201351  1
  Li  Li47  1  0.48073128  1.15004766  0.51798649  1
  Li  Li48  1  0.57156481  0.01421503  0.92418683  1
  Li  Li49  1  0.92843519  0.98578497  0.42418683  1
  Li  Li50  1  0.42843519  0.51421503  0.57581317  1
  Li  Li51  1  0.07156481  0.48578497  0.07581317  1
  Li  Li52  1  0.92418683  0.57156481  0.01421503  1
  Li  Li53  1  0.42418683  0.92843519  0.98578497  1
  Li  Li54  1  0.57581317  0.42843519  0.51421503  1
  Li  Li55  1  0.07581317  0.07156481  0.48578497  1
  Li  Li56  1  0.01421503  0.92418683  0.57156481  1
  Li  Li57  1  0.98578497  0.42418683  0.92843519  1
  Li  Li58  1  0.51421503  0.57581317  0.42843519  1
  Li  Li59  1  0.48578497  0.07581317  0.07156481  1
  Li  Li60  1  0.76421503  0.82156481  0.32581317  1
  Li  Li61  1  0.73578497  0.17843519  0.82581317  1
  Li  Li62  1  0.26421503  0.67843519  0.67418683  1
  Li  Li63  1  0.23578497  0.32156481  0.17418683  1
  Li  Li64  1  0.32156481  0.17418683  0.23578497  1
  Li  Li65  1  0.67843519  0.67418683  0.26421503  1
  Li  Li66  1  0.17843519  0.82581317  0.73578497  1
  Li  Li67  1  0.82156481  0.32581317  0.76421503  1
  Li  Li68  1  0.67418683  0.26421503  0.67843519  1
  Li  Li69  1  0.17418683  0.23578497  0.32156481  1
  Li  Li70  1  0.32581317  0.76421503  0.82156481  1
  Li  Li71  1  0.82581317  0.73578497  0.17843519  1
  Li  Li72  1  0.07156481  0.51421503  0.42418683  1
  Li  Li73  1  0.42843519  0.48578497  0.92418683  1
  Li  Li74  1  0.92843519  0.01421503  0.07581317  1
  Li  Li75  1  0.57156481  0.98578497  0.57581317  1
  Li  Li76  1  0.42418683  0.07156481  0.51421503  1
  Li  Li77  1  0.92418683  0.42843519  0.48578497  1
  Li  Li78  1  0.07581317  0.92843519  0.01421503  1
  Li  Li79  1  0.57581317  0.57156481  0.98578497  1
  Li  Li80  1  0.51421503  0.42418683  0.07156481  1
  Li  Li81  1  0.48578497  0.92418683  0.42843519  1
  Li  Li82  1  0.01421503  0.07581317  0.92843519  1
  Li  Li83  1  0.98578497  0.57581317  0.57156481  1
  Li  Li84  1  0.26421503  0.32156481  0.82581317  1
  Li  Li85  1  0.23578497  0.67843519  0.32581317  1
  Li  Li86  1  0.76421503  0.17843519  0.17418683  1
  Li  Li87  1  0.73578497  0.82156481  0.67418683  1
  Li  Li88  1  0.82156481  0.67418683  0.73578497  1
  Li  Li89  1  0.17843519  0.17418683  0.76421503  1
  Li  Li90  1  0.67843519  0.32581317  0.23578497  1
  Li  Li91  1  0.32156481  0.82581317  0.26421503  1
  Li  Li92  1  0.17418683  0.76421503  0.17843519  1
  Li  Li93  1  0.67418683  0.73578497  0.82156481  1
  Li  Li94  1  0.82581317  0.26421503  0.32156481  1
  Li  Li95  1  0.32581317  0.23578497  0.67843519  1
  Se  Se96  1  0.87500000  0.87500000  0.87500000  1
  Se  Se97  1  0.62500000  0.12500000  0.37500000  1
  Se  Se98  1  0.12500000  0.37500000  0.62500000  1
  Se  Se99  1  0.37500000  0.62500000  0.12500000  1
  Se  Se100  1  0.37500000  0.37500000  0.37500000  1
  Se  Se101  1  0.12500000  0.62500000  0.87500000  1
  Se  Se102  1  0.62500000  0.87500000  0.12500000  1
  Se  Se103  1  0.87500000  0.12500000  0.62500000  1
  Se  Se104  1  0.12500000  0.06471817  0.18528183  1
  Se  Se105  1  0.37500000  0.93528183  0.68528183  1
  Se  Se106  1  0.87500000  0.56471817  0.31471817  1
  Se  Se107  1  0.62500000  0.43528183  0.81471817  1
  Se  Se108  1  0.18528183  0.12500000  0.06471817  1
  Se  Se109  1  0.68528183  0.37500000  0.93528183  1
  Se  Se110  1  0.31471817  0.87500000  0.56471817  1
  Se  Se111  1  0.81471817  0.62500000  0.43528183  1
  Se  Se112  1  0.06471817  0.18528183  0.12500000  1
  Se  Se113  1  0.93528183  0.68528183  0.37500000  1
  Se  Se114  1  0.56471817  0.31471817  0.87500000  1
  Se  Se115  1  0.43528183  0.81471817  0.62500000  1
  Se  Se116  1  0.62500000  0.56471817  0.68528183  1
  Se  Se117  1  0.87500000  0.43528183  0.18528183  1
  Se  Se118  1  0.37500000  0.06471817  0.81471817  1
  Se  Se119  1  0.12500000  0.93528183  0.31471817  1
  Se  Se120  1  0.68528183  0.62500000  0.56471817  1
  Se  Se121  1  0.18528183  0.87500000  0.43528183  1
  Se  Se122  1  0.81471817  0.37500000  0.06471817  1
  Se  Se123  1  0.31471817  0.12500000  0.93528183  1
  Se  Se124  1  0.56471817  0.68528183  0.62500000  1
  Se  Se125  1  0.43528183  0.18528183  0.87500000  1
  Se  Se126  1  0.06471817  0.81471817  0.37500000  1
  Se  Se127  1  0.93528183  0.31471817  0.12500000  1
  Se  Se128  1  0.22604731  0.22604731  0.22604731  1
  Se  Se129  1  0.27395269  0.77395269  0.72604731  1
  Se  Se130  1  0.77395269  0.72604731  0.27395269  1
  Se  Se131  1  0.72604731  0.27395269  0.77395269  1
  Se  Se132  1  0.97604731  0.47604731  0.02395269  1
  Se  Se133  1  0.52395269  0.52395269  0.52395269  1
  Se  Se134  1  0.47604731  0.02395269  0.97604731  1
  Se  Se135  1  0.02395269  0.97604731  0.47604731  1
  Se  Se136  1  0.72604731  0.72604731  0.72604731  1
  Se  Se137  1  0.77395269  0.27395269  0.22604731  1
  Se  Se138  1  0.27395269  0.22604731  0.77395269  1
  Se  Se139  1  0.22604731  0.77395269  0.27395269  1
  Se  Se140  1  0.47604731  0.97604731  0.52395269  1
  Se  Se141  1  0.02395269  0.02395269  0.02395269  1
  Se  Se142  1  0.97604731  0.52395269  0.47604731  1
  Se  Se143  1  0.52395269  0.47604731  0.97604731  1
