# generated using pymatgen
data_Li3GdNbO4
_symmetry_space_group_name_H-M   'P 1'
_cell_length_a   8.10933823
_cell_length_b   6.61534772
_cell_length_c   8.35979802
_cell_angle_alpha   90.00000000
_cell_angle_beta   90.00000000
_cell_angle_gamma   90.00000000
_symmetry_Int_Tables_number   1
_chemical_formula_structural   Li3GdNbO4
_chemical_formula_sum   'Li3 Gd1 Nb1 O4'
_cell_volume   448.47049550
_cell_formula_units_Z   1
loop_
 _symmetry_equiv_pos_site_id
 _symmetry_equiv_pos_as_xyz
  1  'x, y, z'
loop_
 _atom_site_type_symbol
 _atom_site_label
 _atom_site_symmetry_multiplicity
 _atom_site_fract_x
 _atom_site_fract_y
 _atom_site_fract_z
 _atom_site_occupancy
  Li  Li0  1  0.12500000  0.12500000  0.12500000  1
  Li  Li1  1  0.50000000  0.50000000  0.50000000  1
  Li  Li2  1  0.25000000  0.25000000  0.25000000  1
  Nb  Nb3  1  0.75000000  0.75000000  0.75000000  1
  O  O4  1  0.94796353  0.72084406  0.53110837  1
  O  O5  1  0.05542365  0.75147092  0.67484901  1
  O  O6  1  0.61099730  0.52867140  0.17718114  1
  O  O7  1  0.81747159  0.54965769  0.65147671  1
  Gd  Gd8  1  0.56542406  0.35544494  0.67486029  1
