# generated using pymatgen
data_Sr3Li2O4
_symmetry_space_group_name_H-M   'P 1'
_cell_length_a   11.75993323
_cell_length_b   11.75993323
_cell_length_c   11.75993323
_cell_angle_alpha   90.00000000
_cell_angle_beta   90.00000000
_cell_angle_gamma   90.00000000
_symmetry_Int_Tables_number   1
_chemical_formula_structural   Sr3Li2O4
_chemical_formula_sum   'Sr24 Li16 O32'
_cell_volume   1626.35207432
_cell_formula_units_Z   8
loop_
 _symmetry_equiv_pos_site_id
 _symmetry_equiv_pos_as_xyz
  1  'x, y, z'
loop_
 _atom_site_type_symbol
 _atom_site_label
 _atom_site_symmetry_multiplicity
 _atom_site_fract_x
 _atom_site_fract_y
 _atom_site_fract_z
 _atom_site_occupancy
  Li  Li0  1  0.82565125  0.82565125  0.82565125  1
  Li  Li1  1  0.67434875  0.17434875  0.32565125  1
  Li  Li2  1  0.17434875  0.32565125  0.67434875  1
  Li  Li3  1  0.32565125  0.67434875  0.17434875  1
  Li  Li4  1  0.57565125  0.07565125  0.42434875  1
  Li  Li5  1  0.92434875  0.92434875  0.92434875  1
  Li  Li6  1  0.07565125  0.42434875  0.57565125  1
  Li  Li7  1  0.42434875  0.57565125  0.07565125  1
  Li  Li8  1  0.32565125  0.32565125  0.32565125  1
  Li  Li9  1  0.17434875  0.67434875  0.82565125  1
  Li  Li10  1  0.67434875  0.82565125  0.17434875  1
  Li  Li11  1  0.82565125  0.17434875  0.67434875  1
  Li  Li12  1  0.07565125  0.57565125  0.92434875  1
  Li  Li13  1  0.42434875  0.42434875  0.42434875  1
  Li  Li14  1  0.57565125  0.92434875  0.07565125  1
  Li  Li15  1  0.92434875  0.07565125  0.57565125  1
  O  O16  1  0.12500000  0.12500000  0.12500000  1
  O  O17  1  0.37500000  0.87500000  0.62500000  1
  O  O18  1  0.87500000  0.62500000  0.37500000  1
  O  O19  1  0.62500000  0.37500000  0.87500000  1
  O  O20  1  0.62500000  0.62500000  0.62500000  1
  O  O21  1  0.87500000  0.37500000  0.12500000  1
  O  O22  1  0.37500000  0.12500000  0.87500000  1
  O  O23  1  0.12500000  0.87500000  0.37500000  1
  O  O24  1  0.23780551  0.00000000  0.25000000  1
  O  O25  1  0.26219449  0.00000000  0.75000000  1
  O  O26  1  0.25000000  0.23780551  0.00000000  1
  O  O27  1  0.75000000  0.26219449  -0.00000000  1
  O  O28  1  0.00000000  0.25000000  0.23780551  1
  O  O29  1  0.00000000  0.75000000  0.26219449  1
  O  O30  1  0.75000000  0.48780551  -0.00000000  1
  O  O31  1  0.75000000  0.51219449  0.50000000  1
  O  O32  1  0.98780551  0.50000000  0.25000000  1
  O  O33  1  0.01219449  0.00000000  0.25000000  1
  O  O34  1  0.00000000  0.25000000  0.01219449  1
  O  O35  1  0.50000000  0.25000000  0.98780551  1
  O  O36  1  0.73780551  0.50000000  0.75000000  1
  O  O37  1  0.76219449  0.50000000  0.25000000  1
  O  O38  1  0.75000000  0.73780551  0.50000000  1
  O  O39  1  0.25000000  0.76219449  0.50000000  1
  O  O40  1  0.50000000  0.75000000  0.73780551  1
  O  O41  1  0.50000000  0.25000000  0.76219449  1
  O  O42  1  0.25000000  0.98780551  0.50000000  1
  O  O43  1  0.25000000  0.01219449  0.00000000  1
  O  O44  1  0.48780551  0.00000000  0.75000000  1
  O  O45  1  0.51219449  0.50000000  0.75000000  1
  O  O46  1  0.50000000  0.75000000  0.51219449  1
  O  O47  1  0.00000000  0.75000000  0.48780551  1
  Sr  Sr48  1  0.79397487  -0.00000000  0.25000000  1
  Sr  Sr49  1  -0.29397487  0.00000000  0.75000000  1
  Sr  Sr50  1  0.25000000  0.79397487  -0.00000000  1
  Sr  Sr51  1  0.75000000  -0.29397487  -0.00000000  1
  Sr  Sr52  1  0.00000000  0.25000000  0.79397487  1
  Sr  Sr53  1  0.00000000  0.75000000  -0.29397487  1
  Sr  Sr54  1  0.75000000  1.04397487  0.00000000  1
  Sr  Sr55  1  0.75000000  -0.04397487  0.50000000  1
  Sr  Sr56  1  1.54397487  0.50000000  0.25000000  1
  Sr  Sr57  1  -0.54397487  0.00000000  0.25000000  1
  Sr  Sr58  1  0.00000000  0.25000000  -0.54397487  1
  Sr  Sr59  1  0.50000000  0.25000000  1.54397487  1
  Sr  Sr60  1  1.29397487  0.50000000  0.75000000  1
  Sr  Sr61  1  0.20602513  0.50000000  1.25000000  1
  Sr  Sr62  1  0.75000000  1.29397487  0.50000000  1
  Sr  Sr63  1  1.25000000  0.20602513  0.50000000  1
  Sr  Sr64  1  0.50000000  0.75000000  1.29397487  1
  Sr  Sr65  1  0.50000000  1.25000000  0.20602513  1
  Sr  Sr66  1  1.25000000  1.54397487  0.50000000  1
  Sr  Sr67  1  1.25000000  0.45602513  1.00000000  1
  Sr  Sr68  1  2.04397487  1.00000000  0.75000000  1
  Sr  Sr69  1  -0.04397487  0.50000000  0.75000000  1
  Sr  Sr70  1  0.50000000  0.75000000  -0.04397487  1
  Sr  Sr71  1  1.00000000  0.75000000  2.04397487  1
