# generated using pymatgen
data_Li3Ti2AsBr6O
_symmetry_space_group_name_H-M   'P 1'
_cell_length_a   8.22866582
_cell_length_b   8.59871785
_cell_length_c   7.04242525
_cell_angle_alpha   90.00000000
_cell_angle_beta   90.00000000
_cell_angle_gamma   90.00000000
_symmetry_Int_Tables_number   1
_chemical_formula_structural   Li3Ti2AsBr6O
_chemical_formula_sum   'Li3 Ti2 As1 Br6 O1'
_cell_volume   498.29366950
_cell_formula_units_Z   1
loop_
 _symmetry_equiv_pos_site_id
 _symmetry_equiv_pos_as_xyz
  1  'x, y, z'
loop_
 _atom_site_type_symbol
 _atom_site_label
 _atom_site_symmetry_multiplicity
 _atom_site_fract_x
 _atom_site_fract_y
 _atom_site_fract_z
 _atom_site_occupancy
  Li  Li0  1  0.00000000  0.00000000  0.00000000  1
  Li  Li1  1  0.50000000  0.50000000  0.50000000  1
  Li  Li2  1  0.25000000  0.25000000  0.25000000  1
  Ti  Ti3  1  0.75000000  0.25000000  0.00000000  1
  Ti  Ti4  1  0.25000000  0.75000000  0.50000000  1
  Br  Br5  1  0.34931315  0.30994635  0.65977059  1
  Br  Br6  1  0.61772508  0.85426942  0.00421848  1
  Br  Br7  1  0.20705307  0.25896109  0.62683546  1
  Br  Br8  1  0.19925719  0.10582128  0.86342795  1
  Br  Br9  1  0.26658106  0.90665040  0.86560647  1
  Br  Br10  1  0.05869434  0.14099088  0.36757417  1
  O  O11  1  0.51666081  0.14152918  0.70693797  1
  As  As12  1  0.71916821  0.33240327  0.92035359  1
