# generated using pymatgen
data_Li3Al3Sb2O5
_symmetry_space_group_name_H-M   'P 1'
_cell_length_a   7.93876001
_cell_length_b   7.61713209
_cell_length_c   6.39171203
_cell_angle_alpha   90.00000000
_cell_angle_beta   90.00000000
_cell_angle_gamma   90.00000000
_symmetry_Int_Tables_number   1
_chemical_formula_structural   Li3Al3Sb2O5
_chemical_formula_sum   'Li3 Al3 Sb2 O5'
_cell_volume   386.51055643
_cell_formula_units_Z   1
loop_
 _symmetry_equiv_pos_site_id
 _symmetry_equiv_pos_as_xyz
  1  'x, y, z'
loop_
 _atom_site_type_symbol
 _atom_site_label
 _atom_site_symmetry_multiplicity
 _atom_site_fract_x
 _atom_site_fract_y
 _atom_site_fract_z
 _atom_site_occupancy
  Li  Li0  1  0.12500000  0.12500000  0.12500000  1
  Li  Li1  1  0.50000000  0.50000000  0.50000000  1
  Li  Li2  1  0.25000000  0.25000000  0.25000000  1
  Al  Al3  1  0.75000000  0.75000000  0.75000000  1
  Al  Al4  1  0.38299823  0.17912182  0.68260374  1
  Al  Al5  1  0.14946313  0.81700263  0.68396558  1
  O  O6  1  0.52632134  0.28401719  0.81082813  1
  O  O7  1  0.19531153  0.66966096  0.65296124  1
  O  O8  1  0.74455377  0.83767819  0.53411020  1
  O  O9  1  0.24903121  0.10401396  0.76818959  1
  O  O10  1  0.04127673  0.19279077  0.59416270  1
  Sb  Sb11  1  0.47728900  0.00435260  0.25737694  1
  Sb  Sb12  1  0.80780077  0.86335747  0.25719560  1
