# generated using pymatgen
data_LiBr
_symmetry_space_group_name_H-M   'P 1'
_cell_length_a   3.87731651
_cell_length_b   3.87731651
_cell_length_c   15.94634232
_cell_angle_alpha   90.00000000
_cell_angle_beta   90.00000000
_cell_angle_gamma   120.00000000
_symmetry_Int_Tables_number   1
_chemical_formula_structural   LiBr
_chemical_formula_sum   'Li6 Br6'
_cell_volume   207.61284640
_cell_formula_units_Z   6
loop_
 _symmetry_equiv_pos_site_id
 _symmetry_equiv_pos_as_xyz
  1  'x, y, z'
loop_
 _atom_site_type_symbol
 _atom_site_label
 _atom_site_symmetry_multiplicity
 _atom_site_fract_x
 _atom_site_fract_y
 _atom_site_fract_z
 _atom_site_occupancy
  Br  Br0  1  0.86991219  0.21597661  0.29645321  1
  Br  Br1  1  -0.21597661  0.65393558  0.29645321  1
  Br  Br2  1  -0.65393558  -0.86991219  0.29645321  1
  Br  Br3  1  -0.21597661  -0.86991219  -0.29645321  1
  Br  Br4  1  -0.65393558  0.21597661  -0.29645321  1
  Br  Br5  1  0.86991219  0.65393558  -0.29645321  1
  Li  Li6  1  0.33333333  0.66666667  -0.00000000  1
  Li  Li7  1  0.66666667  0.33333333  -0.00000000  1
  Li  Li8  1  0.66666667  0.33333333  0.50000000  1
  Li  Li9  1  0.33333333  0.66666667  0.10942273  1
  Li  Li10  1  0.33333333  0.66666667  0.89057727  1
  Li  Li11  1  0.33333333  0.66666667  0.50000000  1
