# generated using pymatgen
data_Li2MgBr4
_symmetry_space_group_name_H-M   'P 1'
_cell_length_a   8.62890998
_cell_length_b   8.62890998
_cell_length_c   14.25218551
_cell_angle_alpha   90.00000000
_cell_angle_beta   90.00000000
_cell_angle_gamma   120.00000000
_symmetry_Int_Tables_number   1
_chemical_formula_structural   Li2MgBr4
_chemical_formula_sum   'Li12 Mg6 Br24'
_cell_volume   919.01790950
_cell_formula_units_Z   6
loop_
 _symmetry_equiv_pos_site_id
 _symmetry_equiv_pos_as_xyz
  1  'x, y, z'
loop_
 _atom_site_type_symbol
 _atom_site_label
 _atom_site_symmetry_multiplicity
 _atom_site_fract_x
 _atom_site_fract_y
 _atom_site_fract_z
 _atom_site_occupancy
  Br  Br0  1  0.27030356  0.00000000  0.25000000  1
  Br  Br1  1  0.00000000  0.27030356  0.25000000  1
  Br  Br2  1  -0.27030356  -0.27030356  0.25000000  1
  Br  Br3  1  -0.27030356  -0.00000000  0.75000000  1
  Br  Br4  1  0.00000000  -0.27030356  0.75000000  1
  Br  Br5  1  0.27030356  0.27030356  0.75000000  1
  Br  Br6  1  0.93697022  0.33333333  0.58333333  1
  Br  Br7  1  0.66666667  0.60363689  0.58333333  1
  Br  Br8  1  0.39636311  0.06302978  0.58333333  1
  Br  Br9  1  0.39636311  0.33333333  1.08333333  1
  Br  Br10  1  0.66666667  0.06302978  1.08333333  1
  Br  Br11  1  0.93697022  0.60363689  1.08333333  1
  Br  Br12  1  0.60363689  0.66666667  0.91666667  1
  Br  Br13  1  0.33333333  0.93697022  0.91666667  1
  Br  Br14  1  0.06302978  0.39636311  0.91666667  1
  Br  Br15  1  0.06302978  0.66666667  1.41666667  1
  Br  Br16  1  0.33333333  0.39636311  1.41666667  1
  Br  Br17  1  0.60363689  0.93697022  1.41666667  1
  Br  Br18  1  0.00000000  0.00000000  0.00000000  1
  Br  Br19  1  0.00000000  0.00000000  0.50000000  1
  Br  Br20  1  0.66666667  0.33333333  0.33333333  1
  Br  Br21  1  0.66666667  0.33333333  0.83333333  1
  Br  Br22  1  0.33333333  0.66666667  0.66666667  1
  Br  Br23  1  0.33333333  0.66666667  0.16666667  1
  Li  Li24  1  0.00000000  0.00000000  0.87535291  1
  Li  Li25  1  0.00000000  0.00000000  0.62464709  1
  Li  Li26  1  0.00000000  0.00000000  0.12464709  1
  Li  Li27  1  0.00000000  0.00000000  0.37535291  1
  Li  Li28  1  0.66666667  0.33333333  0.20868625  1
  Li  Li29  1  0.66666667  0.33333333  0.95798042  1
  Li  Li30  1  0.66666667  0.33333333  0.45798042  1
  Li  Li31  1  0.66666667  0.33333333  0.70868625  1
  Li  Li32  1  0.33333333  0.66666667  0.54201958  1
  Li  Li33  1  0.33333333  0.66666667  0.29131375  1
  Li  Li34  1  0.33333333  0.66666667  0.79131375  1
  Li  Li35  1  0.33333333  0.66666667  0.04201958  1
  Mg  Mg36  1  0.00000000  0.00000000  0.25000000  1
  Mg  Mg37  1  0.00000000  0.00000000  0.75000000  1
  Mg  Mg38  1  0.66666667  0.33333333  0.58333333  1
  Mg  Mg39  1  0.66666667  0.33333333  0.08333333  1
  Mg  Mg40  1  0.33333333  0.66666667  0.91666667  1
  Mg  Mg41  1  0.33333333  0.66666667  0.41666667  1
