# generated using pymatgen
data_Li2Ti3Te2As4(PBr2)2
_symmetry_space_group_name_H-M   'P 1'
_cell_length_a   8.73551826
_cell_length_b   10.03437930
_cell_length_c   8.35101765
_cell_angle_alpha   90.00000000
_cell_angle_beta   90.00000000
_cell_angle_gamma   90.00000000
_symmetry_Int_Tables_number   1
_chemical_formula_structural   Li2Ti3Te2As4(PBr2)2
_chemical_formula_sum   'Li2 Ti3 Te2 As4 P2 Br4'
_cell_volume   732.01265759
_cell_formula_units_Z   1
loop_
 _symmetry_equiv_pos_site_id
 _symmetry_equiv_pos_as_xyz
  1  'x, y, z'
loop_
 _atom_site_type_symbol
 _atom_site_label
 _atom_site_symmetry_multiplicity
 _atom_site_fract_x
 _atom_site_fract_y
 _atom_site_fract_z
 _atom_site_occupancy
  Li  Li0  1  0.00000000  0.00000000  0.00000000  1
  Li  Li1  1  0.50000000  0.50000000  0.50000000  1
  Ti  Ti2  1  0.25000000  0.25000000  0.25000000  1
  Ti  Ti3  1  0.75000000  0.25000000  0.00000000  1
  Ti  Ti4  1  0.25000000  0.75000000  0.50000000  1
  P  P5  1  0.73403217  0.99847835  0.48427121  1
  P  P6  1  0.72058850  0.78645033  0.37291707  1
  Te  Te7  1  0.26428269  0.31602927  0.90312367  1
  Te  Te8  1  0.16608907  0.12294618  0.07862920  1
  As  As9  1  0.60462880  0.12661134  0.01069102  1
  As  As10  1  0.29494751  0.94916479  0.40090766  1
  As  As11  1  0.55119551  0.21725578  0.06568892  1
  As  As12  1  0.93233180  0.03928768  0.10237676  1
  Br  Br13  1  0.09148126  0.94676163  0.91668817  1
  Br  Br14  1  0.64759545  0.71862545  0.64583383  1
  Br  Br15  1  0.51927532  0.75436728  0.51571840  1
  Br  Br16  1  0.16293141  0.94937308  0.86305407  1
