# generated using pymatgen
data_Li9Al2(SeI3)3
_symmetry_space_group_name_H-M   'P 1'
_cell_length_a   23.32365285
_cell_length_b   23.32365285
_cell_length_c   5.99537275
_cell_angle_alpha   90.00000000
_cell_angle_beta   90.00000000
_cell_angle_gamma   120.00000000
_symmetry_Int_Tables_number   1
_chemical_formula_structural   Li9Al2(SeI3)3
_chemical_formula_sum   'Li54 Al12 Se18 I54'
_cell_volume   2824.48946167
_cell_formula_units_Z   6
loop_
 _symmetry_equiv_pos_site_id
 _symmetry_equiv_pos_as_xyz
  1  'x, y, z'
loop_
 _atom_site_type_symbol
 _atom_site_label
 _atom_site_symmetry_multiplicity
 _atom_site_fract_x
 _atom_site_fract_y
 _atom_site_fract_z
 _atom_site_occupancy
  Al  Al0  1  0.00000000  0.00000000  0.25000000  1
  Al  Al1  1  0.00000000  0.00000000  0.75000000  1
  Al  Al2  1  0.66666667  0.33333333  0.58333333  1
  Al  Al3  1  0.66666667  0.33333333  0.08333333  1
  Al  Al4  1  0.33333333  0.66666667  0.91666667  1
  Al  Al5  1  0.33333333  0.66666667  0.41666667  1
  Al  Al6  1  0.00000000  0.00000000  0.00000000  1
  Al  Al7  1  0.00000000  0.00000000  0.50000000  1
  Al  Al8  1  0.66666667  0.33333333  0.33333333  1
  Al  Al9  1  0.66666667  0.33333333  0.83333333  1
  Al  Al10  1  0.33333333  0.66666667  0.66666667  1
  Al  Al11  1  0.33333333  0.66666667  0.16666667  1
  I  I12  1  0.91569223  0.43209738  0.48367875  1
  I  I13  1  0.56790262  0.48359486  0.48367875  1
  I  I14  1  0.51640514  0.08430777  0.48367875  1
  I  I15  1  0.43209738  0.91569223  0.01632125  1
  I  I16  1  0.48359486  0.56790262  0.01632125  1
  I  I17  1  0.08430777  0.51640514  0.01632125  1
  I  I18  1  0.08430777  0.56790262  0.51632125  1
  I  I19  1  0.43209738  0.51640514  0.51632125  1
  I  I20  1  0.48359486  0.91569223  0.51632125  1
  I  I21  1  0.56790262  0.08430777  0.98367875  1
  I  I22  1  0.51640514  0.43209738  0.98367875  1
  I  I23  1  0.91569223  0.48359486  0.98367875  1
  I  I24  1  0.58235890  0.76543071  0.81701208  1
  I  I25  1  0.23456929  0.81692819  0.81701208  1
  I  I26  1  0.18307181  0.41764110  0.81701208  1
  I  I27  1  0.09876404  0.24902557  0.34965458  1
  I  I28  1  0.15026152  0.90123596  0.34965458  1
  I  I29  1  0.75097443  0.84973848  0.34965458  1
  I  I30  1  0.75097443  0.90123596  0.84965458  1
  I  I31  1  0.09876404  0.84973848  0.84965458  1
  I  I32  1  0.15026152  0.24902557  0.84965458  1
  I  I33  1  0.23456929  0.41764110  0.31701208  1
  I  I34  1  0.18307181  0.76543071  0.31701208  1
  I  I35  1  0.58235890  0.81692819  0.31701208  1
  I  I36  1  0.24902557  0.09876404  0.15034542  1
  I  I37  1  0.90123596  0.15026152  0.15034542  1
  I  I38  1  0.84973848  0.75097443  0.15034542  1
  I  I39  1  0.76543071  0.58235890  0.68298792  1
  I  I40  1  0.81692819  0.23456929  0.68298792  1
  I  I41  1  0.41764110  0.18307181  0.68298792  1
  I  I42  1  0.41764110  0.23456929  0.18298792  1
  I  I43  1  0.76543071  0.18307181  0.18298792  1
  I  I44  1  0.81692819  0.58235890  0.18298792  1
  I  I45  1  0.90123596  0.75097443  0.65034542  1
  I  I46  1  0.84973848  0.09876404  0.65034542  1
  I  I47  1  0.24902557  0.15026152  0.65034542  1
  I  I48  1  0.52297450  0.00000000  0.25000000  1
  I  I49  1  0.00000000  0.52297450  0.25000000  1
  I  I50  1  0.47702550  0.47702550  0.25000000  1
  I  I51  1  0.47702550  0.00000000  0.75000000  1
  I  I52  1  0.00000000  0.47702550  0.75000000  1
  I  I53  1  0.52297450  0.52297450  0.75000000  1
  I  I54  1  0.18964117  0.33333333  0.58333333  1
  I  I55  1  0.66666667  0.85630783  0.58333333  1
  I  I56  1  0.14369217  0.81035883  0.58333333  1
  I  I57  1  0.14369217  0.33333333  0.08333333  1
  I  I58  1  0.66666667  0.81035883  0.08333333  1
  I  I59  1  0.18964117  0.85630783  0.08333333  1
  I  I60  1  0.85630783  0.66666667  0.91666667  1
  I  I61  1  0.33333333  0.18964117  0.91666667  1
  I  I62  1  0.81035883  0.14369217  0.91666667  1
  I  I63  1  0.81035883  0.66666667  0.41666667  1
  I  I64  1  0.33333333  0.14369217  0.41666667  1
  I  I65  1  0.85630783  0.18964117  0.41666667  1
  Li  Li66  1  0.50000000  0.00000000  0.00000000  1
  Li  Li67  1  0.00000000  0.50000000  0.00000000  1
  Li  Li68  1  0.50000000  0.50000000  0.00000000  1
  Li  Li69  1  0.00000000  0.50000000  0.50000000  1
  Li  Li70  1  0.50000000  0.00000000  0.50000000  1
  Li  Li71  1  0.50000000  0.50000000  0.50000000  1
  Li  Li72  1  0.16666667  0.33333333  0.33333333  1
  Li  Li73  1  0.66666667  0.83333333  0.33333333  1
  Li  Li74  1  0.16666667  0.83333333  0.33333333  1
  Li  Li75  1  0.66666667  0.83333333  0.83333333  1
  Li  Li76  1  0.16666667  0.33333333  0.83333333  1
  Li  Li77  1  0.16666667  0.83333333  0.83333333  1
  Li  Li78  1  0.83333333  0.66666667  0.66666667  1
  Li  Li79  1  0.33333333  0.16666667  0.66666667  1
  Li  Li80  1  0.83333333  0.16666667  0.66666667  1
  Li  Li81  1  0.33333333  0.16666667  0.16666667  1
  Li  Li82  1  0.83333333  0.66666667  0.16666667  1
  Li  Li83  1  0.83333333  0.16666667  0.16666667  1
  Li  Li84  1  0.08112419  0.37003859  0.47787375  1
  Li  Li85  1  -0.37003859  -0.28891440  0.47787375  1
  Li  Li86  1  0.28891440  -0.08112419  0.47787375  1
  Li  Li87  1  0.37003859  0.08112419  0.02212625  1
  Li  Li88  1  -0.28891440  -0.37003859  0.02212625  1
  Li  Li89  1  -0.08112419  0.28891440  0.02212625  1
  Li  Li90  1  -0.08112419  -0.37003859  -0.47787375  1
  Li  Li91  1  0.37003859  0.28891440  -0.47787375  1
  Li  Li92  1  -0.28891440  0.08112419  -0.47787375  1
  Li  Li93  1  -0.37003859  -0.08112419  0.97787375  1
  Li  Li94  1  0.28891440  0.37003859  0.97787375  1
  Li  Li95  1  0.08112419  -0.28891440  0.97787375  1
  Li  Li96  1  0.74779086  0.70337193  0.81120709  1
  Li  Li97  1  0.29662807  0.04441893  0.81120709  1
  Li  Li98  1  0.95558107  0.25220914  0.81120709  1
  Li  Li99  1  1.03670526  0.41445752  0.35545958  1
  Li  Li100  1  0.37775226  -0.03670526  0.35545958  1
  Li  Li101  1  0.58554248  0.62224774  0.35545958  1
  Li  Li102  1  0.58554248  -0.03670526  -0.14454042  1
  Li  Li103  1  1.03670526  0.62224774  -0.14454042  1
  Li  Li104  1  0.37775226  0.41445752  -0.14454042  1
  Li  Li105  1  0.29662807  0.25220914  1.31120709  1
  Li  Li106  1  0.95558107  0.70337193  1.31120709  1
  Li  Li107  1  0.74779086  0.04441893  1.31120709  1
  Li  Li108  1  0.41445752  1.03670526  1.14454042  1
  Li  Li109  1  -0.03670526  0.37775226  1.14454042  1
  Li  Li110  1  0.62224774  0.58554248  1.14454042  1
  Li  Li111  1  0.70337193  0.74779086  0.68879291  1
  Li  Li112  1  0.04441893  0.29662807  0.68879291  1
  Li  Li113  1  0.25220914  0.95558107  0.68879291  1
  Li  Li114  1  0.25220914  0.29662807  0.18879291  1
  Li  Li115  1  0.70337193  0.95558107  0.18879291  1
  Li  Li116  1  0.04441893  0.74779086  0.18879291  1
  Li  Li117  1  -0.03670526  0.58554248  1.64454042  1
  Li  Li118  1  0.62224774  1.03670526  1.64454042  1
  Li  Li119  1  0.41445752  0.37775226  1.64454042  1
  Se  Se120  1  0.11412647  0.00000000  0.25000000  1
  Se  Se121  1  0.00000000  0.11412647  0.25000000  1
  Se  Se122  1  0.88587353  0.88587353  0.25000000  1
  Se  Se123  1  0.88587353  0.00000000  0.75000000  1
  Se  Se124  1  0.00000000  0.88587353  0.75000000  1
  Se  Se125  1  0.11412647  0.11412647  0.75000000  1
  Se  Se126  1  0.78079314  0.33333333  0.58333333  1
  Se  Se127  1  0.66666667  0.44745981  0.58333333  1
  Se  Se128  1  0.55254019  0.21920686  0.58333333  1
  Se  Se129  1  0.55254019  0.33333333  0.08333333  1
  Se  Se130  1  0.66666667  0.21920686  0.08333333  1
  Se  Se131  1  0.78079314  0.44745981  0.08333333  1
  Se  Se132  1  0.44745981  0.66666667  0.91666667  1
  Se  Se133  1  0.33333333  0.78079314  0.91666667  1
  Se  Se134  1  0.21920686  0.55254019  0.91666667  1
  Se  Se135  1  0.21920686  0.66666667  0.41666667  1
  Se  Se136  1  0.33333333  0.55254019  0.41666667  1
  Se  Se137  1  0.44745981  0.78079314  0.41666667  1
