# generated using pymatgen
data_LiTiAsS2O
_symmetry_space_group_name_H-M   'P 1'
_cell_length_a   4.40885106
_cell_length_b   5.28006238
_cell_length_c   4.34615888
_cell_angle_alpha   90.57450730
_cell_angle_beta   91.58104214
_cell_angle_gamma   87.48487634
_symmetry_Int_Tables_number   1
_chemical_formula_structural   LiTiAsS2O
_chemical_formula_sum   'Li1 Ti1 As1 S2 O1'
_cell_volume   101.03438892
_cell_formula_units_Z   1
loop_
 _symmetry_equiv_pos_site_id
 _symmetry_equiv_pos_as_xyz
  1  'x, y, z'
loop_
 _atom_site_type_symbol
 _atom_site_label
 _atom_site_symmetry_multiplicity
 _atom_site_fract_x
 _atom_site_fract_y
 _atom_site_fract_z
 _atom_site_occupancy
  Li  Li0  1  0.00000000  0.00000000  0.00000000  1
  Ti  Ti1  1  0.50000000  0.50000000  0.50000000  1
  O  O2  1  0.50000000  0.50000000  0.00000000  1
  S  S3  1  0.50000000  0.00000000  0.50000000  1
  S  S4  1  0.00000000  0.50000000  0.50000000  1
  As  As5  1  0.28675065  0.90139195  0.86146390  1
