# generated using pymatgen
data_Li3Al2CuO
_symmetry_space_group_name_H-M   'P 1'
_cell_length_a   3.90944025
_cell_length_b   4.19762983
_cell_length_c   5.92145687
_cell_angle_alpha   118.11512706
_cell_angle_beta   119.64830636
_cell_angle_gamma   115.37350029
_symmetry_Int_Tables_number   1
_chemical_formula_structural   Li3Al2CuO
_chemical_formula_sum   'Li3 Al2 Cu1 O1'
_cell_volume   37.61154135
_cell_formula_units_Z   1
loop_
 _symmetry_equiv_pos_site_id
 _symmetry_equiv_pos_as_xyz
  1  'x, y, z'
loop_
 _atom_site_type_symbol
 _atom_site_label
 _atom_site_symmetry_multiplicity
 _atom_site_fract_x
 _atom_site_fract_y
 _atom_site_fract_z
 _atom_site_occupancy
  Li  Li0  1  0.00000000  0.00000000  0.00000000  1
  Li  Li1  1  0.33300000  0.66700000  0.25000000  1
  Li  Li2  1  0.66700000  0.33300000  0.50000000  1
  Cu  Cu3  1  0.00000000  0.00000000  0.75000000  1
  Al  Al4  1  0.83122000  0.80134349  0.73077802  1
  Al  Al5  1  0.61450302  0.85479348  0.77509336  1
  O  O6  1  0.42533126  0.89948485  0.58294866  1
