# generated using pymatgen
data_Li2TbMn2N3O5
_symmetry_space_group_name_H-M   'P 1'
_cell_length_a   3.70440255
_cell_length_b   3.94905399
_cell_length_c   3.12348712
_cell_angle_alpha   85.22330958
_cell_angle_beta   93.38408321
_cell_angle_gamma   94.08144215
_symmetry_Int_Tables_number   1
_chemical_formula_structural   Li2TbMn2N3O5
_chemical_formula_sum   'Li2 Tb1 Mn2 N3 O5'
_cell_volume   45.35409605
_cell_formula_units_Z   1
loop_
 _symmetry_equiv_pos_site_id
 _symmetry_equiv_pos_as_xyz
  1  'x, y, z'
loop_
 _atom_site_type_symbol
 _atom_site_label
 _atom_site_symmetry_multiplicity
 _atom_site_fract_x
 _atom_site_fract_y
 _atom_site_fract_z
 _atom_site_occupancy
  Li  Li0  1  0.00000000  0.00000000  0.00000000  1
  Li  Li1  1  0.50000000  0.50000000  0.50000000  1
  Mn  Mn2  1  0.50000000  0.50000000  0.00000000  1
  Mn  Mn3  1  0.50000000  0.00000000  0.50000000  1
  O  O4  1  0.00000000  0.50000000  0.50000000  1
  O  O5  1  0.37672682  0.28404258  0.60534692  1
  O  O6  1  0.72344758  0.60617674  0.99744386  1
  O  O7  1  0.37871592  0.53988769  0.90562071  1
  O  O8  1  0.07788708  0.16119817  0.39669895  1
  N  N9  1  0.66616922  0.80562688  0.52147114  1
  N  N10  1  0.87651207  0.01556806  0.62586615  1
  N  N11  1  0.89675454  0.99246092  0.92649786  1
  Tb  Tb12  1  0.37569570  0.40992735  0.59796210  1
