# generated using pymatgen
data_Li4Ti3TlP3O2
_symmetry_space_group_name_H-M   'P 1'
_cell_length_a   8.09500483
_cell_length_b   7.25542481
_cell_length_c   9.63095085
_cell_angle_alpha   90.00000000
_cell_angle_beta   90.00000000
_cell_angle_gamma   90.00000000
_symmetry_Int_Tables_number   1
_chemical_formula_structural   Li4Ti3TlP3O2
_chemical_formula_sum   'Li4 Ti3 Tl1 P3 O2'
_cell_volume   565.65173676
_cell_formula_units_Z   1
loop_
 _symmetry_equiv_pos_site_id
 _symmetry_equiv_pos_as_xyz
  1  'x, y, z'
loop_
 _atom_site_type_symbol
 _atom_site_label
 _atom_site_symmetry_multiplicity
 _atom_site_fract_x
 _atom_site_fract_y
 _atom_site_fract_z
 _atom_site_occupancy
  Li  Li0  1  0.00000000  0.00000000  0.00000000  1
  Li  Li1  1  0.50000000  0.50000000  0.50000000  1
  Li  Li2  1  0.25000000  0.25000000  0.25000000  1
  Li  Li3  1  0.75000000  0.25000000  0.00000000  1
  Ti  Ti4  1  0.25000000  0.75000000  0.50000000  1
  Ti  Ti5  1  0.49053809  0.47585248  0.59747675  1
  Ti  Ti6  1  0.88135165  0.70831047  0.56054880  1
  P  P7  1  0.10389990  0.15287195  0.61225381  1
  P  P8  1  0.34140081  0.20077963  0.97735250  1
  P  P9  1  0.71574858  0.75202760  0.30613341  1
  O  O10  1  0.32542020  0.66191426  0.47633492  1
  O  O11  1  0.61584058  0.01673688  0.68145036  1
  Tl  Tl12  1  0.28440742  0.89026234  0.45324730  1
