# generated using pymatgen
data_K4Li12Ti3(Te3S4)2
_symmetry_space_group_name_H-M   'P 1'
_cell_length_a   20.36844909
_cell_length_b   20.36844909
_cell_length_c   20.36844909
_cell_angle_alpha   90.00000000
_cell_angle_beta   90.00000000
_cell_angle_gamma   90.00000000
_symmetry_Int_Tables_number   1
_chemical_formula_structural   K4Li12Ti3(Te3S4)2
_chemical_formula_sum   'K32 Li96 Ti24 Te48 S64'
_cell_volume   8450.33420842
_cell_formula_units_Z   8
loop_
 _symmetry_equiv_pos_site_id
 _symmetry_equiv_pos_as_xyz
  1  'x, y, z'
loop_
 _atom_site_type_symbol
 _atom_site_label
 _atom_site_symmetry_multiplicity
 _atom_site_fract_x
 _atom_site_fract_y
 _atom_site_fract_z
 _atom_site_occupancy
  K  K0  1  0.89494052  0.00000000  0.25000000  1
  K  K1  1  0.60505948  0.00000000  0.75000000  1
  K  K2  1  0.25000000  0.89494052  0.00000000  1
  K  K3  1  0.75000000  0.60505948  -0.00000000  1
  K  K4  1  0.00000000  0.25000000  0.89494052  1
  K  K5  1  0.00000000  0.75000000  0.60505948  1
  K  K6  1  0.75000000  0.14494052  0.00000000  1
  K  K7  1  0.75000000  0.85505948  0.50000000  1
  K  K8  1  0.64494052  0.50000000  0.25000000  1
  K  K9  1  0.35505948  0.00000000  0.25000000  1
  K  K10  1  0.00000000  0.25000000  0.35505948  1
  K  K11  1  0.50000000  0.25000000  0.64494052  1
  K  K12  1  0.39494052  0.50000000  0.75000000  1
  K  K13  1  0.10505948  0.50000000  0.25000000  1
  K  K14  1  0.75000000  0.39494052  0.50000000  1
  K  K15  1  0.25000000  0.10505948  0.50000000  1
  K  K16  1  0.50000000  0.75000000  0.39494052  1
  K  K17  1  0.50000000  0.25000000  0.10505948  1
  K  K18  1  0.25000000  0.64494052  0.50000000  1
  K  K19  1  0.25000000  0.35505948  -0.00000000  1
  K  K20  1  0.14494052  0.00000000  0.75000000  1
  K  K21  1  0.85505948  0.50000000  0.75000000  1
  K  K22  1  0.50000000  0.75000000  0.85505948  1
  K  K23  1  0.00000000  0.75000000  0.14494052  1
  K  K24  1  0.12500000  0.12500000  0.12500000  1
  K  K25  1  0.37500000  0.87500000  0.62500000  1
  K  K26  1  0.87500000  0.62500000  0.37500000  1
  K  K27  1  0.62500000  0.37500000  0.87500000  1
  K  K28  1  0.62500000  0.62500000  0.62500000  1
  K  K29  1  0.87500000  0.37500000  0.12500000  1
  K  K30  1  0.37500000  0.12500000  0.87500000  1
  K  K31  1  0.12500000  0.87500000  0.37500000  1
  Li  Li32  1  0.61005214  0.04691523  0.35663398  1
  Li  Li33  1  0.88994786  0.95308477  0.85663398  1
  Li  Li34  1  0.38994786  0.54691523  0.14336602  1
  Li  Li35  1  0.11005214  0.45308477  0.64336602  1
  Li  Li36  1  0.35663398  0.61005214  0.04691523  1
  Li  Li37  1  0.85663398  0.88994786  0.95308477  1
  Li  Li38  1  0.14336602  0.38994786  0.54691523  1
  Li  Li39  1  0.64336602  0.11005214  0.45308477  1
  Li  Li40  1  0.04691523  0.35663398  0.61005214  1
  Li  Li41  1  0.95308477  0.85663398  0.88994786  1
  Li  Li42  1  0.54691523  0.14336602  0.38994786  1
  Li  Li43  1  0.45308477  0.64336602  0.11005214  1
  Li  Li44  1  0.79691523  0.86005214  0.89336602  1
  Li  Li45  1  0.70308477  0.13994786  0.39336602  1
  Li  Li46  1  0.29691523  0.63994786  0.10663398  1
  Li  Li47  1  0.20308477  0.36005214  0.60663398  1
  Li  Li48  1  0.36005214  0.60663398  0.20308477  1
  Li  Li49  1  0.63994786  0.10663398  0.29691523  1
  Li  Li50  1  0.13994786  0.39336602  0.70308477  1
  Li  Li51  1  0.86005214  0.89336602  0.79691523  1
  Li  Li52  1  0.10663398  0.29691523  0.63994786  1
  Li  Li53  1  0.60663398  0.20308477  0.36005214  1
  Li  Li54  1  0.89336602  0.79691523  0.86005214  1
  Li  Li55  1  0.39336602  0.70308477  0.13994786  1
  Li  Li56  1  0.11005214  0.54691523  0.85663398  1
  Li  Li57  1  0.38994786  0.45308477  0.35663398  1
  Li  Li58  1  0.88994786  0.04691523  0.64336602  1
  Li  Li59  1  0.61005214  0.95308477  0.14336602  1
  Li  Li60  1  0.85663398  0.11005214  0.54691523  1
  Li  Li61  1  0.35663398  0.38994786  0.45308477  1
  Li  Li62  1  0.64336602  0.88994786  0.04691523  1
  Li  Li63  1  0.14336602  0.61005214  0.95308477  1
  Li  Li64  1  0.54691523  0.85663398  0.11005214  1
  Li  Li65  1  0.45308477  0.35663398  0.38994786  1
  Li  Li66  1  0.04691523  0.64336602  0.88994786  1
  Li  Li67  1  0.95308477  0.14336602  0.61005214  1
  Li  Li68  1  0.29691523  0.36005214  0.39336602  1
  Li  Li69  1  0.20308477  0.63994786  0.89336602  1
  Li  Li70  1  0.79691523  0.13994786  0.60663398  1
  Li  Li71  1  0.70308477  0.86005214  0.10663398  1
  Li  Li72  1  0.86005214  0.10663398  0.70308477  1
  Li  Li73  1  0.13994786  0.60663398  0.79691523  1
  Li  Li74  1  0.63994786  0.89336602  0.20308477  1
  Li  Li75  1  0.36005214  0.39336602  0.29691523  1
  Li  Li76  1  0.60663398  0.79691523  0.13994786  1
  Li  Li77  1  0.10663398  0.70308477  0.86005214  1
  Li  Li78  1  0.39336602  0.29691523  0.36005214  1
  Li  Li79  1  0.89336602  0.20308477  0.63994786  1
  Li  Li80  1  0.06337063  0.00000000  0.25000000  1
  Li  Li81  1  0.43662937  -0.00000000  0.75000000  1
  Li  Li82  1  0.25000000  0.06337063  0.00000000  1
  Li  Li83  1  0.75000000  0.43662937  -0.00000000  1
  Li  Li84  1  0.00000000  0.25000000  0.06337063  1
  Li  Li85  1  0.00000000  0.75000000  0.43662937  1
  Li  Li86  1  0.75000000  0.31337063  -0.00000000  1
  Li  Li87  1  0.75000000  0.68662937  0.50000000  1
  Li  Li88  1  0.81337063  0.50000000  0.25000000  1
  Li  Li89  1  0.18662937  0.00000000  0.25000000  1
  Li  Li90  1  0.00000000  0.25000000  0.18662937  1
  Li  Li91  1  0.50000000  0.25000000  0.81337063  1
  Li  Li92  1  0.56337063  0.50000000  0.75000000  1
  Li  Li93  1  0.93662937  0.50000000  0.25000000  1
  Li  Li94  1  0.75000000  0.56337063  0.50000000  1
  Li  Li95  1  0.25000000  0.93662937  0.50000000  1
  Li  Li96  1  0.50000000  0.75000000  0.56337063  1
  Li  Li97  1  0.50000000  0.25000000  0.93662937  1
  Li  Li98  1  0.25000000  0.81337063  0.50000000  1
  Li  Li99  1  0.25000000  0.18662937  0.00000000  1
  Li  Li100  1  0.31337063  0.00000000  0.75000000  1
  Li  Li101  1  0.68662937  0.50000000  0.75000000  1
  Li  Li102  1  0.50000000  0.75000000  0.68662937  1
  Li  Li103  1  0.00000000  0.75000000  0.31337063  1
  Li  Li104  1  0.12500000  0.16411474  0.41411474  1
  Li  Li105  1  0.37500000  0.83588526  0.91411474  1
  Li  Li106  1  0.87500000  0.66411474  0.08588526  1
  Li  Li107  1  0.62500000  0.33588526  0.58588526  1
  Li  Li108  1  0.41411474  0.12500000  0.16411474  1
  Li  Li109  1  0.91411474  0.37500000  0.83588526  1
  Li  Li110  1  0.08588526  0.87500000  0.66411474  1
  Li  Li111  1  0.58588526  0.62500000  0.33588526  1
  Li  Li112  1  0.16411474  0.41411474  0.12500000  1
  Li  Li113  1  0.83588526  0.91411474  0.37500000  1
  Li  Li114  1  0.66411474  0.08588526  0.87500000  1
  Li  Li115  1  0.33588526  0.58588526  0.62500000  1
  Li  Li116  1  0.62500000  0.66411474  0.91411474  1
  Li  Li117  1  0.87500000  0.33588526  0.41411474  1
  Li  Li118  1  0.37500000  0.16411474  0.58588526  1
  Li  Li119  1  0.12500000  0.83588526  0.08588526  1
  Li  Li120  1  0.91411474  0.62500000  0.66411474  1
  Li  Li121  1  0.41411474  0.87500000  0.33588526  1
  Li  Li122  1  0.58588526  0.37500000  0.16411474  1
  Li  Li123  1  0.08588526  0.12500000  0.83588526  1
  Li  Li124  1  0.66411474  0.91411474  0.62500000  1
  Li  Li125  1  0.33588526  0.41411474  0.87500000  1
  Li  Li126  1  0.16411474  0.58588526  0.37500000  1
  Li  Li127  1  0.83588526  0.08588526  0.12500000  1
  S  S128  1  0.77770188  0.49796036  0.19336041  1
  S  S129  1  -0.27770188  -0.49796036  0.69336041  1
  S  S130  1  -0.77770188  0.99796036  0.30663959  1
  S  S131  1  1.27770188  0.00203964  -0.19336041  1
  S  S132  1  0.19336041  0.77770188  0.49796036  1
  S  S133  1  0.69336041  -0.27770188  -0.49796036  1
  S  S134  1  0.30663959  -0.77770188  0.99796036  1
  S  S135  1  -0.19336041  1.27770188  0.00203964  1
  S  S136  1  0.49796036  0.19336041  0.77770188  1
  S  S137  1  -0.49796036  0.69336041  -0.27770188  1
  S  S138  1  0.99796036  0.30663959  -0.77770188  1
  S  S139  1  0.00203964  -0.19336041  1.27770188  1
  S  S140  1  1.24796036  1.02770188  0.05663959  1
  S  S141  1  0.25203964  -0.02770188  0.55663959  1
  S  S142  1  0.74796036  -0.52770188  0.94336041  1
  S  S143  1  -0.24796036  1.52770188  0.44336041  1
  S  S144  1  1.52770188  0.44336041  -0.24796036  1
  S  S145  1  -0.52770188  0.94336041  0.74796036  1
  S  S146  1  -0.02770188  0.55663959  0.25203964  1
  S  S147  1  1.02770188  0.05663959  1.24796036  1
  S  S148  1  0.94336041  0.74796036  -0.52770188  1
  S  S149  1  0.44336041  -0.24796036  1.52770188  1
  S  S150  1  0.05663959  1.24796036  1.02770188  1
  S  S151  1  0.55663959  0.25203964  -0.02770188  1
  S  S152  1  1.27770188  0.99796036  0.69336041  1
  S  S153  1  0.22229812  0.00203964  1.19336041  1
  S  S154  1  -0.27770188  1.49796036  0.80663959  1
  S  S155  1  1.77770188  0.50203964  0.30663959  1
  S  S156  1  0.69336041  1.27770188  0.99796036  1
  S  S157  1  1.19336041  0.22229812  0.00203964  1
  S  S158  1  0.80663959  -0.27770188  1.49796036  1
  S  S159  1  0.30663959  1.77770188  0.50203964  1
  S  S160  1  0.99796036  0.69336041  1.27770188  1
  S  S161  1  0.00203964  1.19336041  0.22229812  1
  S  S162  1  1.49796036  0.80663959  -0.27770188  1
  S  S163  1  0.50203964  0.30663959  1.77770188  1
  S  S164  1  1.74796036  1.52770188  0.55663959  1
  S  S165  1  0.75203964  0.47229812  1.05663959  1
  S  S166  1  1.24796036  -0.02770188  1.44336041  1
  S  S167  1  0.25203964  2.02770188  0.94336041  1
  S  S168  1  2.02770188  0.94336041  0.25203964  1
  S  S169  1  -0.02770188  1.44336041  1.24796036  1
  S  S170  1  0.47229812  1.05663959  0.75203964  1
  S  S171  1  1.52770188  0.55663959  1.74796036  1
  S  S172  1  1.44336041  1.24796036  -0.02770188  1
  S  S173  1  0.94336041  0.25203964  2.02770188  1
  S  S174  1  0.55663959  1.74796036  1.52770188  1
  S  S175  1  1.05663959  0.75203964  0.47229812  1
  S  S176  1  0.23224122  0.23224122  0.23224122  1
  S  S177  1  0.26775878  0.76775878  0.73224122  1
  S  S178  1  0.76775878  0.73224122  0.26775878  1
  S  S179  1  0.73224122  0.26775878  0.76775878  1
  S  S180  1  0.98224122  0.48224122  0.01775878  1
  S  S181  1  0.51775878  0.51775878  0.51775878  1
  S  S182  1  0.48224122  0.01775878  0.98224122  1
  S  S183  1  0.01775878  0.98224122  0.48224122  1
  S  S184  1  0.73224122  0.73224122  0.73224122  1
  S  S185  1  0.76775878  0.26775878  0.23224122  1
  S  S186  1  0.26775878  0.23224122  0.76775878  1
  S  S187  1  0.23224122  0.76775878  0.26775878  1
  S  S188  1  0.48224122  0.98224122  0.51775878  1
  S  S189  1  0.01775878  0.01775878  0.01775878  1
  S  S190  1  0.98224122  0.51775878  0.48224122  1
  S  S191  1  0.51775878  0.48224122  0.98224122  1
  Te  Te192  1  0.12500000  0.27941559  0.97058441  1
  Te  Te193  1  0.37500000  0.72058441  0.47058441  1
  Te  Te194  1  0.87500000  0.77941559  0.52941559  1
  Te  Te195  1  0.62500000  0.22058441  0.02941559  1
  Te  Te196  1  0.97058441  0.12500000  0.27941559  1
  Te  Te197  1  0.47058441  0.37500000  0.72058441  1
  Te  Te198  1  0.52941559  0.87500000  0.77941559  1
  Te  Te199  1  0.02941559  0.62500000  0.22058441  1
  Te  Te200  1  0.27941559  0.97058441  0.12500000  1
  Te  Te201  1  0.72058441  0.47058441  0.37500000  1
  Te  Te202  1  0.77941559  0.52941559  0.87500000  1
  Te  Te203  1  0.22058441  0.02941559  0.62500000  1
  Te  Te204  1  0.62500000  0.77941559  0.47058441  1
  Te  Te205  1  0.87500000  0.22058441  0.97058441  1
  Te  Te206  1  0.37500000  0.27941559  0.02941559  1
  Te  Te207  1  0.12500000  0.72058441  0.52941559  1
  Te  Te208  1  0.47058441  0.62500000  0.77941559  1
  Te  Te209  1  0.97058441  0.87500000  0.22058441  1
  Te  Te210  1  0.02941559  0.37500000  0.27941559  1
  Te  Te211  1  0.52941559  0.12500000  0.72058441  1
  Te  Te212  1  0.77941559  0.47058441  0.62500000  1
  Te  Te213  1  0.22058441  0.97058441  0.87500000  1
  Te  Te214  1  0.27941559  0.02941559  0.37500000  1
  Te  Te215  1  0.72058441  0.52941559  0.12500000  1
  Te  Te216  1  0.53384404  0.00000000  0.25000000  1
  Te  Te217  1  0.96615596  0.00000000  0.75000000  1
  Te  Te218  1  0.25000000  0.53384404  0.00000000  1
  Te  Te219  1  0.75000000  0.96615596  0.00000000  1
  Te  Te220  1  0.00000000  0.25000000  0.53384404  1
  Te  Te221  1  0.00000000  0.75000000  0.96615596  1
  Te  Te222  1  0.75000000  0.78384404  0.00000000  1
  Te  Te223  1  0.75000000  0.21615596  0.50000000  1
  Te  Te224  1  0.28384404  0.50000000  0.25000000  1
  Te  Te225  1  0.71615596  0.00000000  0.25000000  1
  Te  Te226  1  0.00000000  0.25000000  0.71615596  1
  Te  Te227  1  0.50000000  0.25000000  0.28384404  1
  Te  Te228  1  0.03384404  0.50000000  0.75000000  1
  Te  Te229  1  0.46615596  0.50000000  0.25000000  1
  Te  Te230  1  0.75000000  0.03384404  0.50000000  1
  Te  Te231  1  0.25000000  0.46615596  0.50000000  1
  Te  Te232  1  0.50000000  0.75000000  0.03384404  1
  Te  Te233  1  0.50000000  0.25000000  0.46615596  1
  Te  Te234  1  0.25000000  0.28384404  0.50000000  1
  Te  Te235  1  0.25000000  0.71615596  0.00000000  1
  Te  Te236  1  0.78384404  0.00000000  0.75000000  1
  Te  Te237  1  0.21615596  0.50000000  0.75000000  1
  Te  Te238  1  0.50000000  0.75000000  0.21615596  1
  Te  Te239  1  0.00000000  0.75000000  0.78384404  1
  Ti  Ti240  1  0.12500000  0.52835013  0.77835013  1
  Ti  Ti241  1  0.37500000  0.47164987  0.27835013  1
  Ti  Ti242  1  0.87500000  0.02835013  0.72164987  1
  Ti  Ti243  1  0.62500000  0.97164987  0.22164987  1
  Ti  Ti244  1  0.77835013  0.12500000  0.52835013  1
  Ti  Ti245  1  0.27835013  0.37500000  0.47164987  1
  Ti  Ti246  1  0.72164987  0.87500000  0.02835013  1
  Ti  Ti247  1  0.22164987  0.62500000  0.97164987  1
  Ti  Ti248  1  0.52835013  0.77835013  0.12500000  1
  Ti  Ti249  1  0.47164987  0.27835013  0.37500000  1
  Ti  Ti250  1  0.02835013  0.72164987  0.87500000  1
  Ti  Ti251  1  0.97164987  0.22164987  0.62500000  1
  Ti  Ti252  1  0.62500000  0.02835013  0.27835013  1
  Ti  Ti253  1  0.87500000  0.97164987  0.77835013  1
  Ti  Ti254  1  0.37500000  0.52835013  0.22164987  1
  Ti  Ti255  1  0.12500000  0.47164987  0.72164987  1
  Ti  Ti256  1  0.27835013  0.62500000  0.02835013  1
  Ti  Ti257  1  0.77835013  0.87500000  0.97164987  1
  Ti  Ti258  1  0.22164987  0.37500000  0.52835013  1
  Ti  Ti259  1  0.72164987  0.12500000  0.47164987  1
  Ti  Ti260  1  0.02835013  0.27835013  0.62500000  1
  Ti  Ti261  1  0.97164987  0.77835013  0.87500000  1
  Ti  Ti262  1  0.52835013  0.22164987  0.37500000  1
  Ti  Ti263  1  0.47164987  0.72164987  0.12500000  1
