# generated using pymatgen
data_LiI
_symmetry_space_group_name_H-M   'P 1'
_cell_length_a   10.39641543
_cell_length_b   10.39641543
_cell_length_c   6.67230015
_cell_angle_alpha   90.00000000
_cell_angle_beta   90.00000000
_cell_angle_gamma   120.00000000
_symmetry_Int_Tables_number   1
_chemical_formula_structural   LiI
_chemical_formula_sum   'Li18 I18'
_cell_volume   624.55897987
_cell_formula_units_Z   18
loop_
 _symmetry_equiv_pos_site_id
 _symmetry_equiv_pos_as_xyz
  1  'x, y, z'
loop_
 _atom_site_type_symbol
 _atom_site_label
 _atom_site_symmetry_multiplicity
 _atom_site_fract_x
 _atom_site_fract_y
 _atom_site_fract_z
 _atom_site_occupancy
  I  I0  1  0.16393993  -0.16393993  0.51754137  1
  I  I1  1  0.16393993  0.32787985  0.51754137  1
  I  I2  1  -0.32787985  -0.16393993  0.51754137  1
  I  I3  1  -0.16393993  0.16393993  -0.51754137  1
  I  I4  1  0.32787985  0.16393993  -0.51754137  1
  I  I5  1  -0.16393993  -0.32787985  -0.51754137  1
  I  I6  1  0.83060659  0.16939341  0.85087470  1
  I  I7  1  0.83060659  0.66121319  0.85087470  1
  I  I8  1  0.33878681  0.16939341  0.85087470  1
  I  I9  1  0.50272674  0.49727326  -0.18420804  1
  I  I10  1  0.99454652  0.49727326  -0.18420804  1
  I  I11  1  0.50272674  0.00545348  -0.18420804  1
  I  I12  1  0.49727326  0.50272674  1.18420804  1
  I  I13  1  0.49727326  0.99454652  1.18420804  1
  I  I14  1  0.00545348  0.50272674  1.18420804  1
  I  I15  1  0.16939341  0.83060659  0.14912530  1
  I  I16  1  0.66121319  0.83060659  0.14912530  1
  I  I17  1  0.16939341  0.33878681  0.14912530  1
  Li  Li18  1  0.00000000  0.00000000  0.50000000  1
  Li  Li19  1  0.66666667  0.33333333  0.83333333  1
  Li  Li20  1  0.33333333  0.66666667  0.16666667  1
  Li  Li21  1  0.00000000  0.00000000  0.21012114  1
  Li  Li22  1  0.00000000  0.00000000  0.78987886  1
  Li  Li23  1  0.66666667  0.33333333  0.54345447  1
  Li  Li24  1  0.66666667  0.33333333  0.12321220  1
  Li  Li25  1  0.33333333  0.66666667  0.87678780  1
  Li  Li26  1  0.33333333  0.66666667  0.45654553  1
  Li  Li27  1  0.50000000  -0.00000000  0.50000000  1
  Li  Li28  1  0.00000000  0.50000000  0.50000000  1
  Li  Li29  1  0.50000000  0.50000000  0.50000000  1
  Li  Li30  1  0.16666667  0.33333333  0.83333333  1
  Li  Li31  1  0.66666667  0.83333333  0.83333333  1
  Li  Li32  1  0.16666667  0.83333333  0.83333333  1
  Li  Li33  1  0.83333333  0.66666667  0.16666667  1
  Li  Li34  1  0.33333333  0.16666667  0.16666667  1
  Li  Li35  1  0.83333333  0.16666667  0.16666667  1
