# generated using pymatgen
data_LiCl
_symmetry_space_group_name_H-M   'P 1'
_cell_length_a   11.20083240
_cell_length_b   11.20083240
_cell_length_c   2.70424406
_cell_angle_alpha   90.00000000
_cell_angle_beta   90.00000000
_cell_angle_gamma   90.00000000
_symmetry_Int_Tables_number   1
_chemical_formula_structural   LiCl
_chemical_formula_sum   'Li16 Cl16'
_cell_volume   339.27079960
_cell_formula_units_Z   16
loop_
 _symmetry_equiv_pos_site_id
 _symmetry_equiv_pos_as_xyz
  1  'x, y, z'
loop_
 _atom_site_type_symbol
 _atom_site_label
 _atom_site_symmetry_multiplicity
 _atom_site_fract_x
 _atom_site_fract_y
 _atom_site_fract_z
 _atom_site_occupancy
  Cl  Cl0  1  0.00000000  0.75000000  0.12500000  1
  Cl  Cl1  1  0.50000000  0.75000000  0.37500000  1
  Cl  Cl2  1  0.50000000  0.25000000  0.62500000  1
  Cl  Cl3  1  0.00000000  0.25000000  0.87500000  1
  Cl  Cl4  1  0.00000000  0.25000000  0.37500000  1
  Cl  Cl5  1  0.00000000  0.75000000  0.62500000  1
  Cl  Cl6  1  0.50000000  0.75000000  0.87500000  1
  Cl  Cl7  1  0.50000000  0.25000000  0.12500000  1
  Cl  Cl8  1  0.00000000  0.00000000  0.50000000  1
  Cl  Cl9  1  0.50000000  0.00000000  0.00000000  1
  Cl  Cl10  1  0.25000000  0.75000000  0.75000000  1
  Cl  Cl11  1  0.25000000  0.25000000  0.25000000  1
  Cl  Cl12  1  0.50000000  0.50000000  0.00000000  1
  Cl  Cl13  1  0.00000000  0.50000000  0.50000000  1
  Cl  Cl14  1  0.75000000  0.25000000  0.25000000  1
  Cl  Cl15  1  0.75000000  0.75000000  0.75000000  1
  Li  Li16  1  0.36450464  0.61450464  0.87500000  1
  Li  Li17  1  0.13549536  0.38549536  0.37500000  1
  Li  Li18  1  -0.36450464  1.11450464  0.12500000  1
  Li  Li19  1  0.86450464  -0.11450464  0.62500000  1
  Li  Li20  1  -0.36450464  0.38549536  0.12500000  1
  Li  Li21  1  0.86450464  0.61450464  0.62500000  1
  Li  Li22  1  0.36450464  -0.11450464  0.87500000  1
  Li  Li23  1  0.13549536  1.11450464  0.37500000  1
  Li  Li24  1  0.86450464  1.11450464  1.37500000  1
  Li  Li25  1  0.63549536  0.88549536  0.87500000  1
  Li  Li26  1  0.13549536  1.61450464  0.62500000  1
  Li  Li27  1  1.36450464  0.38549536  1.12500000  1
  Li  Li28  1  0.13549536  0.88549536  0.62500000  1
  Li  Li29  1  1.36450464  1.11450464  1.12500000  1
  Li  Li30  1  0.86450464  0.38549536  1.37500000  1
  Li  Li31  1  0.63549536  1.61450464  0.87500000  1
