# generated using pymatgen
data_Li6CaSnCl12
_symmetry_space_group_name_H-M   'P 1'
_cell_length_a   16.63979894
_cell_length_b   16.63979894
_cell_length_c   16.63979894
_cell_angle_alpha   90.00000000
_cell_angle_beta   90.00000000
_cell_angle_gamma   90.00000000
_symmetry_Int_Tables_number   1
_chemical_formula_structural   Li6CaSnCl12
_chemical_formula_sum   'Li96 Ca16 Sn16 Cl192'
_cell_volume   4607.27593030
_cell_formula_units_Z   16
loop_
 _symmetry_equiv_pos_site_id
 _symmetry_equiv_pos_as_xyz
  1  'x, y, z'
loop_
 _atom_site_type_symbol
 _atom_site_label
 _atom_site_symmetry_multiplicity
 _atom_site_fract_x
 _atom_site_fract_y
 _atom_site_fract_z
 _atom_site_occupancy
  Ca  Ca0  1  0.50000000  0.50000000  0.50000000  1
  Ca  Ca1  1  0.25000000  0.75000000  0.00000000  1
  Ca  Ca2  1  0.75000000  0.00000000  0.25000000  1
  Ca  Ca3  1  0.00000000  0.25000000  0.75000000  1
  Ca  Ca4  1  0.50000000  0.00000000  0.00000000  1
  Ca  Ca5  1  0.25000000  0.25000000  0.50000000  1
  Ca  Ca6  1  0.75000000  0.50000000  0.75000000  1
  Ca  Ca7  1  0.00000000  0.75000000  0.25000000  1
  Ca  Ca8  1  0.00000000  0.50000000  0.00000000  1
  Ca  Ca9  1  0.75000000  0.75000000  0.50000000  1
  Ca  Ca10  1  0.25000000  0.00000000  0.75000000  1
  Ca  Ca11  1  0.50000000  0.25000000  0.25000000  1
  Ca  Ca12  1  0.00000000  0.00000000  0.50000000  1
  Ca  Ca13  1  0.75000000  0.25000000  0.00000000  1
  Ca  Ca14  1  0.25000000  0.50000000  0.25000000  1
  Ca  Ca15  1  0.50000000  0.75000000  0.75000000  1
  Cl  Cl16  1  0.95612117  0.18331170  0.91078463  1
  Cl  Cl17  1  -0.20612117  0.06668830  1.41078463  1
  Cl  Cl18  1  -0.70612117  0.68331170  -0.16078463  1
  Cl  Cl19  1  1.45612117  0.56668830  -0.66078463  1
  Cl  Cl20  1  0.91078463  0.95612117  0.18331170  1
  Cl  Cl21  1  1.41078463  -0.20612117  0.06668830  1
  Cl  Cl22  1  -0.16078463  -0.70612117  0.68331170  1
  Cl  Cl23  1  -0.66078463  1.45612117  0.56668830  1
  Cl  Cl24  1  0.18331170  0.91078463  0.95612117  1
  Cl  Cl25  1  0.06668830  1.41078463  -0.20612117  1
  Cl  Cl26  1  0.68331170  -0.16078463  -0.70612117  1
  Cl  Cl27  1  0.56668830  -0.66078463  1.45612117  1
  Cl  Cl28  1  0.93331170  1.20612117  -0.41078463  1
  Cl  Cl29  1  -0.18331170  -0.95612117  -0.91078463  1
  Cl  Cl30  1  0.43331170  -0.45612117  1.66078463  1
  Cl  Cl31  1  0.31668830  1.70612117  1.16078463  1
  Cl  Cl32  1  1.70612117  1.16078463  0.31668830  1
  Cl  Cl33  1  -0.45612117  1.66078463  0.43331170  1
  Cl  Cl34  1  -0.95612117  -0.91078463  -0.18331170  1
  Cl  Cl35  1  1.20612117  -0.41078463  0.93331170  1
  Cl  Cl36  1  1.66078463  0.43331170  -0.45612117  1
  Cl  Cl37  1  1.16078463  0.31668830  1.70612117  1
  Cl  Cl38  1  -0.41078463  0.93331170  1.20612117  1
  Cl  Cl39  1  -0.91078463  -0.18331170  -0.95612117  1
  Cl  Cl40  1  -0.95612117  -0.18331170  -0.91078463  1
  Cl  Cl41  1  1.20612117  0.93331170  -0.41078463  1
  Cl  Cl42  1  1.70612117  0.31668830  1.16078463  1
  Cl  Cl43  1  -0.45612117  0.43331170  1.66078463  1
  Cl  Cl44  1  -0.91078463  -0.95612117  -0.18331170  1
  Cl  Cl45  1  -0.41078463  1.20612117  0.93331170  1
  Cl  Cl46  1  1.16078463  1.70612117  0.31668830  1
  Cl  Cl47  1  1.66078463  -0.45612117  0.43331170  1
  Cl  Cl48  1  -0.18331170  -0.91078463  -0.95612117  1
  Cl  Cl49  1  0.93331170  -0.41078463  1.20612117  1
  Cl  Cl50  1  0.31668830  1.16078463  1.70612117  1
  Cl  Cl51  1  0.43331170  1.66078463  -0.45612117  1
  Cl  Cl52  1  0.06668830  -0.20612117  1.41078463  1
  Cl  Cl53  1  0.18331170  0.95612117  0.91078463  1
  Cl  Cl54  1  0.56668830  1.45612117  -0.66078463  1
  Cl  Cl55  1  0.68331170  -0.70612117  -0.16078463  1
  Cl  Cl56  1  -0.70612117  -0.16078463  0.68331170  1
  Cl  Cl57  1  1.45612117  -0.66078463  0.56668830  1
  Cl  Cl58  1  0.95612117  0.91078463  0.18331170  1
  Cl  Cl59  1  -0.20612117  1.41078463  0.06668830  1
  Cl  Cl60  1  -0.66078463  0.56668830  1.45612117  1
  Cl  Cl61  1  -0.16078463  0.68331170  -0.70612117  1
  Cl  Cl62  1  1.41078463  0.06668830  -0.20612117  1
  Cl  Cl63  1  0.91078463  0.18331170  0.95612117  1
  Cl  Cl64  1  0.95612117  0.68331170  1.41078463  1
  Cl  Cl65  1  -0.20612117  0.56668830  1.91078463  1
  Cl  Cl66  1  -0.70612117  1.18331170  0.33921537  1
  Cl  Cl67  1  1.45612117  1.06668830  -0.16078463  1
  Cl  Cl68  1  0.91078463  1.45612117  0.68331170  1
  Cl  Cl69  1  1.41078463  0.29387883  0.56668830  1
  Cl  Cl70  1  -0.16078463  -0.20612117  1.18331170  1
  Cl  Cl71  1  -0.66078463  1.95612117  1.06668830  1
  Cl  Cl72  1  0.18331170  1.41078463  1.45612117  1
  Cl  Cl73  1  0.06668830  1.91078463  0.29387883  1
  Cl  Cl74  1  0.68331170  0.33921537  -0.20612117  1
  Cl  Cl75  1  0.56668830  -0.16078463  1.95612117  1
  Cl  Cl76  1  0.93331170  1.70612117  0.08921537  1
  Cl  Cl77  1  -0.18331170  -0.45612117  -0.41078463  1
  Cl  Cl78  1  0.43331170  0.04387883  2.16078463  1
  Cl  Cl79  1  0.31668830  2.20612117  1.66078463  1
  Cl  Cl80  1  1.70612117  1.66078463  0.81668830  1
  Cl  Cl81  1  -0.45612117  2.16078463  0.93331170  1
  Cl  Cl82  1  -0.95612117  -0.41078463  0.31668830  1
  Cl  Cl83  1  1.20612117  0.08921537  1.43331170  1
  Cl  Cl84  1  1.66078463  0.93331170  0.04387883  1
  Cl  Cl85  1  1.16078463  0.81668830  2.20612117  1
  Cl  Cl86  1  -0.41078463  1.43331170  1.70612117  1
  Cl  Cl87  1  -0.91078463  0.31668830  -0.45612117  1
  Cl  Cl88  1  -0.95612117  0.31668830  -0.41078463  1
  Cl  Cl89  1  1.20612117  1.43331170  0.08921537  1
  Cl  Cl90  1  1.70612117  0.81668830  1.66078463  1
  Cl  Cl91  1  -0.45612117  0.93331170  2.16078463  1
  Cl  Cl92  1  -0.91078463  -0.45612117  0.31668830  1
  Cl  Cl93  1  -0.41078463  1.70612117  1.43331170  1
  Cl  Cl94  1  1.16078463  2.20612117  0.81668830  1
  Cl  Cl95  1  1.66078463  0.04387883  0.93331170  1
  Cl  Cl96  1  -0.18331170  -0.41078463  -0.45612117  1
  Cl  Cl97  1  0.93331170  0.08921537  1.70612117  1
  Cl  Cl98  1  0.31668830  1.66078463  2.20612117  1
  Cl  Cl99  1  0.43331170  2.16078463  0.04387883  1
  Cl  Cl100  1  0.06668830  0.29387883  1.91078463  1
  Cl  Cl101  1  0.18331170  1.45612117  1.41078463  1
  Cl  Cl102  1  0.56668830  1.95612117  -0.16078463  1
  Cl  Cl103  1  0.68331170  -0.20612117  0.33921537  1
  Cl  Cl104  1  -0.70612117  0.33921537  1.18331170  1
  Cl  Cl105  1  1.45612117  -0.16078463  1.06668830  1
  Cl  Cl106  1  0.95612117  1.41078463  0.68331170  1
  Cl  Cl107  1  -0.20612117  1.91078463  0.56668830  1
  Cl  Cl108  1  -0.66078463  1.06668830  1.95612117  1
  Cl  Cl109  1  -0.16078463  1.18331170  -0.20612117  1
  Cl  Cl110  1  1.41078463  0.56668830  0.29387883  1
  Cl  Cl111  1  0.91078463  0.68331170  1.45612117  1
  Cl  Cl112  1  1.45612117  0.18331170  1.41078463  1
  Cl  Cl113  1  0.29387883  0.06668830  1.91078463  1
  Cl  Cl114  1  -0.20612117  0.68331170  0.33921537  1
  Cl  Cl115  1  1.95612117  0.56668830  -0.16078463  1
  Cl  Cl116  1  1.41078463  0.95612117  0.68331170  1
  Cl  Cl117  1  1.91078463  -0.20612117  0.56668830  1
  Cl  Cl118  1  0.33921537  -0.70612117  1.18331170  1
  Cl  Cl119  1  -0.16078463  1.45612117  1.06668830  1
  Cl  Cl120  1  0.68331170  0.91078463  1.45612117  1
  Cl  Cl121  1  0.56668830  1.41078463  0.29387883  1
  Cl  Cl122  1  1.18331170  -0.16078463  -0.20612117  1
  Cl  Cl123  1  1.06668830  -0.66078463  1.95612117  1
  Cl  Cl124  1  1.43331170  1.20612117  0.08921537  1
  Cl  Cl125  1  0.31668830  -0.95612117  -0.41078463  1
  Cl  Cl126  1  0.93331170  -0.45612117  2.16078463  1
  Cl  Cl127  1  0.81668830  1.70612117  1.66078463  1
  Cl  Cl128  1  2.20612117  1.16078463  0.81668830  1
  Cl  Cl129  1  0.04387883  1.66078463  0.93331170  1
  Cl  Cl130  1  -0.45612117  -0.91078463  0.31668830  1
  Cl  Cl131  1  1.70612117  -0.41078463  1.43331170  1
  Cl  Cl132  1  2.16078463  0.43331170  0.04387883  1
  Cl  Cl133  1  1.66078463  0.31668830  2.20612117  1
  Cl  Cl134  1  0.08921537  0.93331170  1.70612117  1
  Cl  Cl135  1  -0.41078463  -0.18331170  -0.45612117  1
  Cl  Cl136  1  -0.45612117  -0.18331170  -0.41078463  1
  Cl  Cl137  1  1.70612117  0.93331170  0.08921537  1
  Cl  Cl138  1  2.20612117  0.31668830  1.66078463  1
  Cl  Cl139  1  0.04387883  0.43331170  2.16078463  1
  Cl  Cl140  1  -0.41078463  -0.95612117  0.31668830  1
  Cl  Cl141  1  0.08921537  1.20612117  1.43331170  1
  Cl  Cl142  1  1.66078463  1.70612117  0.81668830  1
  Cl  Cl143  1  2.16078463  -0.45612117  0.93331170  1
  Cl  Cl144  1  0.31668830  -0.91078463  -0.45612117  1
  Cl  Cl145  1  1.43331170  -0.41078463  1.70612117  1
  Cl  Cl146  1  0.81668830  1.16078463  2.20612117  1
  Cl  Cl147  1  0.93331170  1.66078463  0.04387883  1
  Cl  Cl148  1  0.56668830  -0.20612117  1.91078463  1
  Cl  Cl149  1  0.68331170  0.95612117  1.41078463  1
  Cl  Cl150  1  1.06668830  1.45612117  -0.16078463  1
  Cl  Cl151  1  1.18331170  -0.70612117  0.33921537  1
  Cl  Cl152  1  -0.20612117  -0.16078463  1.18331170  1
  Cl  Cl153  1  1.95612117  -0.66078463  1.06668830  1
  Cl  Cl154  1  1.45612117  0.91078463  0.68331170  1
  Cl  Cl155  1  0.29387883  1.41078463  0.56668830  1
  Cl  Cl156  1  -0.16078463  0.56668830  1.95612117  1
  Cl  Cl157  1  0.33921537  0.68331170  -0.20612117  1
  Cl  Cl158  1  1.91078463  0.06668830  0.29387883  1
  Cl  Cl159  1  1.41078463  0.18331170  1.45612117  1
  Cl  Cl160  1  1.45612117  0.68331170  0.91078463  1
  Cl  Cl161  1  0.29387883  0.56668830  1.41078463  1
  Cl  Cl162  1  -0.20612117  1.18331170  -0.16078463  1
  Cl  Cl163  1  1.95612117  1.06668830  -0.66078463  1
  Cl  Cl164  1  1.41078463  1.45612117  0.18331170  1
  Cl  Cl165  1  1.91078463  0.29387883  0.06668830  1
  Cl  Cl166  1  0.33921537  -0.20612117  0.68331170  1
  Cl  Cl167  1  -0.16078463  1.95612117  0.56668830  1
  Cl  Cl168  1  0.68331170  1.41078463  0.95612117  1
  Cl  Cl169  1  0.56668830  1.91078463  -0.20612117  1
  Cl  Cl170  1  1.18331170  0.33921537  -0.70612117  1
  Cl  Cl171  1  1.06668830  -0.16078463  1.45612117  1
  Cl  Cl172  1  1.43331170  1.70612117  -0.41078463  1
  Cl  Cl173  1  0.31668830  -0.45612117  -0.91078463  1
  Cl  Cl174  1  0.93331170  0.04387883  1.66078463  1
  Cl  Cl175  1  0.81668830  2.20612117  1.16078463  1
  Cl  Cl176  1  2.20612117  1.66078463  0.31668830  1
  Cl  Cl177  1  0.04387883  2.16078463  0.43331170  1
  Cl  Cl178  1  -0.45612117  -0.41078463  -0.18331170  1
  Cl  Cl179  1  1.70612117  0.08921537  0.93331170  1
  Cl  Cl180  1  2.16078463  0.93331170  -0.45612117  1
  Cl  Cl181  1  1.66078463  0.81668830  1.70612117  1
  Cl  Cl182  1  0.08921537  1.43331170  1.20612117  1
  Cl  Cl183  1  -0.41078463  0.31668830  -0.95612117  1
  Cl  Cl184  1  -0.45612117  0.31668830  -0.91078463  1
  Cl  Cl185  1  1.70612117  1.43331170  -0.41078463  1
  Cl  Cl186  1  2.20612117  0.81668830  1.16078463  1
  Cl  Cl187  1  0.04387883  0.93331170  1.66078463  1
  Cl  Cl188  1  -0.41078463  -0.45612117  -0.18331170  1
  Cl  Cl189  1  0.08921537  1.70612117  0.93331170  1
  Cl  Cl190  1  1.66078463  2.20612117  0.31668830  1
  Cl  Cl191  1  2.16078463  0.04387883  0.43331170  1
  Cl  Cl192  1  0.31668830  -0.41078463  -0.95612117  1
  Cl  Cl193  1  1.43331170  0.08921537  1.20612117  1
  Cl  Cl194  1  0.81668830  1.66078463  1.70612117  1
  Cl  Cl195  1  0.93331170  2.16078463  -0.45612117  1
  Cl  Cl196  1  0.56668830  0.29387883  1.41078463  1
  Cl  Cl197  1  0.68331170  1.45612117  0.91078463  1
  Cl  Cl198  1  1.06668830  1.95612117  -0.66078463  1
  Cl  Cl199  1  1.18331170  -0.20612117  -0.16078463  1
  Cl  Cl200  1  -0.20612117  0.33921537  0.68331170  1
  Cl  Cl201  1  1.95612117  -0.16078463  0.56668830  1
  Cl  Cl202  1  1.45612117  1.41078463  0.18331170  1
  Cl  Cl203  1  0.29387883  1.91078463  0.06668830  1
  Cl  Cl204  1  -0.16078463  1.06668830  1.45612117  1
  Cl  Cl205  1  0.33921537  1.18331170  -0.70612117  1
  Cl  Cl206  1  1.91078463  0.56668830  -0.20612117  1
  Cl  Cl207  1  1.41078463  0.68331170  0.95612117  1
  Li  Li208  1  0.20951759  0.20951759  0.11672277  1
  Li  Li209  1  0.54048241  0.04048241  0.61672277  1
  Li  Li210  1  0.04048241  0.70951759  0.63327723  1
  Li  Li211  1  0.70951759  0.54048241  0.13327723  1
  Li  Li212  1  0.11672277  0.20951759  0.20951759  1
  Li  Li213  1  0.61672277  0.54048241  0.04048241  1
  Li  Li214  1  0.63327723  0.04048241  0.70951759  1
  Li  Li215  1  0.13327723  0.70951759  0.54048241  1
  Li  Li216  1  0.20951759  0.11672277  0.20951759  1
  Li  Li217  1  0.04048241  0.61672277  0.54048241  1
  Li  Li218  1  0.70951759  0.63327723  0.04048241  1
  Li  Li219  1  0.54048241  0.13327723  0.70951759  1
  Li  Li220  1  0.95951759  0.45951759  0.38327723  1
  Li  Li221  1  0.79048241  0.79048241  0.88327723  1
  Li  Li222  1  0.45951759  0.29048241  0.86672277  1
  Li  Li223  1  0.29048241  0.95951759  0.36672277  1
  Li  Li224  1  0.95951759  0.36672277  0.29048241  1
  Li  Li225  1  0.29048241  0.86672277  0.45951759  1
  Li  Li226  1  0.79048241  0.88327723  0.79048241  1
  Li  Li227  1  0.45951759  0.38327723  0.95951759  1
  Li  Li228  1  0.86672277  0.45951759  0.29048241  1
  Li  Li229  1  0.36672277  0.29048241  0.95951759  1
  Li  Li230  1  0.38327723  0.95951759  0.45951759  1
  Li  Li231  1  0.88327723  0.79048241  0.79048241  1
  Li  Li232  1  0.20951759  0.70951759  0.61672277  1
  Li  Li233  1  0.54048241  0.54048241  0.11672277  1
  Li  Li234  1  0.04048241  0.20951759  0.13327723  1
  Li  Li235  1  0.70951759  0.04048241  0.63327723  1
  Li  Li236  1  0.11672277  0.70951759  0.70951759  1
  Li  Li237  1  0.61672277  0.04048241  0.54048241  1
  Li  Li238  1  0.63327723  0.54048241  0.20951759  1
  Li  Li239  1  0.13327723  0.20951759  0.04048241  1
  Li  Li240  1  0.20951759  0.61672277  0.70951759  1
  Li  Li241  1  0.04048241  0.11672277  0.04048241  1
  Li  Li242  1  0.70951759  0.13327723  0.54048241  1
  Li  Li243  1  0.54048241  0.63327723  0.20951759  1
  Li  Li244  1  0.95951759  0.95951759  0.88327723  1
  Li  Li245  1  0.79048241  0.29048241  0.38327723  1
  Li  Li246  1  0.45951759  0.79048241  0.36672277  1
  Li  Li247  1  0.29048241  0.45951759  0.86672277  1
  Li  Li248  1  0.95951759  0.86672277  0.79048241  1
  Li  Li249  1  0.29048241  0.36672277  0.95951759  1
  Li  Li250  1  0.79048241  0.38327723  0.29048241  1
  Li  Li251  1  0.45951759  0.88327723  0.45951759  1
  Li  Li252  1  0.86672277  0.95951759  0.79048241  1
  Li  Li253  1  0.36672277  0.79048241  0.45951759  1
  Li  Li254  1  0.38327723  0.45951759  0.95951759  1
  Li  Li255  1  0.88327723  0.29048241  0.29048241  1
  Li  Li256  1  0.70951759  0.20951759  0.61672277  1
  Li  Li257  1  0.04048241  0.04048241  0.11672277  1
  Li  Li258  1  0.54048241  0.70951759  0.13327723  1
  Li  Li259  1  0.20951759  0.54048241  0.63327723  1
  Li  Li260  1  0.61672277  0.20951759  0.70951759  1
  Li  Li261  1  0.11672277  0.54048241  0.54048241  1
  Li  Li262  1  0.13327723  0.04048241  0.20951759  1
  Li  Li263  1  0.63327723  0.70951759  0.04048241  1
  Li  Li264  1  0.70951759  0.11672277  0.70951759  1
  Li  Li265  1  0.54048241  0.61672277  0.04048241  1
  Li  Li266  1  0.20951759  0.63327723  0.54048241  1
  Li  Li267  1  0.04048241  0.13327723  0.20951759  1
  Li  Li268  1  0.45951759  0.45951759  0.88327723  1
  Li  Li269  1  0.29048241  0.79048241  0.38327723  1
  Li  Li270  1  0.95951759  0.29048241  0.36672277  1
  Li  Li271  1  0.79048241  0.95951759  0.86672277  1
  Li  Li272  1  0.45951759  0.36672277  0.79048241  1
  Li  Li273  1  0.79048241  0.86672277  0.95951759  1
  Li  Li274  1  0.29048241  0.88327723  0.29048241  1
  Li  Li275  1  0.95951759  0.38327723  0.45951759  1
  Li  Li276  1  0.36672277  0.45951759  0.79048241  1
  Li  Li277  1  0.86672277  0.29048241  0.45951759  1
  Li  Li278  1  0.88327723  0.95951759  0.95951759  1
  Li  Li279  1  0.38327723  0.79048241  0.29048241  1
  Li  Li280  1  0.70951759  0.70951759  0.11672277  1
  Li  Li281  1  0.04048241  0.54048241  0.61672277  1
  Li  Li282  1  0.54048241  0.20951759  0.63327723  1
  Li  Li283  1  0.20951759  0.04048241  0.13327723  1
  Li  Li284  1  0.61672277  0.70951759  0.20951759  1
  Li  Li285  1  0.11672277  0.04048241  0.04048241  1
  Li  Li286  1  0.13327723  0.54048241  0.70951759  1
  Li  Li287  1  0.63327723  0.20951759  0.54048241  1
  Li  Li288  1  0.70951759  0.61672277  0.20951759  1
  Li  Li289  1  0.54048241  0.11672277  0.54048241  1
  Li  Li290  1  0.20951759  0.13327723  0.04048241  1
  Li  Li291  1  0.04048241  0.63327723  0.70951759  1
  Li  Li292  1  0.45951759  0.95951759  0.38327723  1
  Li  Li293  1  0.29048241  0.29048241  0.88327723  1
  Li  Li294  1  0.95951759  0.79048241  0.86672277  1
  Li  Li295  1  0.79048241  0.45951759  0.36672277  1
  Li  Li296  1  0.45951759  0.86672277  0.29048241  1
  Li  Li297  1  0.79048241  0.36672277  0.45951759  1
  Li  Li298  1  0.29048241  0.38327723  0.79048241  1
  Li  Li299  1  0.95951759  0.88327723  0.95951759  1
  Li  Li300  1  0.36672277  0.95951759  0.29048241  1
  Li  Li301  1  0.86672277  0.79048241  0.95951759  1
  Li  Li302  1  0.88327723  0.45951759  0.45951759  1
  Li  Li303  1  0.38327723  0.29048241  0.79048241  1
  Sn  Sn304  1  0.00000000  0.00000000  0.00000000  1
  Sn  Sn305  1  0.75000000  0.25000000  0.50000000  1
  Sn  Sn306  1  0.25000000  0.50000000  0.75000000  1
  Sn  Sn307  1  0.50000000  0.75000000  0.25000000  1
  Sn  Sn308  1  0.00000000  0.50000000  0.50000000  1
  Sn  Sn309  1  0.75000000  0.75000000  0.00000000  1
  Sn  Sn310  1  0.25000000  0.00000000  0.25000000  1
  Sn  Sn311  1  0.50000000  0.25000000  0.75000000  1
  Sn  Sn312  1  0.50000000  0.00000000  0.50000000  1
  Sn  Sn313  1  0.25000000  0.25000000  0.00000000  1
  Sn  Sn314  1  0.75000000  0.50000000  0.25000000  1
  Sn  Sn315  1  0.00000000  0.75000000  0.75000000  1
  Sn  Sn316  1  0.50000000  0.50000000  0.00000000  1
  Sn  Sn317  1  0.25000000  0.75000000  0.50000000  1
  Sn  Sn318  1  0.75000000  0.00000000  0.75000000  1
  Sn  Sn319  1  0.00000000  0.25000000  0.25000000  1
