# generated using pymatgen
data_NaLiF2
_symmetry_space_group_name_H-M   'P 1'
_cell_length_a   13.21484427
_cell_length_b   13.21484427
_cell_length_c   11.09030720
_cell_angle_alpha   90.00000000
_cell_angle_beta   90.00000000
_cell_angle_gamma   90.00000000
_symmetry_Int_Tables_number   1
_chemical_formula_structural   NaLiF2
_chemical_formula_sum   'Na32 Li32 F64'
_cell_volume   1936.72373808
_cell_formula_units_Z   32
loop_
 _symmetry_equiv_pos_site_id
 _symmetry_equiv_pos_as_xyz
  1  'x, y, z'
loop_
 _atom_site_type_symbol
 _atom_site_label
 _atom_site_symmetry_multiplicity
 _atom_site_fract_x
 _atom_site_fract_y
 _atom_site_fract_z
 _atom_site_occupancy
  F  F0  1  0.00000000  0.61900222  0.36168719  1
  F  F1  1  0.50000000  0.38099778  0.86168719  1
  F  F2  1  0.63099778  0.75000000  0.61168719  1
  F  F3  1  0.86900222  0.25000000  0.11168719  1
  F  F4  1  0.50000000  0.61900222  0.13831281  1
  F  F5  1  0.00000000  0.38099778  0.63831281  1
  F  F6  1  0.86900222  0.75000000  0.88831281  1
  F  F7  1  0.63099778  0.25000000  0.38831281  1
  F  F8  1  0.50000000  0.11900222  0.86168719  1
  F  F9  1  0.00000000  0.88099778  0.36168719  1
  F  F10  1  0.13099778  0.25000000  0.11168719  1
  F  F11  1  0.36900222  0.75000000  0.61168719  1
  F  F12  1  0.00000000  0.11900222  0.63831281  1
  F  F13  1  0.50000000  0.88099778  0.13831281  1
  F  F14  1  0.36900222  0.25000000  0.38831281  1
  F  F15  1  0.13099778  0.75000000  0.88831281  1
  F  F16  1  0.19719535  0.44719535  0.87500000  1
  F  F17  1  0.30280465  0.55280465  0.37500000  1
  F  F18  1  0.80280465  0.94719535  0.12500000  1
  F  F19  1  0.69719535  0.05280465  0.62500000  1
  F  F20  1  0.80280465  0.55280465  0.12500000  1
  F  F21  1  0.69719535  0.44719535  0.62500000  1
  F  F22  1  0.19719535  0.05280465  0.87500000  1
  F  F23  1  0.30280465  0.94719535  0.37500000  1
  F  F24  1  0.69719535  0.94719535  0.37500000  1
  F  F25  1  0.80280465  0.05280465  0.87500000  1
  F  F26  1  0.30280465  0.44719535  0.62500000  1
  F  F27  1  0.19719535  0.55280465  0.12500000  1
  F  F28  1  0.30280465  0.05280465  0.62500000  1
  F  F29  1  0.19719535  0.94719535  0.12500000  1
  F  F30  1  0.69719535  0.55280465  0.37500000  1
  F  F31  1  0.80280465  0.44719535  0.87500000  1
  F  F32  1  0.16185518  0.41185518  0.87500000  1
  F  F33  1  0.33814482  0.58814482  0.37500000  1
  F  F34  1  0.83814482  0.91185518  0.12500000  1
  F  F35  1  0.66185518  0.08814482  0.62500000  1
  F  F36  1  0.83814482  0.58814482  0.12500000  1
  F  F37  1  0.66185518  0.41185518  0.62500000  1
  F  F38  1  0.16185518  0.08814482  0.87500000  1
  F  F39  1  0.33814482  0.91185518  0.37500000  1
  F  F40  1  0.66185518  0.91185518  0.37500000  1
  F  F41  1  0.83814482  0.08814482  0.87500000  1
  F  F42  1  0.33814482  0.41185518  0.62500000  1
  F  F43  1  0.16185518  0.58814482  0.12500000  1
  F  F44  1  0.33814482  0.08814482  0.62500000  1
  F  F45  1  0.16185518  0.91185518  0.12500000  1
  F  F46  1  0.66185518  0.58814482  0.37500000  1
  F  F47  1  0.83814482  0.41185518  0.87500000  1
  F  F48  1  0.45005477  0.70005477  0.87500000  1
  F  F49  1  0.04994523  0.29994523  0.37500000  1
  F  F50  1  0.54994523  0.20005477  0.12500000  1
  F  F51  1  0.95005477  0.79994523  0.62500000  1
  F  F52  1  0.54994523  0.29994523  0.12500000  1
  F  F53  1  0.95005477  0.70005477  0.62500000  1
  F  F54  1  0.45005477  0.79994523  0.87500000  1
  F  F55  1  0.04994523  0.20005477  0.37500000  1
  F  F56  1  0.95005477  0.20005477  0.37500000  1
  F  F57  1  0.54994523  0.79994523  0.87500000  1
  F  F58  1  0.04994523  0.70005477  0.62500000  1
  F  F59  1  0.45005477  0.29994523  0.12500000  1
  F  F60  1  0.04994523  0.79994523  0.62500000  1
  F  F61  1  0.45005477  0.20005477  0.12500000  1
  F  F62  1  0.95005477  0.29994523  0.37500000  1
  F  F63  1  0.54994523  0.70005477  0.87500000  1
  Li  Li64  1  0.00000000  0.25000000  0.37500000  1
  Li  Li65  1  0.00000000  0.75000000  0.62500000  1
  Li  Li66  1  0.50000000  0.75000000  0.87500000  1
  Li  Li67  1  0.50000000  0.25000000  0.12500000  1
  Li  Li68  1  0.00000000  0.25000000  0.56799430  1
  Li  Li69  1  0.00000000  0.75000000  0.81799430  1
  Li  Li70  1  0.50000000  0.25000000  0.93200570  1
  Li  Li71  1  0.50000000  0.75000000  0.68200570  1
  Li  Li72  1  0.50000000  0.75000000  0.06799430  1
  Li  Li73  1  0.50000000  0.25000000  0.31799430  1
  Li  Li74  1  0.00000000  0.75000000  0.43200570  1
  Li  Li75  1  0.00000000  0.25000000  0.18200570  1
  Li  Li76  1  0.00000000  0.65436205  0.03262493  1
  Li  Li77  1  0.50000000  0.34563795  0.53262493  1
  Li  Li78  1  0.59563795  0.75000000  0.28262493  1
  Li  Li79  1  0.90436205  0.25000000  0.78262493  1
  Li  Li80  1  0.50000000  0.65436205  0.46737507  1
  Li  Li81  1  0.00000000  0.34563795  0.96737507  1
  Li  Li82  1  0.90436205  0.75000000  0.21737507  1
  Li  Li83  1  0.59563795  0.25000000  0.71737507  1
  Li  Li84  1  0.50000000  0.15436205  0.53262493  1
  Li  Li85  1  0.00000000  0.84563795  0.03262493  1
  Li  Li86  1  0.09563795  0.25000000  0.78262493  1
  Li  Li87  1  0.40436205  0.75000000  0.28262493  1
  Li  Li88  1  0.00000000  0.15436205  0.96737507  1
  Li  Li89  1  0.50000000  0.84563795  0.46737507  1
  Li  Li90  1  0.40436205  0.25000000  0.71737507  1
  Li  Li91  1  0.09563795  0.75000000  0.21737507  1
  Li  Li92  1  0.00000000  0.75000000  0.12500000  1
  Li  Li93  1  0.50000000  0.75000000  0.37500000  1
  Li  Li94  1  0.50000000  0.25000000  0.62500000  1
  Li  Li95  1  0.00000000  0.25000000  0.87500000  1
  Na  Na96  1  0.28888596  0.00000000  0.00000000  1
  Na  Na97  1  0.21111404  0.00000000  0.50000000  1
  Na  Na98  1  0.25000000  1.03888596  0.25000000  1
  Na  Na99  1  0.25000000  -0.03888596  0.75000000  1
  Na  Na100  1  -0.28888596  0.00000000  -0.00000000  1
  Na  Na101  1  0.78888596  -0.00000000  0.50000000  1
  Na  Na102  1  0.75000000  -0.03888596  0.75000000  1
  Na  Na103  1  0.75000000  1.03888596  0.25000000  1
  Na  Na104  1  0.78888596  0.50000000  0.50000000  1
  Na  Na105  1  0.71111404  0.50000000  1.00000000  1
  Na  Na106  1  0.75000000  1.53888596  0.75000000  1
  Na  Na107  1  0.75000000  0.46111404  1.25000000  1
  Na  Na108  1  0.21111404  0.50000000  0.50000000  1
  Na  Na109  1  1.28888596  0.50000000  1.00000000  1
  Na  Na110  1  1.25000000  0.46111404  1.25000000  1
  Na  Na111  1  1.25000000  1.53888596  0.75000000  1
  Na  Na112  1  0.00000000  0.00000000  0.00000000  1
  Na  Na113  1  0.50000000  0.00000000  0.50000000  1
  Na  Na114  1  0.25000000  0.75000000  0.25000000  1
  Na  Na115  1  0.25000000  0.25000000  0.75000000  1
  Na  Na116  1  0.50000000  0.50000000  0.50000000  1
  Na  Na117  1  0.00000000  0.50000000  0.00000000  1
  Na  Na118  1  0.75000000  0.25000000  0.75000000  1
  Na  Na119  1  0.75000000  0.75000000  0.25000000  1
  Na  Na120  1  0.00000000  0.00000000  0.50000000  1
  Na  Na121  1  0.50000000  0.00000000  0.00000000  1
  Na  Na122  1  0.25000000  0.75000000  0.75000000  1
  Na  Na123  1  0.25000000  0.25000000  0.25000000  1
  Na  Na124  1  0.50000000  0.50000000  0.00000000  1
  Na  Na125  1  0.00000000  0.50000000  0.50000000  1
  Na  Na126  1  0.75000000  0.25000000  0.25000000  1
  Na  Na127  1  0.75000000  0.75000000  0.75000000  1
