# generated using pymatgen
data_Sr3Li4Se3O2
_symmetry_space_group_name_H-M   'P 1'
_cell_length_a   21.01878983
_cell_length_b   21.01878983
_cell_length_c   5.10654776
_cell_angle_alpha   90.00000000
_cell_angle_beta   90.00000000
_cell_angle_gamma   120.00000000
_symmetry_Int_Tables_number   1
_chemical_formula_structural   Sr3Li4Se3O2
_chemical_formula_sum   'Sr18 Li24 Se18 O12'
_cell_volume   1953.77003938
_cell_formula_units_Z   6
loop_
 _symmetry_equiv_pos_site_id
 _symmetry_equiv_pos_as_xyz
  1  'x, y, z'
loop_
 _atom_site_type_symbol
 _atom_site_label
 _atom_site_symmetry_multiplicity
 _atom_site_fract_x
 _atom_site_fract_y
 _atom_site_fract_z
 _atom_site_occupancy
  Li  Li0  1  0.93797907  0.56613331  0.25000000  1
  Li  Li1  1  0.43386669  0.37184576  0.25000000  1
  Li  Li2  1  0.62815424  0.06202093  0.25000000  1
  Li  Li3  1  0.06202093  0.43386669  0.75000000  1
  Li  Li4  1  0.56613331  0.62815424  0.75000000  1
  Li  Li5  1  0.37184576  0.93797907  0.75000000  1
  Li  Li6  1  0.56613331  0.93797907  0.75000000  1
  Li  Li7  1  0.37184576  0.43386669  0.75000000  1
  Li  Li8  1  0.06202093  0.62815424  0.75000000  1
  Li  Li9  1  0.43386669  0.06202093  0.25000000  1
  Li  Li10  1  0.62815424  0.56613331  0.25000000  1
  Li  Li11  1  0.93797907  0.37184576  0.25000000  1
  Li  Li12  1  0.55444475  0.21095450  0.25000000  1
  Li  Li13  1  0.78904550  0.34349025  0.25000000  1
  Li  Li14  1  0.65650975  0.44555525  0.25000000  1
  Li  Li15  1  0.44555525  0.78904550  0.75000000  1
  Li  Li16  1  0.21095450  0.65650975  0.75000000  1
  Li  Li17  1  0.34349025  0.55444475  0.75000000  1
  Li  Li18  1  0.21095450  0.55444475  0.75000000  1
  Li  Li19  1  0.34349025  0.78904550  0.75000000  1
  Li  Li20  1  0.44555525  0.65650975  0.75000000  1
  Li  Li21  1  0.78904550  0.44555525  0.25000000  1
  Li  Li22  1  0.65650975  0.21095450  0.25000000  1
  Li  Li23  1  0.55444475  0.34349025  0.25000000  1
  O  O24  1  0.04225560  0.76442676  0.25000000  1
  O  O25  1  0.23557324  0.27782884  0.25000000  1
  O  O26  1  0.72217116  0.95774440  0.25000000  1
  O  O27  1  0.95774440  0.23557324  0.75000000  1
  O  O28  1  0.76442676  0.72217116  0.75000000  1
  O  O29  1  0.27782884  0.04225560  0.75000000  1
  O  O30  1  0.76442676  0.04225560  0.75000000  1
  O  O31  1  0.27782884  0.23557324  0.75000000  1
  O  O32  1  0.95774440  0.72217116  0.75000000  1
  O  O33  1  0.23557324  0.95774440  0.25000000  1
  O  O34  1  0.72217116  0.76442676  0.25000000  1
  O  O35  1  0.04225560  0.27782884  0.25000000  1
  Se  Se36  1  0.93734244  1.87468488  0.56470842  1
  Se  Se37  1  -1.87468488  -0.93734244  0.56470842  1
  Se  Se38  1  0.93734244  -0.93734244  0.56470842  1
  Se  Se39  1  -0.93734244  -1.87468488  1.06470842  1
  Se  Se40  1  1.87468488  0.93734244  1.06470842  1
  Se  Se41  1  -0.93734244  0.93734244  1.06470842  1
  Se  Se42  1  1.87468488  0.93734244  -0.56470842  1
  Se  Se43  1  -0.93734244  -1.87468488  -0.56470842  1
  Se  Se44  1  -0.93734244  0.93734244  -0.56470842  1
  Se  Se45  1  -1.87468488  -0.93734244  -0.06470842  1
  Se  Se46  1  0.93734244  1.87468488  -0.06470842  1
  Se  Se47  1  0.93734244  -0.93734244  -0.06470842  1
  Se  Se48  1  0.17187460  0.34374921  0.25000000  1
  Se  Se49  1  0.65625079  0.82812540  0.25000000  1
  Se  Se50  1  0.17187460  0.82812540  0.25000000  1
  Se  Se51  1  0.82812540  0.65625079  0.75000000  1
  Se  Se52  1  0.34374921  0.17187460  0.75000000  1
  Se  Se53  1  0.82812540  0.17187460  0.75000000  1
  Sr  Sr54  1  0.33333333  0.66666667  0.25000000  1
  Sr  Sr55  1  0.66666667  0.33333333  0.75000000  1
  Sr  Sr56  1  0.50000000  0.00000000  -0.00000000  1
  Sr  Sr57  1  0.00000000  0.50000000  0.00000000  1
  Sr  Sr58  1  0.50000000  0.50000000  -0.00000000  1
  Sr  Sr59  1  0.50000000  0.00000000  0.50000000  1
  Sr  Sr60  1  0.00000000  0.50000000  0.50000000  1
  Sr  Sr61  1  0.50000000  0.50000000  0.50000000  1
  Sr  Sr62  1  0.25712853  0.51425706  0.25000000  1
  Sr  Sr63  1  0.48574294  0.74287147  0.25000000  1
  Sr  Sr64  1  0.25712853  0.74287147  0.25000000  1
  Sr  Sr65  1  0.74287147  0.48574294  0.75000000  1
  Sr  Sr66  1  0.51425706  0.25712853  0.75000000  1
  Sr  Sr67  1  0.74287147  0.25712853  0.75000000  1
  Sr  Sr68  1  0.00000000  0.00000000  0.00000000  1
  Sr  Sr69  1  0.00000000  0.00000000  0.50000000  1
  Sr  Sr70  1  0.33333333  0.66666667  0.75000000  1
  Sr  Sr71  1  0.66666667  0.33333333  0.25000000  1
