# generated using pymatgen
data_Li2ZrGaO2
_symmetry_space_group_name_H-M   'P 1'
_cell_length_a   8.42813252
_cell_length_b   7.48754223
_cell_length_c   7.52263418
_cell_angle_alpha   90.00000000
_cell_angle_beta   90.00000000
_cell_angle_gamma   90.00000000
_symmetry_Int_Tables_number   1
_chemical_formula_structural   Li2ZrGaO2
_chemical_formula_sum   'Li2 Zr1 Ga1 O2'
_cell_volume   474.72333831
_cell_formula_units_Z   1
loop_
 _symmetry_equiv_pos_site_id
 _symmetry_equiv_pos_as_xyz
  1  'x, y, z'
loop_
 _atom_site_type_symbol
 _atom_site_label
 _atom_site_symmetry_multiplicity
 _atom_site_fract_x
 _atom_site_fract_y
 _atom_site_fract_z
 _atom_site_occupancy
  Li  Li0  1  0.00000000  0.00000000  0.00000000  1
  Li  Li1  1  0.50000000  0.50000000  0.50000000  1
  Zr  Zr2  1  0.25000000  0.25000000  0.25000000  1
  Ga  Ga3  1  0.75000000  0.25000000  0.00000000  1
  O  O4  1  0.25000000  0.75000000  0.50000000  1
  O  O5  1  0.52745036  0.43236749  0.80849869  1
