# generated using pymatgen
data_Li2Se
_symmetry_space_group_name_H-M   'P 1'
_cell_length_a   11.25946367
_cell_length_b   5.03019604
_cell_length_c   8.37477728
_cell_angle_alpha   90.00000000
_cell_angle_beta   90.00000000
_cell_angle_gamma   90.00000000
_symmetry_Int_Tables_number   1
_chemical_formula_structural   Li2Se
_chemical_formula_sum   'Li16 Se8'
_cell_volume   474.32485369
_cell_formula_units_Z   8
loop_
 _symmetry_equiv_pos_site_id
 _symmetry_equiv_pos_as_xyz
  1  'x, y, z'
loop_
 _atom_site_type_symbol
 _atom_site_label
 _atom_site_symmetry_multiplicity
 _atom_site_fract_x
 _atom_site_fract_y
 _atom_site_fract_z
 _atom_site_occupancy
  Li  Li0  1  0.00000000  0.00000000  0.38919634  1
  Li  Li1  1  0.50000000  0.50000000  0.61080366  1
  Li  Li2  1  0.00000000  0.00000000  0.61080366  1
  Li  Li3  1  0.50000000  0.50000000  0.38919634  1
  Li  Li4  1  0.05560803  0.80961842  0.19242323  1
  Li  Li5  1  0.94439197  0.19038158  0.19242323  1
  Li  Li6  1  0.44439197  0.30961842  0.80757677  1
  Li  Li7  1  0.55560803  0.69038158  0.80757677  1
  Li  Li8  1  0.94439197  0.19038158  0.80757677  1
  Li  Li9  1  0.05560803  0.80961842  0.80757677  1
  Li  Li10  1  0.55560803  0.69038158  0.19242323  1
  Li  Li11  1  0.44439197  0.30961842  0.19242323  1
  Li  Li12  1  0.00000000  0.50000000  0.36905959  1
  Li  Li13  1  0.50000000  0.00000000  0.63094041  1
  Li  Li14  1  0.00000000  0.50000000  0.63094041  1
  Li  Li15  1  0.50000000  0.00000000  0.36905959  1
  Se  Se16  1  0.57804010  0.42206098  0.23375093  1
  Se  Se17  1  -0.57804010  -0.42206098  0.23375093  1
  Se  Se18  1  -0.07804010  0.92206098  -0.23375093  1
  Se  Se19  1  1.07804010  0.07793902  -0.23375093  1
  Se  Se20  1  -0.57804010  -0.42206098  -0.23375093  1
  Se  Se21  1  0.57804010  0.42206098  -0.23375093  1
  Se  Se22  1  1.07804010  0.07793902  0.23375093  1
  Se  Se23  1  -0.07804010  0.92206098  0.23375093  1
