# generated using pymatgen
data_Li2Ta2Al2SiAs3
_symmetry_space_group_name_H-M   'P 1'
_cell_length_a   12.17848333
_cell_length_b   10.25324694
_cell_length_c   12.28416189
_cell_angle_alpha   90.00000000
_cell_angle_beta   90.00000000
_cell_angle_gamma   90.00000000
_symmetry_Int_Tables_number   1
_chemical_formula_structural   Li2Ta2Al2SiAs3
_chemical_formula_sum   'Li2 Ta2 Al2 Si1 As3'
_cell_volume   1533.91097315
_cell_formula_units_Z   1
loop_
 _symmetry_equiv_pos_site_id
 _symmetry_equiv_pos_as_xyz
  1  'x, y, z'
loop_
 _atom_site_type_symbol
 _atom_site_label
 _atom_site_symmetry_multiplicity
 _atom_site_fract_x
 _atom_site_fract_y
 _atom_site_fract_z
 _atom_site_occupancy
  Li  Li0  1  0.12500000  0.00000000  0.25000000  1
  Li  Li1  1  0.00000000  0.00000000  0.00000000  1
  Ta  Ta2  1  0.37500000  0.00000000  0.25000000  1
  Ta  Ta3  1  0.25000000  0.25000000  0.25000000  1
  Al  Al4  1  0.00000000  0.25000000  0.12500000  1
  Al  Al5  1  0.63493883  0.18157180  0.00966563  1
  Si  Si6  1  0.05264226  0.78718186  0.85349013  1
  As  As7  1  0.90211490  0.20435205  0.74339598  1
  As  As8  1  0.87626024  0.32603622  0.70198093  1
  As  As9  1  0.68730568  0.50266886  0.46781109  1
