# generated using pymatgen
data_Li2LaO
_symmetry_space_group_name_H-M   'P 1'
_cell_length_a   3.05812451
_cell_length_b   2.55405380
_cell_length_c   6.37788174
_cell_angle_alpha   100.14454062
_cell_angle_beta   101.62677687
_cell_angle_gamma   106.47038529
_symmetry_Int_Tables_number   1
_chemical_formula_structural   Li2LaO
_chemical_formula_sum   'Li2 La1 O1'
_cell_volume   45.32494778
_cell_formula_units_Z   1
loop_
 _symmetry_equiv_pos_site_id
 _symmetry_equiv_pos_as_xyz
  1  'x, y, z'
loop_
 _atom_site_type_symbol
 _atom_site_label
 _atom_site_symmetry_multiplicity
 _atom_site_fract_x
 _atom_site_fract_y
 _atom_site_fract_z
 _atom_site_occupancy
  Li  Li0  1  0.00000000  0.00000000  0.00000000  1
  Li  Li1  1  0.33300000  0.66700000  0.25000000  1
  La  La2  1  0.66700000  0.33300000  0.50000000  1
  O  O3  1  0.00000000  0.00000000  0.75000000  1
