# generated using pymatgen
data_Li2O
_symmetry_space_group_name_H-M   'P 1'
_cell_length_a   9.53577689
_cell_length_b   9.53577689
_cell_length_c   9.53577689
_cell_angle_alpha   90.00000000
_cell_angle_beta   90.00000000
_cell_angle_gamma   90.00000000
_symmetry_Int_Tables_number   1
_chemical_formula_structural   Li2O
_chemical_formula_sum   'Li32 O16'
_cell_volume   867.09811892
_cell_formula_units_Z   16
loop_
 _symmetry_equiv_pos_site_id
 _symmetry_equiv_pos_as_xyz
  1  'x, y, z'
loop_
 _atom_site_type_symbol
 _atom_site_label
 _atom_site_symmetry_multiplicity
 _atom_site_fract_x
 _atom_site_fract_y
 _atom_site_fract_z
 _atom_site_occupancy
  Li  Li0  1  0.39656973  0.25000000  0.25000000  1
  Li  Li1  1  -0.39656973  0.75000000  0.25000000  1
  Li  Li2  1  0.25000000  0.39656973  0.25000000  1
  Li  Li3  1  0.25000000  -0.39656973  0.75000000  1
  Li  Li4  1  0.25000000  0.25000000  0.39656973  1
  Li  Li5  1  0.75000000  0.25000000  -0.39656973  1
  Li  Li6  1  0.39656973  0.75000000  0.75000000  1
  Li  Li7  1  -0.39656973  1.25000000  0.75000000  1
  Li  Li8  1  0.25000000  0.89656973  0.75000000  1
  Li  Li9  1  0.25000000  0.10343027  1.25000000  1
  Li  Li10  1  0.25000000  0.75000000  0.89656973  1
  Li  Li11  1  0.75000000  0.75000000  0.10343027  1
  Li  Li12  1  0.89656973  0.25000000  0.75000000  1
  Li  Li13  1  0.10343027  0.75000000  0.75000000  1
  Li  Li14  1  0.75000000  0.39656973  0.75000000  1
  Li  Li15  1  0.75000000  -0.39656973  1.25000000  1
  Li  Li16  1  0.75000000  0.25000000  0.89656973  1
  Li  Li17  1  1.25000000  0.25000000  0.10343027  1
  Li  Li18  1  0.89656973  0.75000000  0.25000000  1
  Li  Li19  1  0.10343027  1.25000000  0.25000000  1
  Li  Li20  1  0.75000000  0.89656973  0.25000000  1
  Li  Li21  1  0.75000000  0.10343027  0.75000000  1
  Li  Li22  1  0.75000000  0.75000000  0.39656973  1
  Li  Li23  1  1.25000000  0.75000000  -0.39656973  1
  Li  Li24  1  0.75000000  0.75000000  0.75000000  1
  Li  Li25  1  0.75000000  0.25000000  0.25000000  1
  Li  Li26  1  0.25000000  0.75000000  0.25000000  1
  Li  Li27  1  0.25000000  0.25000000  0.75000000  1
  Li  Li28  1  0.25000000  0.25000000  0.25000000  1
  Li  Li29  1  0.25000000  0.75000000  0.75000000  1
  Li  Li30  1  0.75000000  0.25000000  0.75000000  1
  Li  Li31  1  0.75000000  0.75000000  0.25000000  1
  O  O32  1  0.94532594  0.94532594  0.94532594  1
  O  O33  1  0.05467406  0.05467406  0.94532594  1
  O  O34  1  0.05467406  0.94532594  0.05467406  1
  O  O35  1  0.94532594  0.05467406  0.05467406  1
  O  O36  1  0.94532594  0.44532594  0.44532594  1
  O  O37  1  0.05467406  0.55467406  0.44532594  1
  O  O38  1  0.05467406  0.44532594  0.55467406  1
  O  O39  1  0.94532594  0.55467406  0.55467406  1
  O  O40  1  0.44532594  0.94532594  0.44532594  1
  O  O41  1  0.55467406  0.05467406  0.44532594  1
  O  O42  1  0.55467406  0.94532594  0.55467406  1
  O  O43  1  0.44532594  0.05467406  0.55467406  1
  O  O44  1  0.44532594  0.44532594  0.94532594  1
  O  O45  1  0.55467406  0.55467406  0.94532594  1
  O  O46  1  0.55467406  0.44532594  0.05467406  1
  O  O47  1  0.44532594  0.55467406  0.05467406  1
