# generated using pymatgen
data_Hf2SeSI3Cl
_symmetry_space_group_name_H-M   'P 1'
_cell_length_a   17.13713103
_cell_length_b   17.13713103
_cell_length_c   5.70139338
_cell_angle_alpha   90.00000000
_cell_angle_beta   90.00000000
_cell_angle_gamma   90.00000000
_symmetry_Int_Tables_number   1
_chemical_formula_structural   Hf2SeSI3Cl
_chemical_formula_sum   'Hf16 Se8 S8 I24 Cl8'
_cell_volume   1674.39239110
_cell_formula_units_Z   8
loop_
 _symmetry_equiv_pos_site_id
 _symmetry_equiv_pos_as_xyz
  1  'x, y, z'
loop_
 _atom_site_type_symbol
 _atom_site_label
 _atom_site_symmetry_multiplicity
 _atom_site_fract_x
 _atom_site_fract_y
 _atom_site_fract_z
 _atom_site_occupancy
  Cl  Cl0  1  0.28558477  0.54289027  0.50000000  1
  Cl  Cl1  1  0.71441523  0.45710973  0.50000000  1
  Cl  Cl2  1  0.45710973  0.28558477  0.50000000  1
  Cl  Cl3  1  0.54289027  0.71441523  0.50000000  1
  Cl  Cl4  1  0.71441523  0.54289027  0.50000000  1
  Cl  Cl5  1  0.28558477  0.45710973  0.50000000  1
  Cl  Cl6  1  0.54289027  0.28558477  0.50000000  1
  Cl  Cl7  1  0.45710973  0.71441523  0.50000000  1
  Hf  Hf8  1  0.36110665  0.36110665  0.50000000  1
  Hf  Hf9  1  0.63889335  0.63889335  0.50000000  1
  Hf  Hf10  1  0.63889335  0.36110665  0.50000000  1
  Hf  Hf11  1  0.36110665  0.63889335  0.50000000  1
  Hf  Hf12  1  0.18531852  0.18531852  0.30130392  1
  Hf  Hf13  1  -0.18531852  -0.18531852  0.30130392  1
  Hf  Hf14  1  -0.18531852  0.18531852  0.30130392  1
  Hf  Hf15  1  0.18531852  -0.18531852  0.30130392  1
  Hf  Hf16  1  -0.18531852  0.18531852  -0.30130392  1
  Hf  Hf17  1  0.18531852  -0.18531852  -0.30130392  1
  Hf  Hf18  1  0.18531852  0.18531852  -0.30130392  1
  Hf  Hf19  1  -0.18531852  -0.18531852  -0.30130392  1
  Hf  Hf20  1  0.88844041  0.88844041  0.50000000  1
  Hf  Hf21  1  0.11155959  0.11155959  0.50000000  1
  Hf  Hf22  1  0.11155959  0.88844041  0.50000000  1
  Hf  Hf23  1  0.88844041  0.11155959  0.50000000  1
  I  I24  1  0.63286847  -0.00000000  0.50000000  1
  I  I25  1  0.36713153  -0.00000000  0.50000000  1
  I  I26  1  0.00000000  0.63286847  0.50000000  1
  I  I27  1  0.00000000  0.36713153  0.50000000  1
  I  I28  1  0.84851823  0.50000000  0.50000000  1
  I  I29  1  0.15148177  0.50000000  0.50000000  1
  I  I30  1  0.50000000  0.84851823  0.50000000  1
  I  I31  1  0.50000000  0.15148177  0.50000000  1
  I  I32  1  0.00000000  0.50000000  0.50000000  1
  I  I33  1  0.50000000  -0.00000000  0.50000000  1
  I  I34  1  0.00000000  0.00000000  0.00000000  1
  I  I35  1  0.29292252  0.29292252  0.20458359  1
  I  I36  1  0.70707748  0.70707748  0.20458359  1
  I  I37  1  0.70707748  0.29292252  0.20458359  1
  I  I38  1  0.29292252  0.70707748  0.20458359  1
  I  I39  1  0.70707748  0.29292252  0.79541641  1
  I  I40  1  0.29292252  0.70707748  0.79541641  1
  I  I41  1  0.29292252  0.29292252  0.79541641  1
  I  I42  1  0.70707748  0.70707748  0.79541641  1
  I  I43  1  0.85826172  -0.00000000  -0.00000000  1
  I  I44  1  0.14173828  -0.00000000  -0.00000000  1
  I  I45  1  0.00000000  0.85826172  -0.00000000  1
  I  I46  1  0.00000000  0.14173828  0.00000000  1
  I  I47  1  0.00000000  0.00000000  0.50000000  1
  S  S48  1  0.90175588  0.50000000  0.30454518  1
  S  S49  1  0.09824412  0.50000000  0.30454518  1
  S  S50  1  0.50000000  0.90175588  0.30454518  1
  S  S51  1  0.50000000  0.09824412  0.30454518  1
  S  S52  1  0.09824412  0.50000000  0.69545482  1
  S  S53  1  0.90175588  0.50000000  0.69545482  1
  S  S54  1  0.50000000  0.90175588  0.69545482  1
  S  S55  1  0.50000000  0.09824412  0.69545482  1
  Se  Se56  1  0.78351482  0.50000000  0.00000000  1
  Se  Se57  1  0.21648518  0.50000000  0.00000000  1
  Se  Se58  1  0.50000000  0.78351482  0.00000000  1
  Se  Se59  1  0.50000000  0.21648518  0.00000000  1
  Se  Se60  1  0.14318692  0.50000000  0.00000000  1
  Se  Se61  1  0.85681308  0.50000000  0.00000000  1
  Se  Se62  1  0.50000000  0.14318692  0.00000000  1
  Se  Se63  1  0.50000000  0.85681308  0.00000000  1
