# generated using pymatgen
data_LiI
_symmetry_space_group_name_H-M   'P 1'
_cell_length_a   19.96574769
_cell_length_b   19.96574769
_cell_length_c   19.96574769
_cell_angle_alpha   90.00000000
_cell_angle_beta   90.00000000
_cell_angle_gamma   90.00000000
_symmetry_Int_Tables_number   1
_chemical_formula_structural   LiI
_chemical_formula_sum   'Li192 I192'
_cell_volume   7958.96758173
_cell_formula_units_Z   192
loop_
 _symmetry_equiv_pos_site_id
 _symmetry_equiv_pos_as_xyz
  1  'x, y, z'
loop_
 _atom_site_type_symbol
 _atom_site_label
 _atom_site_symmetry_multiplicity
 _atom_site_fract_x
 _atom_site_fract_y
 _atom_site_fract_z
 _atom_site_occupancy
  I  I0  1  0.12500000  0.12500000  0.12500000  1
  I  I1  1  0.37500000  0.87500000  0.62500000  1
  I  I2  1  0.87500000  0.62500000  0.37500000  1
  I  I3  1  0.62500000  0.37500000  0.87500000  1
  I  I4  1  0.87500000  0.87500000  0.87500000  1
  I  I5  1  0.62500000  0.12500000  0.37500000  1
  I  I6  1  0.12500000  0.37500000  0.62500000  1
  I  I7  1  0.37500000  0.62500000  0.12500000  1
  I  I8  1  0.62500000  0.62500000  0.62500000  1
  I  I9  1  0.87500000  0.37500000  0.12500000  1
  I  I10  1  0.37500000  0.12500000  0.87500000  1
  I  I11  1  0.12500000  0.87500000  0.37500000  1
  I  I12  1  0.37500000  0.37500000  0.37500000  1
  I  I13  1  0.12500000  0.62500000  0.87500000  1
  I  I14  1  0.62500000  0.87500000  0.12500000  1
  I  I15  1  0.87500000  0.12500000  0.62500000  1
  I  I16  1  0.51471911  0.83963262  0.28156634  1
  I  I17  1  -0.01471911  -0.83963262  0.78156634  1
  I  I18  1  -0.51471911  1.33963262  0.21843366  1
  I  I19  1  1.01471911  -0.33963262  -0.28156634  1
  I  I20  1  0.28156634  0.51471911  0.83963262  1
  I  I21  1  0.78156634  -0.01471911  -0.83963262  1
  I  I22  1  0.21843366  -0.51471911  1.33963262  1
  I  I23  1  -0.28156634  1.01471911  -0.33963262  1
  I  I24  1  0.83963262  0.28156634  0.51471911  1
  I  I25  1  -0.83963262  0.78156634  -0.01471911  1
  I  I26  1  1.33963262  0.21843366  -0.51471911  1
  I  I27  1  -0.33963262  -0.28156634  1.01471911  1
  I  I28  1  1.58963262  0.76471911  -0.03156634  1
  I  I29  1  -0.08963262  0.23528089  0.46843366  1
  I  I30  1  1.08963262  -0.26471911  1.03156634  1
  I  I31  1  -0.58963262  1.26471911  0.53156634  1
  I  I32  1  1.26471911  0.53156634  -0.58963262  1
  I  I33  1  -0.26471911  1.03156634  1.08963262  1
  I  I34  1  0.23528089  0.46843366  -0.08963262  1
  I  I35  1  0.76471911  -0.03156634  1.58963262  1
  I  I36  1  1.03156634  1.08963262  -0.26471911  1
  I  I37  1  0.53156634  -0.58963262  1.26471911  1
  I  I38  1  -0.03156634  1.58963262  0.76471911  1
  I  I39  1  0.46843366  -0.08963262  0.23528089  1
  I  I40  1  -0.51471911  -0.83963262  -0.28156634  1
  I  I41  1  1.01471911  0.83963262  0.21843366  1
  I  I42  1  0.51471911  -0.33963262  0.78156634  1
  I  I43  1  -0.01471911  1.33963262  0.28156634  1
  I  I44  1  -0.28156634  -0.51471911  -0.83963262  1
  I  I45  1  0.21843366  1.01471911  0.83963262  1
  I  I46  1  0.78156634  0.51471911  -0.33963262  1
  I  I47  1  0.28156634  -0.01471911  1.33963262  1
  I  I48  1  -0.83963262  -0.28156634  -0.51471911  1
  I  I49  1  0.83963262  0.21843366  1.01471911  1
  I  I50  1  -0.33963262  0.78156634  0.51471911  1
  I  I51  1  1.33963262  0.28156634  -0.01471911  1
  I  I52  1  -0.58963262  0.23528089  1.03156634  1
  I  I53  1  1.08963262  0.76471911  0.53156634  1
  I  I54  1  -0.08963262  1.26471911  -0.03156634  1
  I  I55  1  1.58963262  -0.26471911  0.46843366  1
  I  I56  1  -0.26471911  0.46843366  1.58963262  1
  I  I57  1  1.26471911  -0.03156634  -0.08963262  1
  I  I58  1  0.76471911  0.53156634  1.08963262  1
  I  I59  1  0.23528089  1.03156634  -0.58963262  1
  I  I60  1  -0.03156634  -0.08963262  1.26471911  1
  I  I61  1  0.46843366  1.58963262  -0.26471911  1
  I  I62  1  1.03156634  -0.58963262  0.23528089  1
  I  I63  1  0.53156634  1.08963262  0.76471911  1
  I  I64  1  1.01471911  1.33963262  0.78156634  1
  I  I65  1  0.48528089  -0.33963262  1.28156634  1
  I  I66  1  -0.01471911  1.83963262  0.71843366  1
  I  I67  1  1.51471911  0.16036738  0.21843366  1
  I  I68  1  0.78156634  1.01471911  1.33963262  1
  I  I69  1  1.28156634  0.48528089  -0.33963262  1
  I  I70  1  0.71843366  -0.01471911  1.83963262  1
  I  I71  1  0.21843366  1.51471911  0.16036738  1
  I  I72  1  1.33963262  0.78156634  1.01471911  1
  I  I73  1  -0.33963262  1.28156634  0.48528089  1
  I  I74  1  1.83963262  0.71843366  -0.01471911  1
  I  I75  1  0.16036738  0.21843366  1.51471911  1
  I  I76  1  2.08963262  1.26471911  0.46843366  1
  I  I77  1  0.41036738  0.73528089  0.96843366  1
  I  I78  1  1.58963262  0.23528089  1.53156634  1
  I  I79  1  -0.08963262  1.76471911  1.03156634  1
  I  I80  1  1.76471911  1.03156634  -0.08963262  1
  I  I81  1  0.23528089  1.53156634  1.58963262  1
  I  I82  1  0.73528089  0.96843366  0.41036738  1
  I  I83  1  1.26471911  0.46843366  2.08963262  1
  I  I84  1  1.53156634  1.58963262  0.23528089  1
  I  I85  1  1.03156634  -0.08963262  1.76471911  1
  I  I86  1  0.46843366  2.08963262  1.26471911  1
  I  I87  1  0.96843366  0.41036738  0.73528089  1
  I  I88  1  -0.01471911  -0.33963262  0.21843366  1
  I  I89  1  1.51471911  1.33963262  0.71843366  1
  I  I90  1  1.01471911  0.16036738  1.28156634  1
  I  I91  1  0.48528089  1.83963262  0.78156634  1
  I  I92  1  0.21843366  -0.01471911  -0.33963262  1
  I  I93  1  0.71843366  1.51471911  1.33963262  1
  I  I94  1  1.28156634  1.01471911  0.16036738  1
  I  I95  1  0.78156634  0.48528089  1.83963262  1
  I  I96  1  -0.33963262  0.21843366  -0.01471911  1
  I  I97  1  1.33963262  0.71843366  1.51471911  1
  I  I98  1  0.16036738  1.28156634  1.01471911  1
  I  I99  1  1.83963262  0.78156634  0.48528089  1
  I  I100  1  -0.08963262  0.73528089  1.53156634  1
  I  I101  1  1.58963262  1.26471911  1.03156634  1
  I  I102  1  0.41036738  1.76471911  0.46843366  1
  I  I103  1  2.08963262  0.23528089  0.96843366  1
  I  I104  1  0.23528089  0.96843366  2.08963262  1
  I  I105  1  1.76471911  0.46843366  0.41036738  1
  I  I106  1  1.26471911  1.03156634  1.58963262  1
  I  I107  1  0.73528089  1.53156634  -0.08963262  1
  I  I108  1  0.46843366  0.41036738  1.76471911  1
  I  I109  1  0.96843366  2.08963262  0.23528089  1
  I  I110  1  1.53156634  -0.08963262  0.73528089  1
  I  I111  1  1.03156634  1.58963262  1.26471911  1
  I  I112  1  0.99983123  0.00000000  0.25000000  1
  I  I113  1  0.50016877  0.00000000  0.75000000  1
  I  I114  1  0.25000000  0.99983123  0.00000000  1
  I  I115  1  0.75000000  0.50016877  -0.00000000  1
  I  I116  1  0.00000000  0.25000000  0.99983123  1
  I  I117  1  0.00000000  0.75000000  0.50016877  1
  I  I118  1  0.75000000  0.24983123  0.00000000  1
  I  I119  1  0.75000000  0.75016877  0.50000000  1
  I  I120  1  0.74983123  0.50000000  0.25000000  1
  I  I121  1  0.25016877  0.00000000  0.25000000  1
  I  I122  1  0.00000000  0.25000000  0.25016877  1
  I  I123  1  0.50000000  0.25000000  0.74983123  1
  I  I124  1  0.00016877  0.00000000  0.75000000  1
  I  I125  1  0.49983123  0.00000000  0.25000000  1
  I  I126  1  0.75000000  0.00016877  -0.00000000  1
  I  I127  1  0.25000000  0.49983123  -0.00000000  1
  I  I128  1  0.00000000  0.75000000  0.00016877  1
  I  I129  1  0.00000000  0.25000000  0.49983123  1
  I  I130  1  0.25000000  0.75016877  0.00000000  1
  I  I131  1  0.25000000  0.24983123  0.50000000  1
  I  I132  1  0.25016877  0.50000000  0.75000000  1
  I  I133  1  0.74983123  0.00000000  0.75000000  1
  I  I134  1  0.00000000  0.75000000  0.74983123  1
  I  I135  1  0.50000000  0.75000000  0.25016877  1
  I  I136  1  0.49983123  0.50000000  0.75000000  1
  I  I137  1  0.00016877  0.50000000  0.25000000  1
  I  I138  1  0.75000000  0.49983123  0.50000000  1
  I  I139  1  0.25000000  0.00016877  0.50000000  1
  I  I140  1  0.50000000  0.75000000  0.49983123  1
  I  I141  1  0.50000000  0.25000000  0.00016877  1
  I  I142  1  0.25000000  0.74983123  0.50000000  1
  I  I143  1  0.25000000  0.25016877  0.00000000  1
  I  I144  1  0.24983123  0.00000000  0.75000000  1
  I  I145  1  0.75016877  0.50000000  0.75000000  1
  I  I146  1  0.50000000  0.75000000  0.75016877  1
  I  I147  1  0.00000000  0.75000000  0.24983123  1
  I  I148  1  0.50016877  0.50000000  0.25000000  1
  I  I149  1  0.99983123  0.50000000  0.75000000  1
  I  I150  1  0.25000000  0.50016877  0.50000000  1
  I  I151  1  0.75000000  0.99983123  0.50000000  1
  I  I152  1  0.50000000  0.25000000  0.50016877  1
  I  I153  1  0.50000000  0.75000000  0.99983123  1
  I  I154  1  0.75000000  0.25016877  0.50000000  1
  I  I155  1  0.75000000  0.74983123  0.00000000  1
  I  I156  1  0.75016877  0.00000000  0.25000000  1
  I  I157  1  0.24983123  0.50000000  0.25000000  1
  I  I158  1  0.50000000  0.25000000  0.24983123  1
  I  I159  1  0.00000000  0.25000000  0.75016877  1
  I  I160  1  0.29533612  0.29533612  0.29533612  1
  I  I161  1  0.20466388  0.70466388  0.79533612  1
  I  I162  1  0.70466388  0.79533612  0.20466388  1
  I  I163  1  0.79533612  0.20466388  0.70466388  1
  I  I164  1  0.04533612  0.54533612  0.95466388  1
  I  I165  1  0.45466388  0.45466388  0.45466388  1
  I  I166  1  0.54533612  0.95466388  0.04533612  1
  I  I167  1  0.95466388  0.04533612  0.54533612  1
  I  I168  1  0.70466388  0.70466388  0.70466388  1
  I  I169  1  0.79533612  0.29533612  0.20466388  1
  I  I170  1  0.29533612  0.20466388  0.79533612  1
  I  I171  1  0.20466388  0.79533612  0.29533612  1
  I  I172  1  0.95466388  0.45466388  0.04533612  1
  I  I173  1  0.54533612  0.54533612  0.54533612  1
  I  I174  1  0.45466388  0.04533612  0.95466388  1
  I  I175  1  0.04533612  0.95466388  0.45466388  1
  I  I176  1  0.79533612  0.79533612  0.79533612  1
  I  I177  1  0.70466388  0.20466388  0.29533612  1
  I  I178  1  0.20466388  0.29533612  0.70466388  1
  I  I179  1  0.29533612  0.70466388  0.20466388  1
  I  I180  1  0.54533612  0.04533612  0.45466388  1
  I  I181  1  0.95466388  0.95466388  0.95466388  1
  I  I182  1  0.04533612  0.45466388  0.54533612  1
  I  I183  1  0.45466388  0.54533612  0.04533612  1
  I  I184  1  0.20466388  0.20466388  0.20466388  1
  I  I185  1  0.29533612  0.79533612  0.70466388  1
  I  I186  1  0.79533612  0.70466388  0.29533612  1
  I  I187  1  0.70466388  0.29533612  0.79533612  1
  I  I188  1  0.45466388  0.95466388  0.54533612  1
  I  I189  1  0.04533612  0.04533612  0.04533612  1
  I  I190  1  0.95466388  0.54533612  0.45466388  1
  I  I191  1  0.54533612  0.45466388  0.95466388  1
  Li  Li192  1  0.12500000  0.97234922  0.27765078  1
  Li  Li193  1  0.37500000  0.02765078  0.77765078  1
  Li  Li194  1  0.87500000  0.47234922  0.22234922  1
  Li  Li195  1  0.62500000  0.52765078  0.72234922  1
  Li  Li196  1  0.27765078  0.12500000  0.97234922  1
  Li  Li197  1  0.77765078  0.37500000  0.02765078  1
  Li  Li198  1  0.22234922  0.87500000  0.47234922  1
  Li  Li199  1  0.72234922  0.62500000  0.52765078  1
  Li  Li200  1  0.97234922  0.27765078  0.12500000  1
  Li  Li201  1  0.02765078  0.77765078  0.37500000  1
  Li  Li202  1  0.47234922  0.22234922  0.87500000  1
  Li  Li203  1  0.52765078  0.72234922  0.62500000  1
  Li  Li204  1  0.87500000  0.02765078  0.72234922  1
  Li  Li205  1  0.62500000  0.97234922  0.22234922  1
  Li  Li206  1  0.12500000  0.52765078  0.77765078  1
  Li  Li207  1  0.37500000  0.47234922  0.27765078  1
  Li  Li208  1  0.72234922  0.87500000  0.02765078  1
  Li  Li209  1  0.22234922  0.62500000  0.97234922  1
  Li  Li210  1  0.77765078  0.12500000  0.52765078  1
  Li  Li211  1  0.27765078  0.37500000  0.47234922  1
  Li  Li212  1  0.02765078  0.72234922  0.87500000  1
  Li  Li213  1  0.97234922  0.22234922  0.62500000  1
  Li  Li214  1  0.52765078  0.77765078  0.12500000  1
  Li  Li215  1  0.47234922  0.27765078  0.37500000  1
  Li  Li216  1  0.62500000  0.47234922  0.77765078  1
  Li  Li217  1  0.87500000  0.52765078  0.27765078  1
  Li  Li218  1  0.37500000  0.97234922  0.72234922  1
  Li  Li219  1  0.12500000  0.02765078  0.22234922  1
  Li  Li220  1  0.77765078  0.62500000  0.47234922  1
  Li  Li221  1  0.27765078  0.87500000  0.52765078  1
  Li  Li222  1  0.72234922  0.37500000  0.97234922  1
  Li  Li223  1  0.22234922  0.12500000  0.02765078  1
  Li  Li224  1  0.47234922  0.77765078  0.62500000  1
  Li  Li225  1  0.52765078  0.27765078  0.87500000  1
  Li  Li226  1  0.97234922  0.72234922  0.37500000  1
  Li  Li227  1  0.02765078  0.22234922  0.12500000  1
  Li  Li228  1  0.37500000  0.52765078  0.22234922  1
  Li  Li229  1  0.12500000  0.47234922  0.72234922  1
  Li  Li230  1  0.62500000  0.02765078  0.27765078  1
  Li  Li231  1  0.87500000  0.97234922  0.77765078  1
  Li  Li232  1  0.22234922  0.37500000  0.52765078  1
  Li  Li233  1  0.72234922  0.12500000  0.47234922  1
  Li  Li234  1  0.27765078  0.62500000  0.02765078  1
  Li  Li235  1  0.77765078  0.87500000  0.97234922  1
  Li  Li236  1  0.52765078  0.22234922  0.37500000  1
  Li  Li237  1  0.47234922  0.72234922  0.12500000  1
  Li  Li238  1  0.02765078  0.27765078  0.62500000  1
  Li  Li239  1  0.97234922  0.77765078  0.87500000  1
  Li  Li240  1  0.98282959  0.91519026  0.49909445  1
  Li  Li241  1  0.51717041  0.08480974  0.99909445  1
  Li  Li242  1  0.01717041  0.41519026  0.00090555  1
  Li  Li243  1  0.48282959  0.58480974  0.50090555  1
  Li  Li244  1  0.49909445  0.98282959  0.91519026  1
  Li  Li245  1  0.99909445  0.51717041  0.08480974  1
  Li  Li246  1  0.00090555  0.01717041  0.41519026  1
  Li  Li247  1  0.50090555  0.48282959  0.58480974  1
  Li  Li248  1  0.91519026  0.49909445  0.98282959  1
  Li  Li249  1  0.08480974  0.99909445  0.51717041  1
  Li  Li250  1  0.41519026  0.00090555  0.01717041  1
  Li  Li251  1  0.58480974  0.50090555  0.48282959  1
  Li  Li252  1  0.66519026  0.23282959  0.75090555  1
  Li  Li253  1  0.83480974  0.76717041  0.25090555  1
  Li  Li254  1  0.16519026  0.26717041  0.24909445  1
  Li  Li255  1  0.33480974  0.73282959  0.74909445  1
  Li  Li256  1  0.73282959  0.74909445  0.33480974  1
  Li  Li257  1  0.26717041  0.24909445  0.16519026  1
  Li  Li258  1  0.76717041  0.25090555  0.83480974  1
  Li  Li259  1  0.23282959  0.75090555  0.66519026  1
  Li  Li260  1  0.24909445  0.16519026  0.26717041  1
  Li  Li261  1  0.74909445  0.33480974  0.73282959  1
  Li  Li262  1  0.75090555  0.66519026  0.23282959  1
  Li  Li263  1  0.25090555  0.83480974  0.76717041  1
  Li  Li264  1  0.01717041  0.08480974  0.50090555  1
  Li  Li265  1  0.48282959  0.91519026  0.00090555  1
  Li  Li266  1  0.98282959  0.58480974  0.99909445  1
  Li  Li267  1  0.51717041  0.41519026  0.49909445  1
  Li  Li268  1  0.50090555  0.01717041  0.08480974  1
  Li  Li269  1  0.00090555  0.48282959  0.91519026  1
  Li  Li270  1  0.99909445  0.98282959  0.58480974  1
  Li  Li271  1  0.49909445  0.51717041  0.41519026  1
  Li  Li272  1  0.08480974  0.50090555  0.01717041  1
  Li  Li273  1  0.91519026  0.00090555  0.48282959  1
  Li  Li274  1  0.58480974  0.99909445  0.98282959  1
  Li  Li275  1  0.41519026  0.49909445  0.51717041  1
  Li  Li276  1  0.33480974  0.76717041  0.24909445  1
  Li  Li277  1  0.16519026  0.23282959  0.74909445  1
  Li  Li278  1  0.83480974  0.73282959  0.75090555  1
  Li  Li279  1  0.66519026  0.26717041  0.25090555  1
  Li  Li280  1  0.26717041  0.25090555  0.66519026  1
  Li  Li281  1  0.73282959  0.75090555  0.83480974  1
  Li  Li282  1  0.23282959  0.74909445  0.16519026  1
  Li  Li283  1  0.76717041  0.24909445  0.33480974  1
  Li  Li284  1  0.75090555  0.83480974  0.73282959  1
  Li  Li285  1  0.25090555  0.66519026  0.26717041  1
  Li  Li286  1  0.24909445  0.33480974  0.76717041  1
  Li  Li287  1  0.74909445  0.16519026  0.23282959  1
  Li  Li288  1  0.48282959  0.41519026  0.99909445  1
  Li  Li289  1  0.01717041  0.58480974  0.49909445  1
  Li  Li290  1  0.51717041  0.91519026  0.50090555  1
  Li  Li291  1  0.98282959  0.08480974  0.00090555  1
  Li  Li292  1  0.99909445  0.48282959  0.41519026  1
  Li  Li293  1  0.49909445  0.01717041  0.58480974  1
  Li  Li294  1  0.50090555  0.51717041  0.91519026  1
  Li  Li295  1  0.00090555  0.98282959  0.08480974  1
  Li  Li296  1  0.41519026  0.99909445  0.48282959  1
  Li  Li297  1  0.58480974  0.49909445  0.01717041  1
  Li  Li298  1  0.91519026  0.50090555  0.51717041  1
  Li  Li299  1  0.08480974  0.00090555  0.98282959  1
  Li  Li300  1  0.16519026  0.73282959  0.25090555  1
  Li  Li301  1  0.33480974  0.26717041  0.75090555  1
  Li  Li302  1  0.66519026  0.76717041  0.74909445  1
  Li  Li303  1  0.83480974  0.23282959  0.24909445  1
  Li  Li304  1  0.23282959  0.24909445  0.83480974  1
  Li  Li305  1  0.76717041  0.74909445  0.66519026  1
  Li  Li306  1  0.26717041  0.75090555  0.33480974  1
  Li  Li307  1  0.73282959  0.25090555  0.16519026  1
  Li  Li308  1  0.74909445  0.66519026  0.76717041  1
  Li  Li309  1  0.24909445  0.83480974  0.23282959  1
  Li  Li310  1  0.25090555  0.16519026  0.73282959  1
  Li  Li311  1  0.75090555  0.33480974  0.26717041  1
  Li  Li312  1  0.51717041  0.58480974  0.00090555  1
  Li  Li313  1  0.98282959  0.41519026  0.50090555  1
  Li  Li314  1  0.48282959  0.08480974  0.49909445  1
  Li  Li315  1  0.01717041  0.91519026  0.99909445  1
  Li  Li316  1  0.00090555  0.51717041  0.58480974  1
  Li  Li317  1  0.50090555  0.98282959  0.41519026  1
  Li  Li318  1  0.49909445  0.48282959  0.08480974  1
  Li  Li319  1  0.99909445  0.01717041  0.91519026  1
  Li  Li320  1  0.58480974  0.00090555  0.51717041  1
  Li  Li321  1  0.41519026  0.50090555  0.98282959  1
  Li  Li322  1  0.08480974  0.49909445  0.48282959  1
  Li  Li323  1  0.91519026  0.99909445  0.01717041  1
  Li  Li324  1  0.83480974  0.26717041  0.74909445  1
  Li  Li325  1  0.66519026  0.73282959  0.24909445  1
  Li  Li326  1  0.33480974  0.23282959  0.25090555  1
  Li  Li327  1  0.16519026  0.76717041  0.75090555  1
  Li  Li328  1  0.76717041  0.75090555  0.16519026  1
  Li  Li329  1  0.23282959  0.25090555  0.33480974  1
  Li  Li330  1  0.73282959  0.24909445  0.66519026  1
  Li  Li331  1  0.26717041  0.74909445  0.83480974  1
  Li  Li332  1  0.25090555  0.33480974  0.23282959  1
  Li  Li333  1  0.75090555  0.16519026  0.76717041  1
  Li  Li334  1  0.74909445  0.83480974  0.26717041  1
  Li  Li335  1  0.24909445  0.66519026  0.73282959  1
  Li  Li336  1  0.12500000  0.80006887  0.44993113  1
  Li  Li337  1  0.37500000  0.19993113  0.94993113  1
  Li  Li338  1  0.87500000  0.30006887  0.05006887  1
  Li  Li339  1  0.62500000  0.69993113  0.55006887  1
  Li  Li340  1  0.44993113  0.12500000  0.80006887  1
  Li  Li341  1  0.94993113  0.37500000  0.19993113  1
  Li  Li342  1  0.05006887  0.87500000  0.30006887  1
  Li  Li343  1  0.55006887  0.62500000  0.69993113  1
  Li  Li344  1  0.80006887  0.44993113  0.12500000  1
  Li  Li345  1  0.19993113  0.94993113  0.37500000  1
  Li  Li346  1  0.30006887  0.05006887  0.87500000  1
  Li  Li347  1  0.69993113  0.55006887  0.62500000  1
  Li  Li348  1  0.87500000  0.19993113  0.55006887  1
  Li  Li349  1  0.62500000  0.80006887  0.05006887  1
  Li  Li350  1  0.12500000  0.69993113  0.94993113  1
  Li  Li351  1  0.37500000  0.30006887  0.44993113  1
  Li  Li352  1  0.55006887  0.87500000  0.19993113  1
  Li  Li353  1  0.05006887  0.62500000  0.80006887  1
  Li  Li354  1  0.94993113  0.12500000  0.69993113  1
  Li  Li355  1  0.44993113  0.37500000  0.30006887  1
  Li  Li356  1  0.19993113  0.55006887  0.87500000  1
  Li  Li357  1  0.80006887  0.05006887  0.62500000  1
  Li  Li358  1  0.69993113  0.94993113  0.12500000  1
  Li  Li359  1  0.30006887  0.44993113  0.37500000  1
  Li  Li360  1  0.62500000  0.30006887  0.94993113  1
  Li  Li361  1  0.87500000  0.69993113  0.44993113  1
  Li  Li362  1  0.37500000  0.80006887  0.55006887  1
  Li  Li363  1  0.12500000  0.19993113  0.05006887  1
  Li  Li364  1  0.94993113  0.62500000  0.30006887  1
  Li  Li365  1  0.44993113  0.87500000  0.69993113  1
  Li  Li366  1  0.55006887  0.37500000  0.80006887  1
  Li  Li367  1  0.05006887  0.12500000  0.19993113  1
  Li  Li368  1  0.30006887  0.94993113  0.62500000  1
  Li  Li369  1  0.69993113  0.44993113  0.87500000  1
  Li  Li370  1  0.80006887  0.55006887  0.37500000  1
  Li  Li371  1  0.19993113  0.05006887  0.12500000  1
  Li  Li372  1  0.37500000  0.69993113  0.05006887  1
  Li  Li373  1  0.12500000  0.30006887  0.55006887  1
  Li  Li374  1  0.62500000  0.19993113  0.44993113  1
  Li  Li375  1  0.87500000  0.80006887  0.94993113  1
  Li  Li376  1  0.05006887  0.37500000  0.69993113  1
  Li  Li377  1  0.55006887  0.12500000  0.30006887  1
  Li  Li378  1  0.44993113  0.62500000  0.19993113  1
  Li  Li379  1  0.94993113  0.87500000  0.80006887  1
  Li  Li380  1  0.69993113  0.05006887  0.37500000  1
  Li  Li381  1  0.30006887  0.55006887  0.12500000  1
  Li  Li382  1  0.19993113  0.44993113  0.62500000  1
  Li  Li383  1  0.80006887  0.94993113  0.87500000  1
