# generated using pymatgen
data_LiI
_symmetry_space_group_name_H-M   'P 1'
_cell_length_a   8.84944349
_cell_length_b   8.84944349
_cell_length_c   9.07421597
_cell_angle_alpha   90.00000000
_cell_angle_beta   90.00000000
_cell_angle_gamma   120.00000000
_symmetry_Int_Tables_number   1
_chemical_formula_structural   LiI
_chemical_formula_sum   'Li12 I12'
_cell_volume   615.42008203
_cell_formula_units_Z   12
loop_
 _symmetry_equiv_pos_site_id
 _symmetry_equiv_pos_as_xyz
  1  'x, y, z'
loop_
 _atom_site_type_symbol
 _atom_site_label
 _atom_site_symmetry_multiplicity
 _atom_site_fract_x
 _atom_site_fract_y
 _atom_site_fract_z
 _atom_site_occupancy
  I  I0  1  0.50641246  0.07570713  0.25000000  1
  I  I1  1  0.92429287  0.43070533  0.25000000  1
  I  I2  1  0.56929467  0.49358754  0.25000000  1
  I  I3  1  0.49358754  0.92429287  0.75000000  1
  I  I4  1  0.07570713  0.56929467  0.75000000  1
  I  I5  1  0.43070533  0.50641246  0.75000000  1
  I  I6  1  0.50000000  0.00000000  -0.00000000  1
  I  I7  1  0.00000000  0.50000000  0.00000000  1
  I  I8  1  0.50000000  0.50000000  0.00000000  1
  I  I9  1  0.50000000  0.00000000  0.50000000  1
  I  I10  1  0.00000000  0.50000000  0.50000000  1
  I  I11  1  0.50000000  0.50000000  0.50000000  1
  Li  Li12  1  0.92050515  0.22440556  0.03523479  1
  Li  Li13  1  -0.22440556  0.69609959  0.03523479  1
  Li  Li14  1  -0.69609959  -0.92050515  0.03523479  1
  Li  Li15  1  -0.92050515  -0.22440556  0.53523479  1
  Li  Li16  1  0.22440556  -0.69609959  0.53523479  1
  Li  Li17  1  0.69609959  0.92050515  0.53523479  1
  Li  Li18  1  -0.92050515  -0.22440556  -0.03523479  1
  Li  Li19  1  0.22440556  -0.69609959  -0.03523479  1
  Li  Li20  1  0.69609959  0.92050515  -0.03523479  1
  Li  Li21  1  0.92050515  0.22440556  0.46476521  1
  Li  Li22  1  -0.22440556  0.69609959  0.46476521  1
  Li  Li23  1  -0.69609959  -0.92050515  0.46476521  1
