# generated using pymatgen
data_K6LiI4Br3
_symmetry_space_group_name_H-M   'P 1'
_cell_length_a   9.50885611
_cell_length_b   9.50885611
_cell_length_c   5.05005562
_cell_angle_alpha   90.00000000
_cell_angle_beta   90.00000000
_cell_angle_gamma   120.00000000
_symmetry_Int_Tables_number   1
_chemical_formula_structural   K6LiI4Br3
_chemical_formula_sum   'K6 Li1 I4 Br3'
_cell_volume   395.44250121
_cell_formula_units_Z   1
loop_
 _symmetry_equiv_pos_site_id
 _symmetry_equiv_pos_as_xyz
  1  'x, y, z'
loop_
 _atom_site_type_symbol
 _atom_site_label
 _atom_site_symmetry_multiplicity
 _atom_site_fract_x
 _atom_site_fract_y
 _atom_site_fract_z
 _atom_site_occupancy
  Br  Br0  1  0.24809931  -0.00000000  0.50000000  1
  Br  Br1  1  0.00000000  0.24809931  0.50000000  1
  Br  Br2  1  -0.24809931  -0.24809931  0.50000000  1
  I  I3  1  0.33333333  0.66666667  0.00000000  1
  I  I4  1  0.66666667  0.33333333  0.00000000  1
  I  I5  1  0.00000000  0.00000000  0.67922180  1
  I  I6  1  0.00000000  0.00000000  0.32077820  1
  K  K7  1  0.48061549  0.00000000  0.00000000  1
  K  K8  1  0.00000000  0.48061549  0.00000000  1
  K  K9  1  0.51938451  0.51938451  0.00000000  1
  K  K10  1  0.50792531  0.00000000  0.50000000  1
  K  K11  1  0.00000000  0.50792531  0.50000000  1
  K  K12  1  0.49207469  0.49207469  0.50000000  1
  Li  Li13  1  0.00000000  0.00000000  0.00000000  1
