# generated using pymatgen
data_LiAlSe2
_symmetry_space_group_name_H-M   'P 1'
_cell_length_a   11.20521073
_cell_length_b   11.20521073
_cell_length_c   11.20521073
_cell_angle_alpha   90.00000000
_cell_angle_beta   90.00000000
_cell_angle_gamma   90.00000000
_symmetry_Int_Tables_number   1
_chemical_formula_structural   LiAlSe2
_chemical_formula_sum   'Li24 Al24 Se48'
_cell_volume   1406.88981281
_cell_formula_units_Z   24
loop_
 _symmetry_equiv_pos_site_id
 _symmetry_equiv_pos_as_xyz
  1  'x, y, z'
loop_
 _atom_site_type_symbol
 _atom_site_label
 _atom_site_symmetry_multiplicity
 _atom_site_fract_x
 _atom_site_fract_y
 _atom_site_fract_z
 _atom_site_occupancy
  Al  Al0  1  0.12500000  0.12500000  0.12500000  1
  Al  Al1  1  0.37500000  0.87500000  0.62500000  1
  Al  Al2  1  0.87500000  0.62500000  0.37500000  1
  Al  Al3  1  0.62500000  0.37500000  0.87500000  1
  Al  Al4  1  0.62500000  0.62500000  0.62500000  1
  Al  Al5  1  0.87500000  0.37500000  0.12500000  1
  Al  Al6  1  0.37500000  0.12500000  0.87500000  1
  Al  Al7  1  0.12500000  0.87500000  0.37500000  1
  Al  Al8  1  0.49103641  0.49103641  0.49103641  1
  Al  Al9  1  0.00896359  0.50896359  0.99103641  1
  Al  Al10  1  0.50896359  0.99103641  0.00896359  1
  Al  Al11  1  0.99103641  0.00896359  0.50896359  1
  Al  Al12  1  0.24103641  0.74103641  0.75896359  1
  Al  Al13  1  0.25896359  0.25896359  0.25896359  1
  Al  Al14  1  0.74103641  0.75896359  0.24103641  1
  Al  Al15  1  0.75896359  0.24103641  0.74103641  1
  Al  Al16  1  0.99103641  0.99103641  0.99103641  1
  Al  Al17  1  0.50896359  0.00896359  0.49103641  1
  Al  Al18  1  0.00896359  0.49103641  0.50896359  1
  Al  Al19  1  0.49103641  0.50896359  0.00896359  1
  Al  Al20  1  0.74103641  0.24103641  0.25896359  1
  Al  Al21  1  0.75896359  0.75896359  0.75896359  1
  Al  Al22  1  0.24103641  0.25896359  0.74103641  1
  Al  Al23  1  0.25896359  0.74103641  0.24103641  1
  Li  Li24  1  0.62500000  0.00000000  0.25000000  1
  Li  Li25  1  0.87500000  -0.00000000  0.75000000  1
  Li  Li26  1  0.25000000  0.62500000  0.00000000  1
  Li  Li27  1  0.75000000  0.87500000  0.00000000  1
  Li  Li28  1  0.00000000  0.25000000  0.62500000  1
  Li  Li29  1  0.00000000  0.75000000  0.87500000  1
  Li  Li30  1  0.12500000  0.50000000  0.75000000  1
  Li  Li31  1  0.37500000  0.50000000  0.25000000  1
  Li  Li32  1  0.75000000  0.12500000  0.50000000  1
  Li  Li33  1  0.25000000  0.37500000  0.50000000  1
  Li  Li34  1  0.50000000  0.75000000  0.12500000  1
  Li  Li35  1  0.50000000  0.25000000  0.37500000  1
  Li  Li36  1  0.12500000  0.00000000  0.25000000  1
  Li  Li37  1  0.37500000  -0.00000000  0.75000000  1
  Li  Li38  1  0.25000000  0.12500000  -0.00000000  1
  Li  Li39  1  0.75000000  0.37500000  -0.00000000  1
  Li  Li40  1  0.00000000  0.25000000  0.12500000  1
  Li  Li41  1  0.00000000  0.75000000  0.37500000  1
  Li  Li42  1  0.62500000  0.50000000  0.75000000  1
  Li  Li43  1  0.87500000  0.50000000  0.25000000  1
  Li  Li44  1  0.75000000  0.62500000  0.50000000  1
  Li  Li45  1  0.25000000  0.87500000  0.50000000  1
  Li  Li46  1  0.50000000  0.75000000  0.62500000  1
  Li  Li47  1  0.50000000  0.25000000  0.87500000  1
  Se  Se48  1  0.02981808  0.46490764  0.67607079  1
  Se  Se49  1  0.47018192  -0.46490764  1.17607079  1
  Se  Se50  1  -0.02981808  0.96490764  -0.17607079  1
  Se  Se51  1  0.52981808  0.03509236  -0.67607079  1
  Se  Se52  1  0.67607079  0.02981808  0.46490764  1
  Se  Se53  1  1.17607079  0.47018192  -0.46490764  1
  Se  Se54  1  -0.17607079  -0.02981808  0.96490764  1
  Se  Se55  1  -0.67607079  0.52981808  0.03509236  1
  Se  Se56  1  0.46490764  0.67607079  0.02981808  1
  Se  Se57  1  -0.46490764  1.17607079  0.47018192  1
  Se  Se58  1  0.96490764  -0.17607079  -0.02981808  1
  Se  Se59  1  0.03509236  -0.67607079  0.52981808  1
  Se  Se60  1  1.21490764  0.27981808  -0.42607079  1
  Se  Se61  1  0.28509236  0.72018192  0.07392921  1
  Se  Se62  1  0.71490764  0.22018192  1.42607079  1
  Se  Se63  1  -0.21490764  0.77981808  0.92607079  1
  Se  Se64  1  0.77981808  0.92607079  -0.21490764  1
  Se  Se65  1  0.22018192  1.42607079  0.71490764  1
  Se  Se66  1  0.72018192  0.07392921  0.28509236  1
  Se  Se67  1  0.27981808  -0.42607079  1.21490764  1
  Se  Se68  1  1.42607079  0.71490764  0.22018192  1
  Se  Se69  1  0.92607079  -0.21490764  0.77981808  1
  Se  Se70  1  -0.42607079  1.21490764  0.27981808  1
  Se  Se71  1  0.07392921  0.28509236  0.72018192  1
  Se  Se72  1  0.52981808  0.96490764  1.17607079  1
  Se  Se73  1  0.97018192  0.03509236  1.67607079  1
  Se  Se74  1  0.47018192  1.46490764  0.32392921  1
  Se  Se75  1  1.02981808  0.53509236  -0.17607079  1
  Se  Se76  1  1.17607079  0.52981808  0.96490764  1
  Se  Se77  1  1.67607079  0.97018192  0.03509236  1
  Se  Se78  1  0.32392921  0.47018192  1.46490764  1
  Se  Se79  1  -0.17607079  1.02981808  0.53509236  1
  Se  Se80  1  0.96490764  1.17607079  0.52981808  1
  Se  Se81  1  0.03509236  1.67607079  0.97018192  1
  Se  Se82  1  1.46490764  0.32392921  0.47018192  1
  Se  Se83  1  0.53509236  -0.17607079  1.02981808  1
  Se  Se84  1  1.71490764  0.77981808  0.07392921  1
  Se  Se85  1  0.78509236  1.22018192  0.57392921  1
  Se  Se86  1  1.21490764  0.72018192  1.92607079  1
  Se  Se87  1  0.28509236  1.27981808  1.42607079  1
  Se  Se88  1  1.27981808  1.42607079  0.28509236  1
  Se  Se89  1  0.72018192  1.92607079  1.21490764  1
  Se  Se90  1  1.22018192  0.57392921  0.78509236  1
  Se  Se91  1  0.77981808  0.07392921  1.71490764  1
  Se  Se92  1  1.92607079  1.21490764  0.72018192  1
  Se  Se93  1  1.42607079  0.28509236  1.27981808  1
  Se  Se94  1  0.07392921  1.71490764  0.77981808  1
  Se  Se95  1  0.57392921  0.78509236  1.22018192  1
