# generated using pymatgen
data_LiSbBr4
_symmetry_space_group_name_H-M   'P 1'
_cell_length_a   6.15348305
_cell_length_b   5.65520858
_cell_length_c   5.47917104
_cell_angle_alpha   90.00000000
_cell_angle_beta   90.00000000
_cell_angle_gamma   90.00000000
_symmetry_Int_Tables_number   1
_chemical_formula_structural   LiSbBr4
_chemical_formula_sum   'Li2 Sb2 Br8'
_cell_volume   190.67093413
_cell_formula_units_Z   2
loop_
 _symmetry_equiv_pos_site_id
 _symmetry_equiv_pos_as_xyz
  1  'x, y, z'
loop_
 _atom_site_type_symbol
 _atom_site_label
 _atom_site_symmetry_multiplicity
 _atom_site_fract_x
 _atom_site_fract_y
 _atom_site_fract_z
 _atom_site_occupancy
  Br  Br0  1  0.60960302  0.57635270  0.70952280  1
  Br  Br1  1  -0.60960302  -0.57635270  0.70952280  1
  Br  Br2  1  -0.10960302  1.07635270  -0.70952280  1
  Br  Br3  1  1.10960302  -0.07635270  -0.70952280  1
  Br  Br4  1  -0.60960302  -0.57635270  -0.70952280  1
  Br  Br5  1  0.60960302  0.57635270  -0.70952280  1
  Br  Br6  1  1.10960302  -0.07635270  0.70952280  1
  Br  Br7  1  -0.10960302  1.07635270  0.70952280  1
  Li  Li8  1  0.00000000  0.50000000  0.00000000  1
  Li  Li9  1  0.50000000  -0.00000000  -0.00000000  1
  Sb  Sb10  1  0.00000000  0.00000000  0.50000000  1
  Sb  Sb11  1  0.50000000  0.50000000  0.50000000  1
