# generated using pymatgen
data_CaHfMgS2Br3Cl
_symmetry_space_group_name_H-M   'P 1'
_cell_length_a   23.64476330
_cell_length_b   23.64476330
_cell_length_c   10.38506720
_cell_angle_alpha   90.00000000
_cell_angle_beta   90.00000000
_cell_angle_gamma   90.00000000
_symmetry_Int_Tables_number   1
_chemical_formula_structural   CaHfMgS2Br3Cl
_chemical_formula_sum   'Ca32 Hf32 Mg32 S64 Br96 Cl32'
_cell_volume   5806.02969438
_cell_formula_units_Z   32
loop_
 _symmetry_equiv_pos_site_id
 _symmetry_equiv_pos_as_xyz
  1  'x, y, z'
loop_
 _atom_site_type_symbol
 _atom_site_label
 _atom_site_symmetry_multiplicity
 _atom_site_fract_x
 _atom_site_fract_y
 _atom_site_fract_z
 _atom_site_occupancy
  Br  Br0  1  0.00000000  0.75000000  0.12500000  1
  Br  Br1  1  0.50000000  0.75000000  0.37500000  1
  Br  Br2  1  0.50000000  0.25000000  0.62500000  1
  Br  Br3  1  0.00000000  0.25000000  0.87500000  1
  Br  Br4  1  0.83697103  0.84513390  0.87837319  1
  Br  Br5  1  0.66302897  0.15486610  0.37837319  1
  Br  Br6  1  0.40486610  0.58697103  0.12837319  1
  Br  Br7  1  0.09513390  0.41302897  0.62837319  1
  Br  Br8  1  0.66302897  0.84513390  0.62162681  1
  Br  Br9  1  0.83697103  0.15486610  0.12162681  1
  Br  Br10  1  0.09513390  0.58697103  0.37162681  1
  Br  Br11  1  0.40486610  0.41302897  0.87162681  1
  Br  Br12  1  0.16302897  0.15486610  0.12162681  1
  Br  Br13  1  0.33697103  0.84513390  0.62162681  1
  Br  Br14  1  0.59513390  0.41302897  0.87162681  1
  Br  Br15  1  0.90486610  0.58697103  0.37162681  1
  Br  Br16  1  0.33697103  0.15486610  0.37837319  1
  Br  Br17  1  0.16302897  0.84513390  0.87837319  1
  Br  Br18  1  0.90486610  0.41302897  0.62837319  1
  Br  Br19  1  0.59513390  0.58697103  0.12837319  1
  Br  Br20  1  0.33697103  0.34513390  0.37837319  1
  Br  Br21  1  0.16302897  0.65486610  0.87837319  1
  Br  Br22  1  0.90486610  0.08697103  0.62837319  1
  Br  Br23  1  0.59513390  0.91302897  0.12837319  1
  Br  Br24  1  0.16302897  0.34513390  0.12162681  1
  Br  Br25  1  0.33697103  0.65486610  0.62162681  1
  Br  Br26  1  0.59513390  0.08697103  0.87162681  1
  Br  Br27  1  0.90486610  0.91302897  0.37162681  1
  Br  Br28  1  0.66302897  0.65486610  0.62162681  1
  Br  Br29  1  0.83697103  0.34513390  0.12162681  1
  Br  Br30  1  0.09513390  0.91302897  0.37162681  1
  Br  Br31  1  0.40486610  0.08697103  0.87162681  1
  Br  Br32  1  0.83697103  0.65486610  0.87837319  1
  Br  Br33  1  0.66302897  0.34513390  0.37837319  1
  Br  Br34  1  0.40486610  0.91302897  0.12837319  1
  Br  Br35  1  0.09513390  0.08697103  0.62837319  1
  Br  Br36  1  0.72053102  0.41610708  0.02287592  1
  Br  Br37  1  0.77946898  0.58389292  0.52287592  1
  Br  Br38  1  0.83389292  0.47053102  0.27287592  1
  Br  Br39  1  0.66610708  0.52946898  0.77287592  1
  Br  Br40  1  0.77946898  0.41610708  0.47712408  1
  Br  Br41  1  0.72053102  0.58389292  0.97712408  1
  Br  Br42  1  0.66610708  0.47053102  0.22712408  1
  Br  Br43  1  0.83389292  0.52946898  0.72712408  1
  Br  Br44  1  0.27946898  0.58389292  0.97712408  1
  Br  Br45  1  0.22053102  0.41610708  0.47712408  1
  Br  Br46  1  0.16610708  0.52946898  0.72712408  1
  Br  Br47  1  0.33389292  0.47053102  0.22712408  1
  Br  Br48  1  0.22053102  0.58389292  0.52287592  1
  Br  Br49  1  0.27946898  0.41610708  0.02287592  1
  Br  Br50  1  0.33389292  0.52946898  0.77287592  1
  Br  Br51  1  0.16610708  0.47053102  0.27287592  1
  Br  Br52  1  0.22053102  0.91610708  0.52287592  1
  Br  Br53  1  0.27946898  0.08389292  0.02287592  1
  Br  Br54  1  0.33389292  0.97053102  0.77287592  1
  Br  Br55  1  0.16610708  0.02946898  0.27287592  1
  Br  Br56  1  0.27946898  0.91610708  0.97712408  1
  Br  Br57  1  0.22053102  0.08389292  0.47712408  1
  Br  Br58  1  0.16610708  0.97053102  0.72712408  1
  Br  Br59  1  0.33389292  0.02946898  0.22712408  1
  Br  Br60  1  0.77946898  0.08389292  0.47712408  1
  Br  Br61  1  0.72053102  0.91610708  0.97712408  1
  Br  Br62  1  0.66610708  0.02946898  0.22712408  1
  Br  Br63  1  0.83389292  0.97053102  0.72712408  1
  Br  Br64  1  0.72053102  0.08389292  0.02287592  1
  Br  Br65  1  0.77946898  0.91610708  0.52287592  1
  Br  Br66  1  0.83389292  0.02946898  0.27287592  1
  Br  Br67  1  0.66610708  0.97053102  0.77287592  1
  Br  Br68  1  0.39452556  0.64452556  0.87500000  1
  Br  Br69  1  0.10547444  0.35547444  0.37500000  1
  Br  Br70  1  0.60547444  0.14452556  0.12500000  1
  Br  Br71  1  0.89452556  0.85547444  0.62500000  1
  Br  Br72  1  0.60547444  0.35547444  0.12500000  1
  Br  Br73  1  0.89452556  0.64452556  0.62500000  1
  Br  Br74  1  0.39452556  0.85547444  0.87500000  1
  Br  Br75  1  0.10547444  0.14452556  0.37500000  1
  Br  Br76  1  0.89452556  0.14452556  0.37500000  1
  Br  Br77  1  0.60547444  0.85547444  0.87500000  1
  Br  Br78  1  0.10547444  0.64452556  0.62500000  1
  Br  Br79  1  0.39452556  0.35547444  0.12500000  1
  Br  Br80  1  0.10547444  0.85547444  0.62500000  1
  Br  Br81  1  0.39452556  0.14452556  0.12500000  1
  Br  Br82  1  0.89452556  0.35547444  0.37500000  1
  Br  Br83  1  0.60547444  0.64452556  0.87500000  1
  Br  Br84  1  0.00000000  0.25000000  0.20297245  1
  Br  Br85  1  0.00000000  0.75000000  0.45297245  1
  Br  Br86  1  0.50000000  0.25000000  0.29702755  1
  Br  Br87  1  0.50000000  0.75000000  0.04702755  1
  Br  Br88  1  0.50000000  0.75000000  0.70297245  1
  Br  Br89  1  0.50000000  0.25000000  0.95297245  1
  Br  Br90  1  0.00000000  0.75000000  0.79702755  1
  Br  Br91  1  0.00000000  0.25000000  0.54702755  1
  Br  Br92  1  0.00000000  0.25000000  0.37500000  1
  Br  Br93  1  0.00000000  0.75000000  0.62500000  1
  Br  Br94  1  0.50000000  0.75000000  0.87500000  1
  Br  Br95  1  0.50000000  0.25000000  0.12500000  1
  Ca  Ca96  1  0.57175318  0.04618802  0.43647030  1
  Ca  Ca97  1  -0.07175318  -0.04618802  0.93647030  1
  Ca  Ca98  1  0.20381198  1.32175318  0.68647030  1
  Ca  Ca99  1  0.29618802  -0.32175318  1.18647030  1
  Ca  Ca100  1  -0.07175318  0.04618802  0.06352970  1
  Ca  Ca101  1  0.57175318  -0.04618802  -0.43647030  1
  Ca  Ca102  1  0.29618802  1.32175318  -0.18647030  1
  Ca  Ca103  1  0.20381198  -0.32175318  0.31352970  1
  Ca  Ca104  1  -0.57175318  -0.04618802  -0.43647030  1
  Ca  Ca105  1  1.07175318  0.04618802  0.06352970  1
  Ca  Ca106  1  0.79618802  -0.32175318  0.31352970  1
  Ca  Ca107  1  0.70381198  1.32175318  -0.18647030  1
  Ca  Ca108  1  1.07175318  -0.04618802  0.93647030  1
  Ca  Ca109  1  -0.57175318  0.04618802  0.43647030  1
  Ca  Ca110  1  0.70381198  -0.32175318  1.18647030  1
  Ca  Ca111  1  0.79618802  1.32175318  0.68647030  1
  Ca  Ca112  1  1.07175318  0.54618802  0.93647030  1
  Ca  Ca113  1  0.42824682  0.45381198  1.43647030  1
  Ca  Ca114  1  0.70381198  1.82175318  1.18647030  1
  Ca  Ca115  1  0.79618802  0.17824682  1.68647030  1
  Ca  Ca116  1  0.42824682  0.54618802  0.56352970  1
  Ca  Ca117  1  1.07175318  0.45381198  0.06352970  1
  Ca  Ca118  1  0.79618802  1.82175318  0.31352970  1
  Ca  Ca119  1  0.70381198  0.17824682  0.81352970  1
  Ca  Ca120  1  -0.07175318  0.45381198  0.06352970  1
  Ca  Ca121  1  1.57175318  0.54618802  0.56352970  1
  Ca  Ca122  1  1.29618802  0.17824682  0.81352970  1
  Ca  Ca123  1  1.20381198  1.82175318  0.31352970  1
  Ca  Ca124  1  1.57175318  0.45381198  1.43647030  1
  Ca  Ca125  1  -0.07175318  0.54618802  0.93647030  1
  Ca  Ca126  1  1.20381198  0.17824682  1.68647030  1
  Ca  Ca127  1  1.29618802  1.82175318  1.18647030  1
  Cl  Cl128  1  0.22668039  0.92481237  0.33055207  1
  Cl  Cl129  1  0.27331961  0.07518763  0.83055207  1
  Cl  Cl130  1  0.32518763  0.97668039  0.58055207  1
  Cl  Cl131  1  0.17481237  0.02331961  0.08055207  1
  Cl  Cl132  1  0.27331961  0.92481237  0.16944793  1
  Cl  Cl133  1  0.22668039  0.07518763  0.66944793  1
  Cl  Cl134  1  0.17481237  0.97668039  0.91944793  1
  Cl  Cl135  1  0.32518763  0.02331961  0.41944793  1
  Cl  Cl136  1  0.77331961  0.07518763  0.66944793  1
  Cl  Cl137  1  0.72668039  0.92481237  0.16944793  1
  Cl  Cl138  1  0.67481237  0.02331961  0.41944793  1
  Cl  Cl139  1  0.82518763  0.97668039  0.91944793  1
  Cl  Cl140  1  0.72668039  0.07518763  0.83055207  1
  Cl  Cl141  1  0.77331961  0.92481237  0.33055207  1
  Cl  Cl142  1  0.82518763  0.02331961  0.08055207  1
  Cl  Cl143  1  0.67481237  0.97668039  0.58055207  1
  Cl  Cl144  1  0.72668039  0.42481237  0.83055207  1
  Cl  Cl145  1  0.77331961  0.57518763  0.33055207  1
  Cl  Cl146  1  0.82518763  0.47668039  0.08055207  1
  Cl  Cl147  1  0.67481237  0.52331961  0.58055207  1
  Cl  Cl148  1  0.77331961  0.42481237  0.66944793  1
  Cl  Cl149  1  0.72668039  0.57518763  0.16944793  1
  Cl  Cl150  1  0.67481237  0.47668039  0.41944793  1
  Cl  Cl151  1  0.82518763  0.52331961  0.91944793  1
  Cl  Cl152  1  0.27331961  0.57518763  0.16944793  1
  Cl  Cl153  1  0.22668039  0.42481237  0.66944793  1
  Cl  Cl154  1  0.17481237  0.52331961  0.91944793  1
  Cl  Cl155  1  0.32518763  0.47668039  0.41944793  1
  Cl  Cl156  1  0.22668039  0.57518763  0.33055207  1
  Cl  Cl157  1  0.27331961  0.42481237  0.83055207  1
  Cl  Cl158  1  0.32518763  0.52331961  0.58055207  1
  Cl  Cl159  1  0.17481237  0.47668039  0.08055207  1
  Hf  Hf160  1  0.83454069  0.67974094  0.71729801  1
  Hf  Hf161  1  0.66545931  0.32025906  0.21729801  1
  Hf  Hf162  1  0.57025906  0.58454069  0.96729801  1
  Hf  Hf163  1  0.92974094  0.41545931  0.46729801  1
  Hf  Hf164  1  0.66545931  0.67974094  0.78270199  1
  Hf  Hf165  1  0.83454069  0.32025906  0.28270199  1
  Hf  Hf166  1  0.92974094  0.58454069  0.53270199  1
  Hf  Hf167  1  0.57025906  0.41545931  0.03270199  1
  Hf  Hf168  1  0.16545931  0.32025906  0.28270199  1
  Hf  Hf169  1  0.33454069  0.67974094  0.78270199  1
  Hf  Hf170  1  0.42974094  0.41545931  0.03270199  1
  Hf  Hf171  1  0.07025906  0.58454069  0.53270199  1
  Hf  Hf172  1  0.33454069  0.32025906  0.21729801  1
  Hf  Hf173  1  0.16545931  0.67974094  0.71729801  1
  Hf  Hf174  1  0.07025906  0.41545931  0.46729801  1
  Hf  Hf175  1  0.42974094  0.58454069  0.96729801  1
  Hf  Hf176  1  0.33454069  0.17974094  0.21729801  1
  Hf  Hf177  1  0.16545931  0.82025906  0.71729801  1
  Hf  Hf178  1  0.07025906  0.08454069  0.46729801  1
  Hf  Hf179  1  0.42974094  0.91545931  0.96729801  1
  Hf  Hf180  1  0.16545931  0.17974094  0.28270199  1
  Hf  Hf181  1  0.33454069  0.82025906  0.78270199  1
  Hf  Hf182  1  0.42974094  0.08454069  0.03270199  1
  Hf  Hf183  1  0.07025906  0.91545931  0.53270199  1
  Hf  Hf184  1  0.66545931  0.82025906  0.78270199  1
  Hf  Hf185  1  0.83454069  0.17974094  0.28270199  1
  Hf  Hf186  1  0.92974094  0.91545931  0.53270199  1
  Hf  Hf187  1  0.57025906  0.08454069  0.03270199  1
  Hf  Hf188  1  0.83454069  0.82025906  0.71729801  1
  Hf  Hf189  1  0.66545931  0.17974094  0.21729801  1
  Hf  Hf190  1  0.57025906  0.91545931  0.96729801  1
  Hf  Hf191  1  0.92974094  0.08454069  0.46729801  1
  Mg  Mg192  1  0.19997434  0.89633825  0.11585507  1
  Mg  Mg193  1  0.30002566  0.10366175  0.61585507  1
  Mg  Mg194  1  0.35366175  0.94997434  0.36585507  1
  Mg  Mg195  1  0.14633825  0.05002566  0.86585507  1
  Mg  Mg196  1  0.30002566  0.89633825  0.38414493  1
  Mg  Mg197  1  0.19997434  0.10366175  0.88414493  1
  Mg  Mg198  1  0.14633825  0.94997434  0.13414493  1
  Mg  Mg199  1  0.35366175  0.05002566  0.63414493  1
  Mg  Mg200  1  0.80002566  0.10366175  0.88414493  1
  Mg  Mg201  1  0.69997434  0.89633825  0.38414493  1
  Mg  Mg202  1  0.64633825  0.05002566  0.63414493  1
  Mg  Mg203  1  0.85366175  0.94997434  0.13414493  1
  Mg  Mg204  1  0.69997434  0.10366175  0.61585507  1
  Mg  Mg205  1  0.80002566  0.89633825  0.11585507  1
  Mg  Mg206  1  0.85366175  0.05002566  0.86585507  1
  Mg  Mg207  1  0.64633825  0.94997434  0.36585507  1
  Mg  Mg208  1  0.69997434  0.39633825  0.61585507  1
  Mg  Mg209  1  0.80002566  0.60366175  0.11585507  1
  Mg  Mg210  1  0.85366175  0.44997434  0.86585507  1
  Mg  Mg211  1  0.64633825  0.55002566  0.36585507  1
  Mg  Mg212  1  0.80002566  0.39633825  0.88414493  1
  Mg  Mg213  1  0.69997434  0.60366175  0.38414493  1
  Mg  Mg214  1  0.64633825  0.44997434  0.63414493  1
  Mg  Mg215  1  0.85366175  0.55002566  0.13414493  1
  Mg  Mg216  1  0.30002566  0.60366175  0.38414493  1
  Mg  Mg217  1  0.19997434  0.39633825  0.88414493  1
  Mg  Mg218  1  0.14633825  0.55002566  0.13414493  1
  Mg  Mg219  1  0.35366175  0.44997434  0.63414493  1
  Mg  Mg220  1  0.19997434  0.60366175  0.11585507  1
  Mg  Mg221  1  0.30002566  0.39633825  0.61585507  1
  Mg  Mg222  1  0.35366175  0.55002566  0.36585507  1
  Mg  Mg223  1  0.14633825  0.44997434  0.86585507  1
  S  S224  1  0.00000000  0.85788312  0.95956219  1
  S  S225  1  0.50000000  0.14211688  0.45956219  1
  S  S226  1  0.39211688  0.75000000  0.20956219  1
  S  S227  1  0.10788312  0.25000000  0.70956219  1
  S  S228  1  0.50000000  0.85788312  0.54043781  1
  S  S229  1  0.00000000  0.14211688  0.04043781  1
  S  S230  1  0.10788312  0.75000000  0.29043781  1
  S  S231  1  0.39211688  0.25000000  0.79043781  1
  S  S232  1  0.50000000  0.35788312  0.45956219  1
  S  S233  1  0.00000000  0.64211688  0.95956219  1
  S  S234  1  0.89211688  0.25000000  0.70956219  1
  S  S235  1  0.60788312  0.75000000  0.20956219  1
  S  S236  1  0.00000000  0.35788312  0.04043781  1
  S  S237  1  0.50000000  0.64211688  0.54043781  1
  S  S238  1  0.60788312  0.25000000  0.79043781  1
  S  S239  1  0.89211688  0.75000000  0.29043781  1
  S  S240  1  0.56900582  0.52776098  0.82472719  1
  S  S241  1  0.93099418  0.47223902  0.32472719  1
  S  S242  1  0.72223902  0.31900582  0.07472719  1
  S  S243  1  0.77776098  0.68099418  0.57472719  1
  S  S244  1  0.93099418  0.52776098  0.67527281  1
  S  S245  1  0.56900582  0.47223902  0.17527281  1
  S  S246  1  0.77776098  0.31900582  0.42527281  1
  S  S247  1  0.72223902  0.68099418  0.92527281  1
  S  S248  1  0.43099418  0.47223902  0.17527281  1
  S  S249  1  0.06900582  0.52776098  0.67527281  1
  S  S250  1  0.27776098  0.68099418  0.92527281  1
  S  S251  1  0.22223902  0.31900582  0.42527281  1
  S  S252  1  0.06900582  0.47223902  0.32472719  1
  S  S253  1  0.43099418  0.52776098  0.82472719  1
  S  S254  1  0.22223902  0.68099418  0.57472719  1
  S  S255  1  0.27776098  0.31900582  0.07472719  1
  S  S256  1  0.06900582  0.02776098  0.32472719  1
  S  S257  1  0.43099418  0.97223902  0.82472719  1
  S  S258  1  0.22223902  0.81900582  0.57472719  1
  S  S259  1  0.27776098  0.18099418  0.07472719  1
  S  S260  1  0.43099418  0.02776098  0.17527281  1
  S  S261  1  0.06900582  0.97223902  0.67527281  1
  S  S262  1  0.27776098  0.81900582  0.92527281  1
  S  S263  1  0.22223902  0.18099418  0.42527281  1
  S  S264  1  0.93099418  0.97223902  0.67527281  1
  S  S265  1  0.56900582  0.02776098  0.17527281  1
  S  S266  1  0.77776098  0.18099418  0.42527281  1
  S  S267  1  0.72223902  0.81900582  0.92527281  1
  S  S268  1  0.56900582  0.97223902  0.82472719  1
  S  S269  1  0.93099418  0.02776098  0.32472719  1
  S  S270  1  0.72223902  0.18099418  0.07472719  1
  S  S271  1  0.77776098  0.81900582  0.57472719  1
  S  S272  1  0.00000000  0.00000000  0.50000000  1
  S  S273  1  0.50000000  0.00000000  0.00000000  1
  S  S274  1  0.25000000  0.75000000  0.75000000  1
  S  S275  1  0.25000000  0.25000000  0.25000000  1
  S  S276  1  0.50000000  0.50000000  0.00000000  1
  S  S277  1  0.00000000  0.50000000  0.50000000  1
  S  S278  1  0.75000000  0.25000000  0.25000000  1
  S  S279  1  0.75000000  0.75000000  0.75000000  1
  S  S280  1  0.00000000  0.00000000  0.00000000  1
  S  S281  1  0.50000000  0.00000000  0.50000000  1
  S  S282  1  0.25000000  0.75000000  0.25000000  1
  S  S283  1  0.25000000  0.25000000  0.75000000  1
  S  S284  1  0.50000000  0.50000000  0.50000000  1
  S  S285  1  0.00000000  0.50000000  0.00000000  1
  S  S286  1  0.75000000  0.25000000  0.75000000  1
  S  S287  1  0.75000000  0.75000000  0.25000000  1
