# generated using pymatgen
data_BaLi3Al2As3NO2
_symmetry_space_group_name_H-M   'P 1'
_cell_length_a   3.75906029
_cell_length_b   3.12727238
_cell_length_c   4.32208029
_cell_angle_alpha   91.65889550
_cell_angle_beta   89.12018460
_cell_angle_gamma   94.27183301
_symmetry_Int_Tables_number   1
_chemical_formula_structural   BaLi3Al2As3NO2
_chemical_formula_sum   'Ba1 Li3 Al2 As3 N1 O2'
_cell_volume   50.64184196
_cell_formula_units_Z   1
loop_
 _symmetry_equiv_pos_site_id
 _symmetry_equiv_pos_as_xyz
  1  'x, y, z'
loop_
 _atom_site_type_symbol
 _atom_site_label
 _atom_site_symmetry_multiplicity
 _atom_site_fract_x
 _atom_site_fract_y
 _atom_site_fract_z
 _atom_site_occupancy
  Li  Li0  1  0.00000000  0.00000000  0.00000000  1
  Li  Li1  1  0.50000000  0.50000000  0.50000000  1
  Li  Li2  1  0.50000000  0.50000000  0.00000000  1
  Al  Al3  1  0.50000000  0.00000000  0.50000000  1
  Al  Al4  1  0.00000000  0.50000000  0.50000000  1
  N  N5  1  0.68247008  0.19432271  0.88865635  1
  As  As6  1  0.13246650  0.66110817  0.77926814  1
  As  As7  1  0.48276845  0.23053489  0.01701867  1
  As  As8  1  0.49818862  0.53540276  0.38844943  1
  O  O9  1  0.37808958  0.22516032  0.33538281  1
  O  O10  1  0.42777142  0.46219432  0.75381876  1
  Ba  Ba11  1  0.20045879  0.85739371  0.46697250  1
