# generated using pymatgen
data_SrLi4ZrTe3F4
_symmetry_space_group_name_H-M   'P 1'
_cell_length_a   15.67289484
_cell_length_b   15.67289484
_cell_length_c   10.02657923
_cell_angle_alpha   90.00000000
_cell_angle_beta   90.00000000
_cell_angle_gamma   90.00000000
_symmetry_Int_Tables_number   1
_chemical_formula_structural   SrLi4ZrTe3F4
_chemical_formula_sum   'Sr8 Li32 Zr8 Te24 F32'
_cell_volume   2462.92523958
_cell_formula_units_Z   8
loop_
 _symmetry_equiv_pos_site_id
 _symmetry_equiv_pos_as_xyz
  1  'x, y, z'
loop_
 _atom_site_type_symbol
 _atom_site_label
 _atom_site_symmetry_multiplicity
 _atom_site_fract_x
 _atom_site_fract_y
 _atom_site_fract_z
 _atom_site_occupancy
  F  F0  1  0.93338586  0.22758624  0.16965241  1
  F  F1  1  -0.43338586  -0.22758624  0.66965241  1
  F  F2  1  0.02241376  1.68338586  0.41965241  1
  F  F3  1  0.47758624  -0.68338586  0.91965241  1
  F  F4  1  -0.43338586  0.22758624  0.33034759  1
  F  F5  1  0.93338586  -0.22758624  -0.16965241  1
  F  F6  1  0.47758624  1.68338586  0.08034759  1
  F  F7  1  0.02241376  -0.68338586  0.58034759  1
  F  F8  1  -0.93338586  -0.22758624  -0.16965241  1
  F  F9  1  1.43338586  0.22758624  0.33034759  1
  F  F10  1  0.97758624  -0.68338586  0.58034759  1
  F  F11  1  0.52241376  1.68338586  0.08034759  1
  F  F12  1  1.43338586  -0.22758624  0.66965241  1
  F  F13  1  -0.93338586  0.22758624  0.16965241  1
  F  F14  1  0.52241376  -0.68338586  0.91965241  1
  F  F15  1  0.97758624  1.68338586  0.41965241  1
  F  F16  1  1.43338586  0.72758624  0.66965241  1
  F  F17  1  0.06661414  0.27241376  1.16965241  1
  F  F18  1  0.52241376  2.18338586  0.91965241  1
  F  F19  1  0.97758624  -0.18338586  1.41965241  1
  F  F20  1  0.06661414  0.72758624  0.83034759  1
  F  F21  1  1.43338586  0.27241376  0.33034759  1
  F  F22  1  0.97758624  2.18338586  0.58034759  1
  F  F23  1  0.52241376  -0.18338586  1.08034759  1
  F  F24  1  -0.43338586  0.27241376  0.33034759  1
  F  F25  1  1.93338586  0.72758624  0.83034759  1
  F  F26  1  1.47758624  -0.18338586  1.08034759  1
  F  F27  1  1.02241376  2.18338586  0.58034759  1
  F  F28  1  1.93338586  0.27241376  1.16965241  1
  F  F29  1  -0.43338586  0.72758624  0.66965241  1
  F  F30  1  1.02241376  -0.18338586  1.41965241  1
  F  F31  1  1.47758624  2.18338586  0.91965241  1
  Li  Li32  1  0.58063880  0.86538521  0.10370126  1
  Li  Li33  1  0.91936120  0.13461479  0.60370126  1
  Li  Li34  1  0.38461479  0.33063880  0.35370126  1
  Li  Li35  1  0.11538521  0.66936120  0.85370126  1
  Li  Li36  1  0.91936120  0.86538521  0.39629874  1
  Li  Li37  1  0.58063880  0.13461479  0.89629874  1
  Li  Li38  1  0.11538521  0.33063880  0.14629874  1
  Li  Li39  1  0.38461479  0.66936120  0.64629874  1
  Li  Li40  1  0.41936120  0.13461479  0.89629874  1
  Li  Li41  1  0.08063880  0.86538521  0.39629874  1
  Li  Li42  1  0.61538521  0.66936120  0.64629874  1
  Li  Li43  1  0.88461479  0.33063880  0.14629874  1
  Li  Li44  1  0.08063880  0.13461479  0.60370126  1
  Li  Li45  1  0.41936120  0.86538521  0.10370126  1
  Li  Li46  1  0.88461479  0.66936120  0.85370126  1
  Li  Li47  1  0.61538521  0.33063880  0.35370126  1
  Li  Li48  1  0.08063880  0.36538521  0.60370126  1
  Li  Li49  1  0.41936120  0.63461479  0.10370126  1
  Li  Li50  1  0.88461479  0.83063880  0.85370126  1
  Li  Li51  1  0.61538521  0.16936120  0.35370126  1
  Li  Li52  1  0.41936120  0.36538521  0.89629874  1
  Li  Li53  1  0.08063880  0.63461479  0.39629874  1
  Li  Li54  1  0.61538521  0.83063880  0.64629874  1
  Li  Li55  1  0.88461479  0.16936120  0.14629874  1
  Li  Li56  1  0.91936120  0.63461479  0.39629874  1
  Li  Li57  1  0.58063880  0.36538521  0.89629874  1
  Li  Li58  1  0.11538521  0.16936120  0.14629874  1
  Li  Li59  1  0.38461479  0.83063880  0.64629874  1
  Li  Li60  1  0.58063880  0.63461479  0.10370126  1
  Li  Li61  1  0.91936120  0.36538521  0.60370126  1
  Li  Li62  1  0.38461479  0.16936120  0.35370126  1
  Li  Li63  1  0.11538521  0.83063880  0.85370126  1
  Sr  Sr64  1  0.00000000  0.75000000  0.12500000  1
  Sr  Sr65  1  0.50000000  0.75000000  0.37500000  1
  Sr  Sr66  1  0.50000000  0.25000000  0.62500000  1
  Sr  Sr67  1  0.00000000  0.25000000  0.87500000  1
  Sr  Sr68  1  0.00000000  0.25000000  0.37500000  1
  Sr  Sr69  1  0.00000000  0.75000000  0.62500000  1
  Sr  Sr70  1  0.50000000  0.75000000  0.87500000  1
  Sr  Sr71  1  0.50000000  0.25000000  0.12500000  1
  Te  Te72  1  0.00000000  0.25000000  0.67125036  1
  Te  Te73  1  0.00000000  0.75000000  0.92125036  1
  Te  Te74  1  0.50000000  0.25000000  0.82874964  1
  Te  Te75  1  0.50000000  0.75000000  0.57874964  1
  Te  Te76  1  0.50000000  0.75000000  0.17125036  1
  Te  Te77  1  0.50000000  0.25000000  0.42125036  1
  Te  Te78  1  0.00000000  0.75000000  0.32874964  1
  Te  Te79  1  0.00000000  0.25000000  0.07874964  1
  Te  Te80  1  0.45435967  0.00000000  0.00000000  1
  Te  Te81  1  0.04564033  -0.00000000  0.50000000  1
  Te  Te82  1  0.25000000  0.20435967  0.25000000  1
  Te  Te83  1  0.25000000  0.79564033  0.75000000  1
  Te  Te84  1  0.54564033  0.00000000  -0.00000000  1
  Te  Te85  1  0.95435967  -0.00000000  0.50000000  1
  Te  Te86  1  0.75000000  0.79564033  0.75000000  1
  Te  Te87  1  0.75000000  0.20435967  0.25000000  1
  Te  Te88  1  0.95435967  0.50000000  0.50000000  1
  Te  Te89  1  0.54564033  0.50000000  0.00000000  1
  Te  Te90  1  0.75000000  0.70435967  0.75000000  1
  Te  Te91  1  0.75000000  0.29564033  0.25000000  1
  Te  Te92  1  0.04564033  0.50000000  0.50000000  1
  Te  Te93  1  0.45435967  0.50000000  -0.00000000  1
  Te  Te94  1  0.25000000  0.29564033  0.25000000  1
  Te  Te95  1  0.25000000  0.70435967  0.75000000  1
  Zr  Zr96  1  0.00000000  0.00000000  0.00000000  1
  Zr  Zr97  1  0.50000000  -0.00000000  0.50000000  1
  Zr  Zr98  1  0.25000000  0.75000000  0.25000000  1
  Zr  Zr99  1  0.25000000  0.25000000  0.75000000  1
  Zr  Zr100  1  0.50000000  0.50000000  0.50000000  1
  Zr  Zr101  1  0.00000000  0.50000000  -0.00000000  1
  Zr  Zr102  1  0.75000000  0.25000000  0.75000000  1
  Zr  Zr103  1  0.75000000  0.75000000  0.25000000  1
