# generated using pymatgen
data_Li6HfBr8O
_symmetry_space_group_name_H-M   'P 1'
_cell_length_a   7.66861103
_cell_length_b   7.66861103
_cell_length_c   3.86866391
_cell_angle_alpha   90.00000000
_cell_angle_beta   90.00000000
_cell_angle_gamma   120.00000000
_symmetry_Int_Tables_number   1
_chemical_formula_structural   Li6HfBr8O
_chemical_formula_sum   'Li6 Hf1 Br8 O1'
_cell_volume   197.02668671
_cell_formula_units_Z   1
loop_
 _symmetry_equiv_pos_site_id
 _symmetry_equiv_pos_as_xyz
  1  'x, y, z'
loop_
 _atom_site_type_symbol
 _atom_site_label
 _atom_site_symmetry_multiplicity
 _atom_site_fract_x
 _atom_site_fract_y
 _atom_site_fract_z
 _atom_site_occupancy
  Br  Br0  1  0.76367207  0.10404811  -0.00000000  1
  Br  Br1  1  -0.10404811  0.65962396  0.00000000  1
  Br  Br2  1  -0.65962396  -0.76367207  0.00000000  1
  Br  Br3  1  0.10404811  0.76367207  -0.00000000  1
  Br  Br4  1  0.65962396  -0.10404811  0.00000000  1
  Br  Br5  1  -0.76367207  -0.65962396  0.00000000  1
  Br  Br6  1  0.33333333  0.66666667  0.50000000  1
  Br  Br7  1  0.66666667  0.33333333  0.50000000  1
  Hf  Hf8  1  0.00000000  0.00000000  0.00000000  1
  Li  Li9  1  0.52146842  0.00000000  -0.00000000  1
  Li  Li10  1  0.00000000  0.52146842  0.00000000  1
  Li  Li11  1  0.47853158  0.47853158  0.00000000  1
  Li  Li12  1  0.62866360  -0.00000000  0.50000000  1
  Li  Li13  1  0.00000000  0.62866360  0.50000000  1
  Li  Li14  1  0.37133640  0.37133640  0.50000000  1
  O  O15  1  0.00000000  0.00000000  0.50000000  1
