# generated using pymatgen
data_Li6Mo2S4N3
_symmetry_space_group_name_H-M   'P 1'
_cell_length_a   8.22793518
_cell_length_b   7.60041228
_cell_length_c   8.19030707
_cell_angle_alpha   90.00000000
_cell_angle_beta   90.00000000
_cell_angle_gamma   90.00000000
_symmetry_Int_Tables_number   1
_chemical_formula_structural   Li6Mo2S4N3
_chemical_formula_sum   'Li6 Mo2 S4 N3'
_cell_volume   512.18658173
_cell_formula_units_Z   1
loop_
 _symmetry_equiv_pos_site_id
 _symmetry_equiv_pos_as_xyz
  1  'x, y, z'
loop_
 _atom_site_type_symbol
 _atom_site_label
 _atom_site_symmetry_multiplicity
 _atom_site_fract_x
 _atom_site_fract_y
 _atom_site_fract_z
 _atom_site_occupancy
  Li  Li0  1  0.12500000  0.12500000  0.12500000  1
  Li  Li1  1  0.50000000  0.50000000  0.50000000  1
  Li  Li2  1  0.25000000  0.25000000  0.25000000  1
  Li  Li3  1  0.75000000  0.75000000  0.75000000  1
  Li  Li4  1  0.74282327  0.93797059  0.22321759  1
  Li  Li5  1  0.03966626  0.51267198  0.89969902  1
  Mo  Mo6  1  0.12389860  0.03302059  0.63683565  1
  Mo  Mo7  1  0.54136868  0.30275486  0.94436913  1
  S  S8  1  0.03938412  0.72808361  0.28464628  1
  S  S9  1  0.48278643  0.69450750  0.75377985  1
  S  S10  1  0.91593027  0.55835054  0.89062239  1
  S  S11  1  0.85848109  0.30923555  0.98489101  1
  N  N12  1  0.91562936  0.43515931  0.90426991  1
  N  N13  1  0.44648090  0.96915646  0.54812370  1
  N  N14  1  0.76580228  0.54704015  0.80687249  1
