# generated using pymatgen
data_K4SrAl2(SCl)4
_symmetry_space_group_name_H-M   'P 1'
_cell_length_a   11.54196272
_cell_length_b   11.54196272
_cell_length_c   28.78342138
_cell_angle_alpha   90.00000000
_cell_angle_beta   90.00000000
_cell_angle_gamma   90.00000000
_symmetry_Int_Tables_number   1
_chemical_formula_structural   K4SrAl2(SCl)4
_chemical_formula_sum   'K32 Sr8 Al16 S32 Cl32'
_cell_volume   3834.43826867
_cell_formula_units_Z   8
loop_
 _symmetry_equiv_pos_site_id
 _symmetry_equiv_pos_as_xyz
  1  'x, y, z'
loop_
 _atom_site_type_symbol
 _atom_site_label
 _atom_site_symmetry_multiplicity
 _atom_site_fract_x
 _atom_site_fract_y
 _atom_site_fract_z
 _atom_site_occupancy
  Al  Al0  1  0.00000000  0.00000000  0.00000000  1
  Al  Al1  1  0.50000000  0.00000000  0.50000000  1
  Al  Al2  1  0.25000000  0.75000000  0.25000000  1
  Al  Al3  1  0.25000000  0.25000000  0.75000000  1
  Al  Al4  1  0.50000000  0.00000000  -0.00000000  1
  Al  Al5  1  0.00000000  0.00000000  0.50000000  1
  Al  Al6  1  0.25000000  0.75000000  0.75000000  1
  Al  Al7  1  0.25000000  0.25000000  0.25000000  1
  Al  Al8  1  0.50000000  0.50000000  0.50000000  1
  Al  Al9  1  0.00000000  0.50000000  -0.00000000  1
  Al  Al10  1  0.75000000  0.25000000  0.75000000  1
  Al  Al11  1  0.75000000  0.75000000  0.25000000  1
  Al  Al12  1  0.00000000  0.50000000  0.50000000  1
  Al  Al13  1  0.50000000  0.50000000  -0.00000000  1
  Al  Al14  1  0.75000000  0.25000000  0.25000000  1
  Al  Al15  1  0.75000000  0.75000000  0.75000000  1
  Cl  Cl16  1  0.02518829  0.46566036  0.60049782  1
  Cl  Cl17  1  0.47481171  0.53433964  0.10049782  1
  Cl  Cl18  1  0.78433964  0.77518829  0.85049782  1
  Cl  Cl19  1  0.71566036  0.22481171  0.35049782  1
  Cl  Cl20  1  0.47481171  0.46566036  0.39950218  1
  Cl  Cl21  1  0.02518829  0.53433964  0.89950218  1
  Cl  Cl22  1  0.71566036  0.77518829  0.14950218  1
  Cl  Cl23  1  0.78433964  0.22481171  0.64950218  1
  Cl  Cl24  1  0.97481171  0.53433964  0.39950218  1
  Cl  Cl25  1  0.52518829  0.46566036  0.89950218  1
  Cl  Cl26  1  0.21566036  0.22481171  0.14950218  1
  Cl  Cl27  1  0.28433964  0.77518829  0.64950218  1
  Cl  Cl28  1  0.52518829  0.53433964  0.60049782  1
  Cl  Cl29  1  0.97481171  0.46566036  0.10049782  1
  Cl  Cl30  1  0.28433964  0.22481171  0.85049782  1
  Cl  Cl31  1  0.21566036  0.77518829  0.35049782  1
  Cl  Cl32  1  0.52518829  0.96566036  0.10049782  1
  Cl  Cl33  1  0.97481171  0.03433964  0.60049782  1
  Cl  Cl34  1  0.28433964  0.27518829  0.35049782  1
  Cl  Cl35  1  0.21566036  0.72481171  0.85049782  1
  Cl  Cl36  1  0.97481171  0.96566036  0.89950218  1
  Cl  Cl37  1  0.52518829  0.03433964  0.39950218  1
  Cl  Cl38  1  0.21566036  0.27518829  0.64950218  1
  Cl  Cl39  1  0.28433964  0.72481171  0.14950218  1
  Cl  Cl40  1  0.47481171  0.03433964  0.89950218  1
  Cl  Cl41  1  0.02518829  0.96566036  0.39950218  1
  Cl  Cl42  1  0.71566036  0.72481171  0.64950218  1
  Cl  Cl43  1  0.78433964  0.27518829  0.14950218  1
  Cl  Cl44  1  0.02518829  0.03433964  0.10049782  1
  Cl  Cl45  1  0.47481171  0.96566036  0.60049782  1
  Cl  Cl46  1  0.78433964  0.72481171  0.35049782  1
  Cl  Cl47  1  0.71566036  0.27518829  0.85049782  1
  K  K48  1  0.58998715  0.06773732  0.20301251  1
  K  K49  1  -0.08998715  -0.06773732  0.70301251  1
  K  K50  1  0.18226268  1.33998715  0.45301251  1
  K  K51  1  0.31773732  -0.33998715  0.95301251  1
  K  K52  1  -0.08998715  0.06773732  -0.20301251  1
  K  K53  1  0.58998715  -0.06773732  0.29698749  1
  K  K54  1  0.31773732  1.33998715  0.54698749  1
  K  K55  1  0.18226268  -0.33998715  0.04698749  1
  K  K56  1  -0.58998715  -0.06773732  -0.20301251  1
  K  K57  1  1.08998715  0.06773732  0.29698749  1
  K  K58  1  0.81773732  -0.33998715  0.54698749  1
  K  K59  1  0.68226268  1.33998715  0.04698749  1
  K  K60  1  1.08998715  -0.06773732  0.20301251  1
  K  K61  1  -0.58998715  0.06773732  0.70301251  1
  K  K62  1  0.68226268  -0.33998715  0.45301251  1
  K  K63  1  0.81773732  1.33998715  0.95301251  1
  K  K64  1  1.08998715  0.56773732  0.70301251  1
  K  K65  1  0.41001285  0.43226268  1.20301251  1
  K  K66  1  0.68226268  1.83998715  0.95301251  1
  K  K67  1  0.81773732  0.16001285  1.45301251  1
  K  K68  1  0.41001285  0.56773732  0.29698749  1
  K  K69  1  1.08998715  0.43226268  0.79698749  1
  K  K70  1  0.81773732  1.83998715  1.04698749  1
  K  K71  1  0.68226268  0.16001285  0.54698749  1
  K  K72  1  -0.08998715  0.43226268  0.29698749  1
  K  K73  1  1.58998715  0.56773732  0.79698749  1
  K  K74  1  1.31773732  0.16001285  1.04698749  1
  K  K75  1  1.18226268  1.83998715  0.54698749  1
  K  K76  1  1.58998715  0.43226268  0.70301251  1
  K  K77  1  -0.08998715  0.56773732  1.20301251  1
  K  K78  1  1.18226268  0.16001285  0.95301251  1
  K  K79  1  1.31773732  1.83998715  1.45301251  1
  S  S80  1  0.54476904  0.58297930  0.54898126  1
  S  S81  1  0.95523096  0.41702070  0.04898126  1
  S  S82  1  0.66702070  0.29476904  0.79898126  1
  S  S83  1  0.83297930  0.70523096  0.29898126  1
  S  S84  1  0.95523096  0.58297930  0.45101874  1
  S  S85  1  0.54476904  0.41702070  0.95101874  1
  S  S86  1  0.83297930  0.29476904  0.20101874  1
  S  S87  1  0.66702070  0.70523096  0.70101874  1
  S  S88  1  0.45523096  0.41702070  0.45101874  1
  S  S89  1  0.04476904  0.58297930  0.95101874  1
  S  S90  1  0.33297930  0.70523096  0.20101874  1
  S  S91  1  0.16702070  0.29476904  0.70101874  1
  S  S92  1  0.04476904  0.41702070  0.54898126  1
  S  S93  1  0.45523096  0.58297930  0.04898126  1
  S  S94  1  0.16702070  0.70523096  0.79898126  1
  S  S95  1  0.33297930  0.29476904  0.29898126  1
  S  S96  1  0.04476904  0.08297930  0.04898126  1
  S  S97  1  0.45523096  0.91702070  0.54898126  1
  S  S98  1  0.16702070  0.79476904  0.29898126  1
  S  S99  1  0.33297930  0.20523096  0.79898126  1
  S  S100  1  0.45523096  0.08297930  0.95101874  1
  S  S101  1  0.04476904  0.91702070  0.45101874  1
  S  S102  1  0.33297930  0.79476904  0.70101874  1
  S  S103  1  0.16702070  0.20523096  0.20101874  1
  S  S104  1  0.95523096  0.91702070  0.95101874  1
  S  S105  1  0.54476904  0.08297930  0.45101874  1
  S  S106  1  0.83297930  0.20523096  0.70101874  1
  S  S107  1  0.66702070  0.79476904  0.20101874  1
  S  S108  1  0.54476904  0.91702070  0.04898126  1
  S  S109  1  0.95523096  0.08297930  0.54898126  1
  S  S110  1  0.66702070  0.20523096  0.29898126  1
  S  S111  1  0.83297930  0.79476904  0.79898126  1
  Sr  Sr112  1  0.00000000  0.25000000  0.37500000  1
  Sr  Sr113  1  0.00000000  0.75000000  0.62500000  1
  Sr  Sr114  1  0.50000000  0.25000000  0.62500000  1
  Sr  Sr115  1  0.50000000  0.75000000  0.37500000  1
  Sr  Sr116  1  0.50000000  0.75000000  0.87500000  1
  Sr  Sr117  1  0.50000000  0.25000000  0.12500000  1
  Sr  Sr118  1  0.00000000  0.75000000  0.12500000  1
  Sr  Sr119  1  0.00000000  0.25000000  0.87500000  1
