# generated using pymatgen
data_Sr3TiS2O3
_symmetry_space_group_name_H-M   'P 1'
_cell_length_a   23.87573433
_cell_length_b   23.87573433
_cell_length_c   21.21802453
_cell_angle_alpha   90.00000000
_cell_angle_beta   90.00000000
_cell_angle_gamma   120.00000000
_symmetry_Int_Tables_number   1
_chemical_formula_structural   Sr3TiS2O3
_chemical_formula_sum   'Sr108 Ti36 S72 O108'
_cell_volume   10474.87994734
_cell_formula_units_Z   36
loop_
 _symmetry_equiv_pos_site_id
 _symmetry_equiv_pos_as_xyz
  1  'x, y, z'
loop_
 _atom_site_type_symbol
 _atom_site_label
 _atom_site_symmetry_multiplicity
 _atom_site_fract_x
 _atom_site_fract_y
 _atom_site_fract_z
 _atom_site_occupancy
  O  O0  1  0.64707874  0.62182283  0.94521113  1
  O  O1  1  0.37817717  0.02525591  0.94521113  1
  O  O2  1  0.97474409  0.35292126  0.94521113  1
  O  O3  1  0.62182283  0.64707874  0.05478887  1
  O  O4  1  0.02525591  0.37817717  0.05478887  1
  O  O5  1  0.35292126  0.97474409  0.05478887  1
  O  O6  1  0.35292126  0.37817717  0.05478887  1
  O  O7  1  0.62182283  0.97474409  0.05478887  1
  O  O8  1  0.02525591  0.64707874  0.05478887  1
  O  O9  1  0.37817717  0.35292126  0.94521113  1
  O  O10  1  0.97474409  0.62182283  0.94521113  1
  O  O11  1  0.64707874  0.02525591  0.94521113  1
  O  O12  1  0.31374541  0.95515617  0.27854446  1
  O  O13  1  0.04484383  0.35858924  0.27854446  1
  O  O14  1  0.64141076  0.68625459  0.27854446  1
  O  O15  1  0.28848950  0.98041207  0.38812220  1
  O  O16  1  0.69192257  0.71151050  0.38812220  1
  O  O17  1  0.01958793  0.30807743  0.38812220  1
  O  O18  1  0.01958793  0.71151050  0.38812220  1
  O  O19  1  0.28848950  0.30807743  0.38812220  1
  O  O20  1  0.69192257  0.98041207  0.38812220  1
  O  O21  1  0.04484383  0.68625459  0.27854446  1
  O  O22  1  0.64141076  0.95515617  0.27854446  1
  O  O23  1  0.31374541  0.35858924  0.27854446  1
  O  O24  1  0.98041207  0.28848950  0.61187780  1
  O  O25  1  0.71151050  0.69192257  0.61187780  1
  O  O26  1  0.30807743  0.01958793  0.61187780  1
  O  O27  1  0.95515617  0.31374541  0.72145554  1
  O  O28  1  0.35858924  0.04484383  0.72145554  1
  O  O29  1  0.68625459  0.64141076  0.72145554  1
  O  O30  1  0.68625459  0.04484383  0.72145554  1
  O  O31  1  0.95515617  0.64141076  0.72145554  1
  O  O32  1  0.35858924  0.31374541  0.72145554  1
  O  O33  1  0.71151050  0.01958793  0.61187780  1
  O  O34  1  0.30807743  0.28848950  0.61187780  1
  O  O35  1  0.98041207  0.69192257  0.61187780  1
  O  O36  1  0.24168311  -0.00000000  0.50000000  1
  O  O37  1  0.00000000  0.24168311  0.50000000  1
  O  O38  1  0.75831689  0.75831689  0.50000000  1
  O  O39  1  0.75831689  0.00000000  0.50000000  1
  O  O40  1  0.00000000  0.75831689  0.50000000  1
  O  O41  1  0.24168311  0.24168311  0.50000000  1
  O  O42  1  0.90834978  0.33333333  0.83333333  1
  O  O43  1  0.66666667  0.57501645  0.83333333  1
  O  O44  1  0.42498355  0.09165022  0.83333333  1
  O  O45  1  0.42498355  0.33333333  0.83333333  1
  O  O46  1  0.66666667  0.09165022  0.83333333  1
  O  O47  1  0.90834978  0.57501645  0.83333333  1
  O  O48  1  0.57501645  0.66666667  0.16666667  1
  O  O49  1  0.33333333  0.90834978  0.16666667  1
  O  O50  1  0.09165022  0.42498355  0.16666667  1
  O  O51  1  0.09165022  0.66666667  0.16666667  1
  O  O52  1  0.33333333  0.42498355  0.16666667  1
  O  O53  1  0.57501645  0.90834978  0.16666667  1
  O  O54  1  0.55191651  0.44808349  0.70101543  1
  O  O55  1  0.55191651  0.10383302  0.70101543  1
  O  O56  1  0.89616698  0.44808349  0.70101543  1
  O  O57  1  0.44808349  0.55191651  0.29898457  1
  O  O58  1  0.10383302  0.55191651  0.29898457  1
  O  O59  1  0.44808349  0.89616698  0.29898457  1
  O  O60  1  0.21858318  0.78141682  0.03434876  1
  O  O61  1  0.21858318  0.43716636  0.03434876  1
  O  O62  1  0.56283364  0.78141682  0.03434876  1
  O  O63  1  0.11475015  0.88524985  0.63231791  1
  O  O64  1  0.77049969  0.88524985  0.63231791  1
  O  O65  1  0.11475015  0.22950031  0.63231791  1
  O  O66  1  0.88524985  0.11475015  0.36768209  1
  O  O67  1  0.88524985  0.77049969  0.36768209  1
  O  O68  1  0.22950031  0.11475015  0.36768209  1
  O  O69  1  0.78141682  0.21858318  0.96565124  1
  O  O70  1  0.43716636  0.21858318  0.96565124  1
  O  O71  1  0.78141682  0.56283364  0.96565124  1
  O  O72  1  0.00000000  0.00000000  0.00000000  1
  O  O73  1  0.66666667  0.33333333  0.33333333  1
  O  O74  1  0.33333333  0.66666667  0.66666667  1
  O  O75  1  0.38916457  0.00000000  0.50000000  1
  O  O76  1  0.00000000  0.38916457  0.50000000  1
  O  O77  1  0.61083543  0.61083543  0.50000000  1
  O  O78  1  0.61083543  0.00000000  0.50000000  1
  O  O79  1  0.00000000  0.61083543  0.50000000  1
  O  O80  1  0.38916457  0.38916457  0.50000000  1
  O  O81  1  0.05583124  0.33333333  0.83333333  1
  O  O82  1  0.66666667  0.72249791  0.83333333  1
  O  O83  1  0.27750209  0.94416876  0.83333333  1
  O  O84  1  0.27750209  0.33333333  0.83333333  1
  O  O85  1  0.66666667  0.94416876  0.83333333  1
  O  O86  1  0.05583124  0.72249791  0.83333333  1
  O  O87  1  0.72249791  0.66666667  0.16666667  1
  O  O88  1  0.33333333  0.05583124  0.16666667  1
  O  O89  1  0.94416876  0.27750209  0.16666667  1
  O  O90  1  0.94416876  0.66666667  0.16666667  1
  O  O91  1  0.33333333  0.27750209  0.16666667  1
  O  O92  1  0.72249791  0.05583124  0.16666667  1
  O  O93  1  0.50000000  0.00000000  0.50000000  1
  O  O94  1  0.00000000  0.50000000  0.50000000  1
  O  O95  1  0.50000000  0.50000000  0.50000000  1
  O  O96  1  0.16666667  0.33333333  0.83333333  1
  O  O97  1  0.66666667  0.83333333  0.83333333  1
  O  O98  1  0.16666667  0.83333333  0.83333333  1
  O  O99  1  0.83333333  0.66666667  0.16666667  1
  O  O100  1  0.33333333  0.16666667  0.16666667  1
  O  O101  1  0.83333333  0.16666667  0.16666667  1
  O  O102  1  0.00000000  0.00000000  0.63221691  1
  O  O103  1  0.00000000  0.00000000  0.36778309  1
  O  O104  1  0.66666667  0.33333333  0.96555024  1
  O  O105  1  0.66666667  0.33333333  0.70111643  1
  O  O106  1  0.33333333  0.66666667  0.29888357  1
  O  O107  1  0.33333333  0.66666667  0.03444976  1
  S  S108  1  0.63906855  0.00000000  0.00000000  1
  S  S109  1  0.00000000  0.63906855  0.00000000  1
  S  S110  1  0.36093145  0.36093145  0.00000000  1
  S  S111  1  0.36093145  0.00000000  0.00000000  1
  S  S112  1  0.00000000  0.36093145  0.00000000  1
  S  S113  1  0.63906855  0.63906855  0.00000000  1
  S  S114  1  0.30573522  0.33333333  0.33333333  1
  S  S115  1  0.66666667  0.97240188  0.33333333  1
  S  S116  1  0.02759812  0.69426478  0.33333333  1
  S  S117  1  0.02759812  0.33333333  0.33333333  1
  S  S118  1  0.66666667  0.69426478  0.33333333  1
  S  S119  1  0.30573522  0.97240188  0.33333333  1
  S  S120  1  0.97240188  0.66666667  0.66666667  1
  S  S121  1  0.33333333  0.30573522  0.66666667  1
  S  S122  1  0.69426478  0.02759812  0.66666667  1
  S  S123  1  0.69426478  0.66666667  0.66666667  1
  S  S124  1  0.33333333  0.02759812  0.66666667  1
  S  S125  1  0.97240188  0.30573522  0.66666667  1
  S  S126  1  0.91614075  0.98447321  0.31931289  1
  S  S127  1  -0.98447321  -0.06833246  0.31931289  1
  S  S128  1  0.06833246  -0.91614075  0.31931289  1
  S  S129  1  0.98447321  0.91614075  -0.31931289  1
  S  S130  1  -0.06833246  -0.98447321  -0.31931289  1
  S  S131  1  -0.91614075  0.06833246  -0.31931289  1
  S  S132  1  -0.91614075  -0.98447321  -0.31931289  1
  S  S133  1  0.98447321  0.06833246  -0.31931289  1
  S  S134  1  -0.06833246  0.91614075  -0.31931289  1
  S  S135  1  -0.98447321  -0.91614075  0.31931289  1
  S  S136  1  0.06833246  0.98447321  0.31931289  1
  S  S137  1  0.91614075  -0.06833246  0.31931289  1
  S  S138  1  1.58280742  1.31780655  0.65264622  1
  S  S139  1  -0.31780655  0.26500087  0.65264622  1
  S  S140  1  0.73499913  -0.58280742  0.65264622  1
  S  S141  1  1.65113988  1.24947409  0.01402044  1
  S  S142  1  0.59833421  -0.65113988  0.01402044  1
  S  S143  1  -0.24947409  0.40166579  0.01402044  1
  S  S144  1  -0.24947409  -0.65113988  0.01402044  1
  S  S145  1  1.65113988  0.40166579  0.01402044  1
  S  S146  1  0.59833421  1.24947409  0.01402044  1
  S  S147  1  -0.31780655  -0.58280742  0.65264622  1
  S  S148  1  0.73499913  1.31780655  0.65264622  1
  S  S149  1  1.58280742  0.26500087  0.65264622  1
  S  S150  1  1.24947409  1.65113988  0.98597956  1
  S  S151  1  -0.65113988  0.59833421  0.98597956  1
  S  S152  1  0.40166579  -0.24947409  0.98597956  1
  S  S153  1  1.31780655  1.58280742  0.34735378  1
  S  S154  1  0.26500087  -0.31780655  0.34735378  1
  S  S155  1  -0.58280742  0.73499913  0.34735378  1
  S  S156  1  -0.58280742  -0.31780655  0.34735378  1
  S  S157  1  1.31780655  0.73499913  0.34735378  1
  S  S158  1  0.26500087  1.58280742  0.34735378  1
  S  S159  1  -0.65113988  -0.24947409  0.98597956  1
  S  S160  1  0.40166579  1.65113988  0.98597956  1
  S  S161  1  1.24947409  0.59833421  0.98597956  1
  S  S162  1  0.50000000  0.00000000  0.00000000  1
  S  S163  1  0.00000000  0.50000000  0.00000000  1
  S  S164  1  0.50000000  0.50000000  0.00000000  1
  S  S165  1  0.16666667  0.33333333  0.33333333  1
  S  S166  1  0.66666667  0.83333333  0.33333333  1
  S  S167  1  0.16666667  0.83333333  0.33333333  1
  S  S168  1  0.83333333  0.66666667  0.66666667  1
  S  S169  1  0.33333333  0.16666667  0.66666667  1
  S  S170  1  0.83333333  0.16666667  0.66666667  1
  S  S171  1  0.00000000  0.00000000  0.50000000  1
  S  S172  1  0.66666667  0.33333333  0.83333333  1
  S  S173  1  0.33333333  0.66666667  0.16666667  1
  S  S174  1  0.00000000  0.00000000  0.24991900  1
  S  S175  1  0.00000000  0.00000000  0.75008100  1
  S  S176  1  0.66666667  0.33333333  0.58325233  1
  S  S177  1  0.66666667  0.33333333  0.08341434  1
  S  S178  1  0.33333333  0.66666667  0.91658566  1
  S  S179  1  0.33333333  0.66666667  0.41674767  1
  Sr  Sr180  1  0.14432998  0.00000000  0.50000000  1
  Sr  Sr181  1  0.00000000  0.14432998  0.50000000  1
  Sr  Sr182  1  0.85567002  0.85567002  0.50000000  1
  Sr  Sr183  1  0.85567002  0.00000000  0.50000000  1
  Sr  Sr184  1  0.00000000  0.85567002  0.50000000  1
  Sr  Sr185  1  0.14432998  0.14432998  0.50000000  1
  Sr  Sr186  1  0.81099665  0.33333333  0.83333333  1
  Sr  Sr187  1  0.66666667  0.47766331  0.83333333  1
  Sr  Sr188  1  0.52233669  0.18900335  0.83333333  1
  Sr  Sr189  1  0.52233669  0.33333333  0.83333333  1
  Sr  Sr190  1  0.66666667  0.18900335  0.83333333  1
  Sr  Sr191  1  0.81099665  0.47766331  0.83333333  1
  Sr  Sr192  1  0.47766331  0.66666667  0.16666667  1
  Sr  Sr193  1  0.33333333  0.81099665  0.16666667  1
  Sr  Sr194  1  0.18900335  0.52233669  0.16666667  1
  Sr  Sr195  1  0.18900335  0.66666667  0.16666667  1
  Sr  Sr196  1  0.33333333  0.52233669  0.16666667  1
  Sr  Sr197  1  0.47766331  0.81099665  0.16666667  1
  Sr  Sr198  1  0.94437412  0.69541863  0.73946661  1
  Sr  Sr199  1  0.30458137  0.24895549  0.73946661  1
  Sr  Sr200  1  0.75104451  0.05562588  0.73946661  1
  Sr  Sr201  1  0.69541863  0.94437412  0.26053339  1
  Sr  Sr202  1  0.24895549  0.30458137  0.26053339  1
  Sr  Sr203  1  0.05562588  0.75104451  0.26053339  1
  Sr  Sr204  1  0.05562588  0.30458137  0.26053339  1
  Sr  Sr205  1  0.69541863  0.75104451  0.26053339  1
  Sr  Sr206  1  0.24895549  0.94437412  0.26053339  1
  Sr  Sr207  1  0.30458137  0.05562588  0.73946661  1
  Sr  Sr208  1  0.75104451  0.69541863  0.73946661  1
  Sr  Sr209  1  0.94437412  0.24895549  0.73946661  1
  Sr  Sr210  1  0.61104079  0.02875196  0.07279995  1
  Sr  Sr211  1  0.97124804  0.58228883  0.07279995  1
  Sr  Sr212  1  0.41771117  0.38895921  0.07279995  1
  Sr  Sr213  1  0.36208529  0.27770745  0.59386672  1
  Sr  Sr214  1  0.91562216  0.63791471  0.59386672  1
  Sr  Sr215  1  0.72229255  0.08437784  0.59386672  1
  Sr  Sr216  1  0.72229255  0.63791471  0.59386672  1
  Sr  Sr217  1  0.36208529  0.08437784  0.59386672  1
  Sr  Sr218  1  0.91562216  0.27770745  0.59386672  1
  Sr  Sr219  1  0.97124804  0.38895921  0.07279995  1
  Sr  Sr220  1  0.41771117  0.02875196  0.07279995  1
  Sr  Sr221  1  0.61104079  0.58228883  0.07279995  1
  Sr  Sr222  1  0.27770745  0.36208529  0.40613328  1
  Sr  Sr223  1  0.63791471  0.91562216  0.40613328  1
  Sr  Sr224  1  0.08437784  0.72229255  0.40613328  1
  Sr  Sr225  1  0.02875196  0.61104079  0.92720005  1
  Sr  Sr226  1  0.58228883  0.97124804  0.92720005  1
  Sr  Sr227  1  0.38895921  0.41771117  0.92720005  1
  Sr  Sr228  1  0.38895921  0.97124804  0.92720005  1
  Sr  Sr229  1  0.02875196  0.41771117  0.92720005  1
  Sr  Sr230  1  0.58228883  0.61104079  0.92720005  1
  Sr  Sr231  1  0.63791471  0.72229255  0.40613328  1
  Sr  Sr232  1  0.08437784  0.36208529  0.40613328  1
  Sr  Sr233  1  0.27770745  0.91562216  0.40613328  1
  Sr  Sr234  1  0.56930760  0.43069240  0.12029417  1
  Sr  Sr235  1  0.56930760  0.13861520  0.12029417  1
  Sr  Sr236  1  0.86138480  0.43069240  0.12029417  1
  Sr  Sr237  1  0.43069240  0.56930760  0.87970583  1
  Sr  Sr238  1  0.13861520  0.56930760  0.87970583  1
  Sr  Sr239  1  0.43069240  0.86138480  0.87970583  1
  Sr  Sr240  1  0.23597427  0.76402573  0.45362750  1
  Sr  Sr241  1  0.23597427  0.47194854  0.45362750  1
  Sr  Sr242  1  0.52805146  0.76402573  0.45362750  1
  Sr  Sr243  1  0.09735906  0.90264094  0.21303916  1
  Sr  Sr244  1  0.80528187  0.90264094  0.21303916  1
  Sr  Sr245  1  0.09735906  0.19471813  0.21303916  1
  Sr  Sr246  1  0.90264094  0.09735906  0.78696084  1
  Sr  Sr247  1  0.90264094  0.80528187  0.78696084  1
  Sr  Sr248  1  0.19471813  0.09735906  0.78696084  1
  Sr  Sr249  1  0.76402573  0.23597427  0.54637250  1
  Sr  Sr250  1  0.47194854  0.23597427  0.54637250  1
  Sr  Sr251  1  0.76402573  0.52805146  0.54637250  1
  Sr  Sr252  1  0.55874041  0.44125959  0.22368517  1
  Sr  Sr253  1  0.55874041  0.11748083  0.22368517  1
  Sr  Sr254  1  0.88251917  0.44125959  0.22368517  1
  Sr  Sr255  1  0.44125959  0.55874041  0.77631483  1
  Sr  Sr256  1  0.11748083  0.55874041  0.77631483  1
  Sr  Sr257  1  0.44125959  0.88251917  0.77631483  1
  Sr  Sr258  1  0.22540708  0.77459292  0.55701850  1
  Sr  Sr259  1  0.22540708  0.45081416  0.55701850  1
  Sr  Sr260  1  0.54918584  0.77459292  0.55701850  1
  Sr  Sr261  1  0.10792625  0.89207375  0.10964816  1
  Sr  Sr262  1  0.78414749  0.89207375  0.10964816  1
  Sr  Sr263  1  0.10792625  0.21585251  0.10964816  1
  Sr  Sr264  1  0.89207375  0.10792625  0.89035184  1
  Sr  Sr265  1  0.89207375  0.78414749  0.89035184  1
  Sr  Sr266  1  0.21585251  0.10792625  0.89035184  1
  Sr  Sr267  1  0.77459292  0.22540708  0.44298150  1
  Sr  Sr268  1  0.45081416  0.22540708  0.44298150  1
  Sr  Sr269  1  0.77459292  0.54918584  0.44298150  1
  Sr  Sr270  1  0.21183000  0.00000000  -0.00000000  1
  Sr  Sr271  1  0.00000000  0.21183000  0.00000000  1
  Sr  Sr272  1  0.78817000  0.78817000  0.00000000  1
  Sr  Sr273  1  0.78817000  0.00000000  0.00000000  1
  Sr  Sr274  1  0.00000000  0.78817000  0.00000000  1
  Sr  Sr275  1  0.21183000  0.21183000  0.00000000  1
  Sr  Sr276  1  0.87849666  0.33333333  0.33333333  1
  Sr  Sr277  1  0.66666667  0.54516333  0.33333333  1
  Sr  Sr278  1  0.45483667  0.12150334  0.33333333  1
  Sr  Sr279  1  0.45483667  0.33333333  0.33333333  1
  Sr  Sr280  1  0.66666667  0.12150334  0.33333333  1
  Sr  Sr281  1  0.87849666  0.54516333  0.33333333  1
  Sr  Sr282  1  0.54516333  0.66666667  0.66666667  1
  Sr  Sr283  1  0.33333333  0.87849666  0.66666667  1
  Sr  Sr284  1  0.12150334  0.45483667  0.66666667  1
  Sr  Sr285  1  0.12150334  0.66666667  0.66666667  1
  Sr  Sr286  1  0.33333333  0.45483667  0.66666667  1
  Sr  Sr287  1  0.54516333  0.87849666  0.66666667  1
  Ti  Ti288  1  0.21861279  0.90283335  0.62235664  1
  Ti  Ti289  1  0.09716665  0.31577944  0.62235664  1
  Ti  Ti290  1  0.68422056  0.78138721  0.62235664  1
  Ti  Ti291  1  0.90283335  0.21861279  0.37764336  1
  Ti  Ti292  1  0.31577944  0.09716665  0.37764336  1
  Ti  Ti293  1  0.78138721  0.68422056  0.37764336  1
  Ti  Ti294  1  0.78138721  0.09716665  0.37764336  1
  Ti  Ti295  1  0.90283335  0.68422056  0.37764336  1
  Ti  Ti296  1  0.31577944  0.21861279  0.37764336  1
  Ti  Ti297  1  0.09716665  0.78138721  0.62235664  1
  Ti  Ti298  1  0.68422056  0.90283335  0.62235664  1
  Ti  Ti299  1  0.21861279  0.31577944  0.62235664  1
  Ti  Ti300  1  0.88527945  0.23616668  0.95568998  1
  Ti  Ti301  1  0.76383332  0.64911277  0.95568998  1
  Ti  Ti302  1  0.35088723  0.11472055  0.95568998  1
  Ti  Ti303  1  0.56950002  0.55194612  0.71097669  1
  Ti  Ti304  1  0.98244611  0.43049998  0.71097669  1
  Ti  Ti305  1  0.44805388  0.01755389  0.71097669  1
  Ti  Ti306  1  0.44805388  0.43049998  0.71097669  1
  Ti  Ti307  1  0.56950002  0.01755389  0.71097669  1
  Ti  Ti308  1  0.98244611  0.55194612  0.71097669  1
  Ti  Ti309  1  0.76383332  0.11472055  0.95568998  1
  Ti  Ti310  1  0.35088723  0.23616668  0.95568998  1
  Ti  Ti311  1  0.88527945  0.64911277  0.95568998  1
  Ti  Ti312  1  0.55194612  0.56950002  0.28902331  1
  Ti  Ti313  1  0.43049998  0.98244611  0.28902331  1
  Ti  Ti314  1  0.01755389  0.44805388  0.28902331  1
  Ti  Ti315  1  0.23616668  0.88527945  0.04431002  1
  Ti  Ti316  1  0.64911277  0.76383332  0.04431002  1
  Ti  Ti317  1  0.11472055  0.35088723  0.04431002  1
  Ti  Ti318  1  0.11472055  0.76383332  0.04431002  1
  Ti  Ti319  1  0.23616668  0.35088723  0.04431002  1
  Ti  Ti320  1  0.64911277  0.88527945  0.04431002  1
  Ti  Ti321  1  0.43049998  0.44805388  0.28902331  1
  Ti  Ti322  1  0.01755389  0.56950002  0.28902331  1
  Ti  Ti323  1  0.55194612  0.98244611  0.28902331  1
