# generated using pymatgen
data_LiPO3
_symmetry_space_group_name_H-M   'P 1'
_cell_length_a   10.26033154
_cell_length_b   10.26033154
_cell_length_c   10.26033154
_cell_angle_alpha   90.00000000
_cell_angle_beta   90.00000000
_cell_angle_gamma   90.00000000
_symmetry_Int_Tables_number   1
_chemical_formula_structural   LiPO3
_chemical_formula_sum   'Li24 P24 O72'
_cell_volume   1080.15028044
_cell_formula_units_Z   24
loop_
 _symmetry_equiv_pos_site_id
 _symmetry_equiv_pos_as_xyz
  1  'x, y, z'
loop_
 _atom_site_type_symbol
 _atom_site_label
 _atom_site_symmetry_multiplicity
 _atom_site_fract_x
 _atom_site_fract_y
 _atom_site_fract_z
 _atom_site_occupancy
  Li  Li0  1  0.87500000  0.87500000  0.87500000  1
  Li  Li1  1  0.62500000  0.12500000  0.37500000  1
  Li  Li2  1  0.12500000  0.37500000  0.62500000  1
  Li  Li3  1  0.37500000  0.62500000  0.12500000  1
  Li  Li4  1  0.37500000  0.37500000  0.37500000  1
  Li  Li5  1  0.12500000  0.62500000  0.87500000  1
  Li  Li6  1  0.62500000  0.87500000  0.12500000  1
  Li  Li7  1  0.87500000  0.12500000  0.62500000  1
  Li  Li8  1  0.46036692  0.46036692  0.46036692  1
  Li  Li9  1  0.03963308  0.53963308  0.96036692  1
  Li  Li10  1  0.53963308  0.96036692  0.03963308  1
  Li  Li11  1  0.96036692  0.03963308  0.53963308  1
  Li  Li12  1  0.21036692  0.71036692  0.78963308  1
  Li  Li13  1  0.28963308  0.28963308  0.28963308  1
  Li  Li14  1  0.71036692  0.78963308  0.21036692  1
  Li  Li15  1  0.78963308  0.21036692  0.71036692  1
  Li  Li16  1  0.96036692  0.96036692  0.96036692  1
  Li  Li17  1  0.53963308  0.03963308  0.46036692  1
  Li  Li18  1  0.03963308  0.46036692  0.53963308  1
  Li  Li19  1  0.46036692  0.53963308  0.03963308  1
  Li  Li20  1  0.71036692  0.21036692  0.28963308  1
  Li  Li21  1  0.78963308  0.78963308  0.78963308  1
  Li  Li22  1  0.21036692  0.28963308  0.71036692  1
  Li  Li23  1  0.28963308  0.71036692  0.21036692  1
  O  O24  1  0.00359218  0.45863430  0.85886693  1
  O  O25  1  0.49640782  -0.45863430  1.35886693  1
  O  O26  1  -0.00359218  0.95863430  -0.35886693  1
  O  O27  1  0.50359218  0.04136570  -0.85886693  1
  O  O28  1  0.85886693  0.00359218  0.45863430  1
  O  O29  1  1.35886693  0.49640782  -0.45863430  1
  O  O30  1  -0.35886693  -0.00359218  0.95863430  1
  O  O31  1  -0.85886693  0.50359218  0.04136570  1
  O  O32  1  0.45863430  0.85886693  0.00359218  1
  O  O33  1  -0.45863430  1.35886693  0.49640782  1
  O  O34  1  0.95863430  -0.35886693  -0.00359218  1
  O  O35  1  0.04136570  -0.85886693  0.50359218  1
  O  O36  1  1.20863430  0.25359218  -0.60886693  1
  O  O37  1  0.29136570  0.74640782  -0.10886693  1
  O  O38  1  0.70863430  0.24640782  1.60886693  1
  O  O39  1  -0.20863430  0.75359218  1.10886693  1
  O  O40  1  0.75359218  1.10886693  -0.20863430  1
  O  O41  1  0.24640782  1.60886693  0.70863430  1
  O  O42  1  0.74640782  -0.10886693  0.29136570  1
  O  O43  1  0.25359218  -0.60886693  1.20863430  1
  O  O44  1  1.60886693  0.70863430  0.24640782  1
  O  O45  1  1.10886693  -0.20863430  0.75359218  1
  O  O46  1  -0.60886693  1.20863430  0.25359218  1
  O  O47  1  -0.10886693  0.29136570  0.74640782  1
  O  O48  1  0.50359218  0.95863430  1.35886693  1
  O  O49  1  0.99640782  0.04136570  1.85886693  1
  O  O50  1  0.49640782  1.45863430  0.14113307  1
  O  O51  1  1.00359218  0.54136570  -0.35886693  1
  O  O52  1  1.35886693  0.50359218  0.95863430  1
  O  O53  1  1.85886693  0.99640782  0.04136570  1
  O  O54  1  0.14113307  0.49640782  1.45863430  1
  O  O55  1  -0.35886693  1.00359218  0.54136570  1
  O  O56  1  0.95863430  1.35886693  0.50359218  1
  O  O57  1  0.04136570  1.85886693  0.99640782  1
  O  O58  1  1.45863430  0.14113307  0.49640782  1
  O  O59  1  0.54136570  -0.35886693  1.00359218  1
  O  O60  1  1.70863430  0.75359218  -0.10886693  1
  O  O61  1  0.79136570  1.24640782  0.39113307  1
  O  O62  1  1.20863430  0.74640782  2.10886693  1
  O  O63  1  0.29136570  1.25359218  1.60886693  1
  O  O64  1  1.25359218  1.60886693  0.29136570  1
  O  O65  1  0.74640782  2.10886693  1.20863430  1
  O  O66  1  1.24640782  0.39113307  0.79136570  1
  O  O67  1  0.75359218  -0.10886693  1.70863430  1
  O  O68  1  2.10886693  1.20863430  0.74640782  1
  O  O69  1  1.60886693  0.29136570  1.25359218  1
  O  O70  1  -0.10886693  1.70863430  0.75359218  1
  O  O71  1  0.39113307  0.79136570  1.24640782  1
  O  O72  1  0.12500000  0.12500000  0.12500000  1
  O  O73  1  0.37500000  0.87500000  0.62500000  1
  O  O74  1  0.87500000  0.62500000  0.37500000  1
  O  O75  1  0.62500000  0.37500000  0.87500000  1
  O  O76  1  0.62500000  0.62500000  0.62500000  1
  O  O77  1  0.87500000  0.37500000  0.12500000  1
  O  O78  1  0.37500000  0.12500000  0.87500000  1
  O  O79  1  0.12500000  0.87500000  0.37500000  1
  O  O80  1  0.54788361  0.54788361  0.54788361  1
  O  O81  1  0.95211639  0.45211639  0.04788361  1
  O  O82  1  0.45211639  0.04788361  0.95211639  1
  O  O83  1  0.04788361  0.95211639  0.45211639  1
  O  O84  1  0.29788361  0.79788361  0.70211639  1
  O  O85  1  0.20211639  0.20211639  0.20211639  1
  O  O86  1  0.79788361  0.70211639  0.29788361  1
  O  O87  1  0.70211639  0.29788361  0.79788361  1
  O  O88  1  0.04788361  0.04788361  0.04788361  1
  O  O89  1  0.45211639  0.95211639  0.54788361  1
  O  O90  1  0.95211639  0.54788361  0.45211639  1
  O  O91  1  0.54788361  0.45211639  0.95211639  1
  O  O92  1  0.79788361  0.29788361  0.20211639  1
  O  O93  1  0.70211639  0.70211639  0.70211639  1
  O  O94  1  0.29788361  0.20211639  0.79788361  1
  O  O95  1  0.20211639  0.79788361  0.29788361  1
  P  P96  1  0.12500000  0.78337824  0.03337824  1
  P  P97  1  0.37500000  0.21662176  0.53337824  1
  P  P98  1  0.87500000  0.28337824  0.46662176  1
  P  P99  1  0.62500000  0.71662176  0.96662176  1
  P  P100  1  0.03337824  0.12500000  0.78337824  1
  P  P101  1  0.53337824  0.37500000  0.21662176  1
  P  P102  1  0.46662176  0.87500000  0.28337824  1
  P  P103  1  0.96662176  0.62500000  0.71662176  1
  P  P104  1  0.78337824  0.03337824  0.12500000  1
  P  P105  1  0.21662176  0.53337824  0.37500000  1
  P  P106  1  0.28337824  0.46662176  0.87500000  1
  P  P107  1  0.71662176  0.96662176  0.62500000  1
  P  P108  1  0.62500000  0.28337824  0.53337824  1
  P  P109  1  0.87500000  0.71662176  0.03337824  1
  P  P110  1  0.37500000  0.78337824  0.96662176  1
  P  P111  1  0.12500000  0.21662176  0.46662176  1
  P  P112  1  0.53337824  0.62500000  0.28337824  1
  P  P113  1  0.03337824  0.87500000  0.71662176  1
  P  P114  1  0.96662176  0.37500000  0.78337824  1
  P  P115  1  0.46662176  0.12500000  0.21662176  1
  P  P116  1  0.28337824  0.53337824  0.62500000  1
  P  P117  1  0.71662176  0.03337824  0.87500000  1
  P  P118  1  0.78337824  0.96662176  0.37500000  1
  P  P119  1  0.21662176  0.46662176  0.12500000  1
