# generated using pymatgen
data_Li4TeCl2
_symmetry_space_group_name_H-M   'P 1'
_cell_length_a   9.31337390
_cell_length_b   9.31337390
_cell_length_c   10.28605207
_cell_angle_alpha   90.00000000
_cell_angle_beta   90.00000000
_cell_angle_gamma   90.00000000
_symmetry_Int_Tables_number   1
_chemical_formula_structural   Li4TeCl2
_chemical_formula_sum   'Li32 Te8 Cl16'
_cell_volume   892.20118610
_cell_formula_units_Z   8
loop_
 _symmetry_equiv_pos_site_id
 _symmetry_equiv_pos_as_xyz
  1  'x, y, z'
loop_
 _atom_site_type_symbol
 _atom_site_label
 _atom_site_symmetry_multiplicity
 _atom_site_fract_x
 _atom_site_fract_y
 _atom_site_fract_z
 _atom_site_occupancy
  Cl  Cl0  1  0.59460976  0.59460976  0.50000000  1
  Cl  Cl1  1  0.40539024  0.40539024  0.50000000  1
  Cl  Cl2  1  0.40539024  0.59460976  0.50000000  1
  Cl  Cl3  1  0.59460976  0.40539024  0.50000000  1
  Cl  Cl4  1  0.86700625  0.86700625  0.81122801  1
  Cl  Cl5  1  0.13299375  0.13299375  0.81122801  1
  Cl  Cl6  1  0.13299375  0.86700625  0.81122801  1
  Cl  Cl7  1  0.86700625  0.13299375  0.81122801  1
  Cl  Cl8  1  0.13299375  0.86700625  0.18877199  1
  Cl  Cl9  1  0.86700625  0.13299375  0.18877199  1
  Cl  Cl10  1  0.86700625  0.86700625  0.18877199  1
  Cl  Cl11  1  0.13299375  0.13299375  0.18877199  1
  Cl  Cl12  1  0.00000000  0.50000000  0.10482050  1
  Cl  Cl13  1  0.50000000  0.00000000  0.10482050  1
  Cl  Cl14  1  0.00000000  0.50000000  0.89517950  1
  Cl  Cl15  1  0.50000000  0.00000000  0.89517950  1
  Li  Li16  1  0.11056802  0.31408278  0.78841183  1
  Li  Li17  1  -0.11056802  -0.31408278  0.78841183  1
  Li  Li18  1  -0.31408278  0.11056802  0.78841183  1
  Li  Li19  1  0.31408278  -0.11056802  0.78841183  1
  Li  Li20  1  -0.11056802  0.31408278  -0.78841183  1
  Li  Li21  1  0.11056802  -0.31408278  -0.78841183  1
  Li  Li22  1  0.31408278  0.11056802  -0.78841183  1
  Li  Li23  1  -0.31408278  -0.11056802  -0.78841183  1
  Li  Li24  1  -0.11056802  -0.31408278  -0.78841183  1
  Li  Li25  1  0.11056802  0.31408278  -0.78841183  1
  Li  Li26  1  0.31408278  -0.11056802  -0.78841183  1
  Li  Li27  1  -0.31408278  0.11056802  -0.78841183  1
  Li  Li28  1  0.11056802  -0.31408278  0.78841183  1
  Li  Li29  1  -0.11056802  0.31408278  0.78841183  1
  Li  Li30  1  -0.31408278  -0.11056802  0.78841183  1
  Li  Li31  1  0.31408278  0.11056802  0.78841183  1
  Li  Li32  1  0.50000000  0.50000000  0.25771772  1
  Li  Li33  1  0.50000000  0.50000000  0.74228228  1
  Li  Li34  1  0.06913317  0.06913317  0.50000000  1
  Li  Li35  1  0.93086683  0.93086683  0.50000000  1
  Li  Li36  1  0.93086683  0.06913317  0.50000000  1
  Li  Li37  1  0.06913317  0.93086683  0.50000000  1
  Li  Li38  1  0.71030371  0.50000000  0.85153334  1
  Li  Li39  1  0.28969629  0.50000000  0.85153334  1
  Li  Li40  1  0.50000000  0.71030371  0.85153334  1
  Li  Li41  1  0.50000000  0.28969629  0.85153334  1
  Li  Li42  1  0.28969629  0.50000000  0.14846666  1
  Li  Li43  1  0.71030371  0.50000000  0.14846666  1
  Li  Li44  1  0.50000000  0.71030371  0.14846666  1
  Li  Li45  1  0.50000000  0.28969629  0.14846666  1
  Li  Li46  1  0.00000000  0.50000000  0.50000000  1
  Li  Li47  1  0.50000000  0.00000000  0.50000000  1
  Te  Te48  1  0.22178358  0.22178358  0.50000000  1
  Te  Te49  1  0.77821642  0.77821642  0.50000000  1
  Te  Te50  1  0.77821642  0.22178358  0.50000000  1
  Te  Te51  1  0.22178358  0.77821642  0.50000000  1
  Te  Te52  1  0.69119593  0.69119593  0.00000000  1
  Te  Te53  1  0.30880407  0.30880407  0.00000000  1
  Te  Te54  1  0.30880407  0.69119593  0.00000000  1
  Te  Te55  1  0.69119593  0.30880407  0.00000000  1
