# generated using pymatgen
data_Li6Hf3Te6SeF4
_symmetry_space_group_name_H-M   'P 1'
_cell_length_a   8.90737570
_cell_length_b   8.90737570
_cell_length_c   11.25537177
_cell_angle_alpha   90.00000000
_cell_angle_beta   90.00000000
_cell_angle_gamma   120.00000000
_symmetry_Int_Tables_number   1
_chemical_formula_structural   Li6Hf3Te6SeF4
_chemical_formula_sum   'Li12 Hf6 Te12 Se2 F8'
_cell_volume   773.37480119
_cell_formula_units_Z   2
loop_
 _symmetry_equiv_pos_site_id
 _symmetry_equiv_pos_as_xyz
  1  'x, y, z'
loop_
 _atom_site_type_symbol
 _atom_site_label
 _atom_site_symmetry_multiplicity
 _atom_site_fract_x
 _atom_site_fract_y
 _atom_site_fract_z
 _atom_site_occupancy
  F  F0  1  0.97294440  0.90523064  0.25000000  1
  F  F1  1  0.09476936  0.06771376  0.25000000  1
  F  F2  1  0.93228624  0.02705560  0.25000000  1
  F  F3  1  0.02705560  0.09476936  0.75000000  1
  F  F4  1  0.90523064  0.93228624  0.75000000  1
  F  F5  1  0.06771376  0.97294440  0.75000000  1
  F  F6  1  0.33333333  0.66666667  0.25000000  1
  F  F7  1  0.66666667  0.33333333  0.75000000  1
  Hf  Hf8  1  0.50000000  -0.00000000  0.00000000  1
  Hf  Hf9  1  0.00000000  0.50000000  -0.00000000  1
  Hf  Hf10  1  0.50000000  0.50000000  0.00000000  1
  Hf  Hf11  1  0.50000000  -0.00000000  0.50000000  1
  Hf  Hf12  1  0.00000000  0.50000000  0.50000000  1
  Hf  Hf13  1  0.50000000  0.50000000  0.50000000  1
  Li  Li14  1  0.00000000  0.00000000  0.63917559  1
  Li  Li15  1  0.00000000  0.00000000  0.13917559  1
  Li  Li16  1  0.00000000  0.00000000  0.36082441  1
  Li  Li17  1  0.00000000  0.00000000  0.86082441  1
  Li  Li18  1  0.66666667  0.33333333  0.25000000  1
  Li  Li19  1  0.33333333  0.66666667  0.75000000  1
  Li  Li20  1  0.10588072  0.54503717  0.25000000  1
  Li  Li21  1  0.45496283  0.56084355  0.25000000  1
  Li  Li22  1  0.43915645  0.89411928  0.25000000  1
  Li  Li23  1  0.89411928  0.45496283  0.75000000  1
  Li  Li24  1  0.54503717  0.43915645  0.75000000  1
  Li  Li25  1  0.56084355  0.10588072  0.75000000  1
  Se  Se26  1  0.00000000  0.00000000  0.00000000  1
  Se  Se27  1  0.00000000  0.00000000  0.50000000  1
  Te  Te28  1  0.45887417  0.16187788  0.61159560  1
  Te  Te29  1  -0.16187788  0.29699628  0.61159560  1
  Te  Te30  1  -0.29699628  -0.45887417  0.61159560  1
  Te  Te31  1  -0.45887417  -0.16187788  1.11159560  1
  Te  Te32  1  0.16187788  -0.29699628  1.11159560  1
  Te  Te33  1  0.29699628  0.45887417  1.11159560  1
  Te  Te34  1  -0.45887417  -0.16187788  -0.61159560  1
  Te  Te35  1  0.16187788  -0.29699628  -0.61159560  1
  Te  Te36  1  0.29699628  0.45887417  -0.61159560  1
  Te  Te37  1  0.45887417  0.16187788  -0.11159560  1
  Te  Te38  1  -0.16187788  0.29699628  -0.11159560  1
  Te  Te39  1  -0.29699628  -0.45887417  -0.11159560  1
