# generated using pymatgen
data_LiDyScPSe2(OF2)2
_symmetry_space_group_name_H-M   'P 1'
_cell_length_a   8.78529020
_cell_length_b   7.52293600
_cell_length_c   7.08847962
_cell_angle_alpha   90.00000000
_cell_angle_beta   90.00000000
_cell_angle_gamma   90.00000000
_symmetry_Int_Tables_number   1
_chemical_formula_structural   LiDyScPSe2(OF2)2
_chemical_formula_sum   'Li1 Dy1 Sc1 P1 Se2 O2 F4'
_cell_volume   468.48595320
_cell_formula_units_Z   1
loop_
 _symmetry_equiv_pos_site_id
 _symmetry_equiv_pos_as_xyz
  1  'x, y, z'
loop_
 _atom_site_type_symbol
 _atom_site_label
 _atom_site_symmetry_multiplicity
 _atom_site_fract_x
 _atom_site_fract_y
 _atom_site_fract_z
 _atom_site_occupancy
  Li  Li0  1  0.00000000  0.00000000  0.00000000  1
  Sc  Sc1  1  0.50000000  0.50000000  0.50000000  1
  P  P2  1  0.25000000  0.25000000  0.25000000  1
  F  F3  1  0.75000000  0.25000000  0.00000000  1
  F  F4  1  0.25000000  0.75000000  0.50000000  1
  F  F5  1  0.51931530  0.01310479  0.55173348  1
  F  F6  1  0.32362076  0.55802203  0.58875289  1
  Se  Se7  1  0.51710043  0.81683915  0.78496029  1
  Se  Se8  1  0.53001162  0.97001523  0.93357811  1
  O  O9  1  0.19272935  0.11953448  0.18092636  1
  O  O10  1  0.08076978  0.73422196  0.90617264  1
  Dy  Dy11  1  0.86761724  0.91653824  0.42856702  1
