# generated using pymatgen
data_Li3YCl
_symmetry_space_group_name_H-M   'P 1'
_cell_length_a   3.63341673
_cell_length_b   3.16613989
_cell_length_c   6.49695518
_cell_angle_alpha   97.98682392
_cell_angle_beta   118.70541768
_cell_angle_gamma   96.51314739
_symmetry_Int_Tables_number   1
_chemical_formula_structural   Li3YCl
_chemical_formula_sum   'Li3 Y1 Cl1'
_cell_volume   63.50702482
_cell_formula_units_Z   1
loop_
 _symmetry_equiv_pos_site_id
 _symmetry_equiv_pos_as_xyz
  1  'x, y, z'
loop_
 _atom_site_type_symbol
 _atom_site_label
 _atom_site_symmetry_multiplicity
 _atom_site_fract_x
 _atom_site_fract_y
 _atom_site_fract_z
 _atom_site_occupancy
  Li  Li0  1  0.00000000  0.00000000  0.00000000  1
  Li  Li1  1  0.33300000  0.66700000  0.25000000  1
  Li  Li2  1  0.66700000  0.33300000  0.50000000  1
  Y  Y3  1  0.00000000  0.00000000  0.75000000  1
  Cl  Cl4  1  0.66649230  0.92860384  0.01266063  1
