# generated using pymatgen
data_LiBr
_symmetry_space_group_name_H-M   'P 1'
_cell_length_a   14.92927642
_cell_length_b   14.92927642
_cell_length_c   14.92927642
_cell_angle_alpha   90.00000000
_cell_angle_beta   90.00000000
_cell_angle_gamma   90.00000000
_symmetry_Int_Tables_number   1
_chemical_formula_structural   LiBr
_chemical_formula_sum   'Li96 Br96'
_cell_volume   3327.48631000
_cell_formula_units_Z   96
loop_
 _symmetry_equiv_pos_site_id
 _symmetry_equiv_pos_as_xyz
  1  'x, y, z'
loop_
 _atom_site_type_symbol
 _atom_site_label
 _atom_site_symmetry_multiplicity
 _atom_site_fract_x
 _atom_site_fract_y
 _atom_site_fract_z
 _atom_site_occupancy
  Br  Br0  1  0.05769943  0.19533287  0.05777399  1
  Br  Br1  1  0.44230057  0.80466713  0.55777399  1
  Br  Br2  1  0.94230057  0.69533287  0.44222601  1
  Br  Br3  1  0.55769943  0.30466713  0.94222601  1
  Br  Br4  1  0.05777399  0.05769943  0.19533287  1
  Br  Br5  1  0.55777399  0.44230057  0.80466713  1
  Br  Br6  1  0.44222601  0.94230057  0.69533287  1
  Br  Br7  1  0.94222601  0.55769943  0.30466713  1
  Br  Br8  1  0.19533287  0.05777399  0.05769943  1
  Br  Br9  1  0.80466713  0.55777399  0.44230057  1
  Br  Br10  1  0.69533287  0.44222601  0.94230057  1
  Br  Br11  1  0.30466713  0.94222601  0.55769943  1
  Br  Br12  1  0.94533287  0.30769943  0.19222601  1
  Br  Br13  1  0.55466713  0.69230057  0.69222601  1
  Br  Br14  1  0.44533287  0.19230057  0.80777399  1
  Br  Br15  1  0.05466713  0.80769943  0.30777399  1
  Br  Br16  1  0.80769943  0.30777399  0.05466713  1
  Br  Br17  1  0.19230057  0.80777399  0.44533287  1
  Br  Br18  1  0.69230057  0.69222601  0.55466713  1
  Br  Br19  1  0.30769943  0.19222601  0.94533287  1
  Br  Br20  1  0.80777399  0.44533287  0.19230057  1
  Br  Br21  1  0.30777399  0.05466713  0.80769943  1
  Br  Br22  1  0.19222601  0.94533287  0.30769943  1
  Br  Br23  1  0.69222601  0.55466713  0.69230057  1
  Br  Br24  1  0.94230057  0.80466713  0.94222601  1
  Br  Br25  1  0.55769943  0.19533287  0.44222601  1
  Br  Br26  1  0.05769943  0.30466713  0.55777399  1
  Br  Br27  1  0.44230057  0.69533287  0.05777399  1
  Br  Br28  1  0.94222601  0.94230057  0.80466713  1
  Br  Br29  1  0.44222601  0.55769943  0.19533287  1
  Br  Br30  1  0.55777399  0.05769943  0.30466713  1
  Br  Br31  1  0.05777399  0.44230057  0.69533287  1
  Br  Br32  1  0.80466713  0.94222601  0.94230057  1
  Br  Br33  1  0.19533287  0.44222601  0.55769943  1
  Br  Br34  1  0.30466713  0.55777399  0.05769943  1
  Br  Br35  1  0.69533287  0.05777399  0.44230057  1
  Br  Br36  1  0.05466713  0.69230057  0.80777399  1
  Br  Br37  1  0.44533287  0.30769943  0.30777399  1
  Br  Br38  1  0.55466713  0.80769943  0.19222601  1
  Br  Br39  1  0.94533287  0.19230057  0.69222601  1
  Br  Br40  1  0.19230057  0.69222601  0.94533287  1
  Br  Br41  1  0.80769943  0.19222601  0.55466713  1
  Br  Br42  1  0.30769943  0.30777399  0.44533287  1
  Br  Br43  1  0.69230057  0.80777399  0.05466713  1
  Br  Br44  1  0.19222601  0.55466713  0.80769943  1
  Br  Br45  1  0.69222601  0.94533287  0.19230057  1
  Br  Br46  1  0.80777399  0.05466713  0.69230057  1
  Br  Br47  1  0.30777399  0.44533287  0.30769943  1
  Br  Br48  1  0.55769943  0.69533287  0.55777399  1
  Br  Br49  1  0.94230057  0.30466713  0.05777399  1
  Br  Br50  1  0.44230057  0.19533287  0.94222601  1
  Br  Br51  1  0.05769943  0.80466713  0.44222601  1
  Br  Br52  1  0.55777399  0.55769943  0.69533287  1
  Br  Br53  1  0.05777399  0.94230057  0.30466713  1
  Br  Br54  1  0.94222601  0.44230057  0.19533287  1
  Br  Br55  1  0.44222601  0.05769943  0.80466713  1
  Br  Br56  1  0.69533287  0.55777399  0.55769943  1
  Br  Br57  1  0.30466713  0.05777399  0.94230057  1
  Br  Br58  1  0.19533287  0.94222601  0.44230057  1
  Br  Br59  1  0.80466713  0.44222601  0.05769943  1
  Br  Br60  1  0.44533287  0.80769943  0.69222601  1
  Br  Br61  1  0.05466713  0.19230057  0.19222601  1
  Br  Br62  1  0.94533287  0.69230057  0.30777399  1
  Br  Br63  1  0.55466713  0.30769943  0.80777399  1
  Br  Br64  1  0.30769943  0.80777399  0.55466713  1
  Br  Br65  1  0.69230057  0.30777399  0.94533287  1
  Br  Br66  1  0.19230057  0.19222601  0.05466713  1
  Br  Br67  1  0.80769943  0.69222601  0.44533287  1
  Br  Br68  1  0.30777399  0.94533287  0.69230057  1
  Br  Br69  1  0.80777399  0.55466713  0.30769943  1
  Br  Br70  1  0.69222601  0.44533287  0.80769943  1
  Br  Br71  1  0.19222601  0.05466713  0.19230057  1
  Br  Br72  1  0.44230057  0.30466713  0.44222601  1
  Br  Br73  1  0.05769943  0.69533287  0.94222601  1
  Br  Br74  1  0.55769943  0.80466713  0.05777399  1
  Br  Br75  1  0.94230057  0.19533287  0.55777399  1
  Br  Br76  1  0.44222601  0.44230057  0.30466713  1
  Br  Br77  1  0.94222601  0.05769943  0.69533287  1
  Br  Br78  1  0.05777399  0.55769943  0.80466713  1
  Br  Br79  1  0.55777399  0.94230057  0.19533287  1
  Br  Br80  1  0.30466713  0.44222601  0.44230057  1
  Br  Br81  1  0.69533287  0.94222601  0.05769943  1
  Br  Br82  1  0.80466713  0.05777399  0.55769943  1
  Br  Br83  1  0.19533287  0.55777399  0.94230057  1
  Br  Br84  1  0.55466713  0.19230057  0.30777399  1
  Br  Br85  1  0.94533287  0.80769943  0.80777399  1
  Br  Br86  1  0.05466713  0.30769943  0.69222601  1
  Br  Br87  1  0.44533287  0.69230057  0.19222601  1
  Br  Br88  1  0.69230057  0.19222601  0.44533287  1
  Br  Br89  1  0.30769943  0.69222601  0.05466713  1
  Br  Br90  1  0.80769943  0.80777399  0.94533287  1
  Br  Br91  1  0.19230057  0.30777399  0.55466713  1
  Br  Br92  1  0.69222601  0.05466713  0.30769943  1
  Br  Br93  1  0.19222601  0.44533287  0.69230057  1
  Br  Br94  1  0.30777399  0.55466713  0.19230057  1
  Br  Br95  1  0.80777399  0.94533287  0.80769943  1
  Li  Li96  1  0.44912809  0.20104206  0.24505271  1
  Li  Li97  1  0.05087191  -0.20104206  0.74505271  1
  Li  Li98  1  -0.44912809  0.70104206  0.25494729  1
  Li  Li99  1  0.94912809  0.29895794  -0.24505271  1
  Li  Li100  1  0.24505271  0.44912809  0.20104206  1
  Li  Li101  1  0.74505271  0.05087191  -0.20104206  1
  Li  Li102  1  0.25494729  -0.44912809  0.70104206  1
  Li  Li103  1  -0.24505271  0.94912809  0.29895794  1
  Li  Li104  1  0.20104206  0.24505271  0.44912809  1
  Li  Li105  1  -0.20104206  0.74505271  0.05087191  1
  Li  Li106  1  0.70104206  0.25494729  -0.44912809  1
  Li  Li107  1  0.29895794  -0.24505271  0.94912809  1
  Li  Li108  1  0.95104206  0.69912809  0.00494729  1
  Li  Li109  1  0.54895794  0.30087191  0.50494729  1
  Li  Li110  1  0.45104206  -0.19912809  0.99505271  1
  Li  Li111  1  0.04895794  1.19912809  0.49505271  1
  Li  Li112  1  1.19912809  0.49505271  0.04895794  1
  Li  Li113  1  -0.19912809  0.99505271  0.45104206  1
  Li  Li114  1  0.30087191  0.50494729  0.54895794  1
  Li  Li115  1  0.69912809  0.00494729  0.95104206  1
  Li  Li116  1  0.99505271  0.45104206  -0.19912809  1
  Li  Li117  1  0.49505271  0.04895794  1.19912809  1
  Li  Li118  1  0.00494729  0.95104206  0.69912809  1
  Li  Li119  1  0.50494729  0.54895794  0.30087191  1
  Li  Li120  1  -0.44912809  -0.20104206  -0.24505271  1
  Li  Li121  1  0.94912809  0.20104206  0.25494729  1
  Li  Li122  1  0.44912809  0.29895794  0.74505271  1
  Li  Li123  1  0.05087191  0.70104206  0.24505271  1
  Li  Li124  1  -0.24505271  -0.44912809  -0.20104206  1
  Li  Li125  1  0.25494729  0.94912809  0.20104206  1
  Li  Li126  1  0.74505271  0.44912809  0.29895794  1
  Li  Li127  1  0.24505271  0.05087191  0.70104206  1
  Li  Li128  1  -0.20104206  -0.24505271  -0.44912809  1
  Li  Li129  1  0.20104206  0.25494729  0.94912809  1
  Li  Li130  1  0.29895794  0.74505271  0.44912809  1
  Li  Li131  1  0.70104206  0.24505271  0.05087191  1
  Li  Li132  1  0.04895794  0.30087191  0.99505271  1
  Li  Li133  1  0.45104206  0.69912809  0.49505271  1
  Li  Li134  1  0.54895794  1.19912809  0.00494729  1
  Li  Li135  1  0.95104206  -0.19912809  0.50494729  1
  Li  Li136  1  -0.19912809  0.50494729  0.95104206  1
  Li  Li137  1  1.19912809  0.00494729  0.54895794  1
  Li  Li138  1  0.69912809  0.49505271  0.45104206  1
  Li  Li139  1  0.30087191  0.99505271  0.04895794  1
  Li  Li140  1  0.00494729  0.54895794  1.19912809  1
  Li  Li141  1  0.50494729  0.95104206  -0.19912809  1
  Li  Li142  1  0.99505271  0.04895794  0.30087191  1
  Li  Li143  1  0.49505271  0.45104206  0.69912809  1
  Li  Li144  1  0.94912809  0.70104206  0.74505271  1
  Li  Li145  1  0.55087191  0.29895794  1.24505271  1
  Li  Li146  1  0.05087191  1.20104206  0.75494729  1
  Li  Li147  1  1.44912809  0.79895794  0.25494729  1
  Li  Li148  1  0.74505271  0.94912809  0.70104206  1
  Li  Li149  1  1.24505271  0.55087191  0.29895794  1
  Li  Li150  1  0.75494729  0.05087191  1.20104206  1
  Li  Li151  1  0.25494729  1.44912809  0.79895794  1
  Li  Li152  1  0.70104206  0.74505271  0.94912809  1
  Li  Li153  1  0.29895794  1.24505271  0.55087191  1
  Li  Li154  1  1.20104206  0.75494729  0.05087191  1
  Li  Li155  1  0.79895794  0.25494729  1.44912809  1
  Li  Li156  1  1.45104206  1.19912809  0.50494729  1
  Li  Li157  1  1.04895794  0.80087191  1.00494729  1
  Li  Li158  1  0.95104206  0.30087191  1.49505271  1
  Li  Li159  1  0.54895794  1.69912809  0.99505271  1
  Li  Li160  1  1.69912809  0.99505271  0.54895794  1
  Li  Li161  1  0.30087191  1.49505271  0.95104206  1
  Li  Li162  1  0.80087191  1.00494729  1.04895794  1
  Li  Li163  1  1.19912809  0.50494729  1.45104206  1
  Li  Li164  1  1.49505271  0.95104206  0.30087191  1
  Li  Li165  1  0.99505271  0.54895794  1.69912809  1
  Li  Li166  1  0.50494729  1.45104206  1.19912809  1
  Li  Li167  1  1.00494729  1.04895794  0.80087191  1
  Li  Li168  1  0.05087191  0.29895794  0.25494729  1
  Li  Li169  1  1.44912809  0.70104206  0.75494729  1
  Li  Li170  1  0.94912809  0.79895794  1.24505271  1
  Li  Li171  1  0.55087191  1.20104206  0.74505271  1
  Li  Li172  1  0.25494729  0.05087191  0.29895794  1
  Li  Li173  1  0.75494729  1.44912809  0.70104206  1
  Li  Li174  1  1.24505271  0.94912809  0.79895794  1
  Li  Li175  1  0.74505271  0.55087191  1.20104206  1
  Li  Li176  1  0.29895794  0.25494729  0.05087191  1
  Li  Li177  1  0.70104206  0.75494729  1.44912809  1
  Li  Li178  1  0.79895794  1.24505271  0.94912809  1
  Li  Li179  1  1.20104206  0.74505271  0.55087191  1
  Li  Li180  1  0.54895794  0.80087191  1.49505271  1
  Li  Li181  1  0.95104206  1.19912809  0.99505271  1
  Li  Li182  1  1.04895794  1.69912809  0.50494729  1
  Li  Li183  1  1.45104206  0.30087191  1.00494729  1
  Li  Li184  1  0.30087191  1.00494729  1.45104206  1
  Li  Li185  1  1.69912809  0.50494729  1.04895794  1
  Li  Li186  1  1.19912809  0.99505271  0.95104206  1
  Li  Li187  1  0.80087191  1.49505271  0.54895794  1
  Li  Li188  1  0.50494729  1.04895794  1.69912809  1
  Li  Li189  1  1.00494729  1.45104206  0.30087191  1
  Li  Li190  1  1.49505271  0.54895794  0.80087191  1
  Li  Li191  1  0.99505271  0.95104206  1.19912809  1
