# generated using pymatgen
data_LiI
_symmetry_space_group_name_H-M   'P 1'
_cell_length_a   13.53030526
_cell_length_b   13.53030526
_cell_length_c   13.53030526
_cell_angle_alpha   90.00000000
_cell_angle_beta   90.00000000
_cell_angle_gamma   90.00000000
_symmetry_Int_Tables_number   1
_chemical_formula_structural   LiI
_chemical_formula_sum   'Li48 I48'
_cell_volume   2476.98162326
_cell_formula_units_Z   48
loop_
 _symmetry_equiv_pos_site_id
 _symmetry_equiv_pos_as_xyz
  1  'x, y, z'
loop_
 _atom_site_type_symbol
 _atom_site_label
 _atom_site_symmetry_multiplicity
 _atom_site_fract_x
 _atom_site_fract_y
 _atom_site_fract_z
 _atom_site_occupancy
  I  I0  1  0.12500000  0.12500000  0.12500000  1
  I  I1  1  0.37500000  0.87500000  0.62500000  1
  I  I2  1  0.87500000  0.62500000  0.37500000  1
  I  I3  1  0.62500000  0.37500000  0.87500000  1
  I  I4  1  0.87500000  0.87500000  0.87500000  1
  I  I5  1  0.62500000  0.12500000  0.37500000  1
  I  I6  1  0.12500000  0.37500000  0.62500000  1
  I  I7  1  0.37500000  0.62500000  0.12500000  1
  I  I8  1  0.62500000  0.62500000  0.62500000  1
  I  I9  1  0.87500000  0.37500000  0.12500000  1
  I  I10  1  0.37500000  0.12500000  0.87500000  1
  I  I11  1  0.12500000  0.87500000  0.37500000  1
  I  I12  1  0.37500000  0.37500000  0.37500000  1
  I  I13  1  0.12500000  0.62500000  0.87500000  1
  I  I14  1  0.62500000  0.87500000  0.12500000  1
  I  I15  1  0.87500000  0.12500000  0.62500000  1
  I  I16  1  0.94080020  0.94080020  0.94080020  1
  I  I17  1  -0.44080020  -0.94080020  1.44080020  1
  I  I18  1  -0.94080020  1.44080020  -0.44080020  1
  I  I19  1  1.44080020  -0.44080020  -0.94080020  1
  I  I20  1  1.69080020  1.19080020  -0.69080020  1
  I  I21  1  -0.19080020  -0.19080020  -0.19080020  1
  I  I22  1  1.19080020  -0.69080020  1.69080020  1
  I  I23  1  -0.69080020  1.69080020  1.19080020  1
  I  I24  1  -0.94080020  -0.94080020  -0.94080020  1
  I  I25  1  1.44080020  0.94080020  -0.44080020  1
  I  I26  1  0.94080020  -0.44080020  1.44080020  1
  I  I27  1  -0.44080020  1.44080020  0.94080020  1
  I  I28  1  -0.69080020  -0.19080020  1.69080020  1
  I  I29  1  1.19080020  1.19080020  1.19080020  1
  I  I30  1  -0.19080020  1.69080020  -0.69080020  1
  I  I31  1  1.69080020  -0.69080020  -0.19080020  1
  I  I32  1  1.44080020  1.44080020  1.44080020  1
  I  I33  1  0.05919980  -0.44080020  1.94080020  1
  I  I34  1  -0.44080020  1.94080020  0.05919980  1
  I  I35  1  1.94080020  0.05919980  -0.44080020  1
  I  I36  1  2.19080020  1.69080020  -0.19080020  1
  I  I37  1  0.30919980  0.30919980  0.30919980  1
  I  I38  1  1.69080020  -0.19080020  2.19080020  1
  I  I39  1  -0.19080020  2.19080020  1.69080020  1
  I  I40  1  -0.44080020  -0.44080020  -0.44080020  1
  I  I41  1  1.94080020  1.44080020  0.05919980  1
  I  I42  1  1.44080020  0.05919980  1.94080020  1
  I  I43  1  0.05919980  1.94080020  1.44080020  1
  I  I44  1  -0.19080020  0.30919980  2.19080020  1
  I  I45  1  1.69080020  1.69080020  1.69080020  1
  I  I46  1  0.30919980  2.19080020  -0.19080020  1
  I  I47  1  2.19080020  -0.19080020  0.30919980  1
  Li  Li48  1  0.12500000  0.00000000  0.25000000  1
  Li  Li49  1  0.37500000  0.00000000  0.75000000  1
  Li  Li50  1  0.25000000  0.12500000  0.00000000  1
  Li  Li51  1  0.75000000  0.37500000  0.00000000  1
  Li  Li52  1  0.00000000  0.25000000  0.12500000  1
  Li  Li53  1  0.00000000  0.75000000  0.37500000  1
  Li  Li54  1  0.87500000  0.00000000  0.75000000  1
  Li  Li55  1  0.62500000  0.00000000  0.25000000  1
  Li  Li56  1  0.75000000  0.87500000  0.00000000  1
  Li  Li57  1  0.25000000  0.62500000  0.00000000  1
  Li  Li58  1  0.00000000  0.75000000  0.87500000  1
  Li  Li59  1  0.00000000  0.25000000  0.62500000  1
  Li  Li60  1  0.62500000  0.50000000  0.75000000  1
  Li  Li61  1  0.87500000  0.50000000  0.25000000  1
  Li  Li62  1  0.75000000  0.62500000  0.50000000  1
  Li  Li63  1  0.25000000  0.87500000  0.50000000  1
  Li  Li64  1  0.50000000  0.75000000  0.62500000  1
  Li  Li65  1  0.50000000  0.25000000  0.87500000  1
  Li  Li66  1  0.37500000  0.50000000  0.25000000  1
  Li  Li67  1  0.12500000  0.50000000  0.75000000  1
  Li  Li68  1  0.25000000  0.37500000  0.50000000  1
  Li  Li69  1  0.75000000  0.12500000  0.50000000  1
  Li  Li70  1  0.50000000  0.25000000  0.37500000  1
  Li  Li71  1  0.50000000  0.75000000  0.12500000  1
  Li  Li72  1  0.37500000  0.00000000  0.25000000  1
  Li  Li73  1  0.12500000  0.00000000  0.75000000  1
  Li  Li74  1  0.25000000  0.37500000  0.00000000  1
  Li  Li75  1  0.75000000  0.12500000  0.00000000  1
  Li  Li76  1  0.00000000  0.25000000  0.37500000  1
  Li  Li77  1  0.00000000  0.75000000  0.12500000  1
  Li  Li78  1  0.75000000  0.62500000  0.00000000  1
  Li  Li79  1  0.75000000  0.37500000  0.50000000  1
  Li  Li80  1  0.12500000  0.50000000  0.25000000  1
  Li  Li81  1  0.87500000  0.00000000  0.25000000  1
  Li  Li82  1  0.00000000  0.25000000  0.87500000  1
  Li  Li83  1  0.50000000  0.25000000  0.12500000  1
  Li  Li84  1  0.87500000  0.50000000  0.75000000  1
  Li  Li85  1  0.62500000  0.50000000  0.25000000  1
  Li  Li86  1  0.75000000  0.87500000  0.50000000  1
  Li  Li87  1  0.25000000  0.62500000  0.50000000  1
  Li  Li88  1  0.50000000  0.75000000  0.87500000  1
  Li  Li89  1  0.50000000  0.25000000  0.62500000  1
  Li  Li90  1  0.25000000  0.12500000  0.50000000  1
  Li  Li91  1  0.25000000  0.87500000  0.00000000  1
  Li  Li92  1  0.62500000  0.00000000  0.75000000  1
  Li  Li93  1  0.37500000  0.50000000  0.75000000  1
  Li  Li94  1  0.50000000  0.75000000  0.37500000  1
  Li  Li95  1  0.00000000  0.75000000  0.62500000  1
