# generated using pymatgen
data_LiCl
_symmetry_space_group_name_H-M   'P 1'
_cell_length_a   12.94078303
_cell_length_b   12.94078303
_cell_length_c   7.49564778
_cell_angle_alpha   90.00000000
_cell_angle_beta   90.00000000
_cell_angle_gamma   120.00000000
_symmetry_Int_Tables_number   1
_chemical_formula_structural   LiCl
_chemical_formula_sum   'Li36 Cl36'
_cell_volume   1087.07852008
_cell_formula_units_Z   36
loop_
 _symmetry_equiv_pos_site_id
 _symmetry_equiv_pos_as_xyz
  1  'x, y, z'
loop_
 _atom_site_type_symbol
 _atom_site_label
 _atom_site_symmetry_multiplicity
 _atom_site_fract_x
 _atom_site_fract_y
 _atom_site_fract_z
 _atom_site_occupancy
  Cl  Cl0  1  0.33333333  0.66666667  0.25000000  1
  Cl  Cl1  1  0.66666667  0.33333333  0.75000000  1
  Cl  Cl2  1  0.98997493  0.44430270  0.51350889  1
  Cl  Cl3  1  -0.44430270  0.54567224  0.51350889  1
  Cl  Cl4  1  -0.54567224  -0.98997493  0.51350889  1
  Cl  Cl5  1  -0.98997493  -0.44430270  1.01350889  1
  Cl  Cl6  1  0.44430270  -0.54567224  1.01350889  1
  Cl  Cl7  1  0.54567224  0.98997493  1.01350889  1
  Cl  Cl8  1  -0.98997493  -0.44430270  -0.51350889  1
  Cl  Cl9  1  0.44430270  -0.54567224  -0.51350889  1
  Cl  Cl10  1  0.54567224  0.98997493  -0.51350889  1
  Cl  Cl11  1  0.98997493  0.44430270  -0.01350889  1
  Cl  Cl12  1  -0.44430270  0.54567224  -0.01350889  1
  Cl  Cl13  1  -0.54567224  -0.98997493  -0.01350889  1
  Cl  Cl14  1  0.48941605  0.76858184  0.40409450  1
  Cl  Cl15  1  0.23141816  0.72083421  0.40409450  1
  Cl  Cl16  1  0.27916579  0.51058395  0.40409450  1
  Cl  Cl17  1  0.51058395  0.23141816  0.90409450  1
  Cl  Cl18  1  0.76858184  0.27916579  0.90409450  1
  Cl  Cl19  1  0.72083421  0.48941605  0.90409450  1
  Cl  Cl20  1  0.51058395  0.23141816  0.59590550  1
  Cl  Cl21  1  0.76858184  0.27916579  0.59590550  1
  Cl  Cl22  1  0.72083421  0.48941605  0.59590550  1
  Cl  Cl23  1  0.48941605  0.76858184  0.09590550  1
  Cl  Cl24  1  0.23141816  0.72083421  0.09590550  1
  Cl  Cl25  1  0.27916579  0.51058395  0.09590550  1
  Cl  Cl26  1  0.52543219  0.69365396  0.25000000  1
  Cl  Cl27  1  0.30634604  0.83177822  0.25000000  1
  Cl  Cl28  1  0.16822178  0.47456781  0.25000000  1
  Cl  Cl29  1  0.47456781  0.30634604  0.75000000  1
  Cl  Cl30  1  0.69365396  0.16822178  0.75000000  1
  Cl  Cl31  1  0.83177822  0.52543219  0.75000000  1
  Cl  Cl32  1  0.66666667  0.33333333  0.25000000  1
  Cl  Cl33  1  0.33333333  0.66666667  0.75000000  1
  Cl  Cl34  1  0.00000000  0.00000000  0.25000000  1
  Cl  Cl35  1  0.00000000  0.00000000  0.75000000  1
  Li  Li36  1  0.20007087  0.53448253  0.45084598  1
  Li  Li37  1  0.46551747  0.66558834  0.45084598  1
  Li  Li38  1  0.33441166  0.79992913  0.45084598  1
  Li  Li39  1  0.79992913  0.46551747  0.95084598  1
  Li  Li40  1  0.53448253  0.33441166  0.95084598  1
  Li  Li41  1  0.66558834  0.20007087  0.95084598  1
  Li  Li42  1  0.79992913  0.46551747  0.54915402  1
  Li  Li43  1  0.53448253  0.33441166  0.54915402  1
  Li  Li44  1  0.66558834  0.20007087  0.54915402  1
  Li  Li45  1  0.20007087  0.53448253  0.04915402  1
  Li  Li46  1  0.46551747  0.66558834  0.04915402  1
  Li  Li47  1  0.33441166  0.79992913  0.04915402  1
  Li  Li48  1  0.93955160  0.28330902  0.25000000  1
  Li  Li49  1  0.71669098  0.65624258  0.25000000  1
  Li  Li50  1  0.34375742  0.06044840  0.25000000  1
  Li  Li51  1  0.06044840  0.71669098  0.75000000  1
  Li  Li52  1  0.28330902  0.34375742  0.75000000  1
  Li  Li53  1  0.65624258  0.93955160  0.75000000  1
  Li  Li54  1  0.27777026  0.14260125  0.09008262  1
  Li  Li55  1  0.85739875  0.13516901  0.09008262  1
  Li  Li56  1  0.86483099  0.72222974  0.09008262  1
  Li  Li57  1  0.72222974  0.85739875  0.59008262  1
  Li  Li58  1  0.14260125  0.86483099  0.59008262  1
  Li  Li59  1  0.13516901  0.27777026  0.59008262  1
  Li  Li60  1  0.72222974  0.85739875  0.90991738  1
  Li  Li61  1  0.14260125  0.86483099  0.90991738  1
  Li  Li62  1  0.13516901  0.27777026  0.90991738  1
  Li  Li63  1  0.27777026  0.14260125  0.40991738  1
  Li  Li64  1  0.85739875  0.13516901  0.40991738  1
  Li  Li65  1  0.86483099  0.72222974  0.40991738  1
  Li  Li66  1  0.35891554  0.50373807  0.25000000  1
  Li  Li67  1  0.49626193  0.85517747  0.25000000  1
  Li  Li68  1  0.14482253  0.64108446  0.25000000  1
  Li  Li69  1  0.64108446  0.49626193  0.75000000  1
  Li  Li70  1  0.50373807  0.14482253  0.75000000  1
  Li  Li71  1  0.85517747  0.35891554  0.75000000  1
