# generated using pymatgen
data_Li2Te
_symmetry_space_group_name_H-M   'P 1'
_cell_length_a   6.19969258
_cell_length_b   6.19969258
_cell_length_c   23.19017901
_cell_angle_alpha   90.00000000
_cell_angle_beta   90.00000000
_cell_angle_gamma   120.00000000
_symmetry_Int_Tables_number   1
_chemical_formula_structural   Li2Te
_chemical_formula_sum   'Li24 Te12'
_cell_volume   771.92488742
_cell_formula_units_Z   12
loop_
 _symmetry_equiv_pos_site_id
 _symmetry_equiv_pos_as_xyz
  1  'x, y, z'
loop_
 _atom_site_type_symbol
 _atom_site_label
 _atom_site_symmetry_multiplicity
 _atom_site_fract_x
 _atom_site_fract_y
 _atom_site_fract_z
 _atom_site_occupancy
  Li  Li0  1  0.15322672  -0.00000000  0.25000000  1
  Li  Li1  1  0.00000000  0.15322672  0.25000000  1
  Li  Li2  1  -0.15322672  -0.15322672  0.25000000  1
  Li  Li3  1  -0.15322672  0.00000000  0.75000000  1
  Li  Li4  1  0.00000000  -0.15322672  0.75000000  1
  Li  Li5  1  0.15322672  0.15322672  0.75000000  1
  Li  Li6  1  0.81989339  0.33333333  0.58333333  1
  Li  Li7  1  0.66666667  0.48656006  0.58333333  1
  Li  Li8  1  0.51343994  0.18010661  0.58333333  1
  Li  Li9  1  0.51343994  0.33333333  1.08333333  1
  Li  Li10  1  0.66666667  0.18010661  1.08333333  1
  Li  Li11  1  0.81989339  0.48656006  1.08333333  1
  Li  Li12  1  0.48656006  0.66666667  0.91666667  1
  Li  Li13  1  0.33333333  0.81989339  0.91666667  1
  Li  Li14  1  0.18010661  0.51343994  0.91666667  1
  Li  Li15  1  0.18010661  0.66666667  1.41666667  1
  Li  Li16  1  0.33333333  0.51343994  1.41666667  1
  Li  Li17  1  0.48656006  0.81989339  1.41666667  1
  Li  Li18  1  0.00000000  0.00000000  0.00000000  1
  Li  Li19  1  0.00000000  0.00000000  0.50000000  1
  Li  Li20  1  0.66666667  0.33333333  0.33333333  1
  Li  Li21  1  0.66666667  0.33333333  0.83333333  1
  Li  Li22  1  0.33333333  0.66666667  0.66666667  1
  Li  Li23  1  0.33333333  0.66666667  0.16666667  1
  Te  Te24  1  0.00000000  0.00000000  0.05900915  1
  Te  Te25  1  0.00000000  0.00000000  0.44099085  1
  Te  Te26  1  0.00000000  0.00000000  0.94099085  1
  Te  Te27  1  0.00000000  0.00000000  0.55900915  1
  Te  Te28  1  0.66666667  0.33333333  0.39234249  1
  Te  Te29  1  0.66666667  0.33333333  0.77432418  1
  Te  Te30  1  0.66666667  0.33333333  0.27432418  1
  Te  Te31  1  0.66666667  0.33333333  0.89234249  1
  Te  Te32  1  0.33333333  0.66666667  0.72567582  1
  Te  Te33  1  0.33333333  0.66666667  0.10765751  1
  Te  Te34  1  0.33333333  0.66666667  0.60765751  1
  Te  Te35  1  0.33333333  0.66666667  0.22567582  1
