# generated using pymatgen
data_LiBr
_symmetry_space_group_name_H-M   'P 1'
_cell_length_a   12.77800097
_cell_length_b   12.77800097
_cell_length_c   12.77800097
_cell_angle_alpha   90.00000000
_cell_angle_beta   90.00000000
_cell_angle_gamma   90.00000000
_symmetry_Int_Tables_number   1
_chemical_formula_structural   LiBr
_chemical_formula_sum   'Li48 Br48'
_cell_volume   2086.35761086
_cell_formula_units_Z   48
loop_
 _symmetry_equiv_pos_site_id
 _symmetry_equiv_pos_as_xyz
  1  'x, y, z'
loop_
 _atom_site_type_symbol
 _atom_site_label
 _atom_site_symmetry_multiplicity
 _atom_site_fract_x
 _atom_site_fract_y
 _atom_site_fract_z
 _atom_site_occupancy
  Br  Br0  1  0.86259482  0.93465915  0.75005366  1
  Br  Br1  1  -0.36259482  -0.93465915  1.25005366  1
  Br  Br2  1  -0.86259482  1.43465915  -0.25005366  1
  Br  Br3  1  1.36259482  -0.43465915  -0.75005366  1
  Br  Br4  1  0.75005366  0.86259482  0.93465915  1
  Br  Br5  1  1.25005366  -0.36259482  -0.93465915  1
  Br  Br6  1  -0.25005366  -0.86259482  1.43465915  1
  Br  Br7  1  -0.75005366  1.36259482  -0.43465915  1
  Br  Br8  1  0.93465915  0.75005366  0.86259482  1
  Br  Br9  1  -0.93465915  1.25005366  -0.36259482  1
  Br  Br10  1  1.43465915  -0.25005366  -0.86259482  1
  Br  Br11  1  -0.43465915  -0.75005366  1.36259482  1
  Br  Br12  1  1.68465915  1.11259482  -0.50005366  1
  Br  Br13  1  -0.18465915  -0.11259482  -0.00005366  1
  Br  Br14  1  1.18465915  -0.61259482  1.50005366  1
  Br  Br15  1  -0.68465915  1.61259482  1.00005366  1
  Br  Br16  1  1.61259482  1.00005366  -0.68465915  1
  Br  Br17  1  -0.61259482  1.50005366  1.18465915  1
  Br  Br18  1  -0.11259482  -0.00005366  -0.18465915  1
  Br  Br19  1  1.11259482  -0.50005366  1.68465915  1
  Br  Br20  1  1.50005366  1.18465915  -0.61259482  1
  Br  Br21  1  1.00005366  -0.68465915  1.61259482  1
  Br  Br22  1  -0.50005366  1.68465915  1.11259482  1
  Br  Br23  1  -0.00005366  -0.18465915  -0.11259482  1
  Br  Br24  1  1.36259482  1.43465915  1.25005366  1
  Br  Br25  1  0.13740518  -0.43465915  1.75005366  1
  Br  Br26  1  -0.36259482  1.93465915  0.24994634  1
  Br  Br27  1  1.86259482  0.06534085  -0.25005366  1
  Br  Br28  1  1.25005366  1.36259482  1.43465915  1
  Br  Br29  1  1.75005366  0.13740518  -0.43465915  1
  Br  Br30  1  0.24994634  -0.36259482  1.93465915  1
  Br  Br31  1  -0.25005366  1.86259482  0.06534085  1
  Br  Br32  1  1.43465915  1.25005366  1.36259482  1
  Br  Br33  1  -0.43465915  1.75005366  0.13740518  1
  Br  Br34  1  1.93465915  0.24994634  -0.36259482  1
  Br  Br35  1  0.06534085  -0.25005366  1.86259482  1
  Br  Br36  1  2.18465915  1.61259482  -0.00005366  1
  Br  Br37  1  0.31534085  0.38740518  0.49994634  1
  Br  Br38  1  1.68465915  -0.11259482  2.00005366  1
  Br  Br39  1  -0.18465915  2.11259482  1.50005366  1
  Br  Br40  1  2.11259482  1.50005366  -0.18465915  1
  Br  Br41  1  -0.11259482  2.00005366  1.68465915  1
  Br  Br42  1  0.38740518  0.49994634  0.31534085  1
  Br  Br43  1  1.61259482  -0.00005366  2.18465915  1
  Br  Br44  1  2.00005366  1.68465915  -0.11259482  1
  Br  Br45  1  1.50005366  -0.18465915  2.11259482  1
  Br  Br46  1  -0.00005366  2.18465915  1.61259482  1
  Br  Br47  1  0.49994634  0.31534085  0.38740518  1
  Li  Li48  1  0.65486816  0.65486816  0.65486816  1
  Li  Li49  1  0.84513184  0.34513184  0.15486816  1
  Li  Li50  1  0.34513184  0.15486816  0.84513184  1
  Li  Li51  1  0.15486816  0.84513184  0.34513184  1
  Li  Li52  1  0.40486816  0.90486816  0.59513184  1
  Li  Li53  1  0.09513184  0.09513184  0.09513184  1
  Li  Li54  1  0.90486816  0.59513184  0.40486816  1
  Li  Li55  1  0.59513184  0.40486816  0.90486816  1
  Li  Li56  1  0.15486816  0.15486816  0.15486816  1
  Li  Li57  1  0.34513184  0.84513184  0.65486816  1
  Li  Li58  1  0.84513184  0.65486816  0.34513184  1
  Li  Li59  1  0.65486816  0.34513184  0.84513184  1
  Li  Li60  1  0.90486816  0.40486816  0.09513184  1
  Li  Li61  1  0.59513184  0.59513184  0.59513184  1
  Li  Li62  1  0.40486816  0.09513184  0.90486816  1
  Li  Li63  1  0.09513184  0.90486816  0.40486816  1
  Li  Li64  1  0.12500000  0.78122524  0.46877476  1
  Li  Li65  1  0.37500000  0.21877476  0.96877476  1
  Li  Li66  1  0.87500000  0.28122524  0.03122524  1
  Li  Li67  1  0.62500000  0.71877476  0.53122524  1
  Li  Li68  1  0.46877476  0.12500000  0.78122524  1
  Li  Li69  1  0.96877476  0.37500000  0.21877476  1
  Li  Li70  1  0.03122524  0.87500000  0.28122524  1
  Li  Li71  1  0.53122524  0.62500000  0.71877476  1
  Li  Li72  1  0.78122524  0.46877476  0.12500000  1
  Li  Li73  1  0.21877476  0.96877476  0.37500000  1
  Li  Li74  1  0.28122524  0.03122524  0.87500000  1
  Li  Li75  1  0.71877476  0.53122524  0.62500000  1
  Li  Li76  1  0.62500000  0.28122524  0.96877476  1
  Li  Li77  1  0.87500000  0.71877476  0.46877476  1
  Li  Li78  1  0.37500000  0.78122524  0.53122524  1
  Li  Li79  1  0.12500000  0.21877476  0.03122524  1
  Li  Li80  1  0.96877476  0.62500000  0.28122524  1
  Li  Li81  1  0.46877476  0.87500000  0.71877476  1
  Li  Li82  1  0.53122524  0.37500000  0.78122524  1
  Li  Li83  1  0.03122524  0.12500000  0.21877476  1
  Li  Li84  1  0.28122524  0.96877476  0.62500000  1
  Li  Li85  1  0.71877476  0.46877476  0.87500000  1
  Li  Li86  1  0.78122524  0.53122524  0.37500000  1
  Li  Li87  1  0.21877476  0.03122524  0.12500000  1
  Li  Li88  1  0.87500000  0.87500000  0.87500000  1
  Li  Li89  1  0.62500000  0.12500000  0.37500000  1
  Li  Li90  1  0.12500000  0.37500000  0.62500000  1
  Li  Li91  1  0.37500000  0.62500000  0.12500000  1
  Li  Li92  1  0.37500000  0.37500000  0.37500000  1
  Li  Li93  1  0.12500000  0.62500000  0.87500000  1
  Li  Li94  1  0.62500000  0.87500000  0.12500000  1
  Li  Li95  1  0.87500000  0.12500000  0.62500000  1
