# generated using pymatgen
data_Sr2Li2(TiS3)3
_symmetry_space_group_name_H-M   'P 1'
_cell_length_a   18.82648218
_cell_length_b   18.82648218
_cell_length_c   18.82648218
_cell_angle_alpha   90.00000000
_cell_angle_beta   90.00000000
_cell_angle_gamma   90.00000000
_symmetry_Int_Tables_number   1
_chemical_formula_structural   Sr2Li2(TiS3)3
_chemical_formula_sum   'Sr32 Li32 Ti48 S144'
_cell_volume   6672.79115600
_cell_formula_units_Z   16
loop_
 _symmetry_equiv_pos_site_id
 _symmetry_equiv_pos_as_xyz
  1  'x, y, z'
loop_
 _atom_site_type_symbol
 _atom_site_label
 _atom_site_symmetry_multiplicity
 _atom_site_fract_x
 _atom_site_fract_y
 _atom_site_fract_z
 _atom_site_occupancy
  Li  Li0  1  0.12500000  0.12500000  0.12500000  1
  Li  Li1  1  0.37500000  0.87500000  0.62500000  1
  Li  Li2  1  0.87500000  0.62500000  0.37500000  1
  Li  Li3  1  0.62500000  0.37500000  0.87500000  1
  Li  Li4  1  0.62500000  0.62500000  0.62500000  1
  Li  Li5  1  0.87500000  0.37500000  0.12500000  1
  Li  Li6  1  0.37500000  0.12500000  0.87500000  1
  Li  Li7  1  0.12500000  0.87500000  0.37500000  1
  Li  Li8  1  0.12500000  0.28417388  0.96582612  1
  Li  Li9  1  0.37500000  0.71582612  0.46582612  1
  Li  Li10  1  0.87500000  0.78417388  0.53417388  1
  Li  Li11  1  0.62500000  0.21582612  0.03417388  1
  Li  Li12  1  0.96582612  0.12500000  0.28417388  1
  Li  Li13  1  0.46582612  0.37500000  0.71582612  1
  Li  Li14  1  0.53417388  0.87500000  0.78417388  1
  Li  Li15  1  0.03417388  0.62500000  0.21582612  1
  Li  Li16  1  0.28417388  0.96582612  0.12500000  1
  Li  Li17  1  0.71582612  0.46582612  0.37500000  1
  Li  Li18  1  0.78417388  0.53417388  0.87500000  1
  Li  Li19  1  0.21582612  0.03417388  0.62500000  1
  Li  Li20  1  0.62500000  0.78417388  0.46582612  1
  Li  Li21  1  0.87500000  0.21582612  0.96582612  1
  Li  Li22  1  0.37500000  0.28417388  0.03417388  1
  Li  Li23  1  0.12500000  0.71582612  0.53417388  1
  Li  Li24  1  0.46582612  0.62500000  0.78417388  1
  Li  Li25  1  0.96582612  0.87500000  0.21582612  1
  Li  Li26  1  0.03417388  0.37500000  0.28417388  1
  Li  Li27  1  0.53417388  0.12500000  0.71582612  1
  Li  Li28  1  0.78417388  0.46582612  0.62500000  1
  Li  Li29  1  0.21582612  0.96582612  0.87500000  1
  Li  Li30  1  0.28417388  0.03417388  0.37500000  1
  Li  Li31  1  0.71582612  0.53417388  0.12500000  1
  S  S32  1  0.83892128  0.16320657  0.00322184  1
  S  S33  1  -0.33892128  -0.16320657  0.50322184  1
  S  S34  1  -0.83892128  0.66320657  0.49677816  1
  S  S35  1  1.33892128  0.33679343  -0.00322184  1
  S  S36  1  0.00322184  0.83892128  0.16320657  1
  S  S37  1  0.50322184  -0.33892128  -0.16320657  1
  S  S38  1  0.49677816  -0.83892128  0.66320657  1
  S  S39  1  -0.00322184  1.33892128  0.33679343  1
  S  S40  1  0.16320657  0.00322184  0.83892128  1
  S  S41  1  -0.16320657  0.50322184  -0.33892128  1
  S  S42  1  0.66320657  0.49677816  -0.83892128  1
  S  S43  1  0.33679343  -0.00322184  1.33892128  1
  S  S44  1  0.91320657  1.08892128  0.24677816  1
  S  S45  1  0.58679343  -0.08892128  0.74677816  1
  S  S46  1  0.41320657  -0.58892128  0.75322184  1
  S  S47  1  0.08679343  1.58892128  0.25322184  1
  S  S48  1  1.58892128  0.25322184  0.08679343  1
  S  S49  1  -0.58892128  0.75322184  0.41320657  1
  S  S50  1  -0.08892128  0.74677816  0.58679343  1
  S  S51  1  1.08892128  0.24677816  0.91320657  1
  S  S52  1  0.75322184  0.41320657  -0.58892128  1
  S  S53  1  0.25322184  0.08679343  1.58892128  1
  S  S54  1  0.24677816  0.91320657  1.08892128  1
  S  S55  1  0.74677816  0.58679343  -0.08892128  1
  S  S56  1  1.33892128  0.66320657  0.50322184  1
  S  S57  1  0.16107872  0.33679343  1.00322184  1
  S  S58  1  -0.33892128  1.16320657  0.99677816  1
  S  S59  1  1.83892128  0.83679343  0.49677816  1
  S  S60  1  0.50322184  1.33892128  0.66320657  1
  S  S61  1  1.00322184  0.16107872  0.33679343  1
  S  S62  1  0.99677816  -0.33892128  1.16320657  1
  S  S63  1  0.49677816  1.83892128  0.83679343  1
  S  S64  1  0.66320657  0.50322184  1.33892128  1
  S  S65  1  0.33679343  1.00322184  0.16107872  1
  S  S66  1  1.16320657  0.99677816  -0.33892128  1
  S  S67  1  0.83679343  0.49677816  1.83892128  1
  S  S68  1  1.41320657  1.58892128  0.74677816  1
  S  S69  1  1.08679343  0.41107872  1.24677816  1
  S  S70  1  0.91320657  -0.08892128  1.25322184  1
  S  S71  1  0.58679343  2.08892128  0.75322184  1
  S  S72  1  2.08892128  0.75322184  0.58679343  1
  S  S73  1  -0.08892128  1.25322184  0.91320657  1
  S  S74  1  0.41107872  1.24677816  1.08679343  1
  S  S75  1  1.58892128  0.74677816  1.41320657  1
  S  S76  1  1.25322184  0.91320657  -0.08892128  1
  S  S77  1  0.75322184  0.58679343  2.08892128  1
  S  S78  1  0.74677816  1.41320657  1.58892128  1
  S  S79  1  1.24677816  1.08679343  0.41107872  1
  S  S80  1  0.75631152  0.80208139  0.59058574  1
  S  S81  1  0.74368848  0.19791861  0.09058574  1
  S  S82  1  0.24368848  0.30208139  0.90941426  1
  S  S83  1  0.25631152  0.69791861  0.40941426  1
  S  S84  1  0.59058574  0.75631152  0.80208139  1
  S  S85  1  0.09058574  0.74368848  0.19791861  1
  S  S86  1  0.90941426  0.24368848  0.30208139  1
  S  S87  1  0.40941426  0.25631152  0.69791861  1
  S  S88  1  0.80208139  0.59058574  0.75631152  1
  S  S89  1  0.19791861  0.09058574  0.74368848  1
  S  S90  1  0.30208139  0.90941426  0.24368848  1
  S  S91  1  0.69791861  0.40941426  0.25631152  1
  S  S92  1  0.55208139  0.00631152  0.65941426  1
  S  S93  1  0.94791861  0.99368848  0.15941426  1
  S  S94  1  0.05208139  0.49368848  0.34058574  1
  S  S95  1  0.44791861  0.50631152  0.84058574  1
  S  S96  1  0.50631152  0.84058574  0.44791861  1
  S  S97  1  0.49368848  0.34058574  0.05208139  1
  S  S98  1  0.99368848  0.15941426  0.94791861  1
  S  S99  1  0.00631152  0.65941426  0.55208139  1
  S  S100  1  0.34058574  0.05208139  0.49368848  1
  S  S101  1  0.84058574  0.44791861  0.50631152  1
  S  S102  1  0.65941426  0.55208139  0.00631152  1
  S  S103  1  0.15941426  0.94791861  0.99368848  1
  S  S104  1  0.25631152  0.30208139  0.09058574  1
  S  S105  1  0.24368848  0.69791861  0.59058574  1
  S  S106  1  0.74368848  0.80208139  0.40941426  1
  S  S107  1  0.75631152  0.19791861  0.90941426  1
  S  S108  1  0.09058574  0.25631152  0.30208139  1
  S  S109  1  0.59058574  0.24368848  0.69791861  1
  S  S110  1  0.40941426  0.74368848  0.80208139  1
  S  S111  1  0.90941426  0.75631152  0.19791861  1
  S  S112  1  0.30208139  0.09058574  0.25631152  1
  S  S113  1  0.69791861  0.59058574  0.24368848  1
  S  S114  1  0.80208139  0.40941426  0.74368848  1
  S  S115  1  0.19791861  0.90941426  0.75631152  1
  S  S116  1  0.05208139  0.50631152  0.15941426  1
  S  S117  1  0.44791861  0.49368848  0.65941426  1
  S  S118  1  0.55208139  0.99368848  0.84058574  1
  S  S119  1  0.94791861  0.00631152  0.34058574  1
  S  S120  1  0.00631152  0.34058574  0.94791861  1
  S  S121  1  0.99368848  0.84058574  0.55208139  1
  S  S122  1  0.49368848  0.65941426  0.44791861  1
  S  S123  1  0.50631152  0.15941426  0.05208139  1
  S  S124  1  0.84058574  0.55208139  0.99368848  1
  S  S125  1  0.34058574  0.94791861  0.00631152  1
  S  S126  1  0.15941426  0.05208139  0.50631152  1
  S  S127  1  0.65941426  0.44791861  0.49368848  1
  S  S128  1  0.78561369  0.80774908  0.71804458  1
  S  S129  1  0.71438631  0.19225092  0.21804458  1
  S  S130  1  0.21438631  0.30774908  0.78195542  1
  S  S131  1  0.28561369  0.69225092  0.28195542  1
  S  S132  1  0.71804458  0.78561369  0.80774908  1
  S  S133  1  0.21804458  0.71438631  0.19225092  1
  S  S134  1  0.78195542  0.21438631  0.30774908  1
  S  S135  1  0.28195542  0.28561369  0.69225092  1
  S  S136  1  0.80774908  0.71804458  0.78561369  1
  S  S137  1  0.19225092  0.21804458  0.71438631  1
  S  S138  1  0.30774908  0.78195542  0.21438631  1
  S  S139  1  0.69225092  0.28195542  0.28561369  1
  S  S140  1  0.55774908  0.03561369  0.53195542  1
  S  S141  1  0.94225092  0.96438631  0.03195542  1
  S  S142  1  0.05774908  0.46438631  0.46804458  1
  S  S143  1  0.44225092  0.53561369  0.96804458  1
  S  S144  1  0.53561369  0.96804458  0.44225092  1
  S  S145  1  0.46438631  0.46804458  0.05774908  1
  S  S146  1  0.96438631  0.03195542  0.94225092  1
  S  S147  1  0.03561369  0.53195542  0.55774908  1
  S  S148  1  0.46804458  0.05774908  0.46438631  1
  S  S149  1  0.96804458  0.44225092  0.53561369  1
  S  S150  1  0.53195542  0.55774908  0.03561369  1
  S  S151  1  0.03195542  0.94225092  0.96438631  1
  S  S152  1  0.28561369  0.30774908  0.21804458  1
  S  S153  1  0.21438631  0.69225092  0.71804458  1
  S  S154  1  0.71438631  0.80774908  0.28195542  1
  S  S155  1  0.78561369  0.19225092  0.78195542  1
  S  S156  1  0.21804458  0.28561369  0.30774908  1
  S  S157  1  0.71804458  0.21438631  0.69225092  1
  S  S158  1  0.28195542  0.71438631  0.80774908  1
  S  S159  1  0.78195542  0.78561369  0.19225092  1
  S  S160  1  0.30774908  0.21804458  0.28561369  1
  S  S161  1  0.69225092  0.71804458  0.21438631  1
  S  S162  1  0.80774908  0.28195542  0.71438631  1
  S  S163  1  0.19225092  0.78195542  0.78561369  1
  S  S164  1  0.05774908  0.53561369  0.03195542  1
  S  S165  1  0.44225092  0.46438631  0.53195542  1
  S  S166  1  0.55774908  0.96438631  0.96804458  1
  S  S167  1  0.94225092  0.03561369  0.46804458  1
  S  S168  1  0.03561369  0.46804458  0.94225092  1
  S  S169  1  0.96438631  0.96804458  0.55774908  1
  S  S170  1  0.46438631  0.53195542  0.44225092  1
  S  S171  1  0.53561369  0.03195542  0.05774908  1
  S  S172  1  0.96804458  0.55774908  0.96438631  1
  S  S173  1  0.46804458  0.94225092  0.03561369  1
  S  S174  1  0.03195542  0.05774908  0.53561369  1
  S  S175  1  0.53195542  0.44225092  0.46438631  1
  Sr  Sr176  1  0.87500000  0.87500000  0.87500000  1
  Sr  Sr177  1  0.62500000  0.12500000  0.37500000  1
  Sr  Sr178  1  0.12500000  0.37500000  0.62500000  1
  Sr  Sr179  1  0.37500000  0.62500000  0.12500000  1
  Sr  Sr180  1  0.37500000  0.37500000  0.37500000  1
  Sr  Sr181  1  0.12500000  0.62500000  0.87500000  1
  Sr  Sr182  1  0.62500000  0.87500000  0.12500000  1
  Sr  Sr183  1  0.87500000  0.12500000  0.62500000  1
  Sr  Sr184  1  0.62500000  0.00000000  0.25000000  1
  Sr  Sr185  1  0.87500000  0.00000000  0.75000000  1
  Sr  Sr186  1  0.25000000  0.62500000  0.00000000  1
  Sr  Sr187  1  0.75000000  0.87500000  0.00000000  1
  Sr  Sr188  1  0.00000000  0.25000000  0.62500000  1
  Sr  Sr189  1  0.00000000  0.75000000  0.87500000  1
  Sr  Sr190  1  0.12500000  0.50000000  0.75000000  1
  Sr  Sr191  1  0.37500000  0.50000000  0.25000000  1
  Sr  Sr192  1  0.75000000  0.12500000  0.50000000  1
  Sr  Sr193  1  0.25000000  0.37500000  0.50000000  1
  Sr  Sr194  1  0.50000000  0.75000000  0.12500000  1
  Sr  Sr195  1  0.50000000  0.25000000  0.37500000  1
  Sr  Sr196  1  0.12500000  0.00000000  0.25000000  1
  Sr  Sr197  1  0.37500000  -0.00000000  0.75000000  1
  Sr  Sr198  1  0.25000000  0.12500000  -0.00000000  1
  Sr  Sr199  1  0.75000000  0.37500000  0.00000000  1
  Sr  Sr200  1  0.00000000  0.25000000  0.12500000  1
  Sr  Sr201  1  0.00000000  0.75000000  0.37500000  1
  Sr  Sr202  1  0.62500000  0.50000000  0.75000000  1
  Sr  Sr203  1  0.87500000  0.50000000  0.25000000  1
  Sr  Sr204  1  0.75000000  0.62500000  0.50000000  1
  Sr  Sr205  1  0.25000000  0.87500000  0.50000000  1
  Sr  Sr206  1  0.50000000  0.75000000  0.62500000  1
  Sr  Sr207  1  0.50000000  0.25000000  0.87500000  1
  Ti  Ti208  1  0.12500000  0.63424732  0.61575268  1
  Ti  Ti209  1  0.37500000  0.36575268  0.11575268  1
  Ti  Ti210  1  0.87500000  0.13424732  0.88424732  1
  Ti  Ti211  1  0.62500000  0.86575268  0.38424732  1
  Ti  Ti212  1  0.61575268  0.12500000  0.63424732  1
  Ti  Ti213  1  0.11575268  0.37500000  0.36575268  1
  Ti  Ti214  1  0.88424732  0.87500000  0.13424732  1
  Ti  Ti215  1  0.38424732  0.62500000  0.86575268  1
  Ti  Ti216  1  0.63424732  0.61575268  0.12500000  1
  Ti  Ti217  1  0.36575268  0.11575268  0.37500000  1
  Ti  Ti218  1  0.13424732  0.88424732  0.87500000  1
  Ti  Ti219  1  0.86575268  0.38424732  0.62500000  1
  Ti  Ti220  1  0.62500000  0.13424732  0.11575268  1
  Ti  Ti221  1  0.87500000  0.86575268  0.61575268  1
  Ti  Ti222  1  0.37500000  0.63424732  0.38424732  1
  Ti  Ti223  1  0.12500000  0.36575268  0.88424732  1
  Ti  Ti224  1  0.11575268  0.62500000  0.13424732  1
  Ti  Ti225  1  0.61575268  0.87500000  0.86575268  1
  Ti  Ti226  1  0.38424732  0.37500000  0.63424732  1
  Ti  Ti227  1  0.88424732  0.12500000  0.36575268  1
  Ti  Ti228  1  0.13424732  0.11575268  0.62500000  1
  Ti  Ti229  1  0.86575268  0.61575268  0.87500000  1
  Ti  Ti230  1  0.63424732  0.38424732  0.37500000  1
  Ti  Ti231  1  0.36575268  0.88424732  0.12500000  1
  Ti  Ti232  1  0.12500000  0.21420713  0.46420713  1
  Ti  Ti233  1  0.37500000  0.78579287  0.96420713  1
  Ti  Ti234  1  0.87500000  0.71420713  0.03579287  1
  Ti  Ti235  1  0.62500000  0.28579287  0.53579287  1
  Ti  Ti236  1  0.46420713  0.12500000  0.21420713  1
  Ti  Ti237  1  0.96420713  0.37500000  0.78579287  1
  Ti  Ti238  1  0.03579287  0.87500000  0.71420713  1
  Ti  Ti239  1  0.53579287  0.62500000  0.28579287  1
  Ti  Ti240  1  0.21420713  0.46420713  0.12500000  1
  Ti  Ti241  1  0.78579287  0.96420713  0.37500000  1
  Ti  Ti242  1  0.71420713  0.03579287  0.87500000  1
  Ti  Ti243  1  0.28579287  0.53579287  0.62500000  1
  Ti  Ti244  1  0.62500000  0.71420713  0.96420713  1
  Ti  Ti245  1  0.87500000  0.28579287  0.46420713  1
  Ti  Ti246  1  0.37500000  0.21420713  0.53579287  1
  Ti  Ti247  1  0.12500000  0.78579287  0.03579287  1
  Ti  Ti248  1  0.96420713  0.62500000  0.71420713  1
  Ti  Ti249  1  0.46420713  0.87500000  0.28579287  1
  Ti  Ti250  1  0.53579287  0.37500000  0.21420713  1
  Ti  Ti251  1  0.03579287  0.12500000  0.78579287  1
  Ti  Ti252  1  0.71420713  0.96420713  0.62500000  1
  Ti  Ti253  1  0.28579287  0.46420713  0.87500000  1
  Ti  Ti254  1  0.21420713  0.53579287  0.37500000  1
  Ti  Ti255  1  0.78579287  0.03579287  0.12500000  1
