# generated using pymatgen
data_Li6Ti3P2
_symmetry_space_group_name_H-M   'P 1'
_cell_length_a   3.66181490
_cell_length_b   3.74831591
_cell_length_c   6.13742389
_cell_angle_alpha   93.27261278
_cell_angle_beta   107.05709787
_cell_angle_gamma   114.63493319
_symmetry_Int_Tables_number   1
_chemical_formula_structural   Li6Ti3P2
_chemical_formula_sum   'Li6 Ti3 P2'
_cell_volume   71.62835890
_cell_formula_units_Z   1
loop_
 _symmetry_equiv_pos_site_id
 _symmetry_equiv_pos_as_xyz
  1  'x, y, z'
loop_
 _atom_site_type_symbol
 _atom_site_label
 _atom_site_symmetry_multiplicity
 _atom_site_fract_x
 _atom_site_fract_y
 _atom_site_fract_z
 _atom_site_occupancy
  Li  Li0  1  0.00000000  0.00000000  0.00000000  1
  Li  Li1  1  0.33300000  0.66700000  0.25000000  1
  Li  Li2  1  0.66700000  0.33300000  0.50000000  1
  Li  Li3  1  0.00000000  0.00000000  0.75000000  1
  Li  Li4  1  0.85734036  0.77309606  0.63445946  1
  Li  Li5  1  0.73703209  0.80934042  0.20824067  1
  Ti  Ti6  1  0.21424983  0.97675198  0.26300523  1
  Ti  Ti7  1  0.36936497  0.72551440  0.51357099  1
  Ti  Ti8  1  0.89035696  0.92833747  0.78383066  1
  P  P9  1  0.31652479  0.81174967  0.14623213  1
  P  P10  1  0.64945611  0.76635266  0.20979556  1
