# generated using pymatgen
data_Li6SnS2O3
_symmetry_space_group_name_H-M   'P 1'
_cell_length_a   17.47506841
_cell_length_b   17.47506841
_cell_length_c   17.47506841
_cell_angle_alpha   90.00000000
_cell_angle_beta   90.00000000
_cell_angle_gamma   90.00000000
_symmetry_Int_Tables_number   1
_chemical_formula_structural   Li6SnS2O3
_chemical_formula_sum   'Li192 Sn32 S64 O96'
_cell_volume   5336.50172163
_cell_formula_units_Z   32
loop_
 _symmetry_equiv_pos_site_id
 _symmetry_equiv_pos_as_xyz
  1  'x, y, z'
loop_
 _atom_site_type_symbol
 _atom_site_label
 _atom_site_symmetry_multiplicity
 _atom_site_fract_x
 _atom_site_fract_y
 _atom_site_fract_z
 _atom_site_occupancy
  Li  Li0  1  0.70174151  0.19824168  0.83553916  1
  Li  Li1  1  0.79825849  0.80175832  0.33553916  1
  Li  Li2  1  0.29825849  0.69824168  0.66446084  1
  Li  Li3  1  0.20174151  0.30175832  0.16446084  1
  Li  Li4  1  0.83553916  0.70174151  0.19824168  1
  Li  Li5  1  0.33553916  0.79825849  0.80175832  1
  Li  Li6  1  0.66446084  0.29825849  0.69824168  1
  Li  Li7  1  0.16446084  0.20174151  0.30175832  1
  Li  Li8  1  0.19824168  0.83553916  0.70174151  1
  Li  Li9  1  0.80175832  0.33553916  0.79825849  1
  Li  Li10  1  0.69824168  0.66446084  0.29825849  1
  Li  Li11  1  0.30175832  0.16446084  0.20174151  1
  Li  Li12  1  0.94824168  0.95174151  0.41446084  1
  Li  Li13  1  0.55175832  0.04825849  0.91446084  1
  Li  Li14  1  0.44824168  0.54825849  0.58553916  1
  Li  Li15  1  0.05175832  0.45174151  0.08553916  1
  Li  Li16  1  0.45174151  0.08553916  0.05175832  1
  Li  Li17  1  0.54825849  0.58553916  0.44824168  1
  Li  Li18  1  0.04825849  0.91446084  0.55175832  1
  Li  Li19  1  0.95174151  0.41446084  0.94824168  1
  Li  Li20  1  0.58553916  0.44824168  0.54825849  1
  Li  Li21  1  0.08553916  0.05175832  0.45174151  1
  Li  Li22  1  0.41446084  0.94824168  0.95174151  1
  Li  Li23  1  0.91446084  0.55175832  0.04825849  1
  Li  Li24  1  0.29825849  0.80175832  0.16446084  1
  Li  Li25  1  0.20174151  0.19824168  0.66446084  1
  Li  Li26  1  0.70174151  0.30175832  0.33553916  1
  Li  Li27  1  0.79825849  0.69824168  0.83553916  1
  Li  Li28  1  0.16446084  0.29825849  0.80175832  1
  Li  Li29  1  0.66446084  0.20174151  0.19824168  1
  Li  Li30  1  0.33553916  0.70174151  0.30175832  1
  Li  Li31  1  0.83553916  0.79825849  0.69824168  1
  Li  Li32  1  0.80175832  0.16446084  0.29825849  1
  Li  Li33  1  0.19824168  0.66446084  0.20174151  1
  Li  Li34  1  0.30175832  0.33553916  0.70174151  1
  Li  Li35  1  0.69824168  0.83553916  0.79825849  1
  Li  Li36  1  0.05175832  0.04825849  0.58553916  1
  Li  Li37  1  0.44824168  0.95174151  0.08553916  1
  Li  Li38  1  0.55175832  0.45174151  0.41446084  1
  Li  Li39  1  0.94824168  0.54825849  0.91446084  1
  Li  Li40  1  0.54825849  0.91446084  0.94824168  1
  Li  Li41  1  0.45174151  0.41446084  0.55175832  1
  Li  Li42  1  0.95174151  0.08553916  0.44824168  1
  Li  Li43  1  0.04825849  0.58553916  0.05175832  1
  Li  Li44  1  0.41446084  0.55175832  0.45174151  1
  Li  Li45  1  0.91446084  0.94824168  0.54825849  1
  Li  Li46  1  0.58553916  0.05175832  0.04825849  1
  Li  Li47  1  0.08553916  0.44824168  0.95174151  1
  Li  Li48  1  0.20174151  0.69824168  0.33553916  1
  Li  Li49  1  0.29825849  0.30175832  0.83553916  1
  Li  Li50  1  0.79825849  0.19824168  0.16446084  1
  Li  Li51  1  0.70174151  0.80175832  0.66446084  1
  Li  Li52  1  0.33553916  0.20174151  0.69824168  1
  Li  Li53  1  0.83553916  0.29825849  0.30175832  1
  Li  Li54  1  0.16446084  0.79825849  0.19824168  1
  Li  Li55  1  0.66446084  0.70174151  0.80175832  1
  Li  Li56  1  0.69824168  0.33553916  0.20174151  1
  Li  Li57  1  0.30175832  0.83553916  0.29825849  1
  Li  Li58  1  0.19824168  0.16446084  0.79825849  1
  Li  Li59  1  0.80175832  0.66446084  0.70174151  1
  Li  Li60  1  0.44824168  0.45174151  0.91446084  1
  Li  Li61  1  0.05175832  0.54825849  0.41446084  1
  Li  Li62  1  0.94824168  0.04825849  0.08553916  1
  Li  Li63  1  0.55175832  0.95174151  0.58553916  1
  Li  Li64  1  0.95174151  0.58553916  0.55175832  1
  Li  Li65  1  0.04825849  0.08553916  0.94824168  1
  Li  Li66  1  0.54825849  0.41446084  0.05175832  1
  Li  Li67  1  0.45174151  0.91446084  0.44824168  1
  Li  Li68  1  0.08553916  0.94824168  0.04825849  1
  Li  Li69  1  0.58553916  0.55175832  0.95174151  1
  Li  Li70  1  0.91446084  0.44824168  0.45174151  1
  Li  Li71  1  0.41446084  0.05175832  0.54825849  1
  Li  Li72  1  0.79825849  0.30175832  0.66446084  1
  Li  Li73  1  0.70174151  0.69824168  0.16446084  1
  Li  Li74  1  0.20174151  0.80175832  0.83553916  1
  Li  Li75  1  0.29825849  0.19824168  0.33553916  1
  Li  Li76  1  0.66446084  0.79825849  0.30175832  1
  Li  Li77  1  0.16446084  0.70174151  0.69824168  1
  Li  Li78  1  0.83553916  0.20174151  0.80175832  1
  Li  Li79  1  0.33553916  0.29825849  0.19824168  1
  Li  Li80  1  0.30175832  0.66446084  0.79825849  1
  Li  Li81  1  0.69824168  0.16446084  0.70174151  1
  Li  Li82  1  0.80175832  0.83553916  0.20174151  1
  Li  Li83  1  0.19824168  0.33553916  0.29825849  1
  Li  Li84  1  0.55175832  0.54825849  0.08553916  1
  Li  Li85  1  0.94824168  0.45174151  0.58553916  1
  Li  Li86  1  0.05175832  0.95174151  0.91446084  1
  Li  Li87  1  0.44824168  0.04825849  0.41446084  1
  Li  Li88  1  0.04825849  0.41446084  0.44824168  1
  Li  Li89  1  0.95174151  0.91446084  0.05175832  1
  Li  Li90  1  0.45174151  0.58553916  0.94824168  1
  Li  Li91  1  0.54825849  0.08553916  0.55175832  1
  Li  Li92  1  0.91446084  0.05175832  0.95174151  1
  Li  Li93  1  0.41446084  0.44824168  0.04825849  1
  Li  Li94  1  0.08553916  0.55175832  0.54825849  1
  Li  Li95  1  0.58553916  0.94824168  0.45174151  1
  Li  Li96  1  0.25723073  0.55356496  0.94236184  1
  Li  Li97  1  0.24276927  0.44643504  0.44236184  1
  Li  Li98  1  0.74276927  0.05356496  0.55763816  1
  Li  Li99  1  0.75723073  0.94643504  0.05763816  1
  Li  Li100  1  0.94236184  0.25723073  0.55356496  1
  Li  Li101  1  0.44236184  0.24276927  0.44643504  1
  Li  Li102  1  0.55763816  0.74276927  0.05356496  1
  Li  Li103  1  0.05763816  0.75723073  0.94643504  1
  Li  Li104  1  0.55356496  0.94236184  0.25723073  1
  Li  Li105  1  0.44643504  0.44236184  0.24276927  1
  Li  Li106  1  0.05356496  0.55763816  0.74276927  1
  Li  Li107  1  0.94643504  0.05763816  0.75723073  1
  Li  Li108  1  0.30356496  0.50723073  0.30763816  1
  Li  Li109  1  0.19643504  0.49276927  0.80763816  1
  Li  Li110  1  0.80356496  0.99276927  0.69236184  1
  Li  Li111  1  0.69643504  0.00723073  0.19236184  1
  Li  Li112  1  0.00723073  0.19236184  0.69643504  1
  Li  Li113  1  0.99276927  0.69236184  0.80356496  1
  Li  Li114  1  0.49276927  0.80763816  0.19643504  1
  Li  Li115  1  0.50723073  0.30763816  0.30356496  1
  Li  Li116  1  0.69236184  0.80356496  0.99276927  1
  Li  Li117  1  0.19236184  0.69643504  0.00723073  1
  Li  Li118  1  0.30763816  0.30356496  0.50723073  1
  Li  Li119  1  0.80763816  0.19643504  0.49276927  1
  Li  Li120  1  0.74276927  0.44643504  0.05763816  1
  Li  Li121  1  0.75723073  0.55356496  0.55763816  1
  Li  Li122  1  0.25723073  0.94643504  0.44236184  1
  Li  Li123  1  0.24276927  0.05356496  0.94236184  1
  Li  Li124  1  0.05763816  0.74276927  0.44643504  1
  Li  Li125  1  0.55763816  0.75723073  0.55356496  1
  Li  Li126  1  0.44236184  0.25723073  0.94643504  1
  Li  Li127  1  0.94236184  0.24276927  0.05356496  1
  Li  Li128  1  0.44643504  0.05763816  0.74276927  1
  Li  Li129  1  0.55356496  0.55763816  0.75723073  1
  Li  Li130  1  0.94643504  0.44236184  0.25723073  1
  Li  Li131  1  0.05356496  0.94236184  0.24276927  1
  Li  Li132  1  0.69643504  0.49276927  0.69236184  1
  Li  Li133  1  0.80356496  0.50723073  0.19236184  1
  Li  Li134  1  0.19643504  0.00723073  0.30763816  1
  Li  Li135  1  0.30356496  0.99276927  0.80763816  1
  Li  Li136  1  0.99276927  0.80763816  0.30356496  1
  Li  Li137  1  0.00723073  0.30763816  0.19643504  1
  Li  Li138  1  0.50723073  0.19236184  0.80356496  1
  Li  Li139  1  0.49276927  0.69236184  0.69643504  1
  Li  Li140  1  0.30763816  0.19643504  0.00723073  1
  Li  Li141  1  0.80763816  0.30356496  0.99276927  1
  Li  Li142  1  0.69236184  0.69643504  0.49276927  1
  Li  Li143  1  0.19236184  0.80356496  0.50723073  1
  Li  Li144  1  0.75723073  0.05356496  0.44236184  1
  Li  Li145  1  0.74276927  0.94643504  0.94236184  1
  Li  Li146  1  0.24276927  0.55356496  0.05763816  1
  Li  Li147  1  0.25723073  0.44643504  0.55763816  1
  Li  Li148  1  0.44236184  0.75723073  0.05356496  1
  Li  Li149  1  0.94236184  0.74276927  0.94643504  1
  Li  Li150  1  0.05763816  0.24276927  0.55356496  1
  Li  Li151  1  0.55763816  0.25723073  0.44643504  1
  Li  Li152  1  0.05356496  0.44236184  0.75723073  1
  Li  Li153  1  0.94643504  0.94236184  0.74276927  1
  Li  Li154  1  0.55356496  0.05763816  0.24276927  1
  Li  Li155  1  0.44643504  0.55763816  0.25723073  1
  Li  Li156  1  0.80356496  0.00723073  0.80763816  1
  Li  Li157  1  0.69643504  0.99276927  0.30763816  1
  Li  Li158  1  0.30356496  0.49276927  0.19236184  1
  Li  Li159  1  0.19643504  0.50723073  0.69236184  1
  Li  Li160  1  0.50723073  0.69236184  0.19643504  1
  Li  Li161  1  0.49276927  0.19236184  0.30356496  1
  Li  Li162  1  0.99276927  0.30763816  0.69643504  1
  Li  Li163  1  0.00723073  0.80763816  0.80356496  1
  Li  Li164  1  0.19236184  0.30356496  0.49276927  1
  Li  Li165  1  0.69236184  0.19643504  0.50723073  1
  Li  Li166  1  0.80763816  0.80356496  0.00723073  1
  Li  Li167  1  0.30763816  0.69643504  0.99276927  1
  Li  Li168  1  0.24276927  0.94643504  0.55763816  1
  Li  Li169  1  0.25723073  0.05356496  0.05763816  1
  Li  Li170  1  0.75723073  0.44643504  0.94236184  1
  Li  Li171  1  0.74276927  0.55356496  0.44236184  1
  Li  Li172  1  0.55763816  0.24276927  0.94643504  1
  Li  Li173  1  0.05763816  0.25723073  0.05356496  1
  Li  Li174  1  0.94236184  0.75723073  0.44643504  1
  Li  Li175  1  0.44236184  0.74276927  0.55356496  1
  Li  Li176  1  0.94643504  0.55763816  0.24276927  1
  Li  Li177  1  0.05356496  0.05763816  0.25723073  1
  Li  Li178  1  0.44643504  0.94236184  0.75723073  1
  Li  Li179  1  0.55356496  0.44236184  0.74276927  1
  Li  Li180  1  0.19643504  0.99276927  0.19236184  1
  Li  Li181  1  0.30356496  0.00723073  0.69236184  1
  Li  Li182  1  0.69643504  0.50723073  0.80763816  1
  Li  Li183  1  0.80356496  0.49276927  0.30763816  1
  Li  Li184  1  0.49276927  0.30763816  0.80356496  1
  Li  Li185  1  0.50723073  0.80763816  0.69643504  1
  Li  Li186  1  0.00723073  0.69236184  0.30356496  1
  Li  Li187  1  0.99276927  0.19236184  0.19643504  1
  Li  Li188  1  0.80763816  0.69643504  0.50723073  1
  Li  Li189  1  0.30763816  0.80356496  0.49276927  1
  Li  Li190  1  0.19236184  0.19643504  0.99276927  1
  Li  Li191  1  0.69236184  0.30356496  0.00723073  1
  O  O192  1  0.58279263  0.63638676  0.39095404  1
  O  O193  1  -0.08279263  -0.63638676  0.89095404  1
  O  O194  1  -0.58279263  1.13638676  0.10904596  1
  O  O195  1  1.08279263  -0.13638676  -0.39095404  1
  O  O196  1  0.39095404  0.58279263  0.63638676  1
  O  O197  1  0.89095404  -0.08279263  -0.63638676  1
  O  O198  1  0.10904596  -0.58279263  1.13638676  1
  O  O199  1  -0.39095404  1.08279263  -0.13638676  1
  O  O200  1  0.63638676  0.39095404  0.58279263  1
  O  O201  1  -0.63638676  0.89095404  -0.08279263  1
  O  O202  1  1.13638676  0.10904596  -0.58279263  1
  O  O203  1  -0.13638676  -0.39095404  1.08279263  1
  O  O204  1  1.38638676  0.83279263  -0.14095404  1
  O  O205  1  0.11361324  0.16720737  0.35904596  1
  O  O206  1  0.88638676  -0.33279263  1.14095404  1
  O  O207  1  -0.38638676  1.33279263  0.64095404  1
  O  O208  1  1.33279263  0.64095404  -0.38638676  1
  O  O209  1  -0.33279263  1.14095404  0.88638676  1
  O  O210  1  0.16720737  0.35904596  0.11361324  1
  O  O211  1  0.83279263  -0.14095404  1.38638676  1
  O  O212  1  1.14095404  0.88638676  -0.33279263  1
  O  O213  1  0.64095404  -0.38638676  1.33279263  1
  O  O214  1  -0.14095404  1.38638676  0.83279263  1
  O  O215  1  0.35904596  0.11361324  0.16720737  1
  O  O216  1  -0.58279263  -0.63638676  -0.39095404  1
  O  O217  1  1.08279263  0.63638676  0.10904596  1
  O  O218  1  0.58279263  -0.13638676  0.89095404  1
  O  O219  1  -0.08279263  1.13638676  0.39095404  1
  O  O220  1  -0.39095404  -0.58279263  -0.63638676  1
  O  O221  1  0.10904596  1.08279263  0.63638676  1
  O  O222  1  0.89095404  0.58279263  -0.13638676  1
  O  O223  1  0.39095404  -0.08279263  1.13638676  1
  O  O224  1  -0.63638676  -0.39095404  -0.58279263  1
  O  O225  1  0.63638676  0.10904596  1.08279263  1
  O  O226  1  -0.13638676  0.89095404  0.58279263  1
  O  O227  1  1.13638676  0.39095404  -0.08279263  1
  O  O228  1  -0.38638676  0.16720737  1.14095404  1
  O  O229  1  0.88638676  0.83279263  0.64095404  1
  O  O230  1  0.11361324  1.33279263  -0.14095404  1
  O  O231  1  1.38638676  -0.33279263  0.35904596  1
  O  O232  1  -0.33279263  0.35904596  1.38638676  1
  O  O233  1  1.33279263  -0.14095404  0.11361324  1
  O  O234  1  0.83279263  0.64095404  0.88638676  1
  O  O235  1  0.16720737  1.14095404  -0.38638676  1
  O  O236  1  -0.14095404  0.11361324  1.33279263  1
  O  O237  1  0.35904596  1.38638676  -0.33279263  1
  O  O238  1  1.14095404  -0.38638676  0.16720737  1
  O  O239  1  0.64095404  0.88638676  0.83279263  1
  O  O240  1  1.08279263  1.13638676  0.89095404  1
  O  O241  1  0.41720737  -0.13638676  1.39095404  1
  O  O242  1  -0.08279263  1.63638676  0.60904596  1
  O  O243  1  1.58279263  0.36361324  0.10904596  1
  O  O244  1  0.89095404  1.08279263  1.13638676  1
  O  O245  1  1.39095404  0.41720737  -0.13638676  1
  O  O246  1  0.60904596  -0.08279263  1.63638676  1
  O  O247  1  0.10904596  1.58279263  0.36361324  1
  O  O248  1  1.13638676  0.89095404  1.08279263  1
  O  O249  1  -0.13638676  1.39095404  0.41720737  1
  O  O250  1  1.63638676  0.60904596  -0.08279263  1
  O  O251  1  0.36361324  0.10904596  1.58279263  1
  O  O252  1  1.88638676  1.33279263  0.35904596  1
  O  O253  1  0.61361324  0.66720737  0.85904596  1
  O  O254  1  1.38638676  0.16720737  1.64095404  1
  O  O255  1  0.11361324  1.83279263  1.14095404  1
  O  O256  1  1.83279263  1.14095404  0.11361324  1
  O  O257  1  0.16720737  1.64095404  1.38638676  1
  O  O258  1  0.66720737  0.85904596  0.61361324  1
  O  O259  1  1.33279263  0.35904596  1.88638676  1
  O  O260  1  1.64095404  1.38638676  0.16720737  1
  O  O261  1  1.14095404  0.11361324  1.83279263  1
  O  O262  1  0.35904596  1.88638676  1.33279263  1
  O  O263  1  0.85904596  0.61361324  0.66720737  1
  O  O264  1  -0.08279263  -0.13638676  0.10904596  1
  O  O265  1  1.58279263  1.13638676  0.60904596  1
  O  O266  1  1.08279263  0.36361324  1.39095404  1
  O  O267  1  0.41720737  1.63638676  0.89095404  1
  O  O268  1  0.10904596  -0.08279263  -0.13638676  1
  O  O269  1  0.60904596  1.58279263  1.13638676  1
  O  O270  1  1.39095404  1.08279263  0.36361324  1
  O  O271  1  0.89095404  0.41720737  1.63638676  1
  O  O272  1  -0.13638676  0.10904596  -0.08279263  1
  O  O273  1  1.13638676  0.60904596  1.58279263  1
  O  O274  1  0.36361324  1.39095404  1.08279263  1
  O  O275  1  1.63638676  0.89095404  0.41720737  1
  O  O276  1  0.11361324  0.66720737  1.64095404  1
  O  O277  1  1.38638676  1.33279263  1.14095404  1
  O  O278  1  0.61361324  1.83279263  0.35904596  1
  O  O279  1  1.88638676  0.16720737  0.85904596  1
  O  O280  1  0.16720737  0.85904596  1.88638676  1
  O  O281  1  1.83279263  0.35904596  0.61361324  1
  O  O282  1  1.33279263  1.14095404  1.38638676  1
  O  O283  1  0.66720737  1.64095404  0.11361324  1
  O  O284  1  0.35904596  0.61361324  1.83279263  1
  O  O285  1  0.85904596  1.88638676  0.16720737  1
  O  O286  1  1.64095404  0.11361324  0.66720737  1
  O  O287  1  1.14095404  1.38638676  1.33279263  1
  S  S288  1  0.12500000  0.80024229  0.44975771  1
  S  S289  1  0.37500000  0.19975771  0.94975771  1
  S  S290  1  0.87500000  0.30024229  0.05024229  1
  S  S291  1  0.62500000  0.69975771  0.55024229  1
  S  S292  1  0.44975771  0.12500000  0.80024229  1
  S  S293  1  0.94975771  0.37500000  0.19975771  1
  S  S294  1  0.05024229  0.87500000  0.30024229  1
  S  S295  1  0.55024229  0.62500000  0.69975771  1
  S  S296  1  0.80024229  0.44975771  0.12500000  1
  S  S297  1  0.19975771  0.94975771  0.37500000  1
  S  S298  1  0.30024229  0.05024229  0.87500000  1
  S  S299  1  0.69975771  0.55024229  0.62500000  1
  S  S300  1  0.87500000  0.19975771  0.55024229  1
  S  S301  1  0.62500000  0.80024229  0.05024229  1
  S  S302  1  0.12500000  0.69975771  0.94975771  1
  S  S303  1  0.37500000  0.30024229  0.44975771  1
  S  S304  1  0.55024229  0.87500000  0.19975771  1
  S  S305  1  0.05024229  0.62500000  0.80024229  1
  S  S306  1  0.94975771  0.12500000  0.69975771  1
  S  S307  1  0.44975771  0.37500000  0.30024229  1
  S  S308  1  0.19975771  0.55024229  0.87500000  1
  S  S309  1  0.80024229  0.05024229  0.62500000  1
  S  S310  1  0.69975771  0.94975771  0.12500000  1
  S  S311  1  0.30024229  0.44975771  0.37500000  1
  S  S312  1  0.62500000  0.30024229  0.94975771  1
  S  S313  1  0.87500000  0.69975771  0.44975771  1
  S  S314  1  0.37500000  0.80024229  0.55024229  1
  S  S315  1  0.12500000  0.19975771  0.05024229  1
  S  S316  1  0.94975771  0.62500000  0.30024229  1
  S  S317  1  0.44975771  0.87500000  0.69975771  1
  S  S318  1  0.55024229  0.37500000  0.80024229  1
  S  S319  1  0.05024229  0.12500000  0.19975771  1
  S  S320  1  0.30024229  0.94975771  0.62500000  1
  S  S321  1  0.69975771  0.44975771  0.87500000  1
  S  S322  1  0.80024229  0.55024229  0.37500000  1
  S  S323  1  0.19975771  0.05024229  0.12500000  1
  S  S324  1  0.37500000  0.69975771  0.05024229  1
  S  S325  1  0.12500000  0.30024229  0.55024229  1
  S  S326  1  0.62500000  0.19975771  0.44975771  1
  S  S327  1  0.87500000  0.80024229  0.94975771  1
  S  S328  1  0.05024229  0.37500000  0.69975771  1
  S  S329  1  0.55024229  0.12500000  0.30024229  1
  S  S330  1  0.44975771  0.62500000  0.19975771  1
  S  S331  1  0.94975771  0.87500000  0.80024229  1
  S  S332  1  0.69975771  0.05024229  0.37500000  1
  S  S333  1  0.30024229  0.55024229  0.12500000  1
  S  S334  1  0.19975771  0.44975771  0.62500000  1
  S  S335  1  0.80024229  0.94975771  0.87500000  1
  S  S336  1  0.12500000  0.12500000  0.12500000  1
  S  S337  1  0.37500000  0.87500000  0.62500000  1
  S  S338  1  0.87500000  0.62500000  0.37500000  1
  S  S339  1  0.62500000  0.37500000  0.87500000  1
  S  S340  1  0.87500000  0.87500000  0.87500000  1
  S  S341  1  0.62500000  0.12500000  0.37500000  1
  S  S342  1  0.12500000  0.37500000  0.62500000  1
  S  S343  1  0.37500000  0.62500000  0.12500000  1
  S  S344  1  0.62500000  0.62500000  0.62500000  1
  S  S345  1  0.87500000  0.37500000  0.12500000  1
  S  S346  1  0.37500000  0.12500000  0.87500000  1
  S  S347  1  0.12500000  0.87500000  0.37500000  1
  S  S348  1  0.37500000  0.37500000  0.37500000  1
  S  S349  1  0.12500000  0.62500000  0.87500000  1
  S  S350  1  0.62500000  0.87500000  0.12500000  1
  S  S351  1  0.87500000  0.12500000  0.62500000  1
  Sn  Sn352  1  0.46072920  0.46072920  0.46072920  1
  Sn  Sn353  1  0.03927080  0.53927080  0.96072920  1
  Sn  Sn354  1  0.53927080  0.96072920  0.03927080  1
  Sn  Sn355  1  0.96072920  0.03927080  0.53927080  1
  Sn  Sn356  1  0.21072920  0.71072920  0.78927080  1
  Sn  Sn357  1  0.28927080  0.28927080  0.28927080  1
  Sn  Sn358  1  0.71072920  0.78927080  0.21072920  1
  Sn  Sn359  1  0.78927080  0.21072920  0.71072920  1
  Sn  Sn360  1  0.53927080  0.53927080  0.53927080  1
  Sn  Sn361  1  0.96072920  0.46072920  0.03927080  1
  Sn  Sn362  1  0.46072920  0.03927080  0.96072920  1
  Sn  Sn363  1  0.03927080  0.96072920  0.46072920  1
  Sn  Sn364  1  0.78927080  0.28927080  0.21072920  1
  Sn  Sn365  1  0.71072920  0.71072920  0.71072920  1
  Sn  Sn366  1  0.28927080  0.21072920  0.78927080  1
  Sn  Sn367  1  0.21072920  0.78927080  0.28927080  1
  Sn  Sn368  1  0.96072920  0.96072920  0.96072920  1
  Sn  Sn369  1  0.53927080  0.03927080  0.46072920  1
  Sn  Sn370  1  0.03927080  0.46072920  0.53927080  1
  Sn  Sn371  1  0.46072920  0.53927080  0.03927080  1
  Sn  Sn372  1  0.71072920  0.21072920  0.28927080  1
  Sn  Sn373  1  0.78927080  0.78927080  0.78927080  1
  Sn  Sn374  1  0.21072920  0.28927080  0.71072920  1
  Sn  Sn375  1  0.28927080  0.71072920  0.21072920  1
  Sn  Sn376  1  0.03927080  0.03927080  0.03927080  1
  Sn  Sn377  1  0.46072920  0.96072920  0.53927080  1
  Sn  Sn378  1  0.96072920  0.53927080  0.46072920  1
  Sn  Sn379  1  0.53927080  0.46072920  0.96072920  1
  Sn  Sn380  1  0.28927080  0.78927080  0.71072920  1
  Sn  Sn381  1  0.21072920  0.21072920  0.21072920  1
  Sn  Sn382  1  0.78927080  0.71072920  0.28927080  1
  Sn  Sn383  1  0.71072920  0.28927080  0.78927080  1
