# generated using pymatgen
data_MgS
_symmetry_space_group_name_H-M   'P 1'
_cell_length_a   20.77661536
_cell_length_b   20.77661536
_cell_length_c   20.77661536
_cell_angle_alpha   90.00000000
_cell_angle_beta   90.00000000
_cell_angle_gamma   90.00000000
_symmetry_Int_Tables_number   1
_chemical_formula_structural   MgS
_chemical_formula_sum   'Mg288 S288'
_cell_volume   8968.59471402
_cell_formula_units_Z   288
loop_
 _symmetry_equiv_pos_site_id
 _symmetry_equiv_pos_as_xyz
  1  'x, y, z'
loop_
 _atom_site_type_symbol
 _atom_site_label
 _atom_site_symmetry_multiplicity
 _atom_site_fract_x
 _atom_site_fract_y
 _atom_site_fract_z
 _atom_site_occupancy
  Mg  Mg0  1  0.00000000  0.05185646  0.94814354  1
  Mg  Mg1  1  0.75000000  0.19814354  0.44814354  1
  Mg  Mg2  1  0.25000000  0.55185646  0.80185646  1
  Mg  Mg3  1  0.50000000  0.69814354  0.30185646  1
  Mg  Mg4  1  0.94814354  0.00000000  0.05185646  1
  Mg  Mg5  1  0.44814354  0.75000000  0.19814354  1
  Mg  Mg6  1  0.80185646  0.25000000  0.55185646  1
  Mg  Mg7  1  0.30185646  0.50000000  0.69814354  1
  Mg  Mg8  1  0.05185646  0.94814354  0.00000000  1
  Mg  Mg9  1  0.19814354  0.44814354  0.75000000  1
  Mg  Mg10  1  0.55185646  0.80185646  0.25000000  1
  Mg  Mg11  1  0.69814354  0.30185646  0.50000000  1
  Mg  Mg12  1  0.00000000  0.94814354  0.05185646  1
  Mg  Mg13  1  0.25000000  0.80185646  0.55185646  1
  Mg  Mg14  1  0.75000000  0.44814354  0.19814354  1
  Mg  Mg15  1  0.50000000  0.30185646  0.69814354  1
  Mg  Mg16  1  0.05185646  0.00000000  0.94814354  1
  Mg  Mg17  1  0.55185646  0.25000000  0.80185646  1
  Mg  Mg18  1  0.19814354  0.75000000  0.44814354  1
  Mg  Mg19  1  0.69814354  0.50000000  0.30185646  1
  Mg  Mg20  1  0.94814354  0.05185646  -0.00000000  1
  Mg  Mg21  1  0.80185646  0.55185646  0.25000000  1
  Mg  Mg22  1  0.44814354  0.19814354  0.75000000  1
  Mg  Mg23  1  0.30185646  0.69814354  0.50000000  1
  Mg  Mg24  1  0.00000000  0.55185646  0.44814354  1
  Mg  Mg25  1  0.75000000  0.69814354  0.94814354  1
  Mg  Mg26  1  0.25000000  0.05185646  0.30185646  1
  Mg  Mg27  1  0.50000000  0.19814354  0.80185646  1
  Mg  Mg28  1  0.94814354  0.50000000  0.55185646  1
  Mg  Mg29  1  0.44814354  0.25000000  0.69814354  1
  Mg  Mg30  1  0.80185646  0.75000000  0.05185646  1
  Mg  Mg31  1  0.30185646  0.00000000  0.19814354  1
  Mg  Mg32  1  0.05185646  0.44814354  0.50000000  1
  Mg  Mg33  1  0.19814354  0.94814354  0.25000000  1
  Mg  Mg34  1  0.55185646  0.30185646  0.75000000  1
  Mg  Mg35  1  0.69814354  0.80185646  0.00000000  1
  Mg  Mg36  1  0.00000000  0.44814354  0.55185646  1
  Mg  Mg37  1  0.25000000  0.30185646  0.05185646  1
  Mg  Mg38  1  0.75000000  0.94814354  0.69814354  1
  Mg  Mg39  1  0.50000000  0.80185646  0.19814354  1
  Mg  Mg40  1  0.05185646  0.50000000  0.44814354  1
  Mg  Mg41  1  0.55185646  0.75000000  0.30185646  1
  Mg  Mg42  1  0.19814354  0.25000000  0.94814354  1
  Mg  Mg43  1  0.69814354  0.00000000  0.80185646  1
  Mg  Mg44  1  0.94814354  0.55185646  0.50000000  1
  Mg  Mg45  1  0.80185646  0.05185646  0.75000000  1
  Mg  Mg46  1  0.44814354  0.69814354  0.25000000  1
  Mg  Mg47  1  0.30185646  0.19814354  0.00000000  1
  Mg  Mg48  1  0.50000000  0.05185646  0.44814354  1
  Mg  Mg49  1  0.25000000  0.19814354  0.94814354  1
  Mg  Mg50  1  0.75000000  0.55185646  0.30185646  1
  Mg  Mg51  1  0.00000000  0.69814354  0.80185646  1
  Mg  Mg52  1  0.44814354  0.00000000  0.55185646  1
  Mg  Mg53  1  0.94814354  0.75000000  0.69814354  1
  Mg  Mg54  1  0.30185646  0.25000000  0.05185646  1
  Mg  Mg55  1  0.80185646  0.50000000  0.19814354  1
  Mg  Mg56  1  0.55185646  0.94814354  0.50000000  1
  Mg  Mg57  1  0.69814354  0.44814354  0.25000000  1
  Mg  Mg58  1  0.05185646  0.80185646  0.75000000  1
  Mg  Mg59  1  0.19814354  0.30185646  0.00000000  1
  Mg  Mg60  1  0.50000000  0.94814354  0.55185646  1
  Mg  Mg61  1  0.75000000  0.80185646  0.05185646  1
  Mg  Mg62  1  0.25000000  0.44814354  0.69814354  1
  Mg  Mg63  1  0.00000000  0.30185646  0.19814354  1
  Mg  Mg64  1  0.55185646  0.00000000  0.44814354  1
  Mg  Mg65  1  0.05185646  0.25000000  0.30185646  1
  Mg  Mg66  1  0.69814354  0.75000000  0.94814354  1
  Mg  Mg67  1  0.19814354  0.50000000  0.80185646  1
  Mg  Mg68  1  0.44814354  0.05185646  0.50000000  1
  Mg  Mg69  1  0.30185646  0.55185646  0.75000000  1
  Mg  Mg70  1  0.94814354  0.19814354  0.25000000  1
  Mg  Mg71  1  0.80185646  0.69814354  0.00000000  1
  Mg  Mg72  1  0.50000000  0.55185646  0.94814354  1
  Mg  Mg73  1  0.25000000  0.69814354  0.44814354  1
  Mg  Mg74  1  0.75000000  0.05185646  0.80185646  1
  Mg  Mg75  1  0.00000000  0.19814354  0.30185646  1
  Mg  Mg76  1  0.44814354  0.50000000  0.05185646  1
  Mg  Mg77  1  0.94814354  0.25000000  0.19814354  1
  Mg  Mg78  1  0.30185646  0.75000000  0.55185646  1
  Mg  Mg79  1  0.80185646  -0.00000000  0.69814354  1
  Mg  Mg80  1  0.55185646  0.44814354  0.00000000  1
  Mg  Mg81  1  0.69814354  0.94814354  0.75000000  1
  Mg  Mg82  1  0.05185646  0.30185646  0.25000000  1
  Mg  Mg83  1  0.19814354  0.80185646  0.50000000  1
  Mg  Mg84  1  0.50000000  0.44814354  0.05185646  1
  Mg  Mg85  1  0.75000000  0.30185646  0.55185646  1
  Mg  Mg86  1  0.25000000  0.94814354  0.19814354  1
  Mg  Mg87  1  0.00000000  0.80185646  0.69814354  1
  Mg  Mg88  1  0.55185646  0.50000000  0.94814354  1
  Mg  Mg89  1  0.05185646  0.75000000  0.80185646  1
  Mg  Mg90  1  0.69814354  0.25000000  0.44814354  1
  Mg  Mg91  1  0.19814354  0.00000000  0.30185646  1
  Mg  Mg92  1  0.44814354  0.55185646  0.00000000  1
  Mg  Mg93  1  0.30185646  0.05185646  0.25000000  1
  Mg  Mg94  1  0.94814354  0.69814354  0.75000000  1
  Mg  Mg95  1  0.80185646  0.19814354  0.50000000  1
  Mg  Mg96  1  0.83707057  0.83707057  0.74979089  1
  Mg  Mg97  1  0.91292943  0.41292943  0.24979089  1
  Mg  Mg98  1  0.41292943  0.33707057  0.00020911  1
  Mg  Mg99  1  0.33707057  0.91292943  0.50020911  1
  Mg  Mg100  1  0.74979089  0.83707057  0.83707057  1
  Mg  Mg101  1  0.24979089  0.91292943  0.41292943  1
  Mg  Mg102  1  0.00020911  0.41292943  0.33707057  1
  Mg  Mg103  1  0.50020911  0.33707057  0.91292943  1
  Mg  Mg104  1  0.83707057  0.74979089  0.83707057  1
  Mg  Mg105  1  0.41292943  0.24979089  0.91292943  1
  Mg  Mg106  1  0.33707057  0.00020911  0.41292943  1
  Mg  Mg107  1  0.91292943  0.50020911  0.33707057  1
  Mg  Mg108  1  0.58707057  0.08707057  0.75020911  1
  Mg  Mg109  1  0.16292943  0.16292943  0.25020911  1
  Mg  Mg110  1  0.08707057  0.66292943  0.49979089  1
  Mg  Mg111  1  0.66292943  0.58707057  0.99979089  1
  Mg  Mg112  1  0.58707057  0.99979089  0.66292943  1
  Mg  Mg113  1  0.66292943  0.49979089  0.08707057  1
  Mg  Mg114  1  0.16292943  0.25020911  0.16292943  1
  Mg  Mg115  1  0.08707057  0.75020911  0.58707057  1
  Mg  Mg116  1  0.49979089  0.08707057  0.66292943  1
  Mg  Mg117  1  0.99979089  0.66292943  0.58707057  1
  Mg  Mg118  1  0.75020911  0.58707057  0.08707057  1
  Mg  Mg119  1  0.25020911  0.16292943  0.16292943  1
  Mg  Mg120  1  0.83707057  0.33707057  0.24979089  1
  Mg  Mg121  1  0.91292943  0.91292943  0.74979089  1
  Mg  Mg122  1  0.41292943  0.83707057  0.50020911  1
  Mg  Mg123  1  0.33707057  0.41292943  0.00020911  1
  Mg  Mg124  1  0.74979089  0.33707057  0.33707057  1
  Mg  Mg125  1  0.24979089  0.41292943  0.91292943  1
  Mg  Mg126  1  0.00020911  0.91292943  0.83707057  1
  Mg  Mg127  1  0.50020911  0.83707057  0.41292943  1
  Mg  Mg128  1  0.83707057  0.24979089  0.33707057  1
  Mg  Mg129  1  0.41292943  0.74979089  0.41292943  1
  Mg  Mg130  1  0.33707057  0.50020911  0.91292943  1
  Mg  Mg131  1  0.91292943  0.00020911  0.83707057  1
  Mg  Mg132  1  0.58707057  0.58707057  0.25020911  1
  Mg  Mg133  1  0.16292943  0.66292943  0.75020911  1
  Mg  Mg134  1  0.08707057  0.16292943  0.99979089  1
  Mg  Mg135  1  0.66292943  0.08707057  0.49979089  1
  Mg  Mg136  1  0.58707057  0.49979089  0.16292943  1
  Mg  Mg137  1  0.66292943  0.99979089  0.58707057  1
  Mg  Mg138  1  0.16292943  0.75020911  0.66292943  1
  Mg  Mg139  1  0.08707057  0.25020911  0.08707057  1
  Mg  Mg140  1  0.49979089  0.58707057  0.16292943  1
  Mg  Mg141  1  0.99979089  0.16292943  0.08707057  1
  Mg  Mg142  1  0.75020911  0.08707057  0.58707057  1
  Mg  Mg143  1  0.25020911  0.66292943  0.66292943  1
  Mg  Mg144  1  0.33707057  0.83707057  0.24979089  1
  Mg  Mg145  1  0.41292943  0.41292943  0.74979089  1
  Mg  Mg146  1  0.91292943  0.33707057  0.50020911  1
  Mg  Mg147  1  0.83707057  0.91292943  0.00020911  1
  Mg  Mg148  1  0.24979089  0.83707057  0.33707057  1
  Mg  Mg149  1  0.74979089  0.91292943  0.91292943  1
  Mg  Mg150  1  0.50020911  0.41292943  0.83707057  1
  Mg  Mg151  1  0.00020911  0.33707057  0.41292943  1
  Mg  Mg152  1  0.33707057  0.74979089  0.33707057  1
  Mg  Mg153  1  0.91292943  0.24979089  0.41292943  1
  Mg  Mg154  1  0.83707057  0.00020911  0.91292943  1
  Mg  Mg155  1  0.41292943  0.50020911  0.83707057  1
  Mg  Mg156  1  0.08707057  0.08707057  0.25020911  1
  Mg  Mg157  1  0.66292943  0.16292943  0.75020911  1
  Mg  Mg158  1  0.58707057  0.66292943  0.99979089  1
  Mg  Mg159  1  0.16292943  0.58707057  0.49979089  1
  Mg  Mg160  1  0.08707057  0.99979089  0.16292943  1
  Mg  Mg161  1  0.16292943  0.49979089  0.58707057  1
  Mg  Mg162  1  0.66292943  0.25020911  0.66292943  1
  Mg  Mg163  1  0.58707057  0.75020911  0.08707057  1
  Mg  Mg164  1  0.99979089  0.08707057  0.16292943  1
  Mg  Mg165  1  0.49979089  0.66292943  0.08707057  1
  Mg  Mg166  1  0.25020911  0.58707057  0.58707057  1
  Mg  Mg167  1  0.75020911  0.16292943  0.66292943  1
  Mg  Mg168  1  0.33707057  0.33707057  0.74979089  1
  Mg  Mg169  1  0.41292943  0.91292943  0.24979089  1
  Mg  Mg170  1  0.91292943  0.83707057  0.00020911  1
  Mg  Mg171  1  0.83707057  0.41292943  0.50020911  1
  Mg  Mg172  1  0.24979089  0.33707057  0.83707057  1
  Mg  Mg173  1  0.74979089  0.41292943  0.41292943  1
  Mg  Mg174  1  0.50020911  0.91292943  0.33707057  1
  Mg  Mg175  1  0.00020911  0.83707057  0.91292943  1
  Mg  Mg176  1  0.33707057  0.24979089  0.83707057  1
  Mg  Mg177  1  0.91292943  0.74979089  0.91292943  1
  Mg  Mg178  1  0.83707057  0.50020911  0.41292943  1
  Mg  Mg179  1  0.41292943  0.00020911  0.33707057  1
  Mg  Mg180  1  0.08707057  0.58707057  0.75020911  1
  Mg  Mg181  1  0.66292943  0.66292943  0.25020911  1
  Mg  Mg182  1  0.58707057  0.16292943  0.49979089  1
  Mg  Mg183  1  0.16292943  0.08707057  0.99979089  1
  Mg  Mg184  1  0.08707057  0.49979089  0.66292943  1
  Mg  Mg185  1  0.16292943  0.99979089  0.08707057  1
  Mg  Mg186  1  0.66292943  0.75020911  0.16292943  1
  Mg  Mg187  1  0.58707057  0.25020911  0.58707057  1
  Mg  Mg188  1  0.99979089  0.58707057  0.66292943  1
  Mg  Mg189  1  0.49979089  0.16292943  0.58707057  1
  Mg  Mg190  1  0.25020911  0.08707057  0.08707057  1
  Mg  Mg191  1  0.75020911  0.66292943  0.16292943  1
  Mg  Mg192  1  0.55857965  0.55857965  0.44798361  1
  Mg  Mg193  1  0.19142035  0.69142035  0.94798361  1
  Mg  Mg194  1  0.69142035  0.05857965  0.30201639  1
  Mg  Mg195  1  0.05857965  0.19142035  0.80201639  1
  Mg  Mg196  1  0.44798361  0.55857965  0.55857965  1
  Mg  Mg197  1  0.94798361  0.19142035  0.69142035  1
  Mg  Mg198  1  0.30201639  0.69142035  0.05857965  1
  Mg  Mg199  1  0.80201639  0.05857965  0.19142035  1
  Mg  Mg200  1  0.55857965  0.44798361  0.55857965  1
  Mg  Mg201  1  0.69142035  0.94798361  0.19142035  1
  Mg  Mg202  1  0.05857965  0.30201639  0.69142035  1
  Mg  Mg203  1  0.19142035  0.80201639  0.05857965  1
  Mg  Mg204  1  0.30857965  0.80857965  0.05201639  1
  Mg  Mg205  1  0.44142035  0.44142035  0.55201639  1
  Mg  Mg206  1  0.80857965  0.94142035  0.19798361  1
  Mg  Mg207  1  0.94142035  0.30857965  0.69798361  1
  Mg  Mg208  1  0.30857965  0.69798361  0.94142035  1
  Mg  Mg209  1  0.94142035  0.19798361  0.80857965  1
  Mg  Mg210  1  0.44142035  0.55201639  0.44142035  1
  Mg  Mg211  1  0.80857965  0.05201639  0.30857965  1
  Mg  Mg212  1  0.19798361  0.80857965  0.94142035  1
  Mg  Mg213  1  0.69798361  0.94142035  0.30857965  1
  Mg  Mg214  1  0.05201639  0.30857965  0.80857965  1
  Mg  Mg215  1  0.55201639  0.44142035  0.44142035  1
  Mg  Mg216  1  0.55857965  0.05857965  0.94798361  1
  Mg  Mg217  1  0.19142035  0.19142035  0.44798361  1
  Mg  Mg218  1  0.69142035  0.55857965  0.80201639  1
  Mg  Mg219  1  0.05857965  0.69142035  0.30201639  1
  Mg  Mg220  1  0.44798361  0.05857965  0.05857965  1
  Mg  Mg221  1  0.94798361  0.69142035  0.19142035  1
  Mg  Mg222  1  0.30201639  0.19142035  0.55857965  1
  Mg  Mg223  1  0.80201639  0.55857965  0.69142035  1
  Mg  Mg224  1  0.55857965  0.94798361  0.05857965  1
  Mg  Mg225  1  0.69142035  0.44798361  0.69142035  1
  Mg  Mg226  1  0.05857965  0.80201639  0.19142035  1
  Mg  Mg227  1  0.19142035  0.30201639  0.55857965  1
  Mg  Mg228  1  0.30857965  0.30857965  0.55201639  1
  Mg  Mg229  1  0.44142035  0.94142035  0.05201639  1
  Mg  Mg230  1  0.80857965  0.44142035  0.69798361  1
  Mg  Mg231  1  0.94142035  0.80857965  0.19798361  1
  Mg  Mg232  1  0.30857965  0.19798361  0.44142035  1
  Mg  Mg233  1  0.94142035  0.69798361  0.30857965  1
  Mg  Mg234  1  0.44142035  0.05201639  0.94142035  1
  Mg  Mg235  1  0.80857965  0.55201639  0.80857965  1
  Mg  Mg236  1  0.19798361  0.30857965  0.44142035  1
  Mg  Mg237  1  0.69798361  0.44142035  0.80857965  1
  Mg  Mg238  1  0.05201639  0.80857965  0.30857965  1
  Mg  Mg239  1  0.55201639  0.94142035  0.94142035  1
  Mg  Mg240  1  0.05857965  0.55857965  0.94798361  1
  Mg  Mg241  1  0.69142035  0.69142035  0.44798361  1
  Mg  Mg242  1  0.19142035  0.05857965  0.80201639  1
  Mg  Mg243  1  0.55857965  0.19142035  0.30201639  1
  Mg  Mg244  1  0.94798361  0.55857965  0.05857965  1
  Mg  Mg245  1  0.44798361  0.19142035  0.19142035  1
  Mg  Mg246  1  0.80201639  0.69142035  0.55857965  1
  Mg  Mg247  1  0.30201639  0.05857965  0.69142035  1
  Mg  Mg248  1  0.05857965  0.44798361  0.05857965  1
  Mg  Mg249  1  0.19142035  0.94798361  0.69142035  1
  Mg  Mg250  1  0.55857965  0.30201639  0.19142035  1
  Mg  Mg251  1  0.69142035  0.80201639  0.55857965  1
  Mg  Mg252  1  0.80857965  0.80857965  0.55201639  1
  Mg  Mg253  1  0.94142035  0.44142035  0.05201639  1
  Mg  Mg254  1  0.30857965  0.94142035  0.69798361  1
  Mg  Mg255  1  0.44142035  0.30857965  0.19798361  1
  Mg  Mg256  1  0.80857965  0.69798361  0.44142035  1
  Mg  Mg257  1  0.44142035  0.19798361  0.30857965  1
  Mg  Mg258  1  0.94142035  0.55201639  0.94142035  1
  Mg  Mg259  1  0.30857965  0.05201639  0.80857965  1
  Mg  Mg260  1  0.69798361  0.80857965  0.44142035  1
  Mg  Mg261  1  0.19798361  0.94142035  0.80857965  1
  Mg  Mg262  1  0.55201639  0.30857965  0.30857965  1
  Mg  Mg263  1  0.05201639  0.44142035  0.94142035  1
  Mg  Mg264  1  0.05857965  0.05857965  0.44798361  1
  Mg  Mg265  1  0.69142035  0.19142035  0.94798361  1
  Mg  Mg266  1  0.19142035  0.55857965  0.30201639  1
  Mg  Mg267  1  0.55857965  0.69142035  0.80201639  1
  Mg  Mg268  1  0.94798361  0.05857965  0.55857965  1
  Mg  Mg269  1  0.44798361  0.69142035  0.69142035  1
  Mg  Mg270  1  0.80201639  0.19142035  0.05857965  1
  Mg  Mg271  1  0.30201639  0.55857965  0.19142035  1
  Mg  Mg272  1  0.05857965  0.94798361  0.55857965  1
  Mg  Mg273  1  0.19142035  0.44798361  0.19142035  1
  Mg  Mg274  1  0.55857965  0.80201639  0.69142035  1
  Mg  Mg275  1  0.69142035  0.30201639  0.05857965  1
  Mg  Mg276  1  0.80857965  0.30857965  0.05201639  1
  Mg  Mg277  1  0.94142035  0.94142035  0.55201639  1
  Mg  Mg278  1  0.30857965  0.44142035  0.19798361  1
  Mg  Mg279  1  0.44142035  0.80857965  0.69798361  1
  Mg  Mg280  1  0.80857965  0.19798361  0.94142035  1
  Mg  Mg281  1  0.44142035  0.69798361  0.80857965  1
  Mg  Mg282  1  0.94142035  0.05201639  0.44142035  1
  Mg  Mg283  1  0.30857965  0.55201639  0.30857965  1
  Mg  Mg284  1  0.69798361  0.30857965  0.94142035  1
  Mg  Mg285  1  0.19798361  0.44142035  0.30857965  1
  Mg  Mg286  1  0.55201639  0.80857965  0.80857965  1
  Mg  Mg287  1  0.05201639  0.94142035  0.44142035  1
  S  S288  1  0.37500000  0.37500000  0.37500000  1
  S  S289  1  0.12500000  0.62500000  0.12500000  1
  S  S290  1  0.37500000  0.87500000  0.87500000  1
  S  S291  1  0.12500000  0.12500000  0.62500000  1
  S  S292  1  0.87500000  0.37500000  0.87500000  1
  S  S293  1  0.62500000  0.62500000  0.62500000  1
  S  S294  1  0.87500000  0.87500000  0.37500000  1
  S  S295  1  0.62500000  0.12500000  0.12500000  1
  S  S296  1  0.80376845  0.37363770  0.05884499  1
  S  S297  1  -0.05376845  -0.12363770  0.55884499  1
  S  S298  1  -0.55376845  0.87363770  0.69115501  1
  S  S299  1  1.30376845  0.37636230  0.19115501  1
  S  S300  1  0.05884499  0.80376845  0.37363770  1
  S  S301  1  0.55884499  -0.05376845  -0.12363770  1
  S  S302  1  0.69115501  -0.55376845  0.87363770  1
  S  S303  1  0.19115501  1.30376845  0.37636230  1
  S  S304  1  0.37363770  0.05884499  0.80376845  1
  S  S305  1  -0.12363770  0.55884499  -0.05376845  1
  S  S306  1  0.87363770  0.69115501  -0.55376845  1
  S  S307  1  0.37636230  0.19115501  1.30376845  1
  S  S308  1  1.12363770  1.05376845  0.44115501  1
  S  S309  1  -0.37363770  -0.80376845  -0.05884499  1
  S  S310  1  0.62363770  -0.30376845  0.80884499  1
  S  S311  1  0.12636230  1.55376845  0.30884499  1
  S  S312  1  1.55376845  0.30884499  0.12636230  1
  S  S313  1  -0.30376845  0.80884499  0.62363770  1
  S  S314  1  -0.80376845  -0.05884499  -0.37363770  1
  S  S315  1  1.05376845  0.44115501  1.12363770  1
  S  S316  1  0.80884499  0.62363770  -0.30376845  1
  S  S317  1  0.30884499  0.12636230  1.55376845  1
  S  S318  1  0.44115501  1.12363770  1.05376845  1
  S  S319  1  -0.05884499  -0.37363770  -0.80376845  1
  S  S320  1  -0.80376845  -0.37363770  -0.05884499  1
  S  S321  1  1.05376845  1.12363770  0.44115501  1
  S  S322  1  1.55376845  0.12636230  0.30884499  1
  S  S323  1  -0.30376845  0.62363770  0.80884499  1
  S  S324  1  -0.05884499  -0.80376845  -0.37363770  1
  S  S325  1  0.44115501  1.05376845  1.12363770  1
  S  S326  1  0.30884499  1.55376845  0.12636230  1
  S  S327  1  0.80884499  -0.30376845  0.62363770  1
  S  S328  1  -0.37363770  -0.05884499  -0.80376845  1
  S  S329  1  1.12363770  0.44115501  1.05376845  1
  S  S330  1  0.12636230  0.30884499  1.55376845  1
  S  S331  1  0.62363770  0.80884499  -0.30376845  1
  S  S332  1  -0.12363770  -0.05376845  0.55884499  1
  S  S333  1  0.37363770  0.80376845  0.05884499  1
  S  S334  1  0.37636230  1.30376845  0.19115501  1
  S  S335  1  0.87363770  -0.55376845  0.69115501  1
  S  S336  1  -0.55376845  0.69115501  0.87363770  1
  S  S337  1  1.30376845  0.19115501  0.37636230  1
  S  S338  1  0.80376845  0.05884499  0.37363770  1
  S  S339  1  -0.05376845  0.55884499  -0.12363770  1
  S  S340  1  0.19115501  0.37636230  1.30376845  1
  S  S341  1  0.69115501  0.87363770  -0.55376845  1
  S  S342  1  0.55884499  -0.12363770  -0.05376845  1
  S  S343  1  0.05884499  0.37363770  0.80376845  1
  S  S344  1  0.80376845  0.87363770  0.55884499  1
  S  S345  1  -0.05376845  0.37636230  1.05884499  1
  S  S346  1  -0.55376845  1.37363770  1.19115501  1
  S  S347  1  1.30376845  0.87636230  0.69115501  1
  S  S348  1  0.05884499  1.30376845  0.87363770  1
  S  S349  1  0.55884499  0.44623155  0.37636230  1
  S  S350  1  0.69115501  -0.05376845  1.37363770  1
  S  S351  1  0.19115501  1.80376845  0.87636230  1
  S  S352  1  0.37363770  0.55884499  1.30376845  1
  S  S353  1  -0.12363770  1.05884499  0.44623155  1
  S  S354  1  0.87363770  1.19115501  -0.05376845  1
  S  S355  1  0.37636230  0.69115501  1.80376845  1
  S  S356  1  1.12363770  1.55376845  0.94115501  1
  S  S357  1  -0.37363770  -0.30376845  0.44115501  1
  S  S358  1  0.62363770  0.19623155  1.30884499  1
  S  S359  1  0.12636230  2.05376845  0.80884499  1
  S  S360  1  1.55376845  0.80884499  0.62636230  1
  S  S361  1  -0.30376845  1.30884499  1.12363770  1
  S  S362  1  -0.80376845  0.44115501  0.12636230  1
  S  S363  1  1.05376845  0.94115501  1.62363770  1
  S  S364  1  0.80884499  1.12363770  0.19623155  1
  S  S365  1  0.30884499  0.62636230  2.05376845  1
  S  S366  1  0.44115501  1.62363770  1.55376845  1
  S  S367  1  -0.05884499  0.12636230  -0.30376845  1
  S  S368  1  -0.80376845  0.12636230  0.44115501  1
  S  S369  1  1.05376845  1.62363770  0.94115501  1
  S  S370  1  1.55376845  0.62636230  0.80884499  1
  S  S371  1  -0.30376845  1.12363770  1.30884499  1
  S  S372  1  -0.05884499  -0.30376845  0.12636230  1
  S  S373  1  0.44115501  1.55376845  1.62363770  1
  S  S374  1  0.30884499  2.05376845  0.62636230  1
  S  S375  1  0.80884499  0.19623155  1.12363770  1
  S  S376  1  -0.37363770  0.44115501  -0.30376845  1
  S  S377  1  1.12363770  0.94115501  1.55376845  1
  S  S378  1  0.12636230  0.80884499  2.05376845  1
  S  S379  1  0.62363770  1.30884499  0.19623155  1
  S  S380  1  -0.12363770  0.44623155  1.05884499  1
  S  S381  1  0.37363770  1.30376845  0.55884499  1
  S  S382  1  0.37636230  1.80376845  0.69115501  1
  S  S383  1  0.87363770  -0.05376845  1.19115501  1
  S  S384  1  -0.55376845  1.19115501  1.37363770  1
  S  S385  1  1.30376845  0.69115501  0.87636230  1
  S  S386  1  0.80376845  0.55884499  0.87363770  1
  S  S387  1  -0.05376845  1.05884499  0.37636230  1
  S  S388  1  0.19115501  0.87636230  1.80376845  1
  S  S389  1  0.69115501  1.37363770  -0.05376845  1
  S  S390  1  0.55884499  0.37636230  0.44623155  1
  S  S391  1  0.05884499  0.87363770  1.30376845  1
  S  S392  1  1.30376845  0.37363770  0.55884499  1
  S  S393  1  0.44623155  -0.12363770  1.05884499  1
  S  S394  1  -0.05376845  0.87363770  1.19115501  1
  S  S395  1  1.80376845  0.37636230  0.69115501  1
  S  S396  1  0.55884499  0.80376845  0.87363770  1
  S  S397  1  1.05884499  -0.05376845  0.37636230  1
  S  S398  1  1.19115501  -0.55376845  1.37363770  1
  S  S399  1  0.69115501  1.30376845  0.87636230  1
  S  S400  1  0.87363770  0.05884499  1.30376845  1
  S  S401  1  0.37636230  0.55884499  0.44623155  1
  S  S402  1  1.37363770  0.69115501  -0.05376845  1
  S  S403  1  0.87636230  0.19115501  1.80376845  1
  S  S404  1  1.62363770  1.05376845  0.94115501  1
  S  S405  1  0.12636230  -0.80376845  0.44115501  1
  S  S406  1  1.12363770  -0.30376845  1.30884499  1
  S  S407  1  0.62636230  1.55376845  0.80884499  1
  S  S408  1  2.05376845  0.30884499  0.62636230  1
  S  S409  1  0.19623155  0.80884499  1.12363770  1
  S  S410  1  -0.30376845  -0.05884499  0.12636230  1
  S  S411  1  1.55376845  0.44115501  1.62363770  1
  S  S412  1  1.30884499  0.62363770  0.19623155  1
  S  S413  1  0.80884499  0.12636230  2.05376845  1
  S  S414  1  0.94115501  1.12363770  1.55376845  1
  S  S415  1  0.44115501  -0.37363770  -0.30376845  1
  S  S416  1  -0.30376845  -0.37363770  0.44115501  1
  S  S417  1  1.55376845  1.12363770  0.94115501  1
  S  S418  1  2.05376845  0.12636230  0.80884499  1
  S  S419  1  0.19623155  0.62363770  1.30884499  1
  S  S420  1  0.44115501  -0.80376845  0.12636230  1
  S  S421  1  0.94115501  1.05376845  1.62363770  1
  S  S422  1  0.80884499  1.55376845  0.62636230  1
  S  S423  1  1.30884499  -0.30376845  1.12363770  1
  S  S424  1  0.12636230  -0.05884499  -0.30376845  1
  S  S425  1  1.62363770  0.44115501  1.55376845  1
  S  S426  1  0.62636230  0.30884499  2.05376845  1
  S  S427  1  1.12363770  0.80884499  0.19623155  1
  S  S428  1  0.37636230  -0.05376845  1.05884499  1
  S  S429  1  0.87363770  0.80376845  0.55884499  1
  S  S430  1  0.87636230  1.30376845  0.69115501  1
  S  S431  1  1.37363770  -0.55376845  1.19115501  1
  S  S432  1  -0.05376845  0.69115501  1.37363770  1
  S  S433  1  1.80376845  0.19115501  0.87636230  1
  S  S434  1  1.30376845  0.05884499  0.87363770  1
  S  S435  1  0.44623155  0.55884499  0.37636230  1
  S  S436  1  0.69115501  0.37636230  1.80376845  1
  S  S437  1  1.19115501  0.87363770  -0.05376845  1
  S  S438  1  1.05884499  -0.12363770  0.44623155  1
  S  S439  1  0.55884499  0.37363770  1.30376845  1
  S  S440  1  1.30376845  0.87363770  0.05884499  1
  S  S441  1  0.44623155  0.37636230  0.55884499  1
  S  S442  1  -0.05376845  1.37363770  0.69115501  1
  S  S443  1  1.80376845  0.87636230  0.19115501  1
  S  S444  1  0.55884499  1.30376845  0.37363770  1
  S  S445  1  1.05884499  0.44623155  -0.12363770  1
  S  S446  1  1.19115501  -0.05376845  0.87363770  1
  S  S447  1  0.69115501  1.80376845  0.37636230  1
  S  S448  1  0.87363770  0.55884499  0.80376845  1
  S  S449  1  0.37636230  1.05884499  -0.05376845  1
  S  S450  1  1.37363770  1.19115501  -0.55376845  1
  S  S451  1  0.87636230  0.69115501  1.30376845  1
  S  S452  1  1.62363770  1.55376845  0.44115501  1
  S  S453  1  0.12636230  -0.30376845  -0.05884499  1
  S  S454  1  1.12363770  0.19623155  0.80884499  1
  S  S455  1  0.62636230  2.05376845  0.30884499  1
  S  S456  1  2.05376845  0.80884499  0.12636230  1
  S  S457  1  0.19623155  1.30884499  0.62363770  1
  S  S458  1  -0.30376845  0.44115501  -0.37363770  1
  S  S459  1  1.55376845  0.94115501  1.12363770  1
  S  S460  1  1.30884499  1.12363770  -0.30376845  1
  S  S461  1  0.80884499  0.62636230  1.55376845  1
  S  S462  1  0.94115501  1.62363770  1.05376845  1
  S  S463  1  0.44115501  0.12636230  -0.80376845  1
  S  S464  1  -0.30376845  0.12636230  -0.05884499  1
  S  S465  1  1.55376845  1.62363770  0.44115501  1
  S  S466  1  2.05376845  0.62636230  0.30884499  1
  S  S467  1  0.19623155  1.12363770  0.80884499  1
  S  S468  1  0.44115501  -0.30376845  -0.37363770  1
  S  S469  1  0.94115501  1.55376845  1.12363770  1
  S  S470  1  0.80884499  2.05376845  0.12636230  1
  S  S471  1  1.30884499  0.19623155  0.62363770  1
  S  S472  1  0.12636230  0.44115501  -0.80376845  1
  S  S473  1  1.62363770  0.94115501  1.05376845  1
  S  S474  1  0.62636230  0.80884499  1.55376845  1
  S  S475  1  1.12363770  1.30884499  -0.30376845  1
  S  S476  1  0.37636230  0.44623155  0.55884499  1
  S  S477  1  0.87363770  1.30376845  0.05884499  1
  S  S478  1  0.87636230  1.80376845  0.19115501  1
  S  S479  1  1.37363770  -0.05376845  0.69115501  1
  S  S480  1  -0.05376845  1.19115501  0.87363770  1
  S  S481  1  1.80376845  0.69115501  0.37636230  1
  S  S482  1  1.30376845  0.55884499  0.37363770  1
  S  S483  1  0.44623155  1.05884499  -0.12363770  1
  S  S484  1  0.69115501  0.87636230  1.30376845  1
  S  S485  1  1.19115501  1.37363770  -0.55376845  1
  S  S486  1  1.05884499  0.37636230  -0.05376845  1
  S  S487  1  0.55884499  0.87363770  0.80376845  1
  S  S488  1  0.12500000  0.12500000  0.12500000  1
  S  S489  1  0.87500000  0.37500000  0.37500000  1
  S  S490  1  0.12500000  0.62500000  0.62500000  1
  S  S491  1  0.87500000  0.87500000  0.87500000  1
  S  S492  1  0.62500000  0.12500000  0.62500000  1
  S  S493  1  0.37500000  0.37500000  0.87500000  1
  S  S494  1  0.62500000  0.62500000  0.12500000  1
  S  S495  1  0.37500000  0.87500000  0.37500000  1
  S  S496  1  0.50000000  0.50000000  0.50000000  1
  S  S497  1  0.25000000  0.75000000  0.00000000  1
  S  S498  1  0.75000000  0.00000000  0.25000000  1
  S  S499  1  0.00000000  0.25000000  0.75000000  1
  S  S500  1  0.50000000  0.00000000  0.00000000  1
  S  S501  1  0.25000000  0.25000000  0.50000000  1
  S  S502  1  0.75000000  0.50000000  0.75000000  1
  S  S503  1  0.00000000  0.75000000  0.25000000  1
  S  S504  1  0.00000000  0.50000000  0.00000000  1
  S  S505  1  0.75000000  0.75000000  0.50000000  1
  S  S506  1  0.25000000  0.00000000  0.75000000  1
  S  S507  1  0.50000000  0.25000000  0.25000000  1
  S  S508  1  0.00000000  0.00000000  0.50000000  1
  S  S509  1  0.75000000  0.25000000  -0.00000000  1
  S  S510  1  0.25000000  0.50000000  0.25000000  1
  S  S511  1  0.50000000  0.75000000  0.75000000  1
  S  S512  1  0.72440617  0.12500000  0.12500000  1
  S  S513  1  0.02559383  0.12500000  0.62500000  1
  S  S514  1  0.12500000  0.72440617  0.12500000  1
  S  S515  1  0.62500000  0.02559383  0.12500000  1
  S  S516  1  0.12500000  0.12500000  0.72440617  1
  S  S517  1  0.12500000  0.62500000  0.02559383  1
  S  S518  1  0.87500000  0.97440617  0.37500000  1
  S  S519  1  0.87500000  0.27559383  0.87500000  1
  S  S520  1  0.47440617  0.37500000  0.37500000  1
  S  S521  1  0.77559383  0.87500000  0.37500000  1
  S  S522  1  0.87500000  0.37500000  0.77559383  1
  S  S523  1  0.37500000  0.37500000  0.47440617  1
  S  S524  1  0.72440617  0.62500000  0.62500000  1
  S  S525  1  0.02559383  0.62500000  0.12500000  1
  S  S526  1  0.12500000  0.22440617  0.62500000  1
  S  S527  1  0.62500000  0.52559383  0.62500000  1
  S  S528  1  0.12500000  0.62500000  0.22440617  1
  S  S529  1  0.12500000  0.12500000  0.52559383  1
  S  S530  1  0.87500000  0.47440617  0.87500000  1
  S  S531  1  0.87500000  0.77559383  0.37500000  1
  S  S532  1  0.47440617  0.87500000  0.87500000  1
  S  S533  1  0.77559383  0.37500000  0.87500000  1
  S  S534  1  0.87500000  0.87500000  0.27559383  1
  S  S535  1  0.37500000  0.87500000  0.97440617  1
  S  S536  1  0.22440617  0.12500000  0.62500000  1
  S  S537  1  0.52559383  0.12500000  0.12500000  1
  S  S538  1  0.62500000  0.72440617  0.62500000  1
  S  S539  1  0.12500000  0.02559383  0.62500000  1
  S  S540  1  0.62500000  0.12500000  0.22440617  1
  S  S541  1  0.62500000  0.62500000  0.52559383  1
  S  S542  1  0.37500000  0.97440617  0.87500000  1
  S  S543  1  0.37500000  0.27559383  0.37500000  1
  S  S544  1  0.97440617  0.37500000  0.87500000  1
  S  S545  1  0.27559383  0.87500000  0.87500000  1
  S  S546  1  0.37500000  0.37500000  0.27559383  1
  S  S547  1  0.87500000  0.37500000  0.97440617  1
  S  S548  1  0.22440617  0.62500000  0.12500000  1
  S  S549  1  0.52559383  0.62500000  0.62500000  1
  S  S550  1  0.62500000  0.22440617  0.12500000  1
  S  S551  1  0.12500000  0.52559383  0.12500000  1
  S  S552  1  0.62500000  0.62500000  0.72440617  1
  S  S553  1  0.62500000  0.12500000  0.02559383  1
  S  S554  1  0.37500000  0.47440617  0.37500000  1
  S  S555  1  0.37500000  0.77559383  0.87500000  1
  S  S556  1  0.97440617  0.87500000  0.37500000  1
  S  S557  1  0.27559383  0.37500000  0.37500000  1
  S  S558  1  0.37500000  0.87500000  0.77559383  1
  S  S559  1  0.87500000  0.87500000  0.47440617  1
  S  S560  1  0.00000000  0.00000000  0.00000000  1
  S  S561  1  0.75000000  0.25000000  0.50000000  1
  S  S562  1  0.25000000  0.50000000  0.75000000  1
  S  S563  1  0.50000000  0.75000000  0.25000000  1
  S  S564  1  0.00000000  0.50000000  0.50000000  1
  S  S565  1  0.75000000  0.75000000  -0.00000000  1
  S  S566  1  0.25000000  0.00000000  0.25000000  1
  S  S567  1  0.50000000  0.25000000  0.75000000  1
  S  S568  1  0.50000000  0.00000000  0.50000000  1
  S  S569  1  0.25000000  0.25000000  0.00000000  1
  S  S570  1  0.75000000  0.50000000  0.25000000  1
  S  S571  1  0.00000000  0.75000000  0.75000000  1
  S  S572  1  0.50000000  0.50000000  0.00000000  1
  S  S573  1  0.25000000  0.75000000  0.50000000  1
  S  S574  1  0.75000000  0.00000000  0.75000000  1
  S  S575  1  0.00000000  0.25000000  0.25000000  1
