# generated using pymatgen
data_Li2ScAl3(NO)2
_symmetry_space_group_name_H-M   'P 1'
_cell_length_a   8.02694048
_cell_length_b   8.63290258
_cell_length_c   6.43917976
_cell_angle_alpha   90.00000000
_cell_angle_beta   90.00000000
_cell_angle_gamma   90.00000000
_symmetry_Int_Tables_number   1
_chemical_formula_structural   Li2ScAl3(NO)2
_chemical_formula_sum   'Li2 Sc1 Al3 N2 O2'
_cell_volume   446.20808207
_cell_formula_units_Z   1
loop_
 _symmetry_equiv_pos_site_id
 _symmetry_equiv_pos_as_xyz
  1  'x, y, z'
loop_
 _atom_site_type_symbol
 _atom_site_label
 _atom_site_symmetry_multiplicity
 _atom_site_fract_x
 _atom_site_fract_y
 _atom_site_fract_z
 _atom_site_occupancy
  Li  Li0  1  0.12500000  0.12500000  0.12500000  1
  Li  Li1  1  0.50000000  0.50000000  0.50000000  1
  Al  Al2  1  0.25000000  0.25000000  0.25000000  1
  Al  Al3  1  0.75000000  0.75000000  0.75000000  1
  Al  Al4  1  0.56196090  0.35290469  0.98034596  1
  O  O5  1  0.08717662  0.96887271  0.56683710  1
  O  O6  1  0.37840639  0.46440331  0.34611784  1
  N  N7  1  0.24355882  0.47248916  0.37230502  1
  N  N8  1  0.24799726  0.65047586  0.97613746  1
  Sc  Sc9  1  0.64112423  0.04421181  0.39907274  1
