# generated using pymatgen
data_LiF
_symmetry_space_group_name_H-M   'P 1'
_cell_length_a   10.85599115
_cell_length_b   9.93428417
_cell_length_c   7.33192183
_cell_angle_alpha   90.00000000
_cell_angle_beta   90.00000000
_cell_angle_gamma   90.00000000
_symmetry_Int_Tables_number   1
_chemical_formula_structural   LiF
_chemical_formula_sum   'Li24 F24'
_cell_volume   790.72211477
_cell_formula_units_Z   24
loop_
 _symmetry_equiv_pos_site_id
 _symmetry_equiv_pos_as_xyz
  1  'x, y, z'
loop_
 _atom_site_type_symbol
 _atom_site_label
 _atom_site_symmetry_multiplicity
 _atom_site_fract_x
 _atom_site_fract_y
 _atom_site_fract_z
 _atom_site_occupancy
  F  F0  1  0.19046531  0.43710359  0.73951450  1
  F  F1  1  0.30953469  -0.43710359  1.23951450  1
  F  F2  1  -0.19046531  0.93710359  -0.73951450  1
  F  F3  1  0.69046531  0.06289641  -0.23951450  1
  F  F4  1  -0.19046531  -0.43710359  -0.73951450  1
  F  F5  1  0.69046531  0.43710359  -0.23951450  1
  F  F6  1  0.19046531  0.06289641  0.73951450  1
  F  F7  1  0.30953469  0.93710359  1.23951450  1
  F  F8  1  0.73500283  0.53779516  0.34601851  1
  F  F9  1  0.76499717  0.46220484  0.84601851  1
  F  F10  1  0.26499717  0.03779516  0.65398149  1
  F  F11  1  0.23500283  0.96220484  0.15398149  1
  F  F12  1  0.26499717  0.46220484  0.65398149  1
  F  F13  1  0.23500283  0.53779516  0.15398149  1
  F  F14  1  0.73500283  0.96220484  0.34601851  1
  F  F15  1  0.76499717  0.03779516  0.84601851  1
  F  F16  1  0.35735373  0.52924514  0.75727089  1
  F  F17  1  0.14264627  0.47075486  0.25727089  1
  F  F18  1  0.64264627  0.02924514  0.24272911  1
  F  F19  1  0.85735373  0.97075486  0.74272911  1
  F  F20  1  0.64264627  0.47075486  0.24272911  1
  F  F21  1  0.85735373  0.52924514  0.74272911  1
  F  F22  1  0.35735373  0.97075486  0.75727089  1
  F  F23  1  0.14264627  0.02924514  0.25727089  1
  Li  Li24  1  0.00000000  0.00000000  0.50000000  1
  Li  Li25  1  0.50000000  0.00000000  0.00000000  1
  Li  Li26  1  0.00000000  0.50000000  0.50000000  1
  Li  Li27  1  0.50000000  0.50000000  -0.00000000  1
  Li  Li28  1  0.31151700  0.37808010  0.23321429  1
  Li  Li29  1  0.18848300  0.62191990  0.73321429  1
  Li  Li30  1  0.68848300  0.87808010  0.76678571  1
  Li  Li31  1  0.81151700  0.12191990  0.26678571  1
  Li  Li32  1  0.68848300  0.62191990  0.76678571  1
  Li  Li33  1  0.81151700  0.37808010  0.26678571  1
  Li  Li34  1  0.31151700  0.12191990  0.23321429  1
  Li  Li35  1  0.18848300  0.87808010  0.73321429  1
  Li  Li36  1  0.13937600  0.25000000  0.22621192  1
  Li  Li37  1  0.36062400  0.75000000  0.72621192  1
  Li  Li38  1  0.86062400  0.75000000  0.77378808  1
  Li  Li39  1  0.63937600  0.25000000  0.27378808  1
  Li  Li40  1  0.04000069  0.38812354  0.18794617  1
  Li  Li41  1  0.45999931  0.61187646  0.68794617  1
  Li  Li42  1  0.95999931  0.88812354  0.81205383  1
  Li  Li43  1  0.54000069  0.11187646  0.31205383  1
  Li  Li44  1  0.95999931  0.61187646  0.81205383  1
  Li  Li45  1  0.54000069  0.38812354  0.31205383  1
  Li  Li46  1  0.04000069  0.11187646  0.18794617  1
  Li  Li47  1  0.45999931  0.88812354  0.68794617  1
