# generated using pymatgen
data_Li3Ti2N5
_symmetry_space_group_name_H-M   'P 1'
_cell_length_a   3.07504233
_cell_length_b   3.34020798
_cell_length_c   5.19686634
_cell_angle_alpha   98.06144507
_cell_angle_beta   90.23314887
_cell_angle_gamma   119.95805848
_symmetry_Int_Tables_number   1
_chemical_formula_structural   Li3Ti2N5
_chemical_formula_sum   'Li3 Ti2 N5'
_cell_volume   45.61849881
_cell_formula_units_Z   1
loop_
 _symmetry_equiv_pos_site_id
 _symmetry_equiv_pos_as_xyz
  1  'x, y, z'
loop_
 _atom_site_type_symbol
 _atom_site_label
 _atom_site_symmetry_multiplicity
 _atom_site_fract_x
 _atom_site_fract_y
 _atom_site_fract_z
 _atom_site_occupancy
  Li  Li0  1  0.00000000  0.00000000  0.00000000  1
  Li  Li1  1  0.33300000  0.66700000  0.25000000  1
  Li  Li2  1  0.66700000  0.33300000  0.50000000  1
  Ti  Ti3  1  0.00000000  0.00000000  0.75000000  1
  Ti  Ti4  1  0.10384566  0.32649167  0.76748218  1
  N  N5  1  0.57336750  0.49008872  0.07308803  1
  N  N6  1  0.52534440  0.24775568  0.93340332  1
  N  N7  1  0.28928701  0.98716085  0.41894559  1
  N  N8  1  0.94582473  0.41830725  0.73505239  1
  N  N9  1  0.24328811  0.24396695  0.83668657  1
