# generated using pymatgen
data_Li5TiO
_symmetry_space_group_name_H-M   'P 1'
_cell_length_a   3.73728088
_cell_length_b   3.39669381
_cell_length_c   6.96705794
_cell_angle_alpha   108.70565845
_cell_angle_beta   101.01883146
_cell_angle_gamma   99.31596275
_symmetry_Int_Tables_number   1
_chemical_formula_structural   Li5TiO
_chemical_formula_sum   'Li5 Ti1 O1'
_cell_volume   79.82237914
_cell_formula_units_Z   1
loop_
 _symmetry_equiv_pos_site_id
 _symmetry_equiv_pos_as_xyz
  1  'x, y, z'
loop_
 _atom_site_type_symbol
 _atom_site_label
 _atom_site_symmetry_multiplicity
 _atom_site_fract_x
 _atom_site_fract_y
 _atom_site_fract_z
 _atom_site_occupancy
  Li  Li0  1  0.00000000  0.00000000  0.00000000  1
  Li  Li1  1  0.33300000  0.66700000  0.25000000  1
  Li  Li2  1  0.66700000  0.33300000  0.50000000  1
  Li  Li3  1  0.00000000  0.00000000  0.75000000  1
  Li  Li4  1  0.07399333  0.40673564  0.95117731  1
  Ti  Ti5  1  0.92034688  0.18220442  0.78864977  1
  O  O6  1  0.29213031  0.79564207  0.75222678  1
