# generated using pymatgen
data_Li2Ca2O3
_symmetry_space_group_name_H-M   'P 1'
_cell_length_a   12.75808564
_cell_length_b   6.59002141
_cell_length_c   17.28472371
_cell_angle_alpha   90.00000000
_cell_angle_beta   90.00000000
_cell_angle_gamma   90.00000000
_symmetry_Int_Tables_number   1
_chemical_formula_structural   Li2Ca2O3
_chemical_formula_sum   'Li16 Ca16 O24'
_cell_volume   1453.23142346
_cell_formula_units_Z   8
loop_
 _symmetry_equiv_pos_site_id
 _symmetry_equiv_pos_as_xyz
  1  'x, y, z'
loop_
 _atom_site_type_symbol
 _atom_site_label
 _atom_site_symmetry_multiplicity
 _atom_site_fract_x
 _atom_site_fract_y
 _atom_site_fract_z
 _atom_site_occupancy
  Ca  Ca0  1  0.00000000  0.00000000  0.00000000  1
  Ca  Ca1  1  0.50000000  0.00000000  0.50000000  1
  Ca  Ca2  1  0.00000000  0.50000000  0.00000000  1
  Ca  Ca3  1  0.50000000  0.50000000  0.50000000  1
  Ca  Ca4  1  0.83671808  0.25000000  0.07958152  1
  Ca  Ca5  1  0.66328192  0.75000000  0.57958152  1
  Ca  Ca6  1  0.16328192  0.75000000  0.92041848  1
  Ca  Ca7  1  0.33671808  0.25000000  0.42041848  1
  Ca  Ca8  1  0.03170666  0.25000000  0.30777195  1
  Ca  Ca9  1  0.46829334  0.75000000  0.80777195  1
  Ca  Ca10  1  0.96829334  0.75000000  0.69222805  1
  Ca  Ca11  1  0.53170666  0.25000000  0.19222805  1
  Ca  Ca12  1  0.66036360  0.25000000  0.29078898  1
  Ca  Ca13  1  0.83963640  0.75000000  0.79078898  1
  Ca  Ca14  1  0.33963640  0.75000000  0.70921102  1
  Ca  Ca15  1  0.16036360  0.25000000  0.20921102  1
  Li  Li16  1  0.32231897  0.37533976  0.79022159  1
  Li  Li17  1  0.17768103  0.62466024  0.29022159  1
  Li  Li18  1  0.67768103  0.87533976  0.20977841  1
  Li  Li19  1  0.82231897  0.12466024  0.70977841  1
  Li  Li20  1  0.67768103  0.62466024  0.20977841  1
  Li  Li21  1  0.82231897  0.37533976  0.70977841  1
  Li  Li22  1  0.32231897  0.12466024  0.79022159  1
  Li  Li23  1  0.17768103  0.87533976  0.29022159  1
  Li  Li24  1  0.72783916  0.43948407  0.28475126  1
  Li  Li25  1  0.77216084  0.56051593  0.78475126  1
  Li  Li26  1  0.27216084  0.93948407  0.71524874  1
  Li  Li27  1  0.22783916  0.06051593  0.21524874  1
  Li  Li28  1  0.27216084  0.56051593  0.71524874  1
  Li  Li29  1  0.22783916  0.43948407  0.21524874  1
  Li  Li30  1  0.72783916  0.06051593  0.28475126  1
  Li  Li31  1  0.77216084  0.93948407  0.78475126  1
  O  O32  1  0.00000000  0.00000000  0.50000000  1
  O  O33  1  0.50000000  0.00000000  0.00000000  1
  O  O34  1  0.00000000  0.50000000  0.50000000  1
  O  O35  1  0.50000000  0.50000000  0.00000000  1
  O  O36  1  0.02277981  0.25000000  0.82712823  1
  O  O37  1  0.47722019  0.75000000  0.32712823  1
  O  O38  1  0.97722019  0.75000000  0.17287177  1
  O  O39  1  0.52277981  0.25000000  0.67287177  1
  O  O40  1  0.82882577  0.84968243  0.19487657  1
  O  O41  1  -0.32882577  -0.84968243  0.69487657  1
  O  O42  1  -0.82882577  1.34968243  -0.19487657  1
  O  O43  1  1.32882577  -0.34968243  0.30512343  1
  O  O44  1  -0.82882577  -0.84968243  -0.19487657  1
  O  O45  1  1.32882577  0.84968243  0.30512343  1
  O  O46  1  0.82882577  -0.34968243  0.19487657  1
  O  O47  1  -0.32882577  1.34968243  0.69487657  1
  O  O48  1  0.53161958  0.88146550  0.62844494  1
  O  O49  1  0.96838042  0.11853450  0.12844494  1
  O  O50  1  0.46838042  0.38146550  0.37155506  1
  O  O51  1  0.03161958  0.61853450  0.87155506  1
  O  O52  1  0.46838042  0.11853450  0.37155506  1
  O  O53  1  0.03161958  0.88146550  0.87155506  1
  O  O54  1  0.53161958  0.61853450  0.62844494  1
  O  O55  1  0.96838042  0.38146550  0.12844494  1
