# generated using pymatgen
data_Sb3ICl8
_symmetry_space_group_name_H-M   'P 1'
_cell_length_a   3.13456421
_cell_length_b   3.13456421
_cell_length_c   28.18133296
_cell_angle_alpha   90.00000000
_cell_angle_beta   90.00000000
_cell_angle_gamma   120.00000000
_symmetry_Int_Tables_number   1
_chemical_formula_structural   Sb3ICl8
_chemical_formula_sum   'Sb3 I1 Cl8'
_cell_volume   239.79852327
_cell_formula_units_Z   1
loop_
 _symmetry_equiv_pos_site_id
 _symmetry_equiv_pos_as_xyz
  1  'x, y, z'
loop_
 _atom_site_type_symbol
 _atom_site_label
 _atom_site_symmetry_multiplicity
 _atom_site_fract_x
 _atom_site_fract_y
 _atom_site_fract_z
 _atom_site_occupancy
  Cl  Cl0  1  0.65221078  0.09755601  0.15438911  1
  Cl  Cl1  1  -0.09755601  0.55465477  0.15438911  1
  Cl  Cl2  1  -0.55465477  -0.65221078  0.15438911  1
  Cl  Cl3  1  -0.09755601  -0.65221078  -0.15438911  1
  Cl  Cl4  1  -0.55465477  0.09755601  -0.15438911  1
  Cl  Cl5  1  0.65221078  0.55465477  -0.15438911  1
  Cl  Cl6  1  0.00000000  0.00000000  0.75368789  1
  Cl  Cl7  1  0.00000000  0.00000000  0.24631211  1
  I  I8  1  0.66666667  0.33333333  0.50000000  1
  Sb  Sb9  1  0.33333333  0.66666667  0.50000000  1
  Sb  Sb10  1  0.66666667  0.33333333  0.33644845  1
  Sb  Sb11  1  0.66666667  0.33333333  0.66355155  1
