# generated using pymatgen
data_Li4Al3Te4I3O
_symmetry_space_group_name_H-M   'P 1'
_cell_length_a   8.05042540
_cell_length_b   7.86451406
_cell_length_c   8.97035903
_cell_angle_alpha   90.00000000
_cell_angle_beta   90.00000000
_cell_angle_gamma   90.00000000
_symmetry_Int_Tables_number   1
_chemical_formula_structural   Li4Al3Te4I3O
_chemical_formula_sum   'Li8 Al6 Te8 I6 O2'
_cell_volume   567.93750450
_cell_formula_units_Z   2
loop_
 _symmetry_equiv_pos_site_id
 _symmetry_equiv_pos_as_xyz
  1  'x, y, z'
loop_
 _atom_site_type_symbol
 _atom_site_label
 _atom_site_symmetry_multiplicity
 _atom_site_fract_x
 _atom_site_fract_y
 _atom_site_fract_z
 _atom_site_occupancy
  Al  Al0  1  0.84227781  0.83998549  -0.00000000  1
  Al  Al1  1  0.15772219  0.16001451  0.00000000  1
  Al  Al2  1  0.65772219  0.33998549  0.00000000  1
  Al  Al3  1  0.34227781  0.66001451  0.00000000  1
  Al  Al4  1  0.00000000  0.00000000  0.00000000  1
  Al  Al5  1  0.50000000  0.50000000  -0.00000000  1
  I  I6  1  0.00000000  0.50000000  0.50000000  1
  I  I7  1  0.50000000  0.00000000  0.50000000  1
  I  I8  1  0.00000000  0.50000000  0.21383308  1
  I  I9  1  0.50000000  0.00000000  0.78616692  1
  I  I10  1  0.00000000  0.50000000  0.78616692  1
  I  I11  1  0.50000000  0.00000000  0.21383308  1
  Li  Li12  1  0.65934620  0.69374891  0.38618523  1
  Li  Li13  1  0.34065380  0.30625109  0.38618523  1
  Li  Li14  1  0.84065380  0.19374891  0.61381477  1
  Li  Li15  1  0.15934620  0.80625109  0.61381477  1
  Li  Li16  1  0.34065380  0.30625109  0.61381477  1
  Li  Li17  1  0.65934620  0.69374891  0.61381477  1
  Li  Li18  1  0.15934620  0.80625109  0.38618523  1
  Li  Li19  1  0.84065380  0.19374891  0.38618523  1
  O  O20  1  0.00000000  0.50000000  -0.00000000  1
  O  O21  1  0.50000000  0.00000000  0.00000000  1
  Te  Te22  1  0.88077333  0.37723793  0.60260970  1
  Te  Te23  1  -0.88077333  -0.37723793  0.60260970  1
  Te  Te24  1  -0.38077333  0.87723793  -0.60260970  1
  Te  Te25  1  1.38077333  0.12276207  -0.60260970  1
  Te  Te26  1  -0.88077333  -0.37723793  -0.60260970  1
  Te  Te27  1  0.88077333  0.37723793  -0.60260970  1
  Te  Te28  1  1.38077333  0.12276207  0.60260970  1
  Te  Te29  1  -0.38077333  0.87723793  0.60260970  1
