# generated using pymatgen
data_Li2Te
_symmetry_space_group_name_H-M   'P 1'
_cell_length_a   5.12127667
_cell_length_b   7.86281469
_cell_length_c   6.70987372
_cell_angle_alpha   90.00000000
_cell_angle_beta   90.00000000
_cell_angle_gamma   90.00000000
_symmetry_Int_Tables_number   1
_chemical_formula_structural   Li2Te
_chemical_formula_sum   'Li8 Te4'
_cell_volume   270.19084231
_cell_formula_units_Z   4
loop_
 _symmetry_equiv_pos_site_id
 _symmetry_equiv_pos_as_xyz
  1  'x, y, z'
loop_
 _atom_site_type_symbol
 _atom_site_label
 _atom_site_symmetry_multiplicity
 _atom_site_fract_x
 _atom_site_fract_y
 _atom_site_fract_z
 _atom_site_occupancy
  Li  Li0  1  0.15685857  0.47128904  0.50000000  1
  Li  Li1  1  -0.15685857  -0.47128904  0.50000000  1
  Li  Li2  1  0.34314143  0.97128904  0.50000000  1
  Li  Li3  1  0.65685857  0.02871096  0.50000000  1
  Li  Li4  1  0.96506775  0.89317451  -0.00000000  1
  Li  Li5  1  0.03493225  0.10682549  -0.00000000  1
  Li  Li6  1  0.53493225  0.39317451  0.00000000  1
  Li  Li7  1  0.46506775  0.60682549  -0.00000000  1
  Te  Te8  1  0.68128315  0.20089897  -0.00000000  1
  Te  Te9  1  0.31871685  0.79910103  -0.00000000  1
  Te  Te10  1  0.81871685  0.70089897  -0.00000000  1
  Te  Te11  1  0.18128315  0.29910103  0.00000000  1
