# generated using pymatgen
data_ZrTe2
_symmetry_space_group_name_H-M   'P 1'
_cell_length_a   14.54169302
_cell_length_b   14.54169302
_cell_length_c   22.27872910
_cell_angle_alpha   90.00000000
_cell_angle_beta   90.00000000
_cell_angle_gamma   120.00000000
_symmetry_Int_Tables_number   1
_chemical_formula_structural   ZrTe2
_chemical_formula_sum   'Zr48 Te96'
_cell_volume   4079.91381118
_cell_formula_units_Z   48
loop_
 _symmetry_equiv_pos_site_id
 _symmetry_equiv_pos_as_xyz
  1  'x, y, z'
loop_
 _atom_site_type_symbol
 _atom_site_label
 _atom_site_symmetry_multiplicity
 _atom_site_fract_x
 _atom_site_fract_y
 _atom_site_fract_z
 _atom_site_occupancy
  Te  Te0  1  0.19045775  0.38091549  0.60034939  1
  Te  Te1  1  0.61908451  0.80954225  0.60034939  1
  Te  Te2  1  0.19045775  0.80954225  0.60034939  1
  Te  Te3  1  0.80954225  0.61908451  0.10034939  1
  Te  Te4  1  0.38091549  0.19045775  0.10034939  1
  Te  Te5  1  0.80954225  0.19045775  0.10034939  1
  Te  Te6  1  0.38091549  0.19045775  0.39965061  1
  Te  Te7  1  0.80954225  0.61908451  0.39965061  1
  Te  Te8  1  0.80954225  0.19045775  0.39965061  1
  Te  Te9  1  0.61908451  0.80954225  0.89965061  1
  Te  Te10  1  0.19045775  0.38091549  0.89965061  1
  Te  Te11  1  0.19045775  0.80954225  0.89965061  1
  Te  Te12  1  0.37618521  0.00000000  0.00000000  1
  Te  Te13  1  0.00000000  0.37618521  0.00000000  1
  Te  Te14  1  0.62381479  0.62381479  0.00000000  1
  Te  Te15  1  0.62381479  0.00000000  0.50000000  1
  Te  Te16  1  0.00000000  0.62381479  0.50000000  1
  Te  Te17  1  0.37618521  0.37618521  0.50000000  1
  Te  Te18  1  0.62381479  0.00000000  0.00000000  1
  Te  Te19  1  0.00000000  0.62381479  0.00000000  1
  Te  Te20  1  0.37618521  0.37618521  0.00000000  1
  Te  Te21  1  0.37618521  0.00000000  0.50000000  1
  Te  Te22  1  0.00000000  0.37618521  0.50000000  1
  Te  Te23  1  0.62381479  0.62381479  0.50000000  1
  Te  Te24  1  0.47087358  0.94174716  0.40496268  1
  Te  Te25  1  0.05825284  0.52912642  0.40496268  1
  Te  Te26  1  0.47087358  0.52912642  0.40496268  1
  Te  Te27  1  0.52912642  0.05825284  0.90496268  1
  Te  Te28  1  0.94174716  0.47087358  0.90496268  1
  Te  Te29  1  0.52912642  0.47087358  0.90496268  1
  Te  Te30  1  0.94174716  0.47087358  0.59503732  1
  Te  Te31  1  0.52912642  0.05825284  0.59503732  1
  Te  Te32  1  0.52912642  0.47087358  0.59503732  1
  Te  Te33  1  0.05825284  0.52912642  0.09503732  1
  Te  Te34  1  0.47087358  0.94174716  0.09503732  1
  Te  Te35  1  0.47087358  0.52912642  0.09503732  1
  Te  Te36  1  0.00625961  0.65617983  0.20261217  1
  Te  Te37  1  0.34382017  0.35007978  0.20261217  1
  Te  Te38  1  0.64992022  0.99374039  0.20261217  1
  Te  Te39  1  0.99374039  0.34382017  0.70261217  1
  Te  Te40  1  0.65617983  0.64992022  0.70261217  1
  Te  Te41  1  0.35007978  0.00625961  0.70261217  1
  Te  Te42  1  0.65617983  0.00625961  0.79738783  1
  Te  Te43  1  0.35007978  0.34382017  0.79738783  1
  Te  Te44  1  0.99374039  0.64992022  0.79738783  1
  Te  Te45  1  0.34382017  0.99374039  0.29738783  1
  Te  Te46  1  0.64992022  0.65617983  0.29738783  1
  Te  Te47  1  0.00625961  0.35007978  0.29738783  1
  Te  Te48  1  0.99374039  0.34382017  0.79738783  1
  Te  Te49  1  0.65617983  0.64992022  0.79738783  1
  Te  Te50  1  0.35007978  0.00625961  0.79738783  1
  Te  Te51  1  0.00625961  0.65617983  0.29738783  1
  Te  Te52  1  0.34382017  0.35007978  0.29738783  1
  Te  Te53  1  0.64992022  0.99374039  0.29738783  1
  Te  Te54  1  0.34382017  0.99374039  0.20261217  1
  Te  Te55  1  0.64992022  0.65617983  0.20261217  1
  Te  Te56  1  0.00625961  0.35007978  0.20261217  1
  Te  Te57  1  0.65617983  0.00625961  0.70261217  1
  Te  Te58  1  0.35007978  0.34382017  0.70261217  1
  Te  Te59  1  0.99374039  0.64992022  0.70261217  1
  Te  Te60  1  0.26715219  0.53430439  0.78812878  1
  Te  Te61  1  0.46569561  0.73284781  0.78812878  1
  Te  Te62  1  0.26715219  0.73284781  0.78812878  1
  Te  Te63  1  0.73284781  0.46569561  0.28812878  1
  Te  Te64  1  0.53430439  0.26715219  0.28812878  1
  Te  Te65  1  0.73284781  0.26715219  0.28812878  1
  Te  Te66  1  0.53430439  0.26715219  0.21187122  1
  Te  Te67  1  0.73284781  0.46569561  0.21187122  1
  Te  Te68  1  0.73284781  0.26715219  0.21187122  1
  Te  Te69  1  0.46569561  0.73284781  0.71187122  1
  Te  Te70  1  0.26715219  0.53430439  0.71187122  1
  Te  Te71  1  0.26715219  0.73284781  0.71187122  1
  Te  Te72  1  0.02151974  0.77101722  0.88391689  1
  Te  Te73  1  0.22898278  0.25050252  0.88391689  1
  Te  Te74  1  0.74949748  0.97848026  0.88391689  1
  Te  Te75  1  0.97848026  0.22898278  0.38391689  1
  Te  Te76  1  0.77101722  0.74949748  0.38391689  1
  Te  Te77  1  0.25050252  0.02151974  0.38391689  1
  Te  Te78  1  0.77101722  0.02151974  0.11608311  1
  Te  Te79  1  0.25050252  0.22898278  0.11608311  1
  Te  Te80  1  0.97848026  0.74949748  0.11608311  1
  Te  Te81  1  0.22898278  0.97848026  0.61608311  1
  Te  Te82  1  0.74949748  0.77101722  0.61608311  1
  Te  Te83  1  0.02151974  0.25050252  0.61608311  1
  Te  Te84  1  0.97848026  0.22898278  0.11608311  1
  Te  Te85  1  0.77101722  0.74949748  0.11608311  1
  Te  Te86  1  0.25050252  0.02151974  0.11608311  1
  Te  Te87  1  0.02151974  0.77101722  0.61608311  1
  Te  Te88  1  0.22898278  0.25050252  0.61608311  1
  Te  Te89  1  0.74949748  0.97848026  0.61608311  1
  Te  Te90  1  0.22898278  0.97848026  0.88391689  1
  Te  Te91  1  0.74949748  0.77101722  0.88391689  1
  Te  Te92  1  0.02151974  0.25050252  0.88391689  1
  Te  Te93  1  0.77101722  0.02151974  0.38391689  1
  Te  Te94  1  0.25050252  0.22898278  0.38391689  1
  Te  Te95  1  0.97848026  0.74949748  0.38391689  1
  Zr  Zr96  1  0.69497499  0.56536838  0.48347355  1
  Zr  Zr97  1  -0.56536838  0.12960661  0.48347355  1
  Zr  Zr98  1  -0.12960661  -0.69497499  0.48347355  1
  Zr  Zr99  1  -0.69497499  -0.56536838  0.98347355  1
  Zr  Zr100  1  0.56536838  -0.12960661  0.98347355  1
  Zr  Zr101  1  0.12960661  0.69497499  0.98347355  1
  Zr  Zr102  1  0.56536838  0.69497499  -0.48347355  1
  Zr  Zr103  1  0.12960661  -0.56536838  -0.48347355  1
  Zr  Zr104  1  -0.69497499  -0.12960661  -0.48347355  1
  Zr  Zr105  1  -0.56536838  -0.69497499  0.01652645  1
  Zr  Zr106  1  -0.12960661  0.56536838  0.01652645  1
  Zr  Zr107  1  0.69497499  0.12960661  0.01652645  1
  Zr  Zr108  1  -0.69497499  -0.56536838  -0.48347355  1
  Zr  Zr109  1  0.56536838  -0.12960661  -0.48347355  1
  Zr  Zr110  1  0.12960661  0.69497499  -0.48347355  1
  Zr  Zr111  1  0.69497499  0.56536838  0.01652645  1
  Zr  Zr112  1  -0.56536838  0.12960661  0.01652645  1
  Zr  Zr113  1  -0.12960661  -0.69497499  0.01652645  1
  Zr  Zr114  1  -0.56536838  -0.69497499  0.48347355  1
  Zr  Zr115  1  -0.12960661  0.56536838  0.48347355  1
  Zr  Zr116  1  0.69497499  0.12960661  0.48347355  1
  Zr  Zr117  1  0.56536838  0.69497499  0.98347355  1
  Zr  Zr118  1  0.12960661  -0.56536838  0.98347355  1
  Zr  Zr119  1  -0.69497499  -0.12960661  0.98347355  1
  Zr  Zr120  1  0.50000000  0.00000000  0.00000000  1
  Zr  Zr121  1  0.00000000  0.50000000  0.00000000  1
  Zr  Zr122  1  0.50000000  0.50000000  0.00000000  1
  Zr  Zr123  1  0.50000000  0.00000000  0.50000000  1
  Zr  Zr124  1  0.00000000  0.50000000  0.50000000  1
  Zr  Zr125  1  0.50000000  0.50000000  0.50000000  1
  Zr  Zr126  1  0.00000000  0.00000000  0.25000000  1
  Zr  Zr127  1  0.00000000  0.00000000  0.75000000  1
  Zr  Zr128  1  0.33333333  0.66666667  0.25000000  1
  Zr  Zr129  1  0.66666667  0.33333333  0.75000000  1
  Zr  Zr130  1  0.33333333  0.66666667  0.98345901  1
  Zr  Zr131  1  0.66666667  0.33333333  0.48345901  1
  Zr  Zr132  1  0.66666667  0.33333333  0.01654099  1
  Zr  Zr133  1  0.33333333  0.66666667  0.51654099  1
  Zr  Zr134  1  0.61028167  0.22056334  0.25000000  1
  Zr  Zr135  1  0.77943666  0.38971833  0.25000000  1
  Zr  Zr136  1  0.61028167  0.38971833  0.25000000  1
  Zr  Zr137  1  0.38971833  0.77943666  0.75000000  1
  Zr  Zr138  1  0.22056334  0.61028167  0.75000000  1
  Zr  Zr139  1  0.38971833  0.61028167  0.75000000  1
  Zr  Zr140  1  0.33333333  0.66666667  0.43532549  1
  Zr  Zr141  1  0.66666667  0.33333333  0.93532549  1
  Zr  Zr142  1  0.66666667  0.33333333  0.56467451  1
  Zr  Zr143  1  0.33333333  0.66666667  0.06467451  1
