# generated using pymatgen
data_NaLiSe
_symmetry_space_group_name_H-M   'P 1'
_cell_length_a   7.71699773
_cell_length_b   7.71699773
_cell_length_c   9.08843109
_cell_angle_alpha   90.00000000
_cell_angle_beta   90.00000000
_cell_angle_gamma   120.00000000
_symmetry_Int_Tables_number   1
_chemical_formula_structural   NaLiSe
_chemical_formula_sum   'Na6 Li6 Se6'
_cell_volume   468.72303284
_cell_formula_units_Z   6
loop_
 _symmetry_equiv_pos_site_id
 _symmetry_equiv_pos_as_xyz
  1  'x, y, z'
loop_
 _atom_site_type_symbol
 _atom_site_label
 _atom_site_symmetry_multiplicity
 _atom_site_fract_x
 _atom_site_fract_y
 _atom_site_fract_z
 _atom_site_occupancy
  Li  Li0  1  0.72729519  0.70210733  0.95446845  1
  Li  Li1  1  0.29789267  0.02518786  0.95446845  1
  Li  Li2  1  0.97481214  0.27270481  0.95446845  1
  Li  Li3  1  0.29789267  0.27270481  0.04553155  1
  Li  Li4  1  0.97481214  0.70210733  0.04553155  1
  Li  Li5  1  0.72729519  0.02518786  0.04553155  1
  Na  Na6  1  0.56325142  0.43674858  0.00000000  1
  Na  Na7  1  0.56325142  0.12650284  0.00000000  1
  Na  Na8  1  0.87349716  0.43674858  0.00000000  1
  Na  Na9  1  0.45559646  0.54440354  0.50000000  1
  Na  Na10  1  0.45559646  0.91119293  0.50000000  1
  Na  Na11  1  0.08880707  0.54440354  0.50000000  1
  Se  Se12  1  0.27035839  0.32059266  0.19472924  1
  Se  Se13  1  -0.32059266  -0.05023427  0.19472924  1
  Se  Se14  1  0.05023427  -0.27035839  0.19472924  1
  Se  Se15  1  -0.32059266  -0.27035839  -0.19472924  1
  Se  Se16  1  0.05023427  0.32059266  -0.19472924  1
  Se  Se17  1  0.27035839  -0.05023427  -0.19472924  1
