# generated using pymatgen
data_LiBr
_symmetry_space_group_name_H-M   'P 1'
_cell_length_a   6.81878565
_cell_length_b   12.50436213
_cell_length_c   2.97264473
_cell_angle_alpha   90.00000000
_cell_angle_beta   90.00000000
_cell_angle_gamma   90.00000000
_symmetry_Int_Tables_number   1
_chemical_formula_structural   LiBr
_chemical_formula_sum   'Li8 Br8'
_cell_volume   253.46125978
_cell_formula_units_Z   8
loop_
 _symmetry_equiv_pos_site_id
 _symmetry_equiv_pos_as_xyz
  1  'x, y, z'
loop_
 _atom_site_type_symbol
 _atom_site_label
 _atom_site_symmetry_multiplicity
 _atom_site_fract_x
 _atom_site_fract_y
 _atom_site_fract_z
 _atom_site_occupancy
  Br  Br0  1  0.94734059  0.13282686  0.84045297  1
  Br  Br1  1  -0.44734059  -0.13282686  1.34045297  1
  Br  Br2  1  -0.94734059  0.63282686  -0.84045297  1
  Br  Br3  1  1.44734059  0.36717314  -0.34045297  1
  Br  Br4  1  -0.94734059  -0.13282686  -0.84045297  1
  Br  Br5  1  1.44734059  0.13282686  -0.34045297  1
  Br  Br6  1  0.94734059  0.36717314  0.84045297  1
  Br  Br7  1  -0.44734059  0.63282686  1.34045297  1
  Li  Li8  1  0.00000000  0.00000000  0.00000000  1
  Li  Li9  1  0.50000000  0.00000000  0.50000000  1
  Li  Li10  1  0.00000000  0.50000000  0.00000000  1
  Li  Li11  1  0.50000000  0.50000000  0.50000000  1
  Li  Li12  1  0.00000000  0.00000000  0.50000000  1
  Li  Li13  1  0.50000000  0.00000000  0.00000000  1
  Li  Li14  1  0.00000000  0.50000000  0.50000000  1
  Li  Li15  1  0.50000000  0.50000000  0.00000000  1
