# generated using pymatgen
data_Li2S
_symmetry_space_group_name_H-M   'P 1'
_cell_length_a   6.78074410
_cell_length_b   6.78074410
_cell_length_c   17.99260727
_cell_angle_alpha   90.00000000
_cell_angle_beta   90.00000000
_cell_angle_gamma   90.00000000
_symmetry_Int_Tables_number   1
_chemical_formula_structural   Li2S
_chemical_formula_sum   'Li32 S16'
_cell_volume   827.27292310
_cell_formula_units_Z   16
loop_
 _symmetry_equiv_pos_site_id
 _symmetry_equiv_pos_as_xyz
  1  'x, y, z'
loop_
 _atom_site_type_symbol
 _atom_site_label
 _atom_site_symmetry_multiplicity
 _atom_site_fract_x
 _atom_site_fract_y
 _atom_site_fract_z
 _atom_site_occupancy
  Li  Li0  1  0.87240916  0.87240916  0.38392909  1
  Li  Li1  1  0.12759084  0.12759084  0.38392909  1
  Li  Li2  1  0.12759084  0.87240916  0.38392909  1
  Li  Li3  1  0.87240916  0.12759084  0.38392909  1
  Li  Li4  1  0.12759084  0.87240916  0.61607091  1
  Li  Li5  1  0.87240916  0.12759084  0.61607091  1
  Li  Li6  1  0.87240916  0.87240916  0.61607091  1
  Li  Li7  1  0.12759084  0.12759084  0.61607091  1
  Li  Li8  1  0.15912680  0.37698753  0.91273070  1
  Li  Li9  1  -0.15912680  -0.37698753  0.91273070  1
  Li  Li10  1  -0.37698753  0.15912680  0.91273070  1
  Li  Li11  1  0.37698753  -0.15912680  0.91273070  1
  Li  Li12  1  -0.15912680  0.37698753  -0.91273070  1
  Li  Li13  1  0.15912680  -0.37698753  -0.91273070  1
  Li  Li14  1  0.37698753  0.15912680  -0.91273070  1
  Li  Li15  1  -0.37698753  -0.15912680  -0.91273070  1
  Li  Li16  1  -0.15912680  -0.37698753  -0.91273070  1
  Li  Li17  1  0.15912680  0.37698753  -0.91273070  1
  Li  Li18  1  0.37698753  -0.15912680  -0.91273070  1
  Li  Li19  1  -0.37698753  0.15912680  -0.91273070  1
  Li  Li20  1  0.15912680  -0.37698753  0.91273070  1
  Li  Li21  1  -0.15912680  0.37698753  0.91273070  1
  Li  Li22  1  -0.37698753  -0.15912680  0.91273070  1
  Li  Li23  1  0.37698753  0.15912680  0.91273070  1
  Li  Li24  1  0.18240552  -0.00000000  0.00000000  1
  Li  Li25  1  0.81759448  0.00000000  -0.00000000  1
  Li  Li26  1  0.00000000  0.18240552  0.00000000  1
  Li  Li27  1  0.00000000  0.81759448  -0.00000000  1
  Li  Li28  1  0.00000000  0.50000000  -0.00000000  1
  Li  Li29  1  0.50000000  -0.00000000  -0.00000000  1
  Li  Li30  1  0.50000000  0.50000000  0.77637740  1
  Li  Li31  1  0.50000000  0.50000000  0.22362260  1
  S  S32  1  0.00000000  0.00000000  0.50000000  1
  S  S33  1  0.00000000  0.50000000  0.74398000  1
  S  S34  1  0.50000000  -0.00000000  0.74398000  1
  S  S35  1  0.00000000  0.50000000  0.25602000  1
  S  S36  1  0.50000000  -0.00000000  0.25602000  1
  S  S37  1  0.36876334  -0.00000000  0.56686194  1
  S  S38  1  0.63123666  -0.00000000  0.56686194  1
  S  S39  1  0.00000000  0.36876334  0.56686194  1
  S  S40  1  0.00000000  0.63123666  0.56686194  1
  S  S41  1  0.63123666  -0.00000000  0.43313806  1
  S  S42  1  0.36876334  -0.00000000  0.43313806  1
  S  S43  1  0.00000000  0.36876334  0.43313806  1
  S  S44  1  0.00000000  0.63123666  0.43313806  1
  S  S45  1  0.50000000  0.50000000  -0.00000000  1
  S  S46  1  0.00000000  0.50000000  0.50000000  1
  S  S47  1  0.50000000  -0.00000000  0.50000000  1
