# generated using pymatgen
data_Li4Mg6S4Br6O
_symmetry_space_group_name_H-M   'P 1'
_cell_length_a   6.87486210
_cell_length_b   12.13551984
_cell_length_c   9.16267443
_cell_angle_alpha   90.00000000
_cell_angle_beta   90.00000000
_cell_angle_gamma   90.00000000
_symmetry_Int_Tables_number   1
_chemical_formula_structural   Li4Mg6S4Br6O
_chemical_formula_sum   'Li8 Mg12 S8 Br12 O2'
_cell_volume   764.44216098
_cell_formula_units_Z   2
loop_
 _symmetry_equiv_pos_site_id
 _symmetry_equiv_pos_as_xyz
  1  'x, y, z'
loop_
 _atom_site_type_symbol
 _atom_site_label
 _atom_site_symmetry_multiplicity
 _atom_site_fract_x
 _atom_site_fract_y
 _atom_site_fract_z
 _atom_site_occupancy
  Br  Br0  1  0.80820577  0.30283369  0.28178808  1
  Br  Br1  1  -0.80820577  -0.30283369  0.28178808  1
  Br  Br2  1  -0.30820577  0.80283369  -0.28178808  1
  Br  Br3  1  1.30820577  0.19716631  -0.28178808  1
  Br  Br4  1  -0.80820577  -0.30283369  -0.28178808  1
  Br  Br5  1  0.80820577  0.30283369  -0.28178808  1
  Br  Br6  1  1.30820577  0.19716631  0.28178808  1
  Br  Br7  1  -0.30820577  0.80283369  0.28178808  1
  Br  Br8  1  0.00000000  0.00000000  0.19520368  1
  Br  Br9  1  0.50000000  0.50000000  0.80479632  1
  Br  Br10  1  0.00000000  0.00000000  0.80479632  1
  Br  Br11  1  0.50000000  0.50000000  0.19520368  1
  Li  Li12  1  0.30624830  0.39798645  0.34115188  1
  Li  Li13  1  0.69375170  0.60201355  0.34115188  1
  Li  Li14  1  0.19375170  0.89798645  0.65884812  1
  Li  Li15  1  0.80624830  0.10201355  0.65884812  1
  Li  Li16  1  0.69375170  0.60201355  0.65884812  1
  Li  Li17  1  0.30624830  0.39798645  0.65884812  1
  Li  Li18  1  0.80624830  0.10201355  0.34115188  1
  Li  Li19  1  0.19375170  0.89798645  0.34115188  1
  Mg  Mg20  1  0.01426988  0.12277956  0.00000000  1
  Mg  Mg21  1  0.98573012  0.87722044  0.00000000  1
  Mg  Mg22  1  0.48573012  0.62277956  0.00000000  1
  Mg  Mg23  1  0.51426988  0.37722044  -0.00000000  1
  Mg  Mg24  1  0.31224859  0.06439868  0.82757900  1
  Mg  Mg25  1  0.68775141  0.93560132  0.82757900  1
  Mg  Mg26  1  0.18775141  0.56439868  0.17242100  1
  Mg  Mg27  1  0.81224859  0.43560132  0.17242100  1
  Mg  Mg28  1  0.68775141  0.93560132  0.17242100  1
  Mg  Mg29  1  0.31224859  0.06439868  0.17242100  1
  Mg  Mg30  1  0.81224859  0.43560132  0.82757900  1
  Mg  Mg31  1  0.18775141  0.56439868  0.82757900  1
  O  O32  1  0.00000000  0.00000000  0.00000000  1
  O  O33  1  0.50000000  0.50000000  0.00000000  1
  S  S34  1  0.00000000  0.50000000  0.00000000  1
  S  S35  1  0.50000000  -0.00000000  0.00000000  1
  S  S36  1  0.00000000  0.50000000  0.50000000  1
  S  S37  1  0.50000000  -0.00000000  0.50000000  1
  S  S38  1  0.80115001  0.63563094  0.00000000  1
  S  S39  1  0.19884999  0.36436906  0.00000000  1
  S  S40  1  0.69884999  0.13563094  -0.00000000  1
  S  S41  1  0.30115001  0.86436906  0.00000000  1
