# generated using pymatgen
data_Li2S
_symmetry_space_group_name_H-M   'P 1'
_cell_length_a   15.26605311
_cell_length_b   15.26605311
_cell_length_c   12.96613274
_cell_angle_alpha   90.00000000
_cell_angle_beta   90.00000000
_cell_angle_gamma   120.00000000
_symmetry_Int_Tables_number   1
_chemical_formula_structural   Li2S
_chemical_formula_sum   'Li72 S36'
_cell_volume   2616.94522687
_cell_formula_units_Z   36
loop_
 _symmetry_equiv_pos_site_id
 _symmetry_equiv_pos_as_xyz
  1  'x, y, z'
loop_
 _atom_site_type_symbol
 _atom_site_label
 _atom_site_symmetry_multiplicity
 _atom_site_fract_x
 _atom_site_fract_y
 _atom_site_fract_z
 _atom_site_occupancy
  Li  Li0  1  0.00000000  0.00000000  0.50000000  1
  Li  Li1  1  0.66666667  0.33333333  0.83333333  1
  Li  Li2  1  0.33333333  0.66666667  0.16666667  1
  Li  Li3  1  0.63679107  0.90760848  0.04462457  1
  Li  Li4  1  0.09239152  0.72918259  0.04462457  1
  Li  Li5  1  0.27081741  0.36320893  0.04462457  1
  Li  Li6  1  0.90760848  0.63679107  0.95537543  1
  Li  Li7  1  0.72918259  0.09239152  0.95537543  1
  Li  Li8  1  0.36320893  0.27081741  0.95537543  1
  Li  Li9  1  0.36320893  0.09239152  0.95537543  1
  Li  Li10  1  0.90760848  0.27081741  0.95537543  1
  Li  Li11  1  0.72918259  0.63679107  0.95537543  1
  Li  Li12  1  0.09239152  0.36320893  0.04462457  1
  Li  Li13  1  0.27081741  0.90760848  0.04462457  1
  Li  Li14  1  0.63679107  0.72918259  0.04462457  1
  Li  Li15  1  0.30345774  0.24094182  0.37795791  1
  Li  Li16  1  0.75905818  0.06251592  0.37795791  1
  Li  Li17  1  0.93748408  0.69654226  0.37795791  1
  Li  Li18  1  0.57427515  0.97012440  0.28870876  1
  Li  Li19  1  0.39584925  0.42572485  0.28870876  1
  Li  Li20  1  0.02987560  0.60415075  0.28870876  1
  Li  Li21  1  0.02987560  0.42572485  0.28870876  1
  Li  Li22  1  0.57427515  0.60415075  0.28870876  1
  Li  Li23  1  0.39584925  0.97012440  0.28870876  1
  Li  Li24  1  0.75905818  0.69654226  0.37795791  1
  Li  Li25  1  0.93748408  0.24094182  0.37795791  1
  Li  Li26  1  0.30345774  0.06251592  0.37795791  1
  Li  Li27  1  0.97012440  0.57427515  0.71129124  1
  Li  Li28  1  0.42572485  0.39584925  0.71129124  1
  Li  Li29  1  0.60415075  0.02987560  0.71129124  1
  Li  Li30  1  0.24094182  0.30345774  0.62204209  1
  Li  Li31  1  0.06251592  0.75905818  0.62204209  1
  Li  Li32  1  0.69654226  0.93748408  0.62204209  1
  Li  Li33  1  0.69654226  0.75905818  0.62204209  1
  Li  Li34  1  0.24094182  0.93748408  0.62204209  1
  Li  Li35  1  0.06251592  0.30345774  0.62204209  1
  Li  Li36  1  0.42572485  0.02987560  0.71129124  1
  Li  Li37  1  0.60415075  0.57427515  0.71129124  1
  Li  Li38  1  0.97012440  0.39584925  0.71129124  1
  Li  Li39  1  0.10505201  -0.00000000  -0.00000000  1
  Li  Li40  1  0.00000000  0.10505201  0.00000000  1
  Li  Li41  1  0.89494799  0.89494799  0.00000000  1
  Li  Li42  1  0.89494799  -0.00000000  0.00000000  1
  Li  Li43  1  0.00000000  0.89494799  0.00000000  1
  Li  Li44  1  0.10505201  0.10505201  0.00000000  1
  Li  Li45  1  0.77171868  0.33333333  0.33333333  1
  Li  Li46  1  0.66666667  0.43838534  0.33333333  1
  Li  Li47  1  0.56161466  0.22828132  0.33333333  1
  Li  Li48  1  0.56161466  0.33333333  0.33333333  1
  Li  Li49  1  0.66666667  0.22828132  0.33333333  1
  Li  Li50  1  0.77171868  0.43838534  0.33333333  1
  Li  Li51  1  0.43838534  0.66666667  0.66666667  1
  Li  Li52  1  0.33333333  0.77171868  0.66666667  1
  Li  Li53  1  0.22828132  0.56161466  0.66666667  1
  Li  Li54  1  0.22828132  0.66666667  0.66666667  1
  Li  Li55  1  0.33333333  0.56161466  0.66666667  1
  Li  Li56  1  0.43838534  0.77171868  0.66666667  1
  Li  Li57  1  0.50000000  0.00000000  0.00000000  1
  Li  Li58  1  0.00000000  0.50000000  0.00000000  1
  Li  Li59  1  0.50000000  0.50000000  0.00000000  1
  Li  Li60  1  0.16666667  0.33333333  0.33333333  1
  Li  Li61  1  0.66666667  0.83333333  0.33333333  1
  Li  Li62  1  0.16666667  0.83333333  0.33333333  1
  Li  Li63  1  0.83333333  0.66666667  0.66666667  1
  Li  Li64  1  0.33333333  0.16666667  0.66666667  1
  Li  Li65  1  0.83333333  0.16666667  0.66666667  1
  Li  Li66  1  0.00000000  0.00000000  0.26154012  1
  Li  Li67  1  0.00000000  0.00000000  0.73845988  1
  Li  Li68  1  0.66666667  0.33333333  0.59487345  1
  Li  Li69  1  0.66666667  0.33333333  0.07179321  1
  Li  Li70  1  0.33333333  0.66666667  0.92820679  1
  Li  Li71  1  0.33333333  0.66666667  0.40512655  1
  S  S72  1  0.77205560  0.45895397  0.95877037  1
  S  S73  1  -0.45895397  0.31310163  0.95877037  1
  S  S74  1  -0.31310163  -0.77205560  0.95877037  1
  S  S75  1  0.45895397  0.77205560  -0.95877037  1
  S  S76  1  0.31310163  -0.45895397  -0.95877037  1
  S  S77  1  -0.77205560  -0.31310163  -0.95877037  1
  S  S78  1  -0.77205560  -0.45895397  -0.95877037  1
  S  S79  1  0.45895397  -0.31310163  -0.95877037  1
  S  S80  1  0.31310163  0.77205560  -0.95877037  1
  S  S81  1  -0.45895397  -0.77205560  0.95877037  1
  S  S82  1  -0.31310163  0.45895397  0.95877037  1
  S  S83  1  0.77205560  0.31310163  0.95877037  1
  S  S84  1  1.43872227  0.79228730  1.29210370  1
  S  S85  1  0.20771270  0.64643496  1.29210370  1
  S  S86  1  0.35356504  -0.43872227  1.29210370  1
  S  S87  1  1.12562064  1.10538893  -0.62543703  1
  S  S88  1  0.97976830  -0.12562064  -0.62543703  1
  S  S89  1  -0.10538893  0.02023170  -0.62543703  1
  S  S90  1  -0.10538893  -0.12562064  -0.62543703  1
  S  S91  1  1.12562064  0.02023170  -0.62543703  1
  S  S92  1  0.97976830  1.10538893  -0.62543703  1
  S  S93  1  0.20771270  -0.43872227  1.29210370  1
  S  S94  1  0.35356504  0.79228730  1.29210370  1
  S  S95  1  1.43872227  0.64643496  1.29210370  1
  S  S96  1  1.10538893  1.12562064  1.62543703  1
  S  S97  1  -0.12562064  0.97976830  1.62543703  1
  S  S98  1  0.02023170  -0.10538893  1.62543703  1
  S  S99  1  0.79228730  1.43872227  -0.29210370  1
  S  S100  1  0.64643496  0.20771270  -0.29210370  1
  S  S101  1  -0.43872227  0.35356504  -0.29210370  1
  S  S102  1  -0.43872227  0.20771270  -0.29210370  1
  S  S103  1  0.79228730  0.35356504  -0.29210370  1
  S  S104  1  0.64643496  1.43872227  -0.29210370  1
  S  S105  1  -0.12562064  -0.10538893  1.62543703  1
  S  S106  1  0.02023170  1.12562064  1.62543703  1
  S  S107  1  1.10538893  0.97976830  1.62543703  1
