# generated using pymatgen
data_LiAl2NiSe2
_symmetry_space_group_name_H-M   'P 1'
_cell_length_a   3.21190851
_cell_length_b   2.72480069
_cell_length_c   6.78333749
_cell_angle_alpha   119.34934002
_cell_angle_beta   100.31643118
_cell_angle_gamma   117.25763291
_symmetry_Int_Tables_number   1
_chemical_formula_structural   LiAl2NiSe2
_chemical_formula_sum   'Li1 Al2 Ni1 Se2'
_cell_volume   39.26905423
_cell_formula_units_Z   1
loop_
 _symmetry_equiv_pos_site_id
 _symmetry_equiv_pos_as_xyz
  1  'x, y, z'
loop_
 _atom_site_type_symbol
 _atom_site_label
 _atom_site_symmetry_multiplicity
 _atom_site_fract_x
 _atom_site_fract_y
 _atom_site_fract_z
 _atom_site_occupancy
  Li  Li0  1  0.00000000  0.00000000  0.00000000  1
  Ni  Ni1  1  0.33300000  0.66700000  0.25000000  1
  Al  Al2  1  0.66700000  0.33300000  0.50000000  1
  Al  Al3  1  0.00000000  0.00000000  0.75000000  1
  Se  Se4  1  0.39645944  0.32450283  0.98223031  1
  Se  Se5  1  0.84624962  0.97087714  0.42424360  1
