# generated using pymatgen
data_LiF
_symmetry_space_group_name_H-M   'P 1'
_cell_length_a   5.72369509
_cell_length_b   11.82535510
_cell_length_c   7.41516256
_cell_angle_alpha   90.00000000
_cell_angle_beta   90.00000000
_cell_angle_gamma   90.00000000
_symmetry_Int_Tables_number   1
_chemical_formula_structural   LiF
_chemical_formula_sum   'Li16 F16'
_cell_volume   501.89325289
_cell_formula_units_Z   16
loop_
 _symmetry_equiv_pos_site_id
 _symmetry_equiv_pos_as_xyz
  1  'x, y, z'
loop_
 _atom_site_type_symbol
 _atom_site_label
 _atom_site_symmetry_multiplicity
 _atom_site_fract_x
 _atom_site_fract_y
 _atom_site_fract_z
 _atom_site_occupancy
  F  F0  1  0.37817294  0.81459830  0.35523830  1
  F  F1  1  -0.37817294  -0.81459830  0.35523830  1
  F  F2  1  0.12182706  1.31459830  -0.35523830  1
  F  F3  1  0.87817294  -0.31459830  -0.35523830  1
  F  F4  1  -0.37817294  -0.81459830  -0.35523830  1
  F  F5  1  0.37817294  0.81459830  -0.35523830  1
  F  F6  1  0.87817294  -0.31459830  0.35523830  1
  F  F7  1  0.12182706  1.31459830  0.35523830  1
  F  F8  1  0.65562185  0.97339074  0.88388128  1
  F  F9  1  0.34437815  0.02660926  0.88388128  1
  F  F10  1  0.84437815  0.47339074  0.11611872  1
  F  F11  1  0.15562185  0.52660926  0.11611872  1
  F  F12  1  0.34437815  0.02660926  0.11611872  1
  F  F13  1  0.65562185  0.97339074  0.11611872  1
  F  F14  1  0.15562185  0.52660926  0.88388128  1
  F  F15  1  0.84437815  0.47339074  0.88388128  1
  Li  Li16  1  0.00000000  0.50000000  0.50000000  1
  Li  Li17  1  0.50000000  0.00000000  0.50000000  1
  Li  Li18  1  0.00000000  0.50000000  0.31919657  1
  Li  Li19  1  0.50000000  0.00000000  0.68080343  1
  Li  Li20  1  0.00000000  0.50000000  0.68080343  1
  Li  Li21  1  0.50000000  0.00000000  0.31919657  1
  Li  Li22  1  0.00000000  0.00000000  0.50000000  1
  Li  Li23  1  0.50000000  0.50000000  0.50000000  1
  Li  Li24  1  0.74333830  0.39225177  0.50000000  1
  Li  Li25  1  0.25666170  0.60774823  0.50000000  1
  Li  Li26  1  0.75666170  0.89225177  0.50000000  1
  Li  Li27  1  0.24333830  0.10774823  0.50000000  1
  Li  Li28  1  0.31607670  0.32219313  -0.00000000  1
  Li  Li29  1  0.68392330  0.67780687  0.00000000  1
  Li  Li30  1  0.18392330  0.82219313  -0.00000000  1
  Li  Li31  1  0.81607670  0.17780687  0.00000000  1
