# generated using pymatgen
data_Li2Ca3F8
_symmetry_space_group_name_H-M   'P 1'
_cell_length_a   13.40682730
_cell_length_b   13.40682730
_cell_length_c   10.41473931
_cell_angle_alpha   90.00000000
_cell_angle_beta   90.00000000
_cell_angle_gamma   90.00000000
_symmetry_Int_Tables_number   1
_chemical_formula_structural   Li2Ca3F8
_chemical_formula_sum   'Li16 Ca24 F64'
_cell_volume   1871.97667739
_cell_formula_units_Z   8
loop_
 _symmetry_equiv_pos_site_id
 _symmetry_equiv_pos_as_xyz
  1  'x, y, z'
loop_
 _atom_site_type_symbol
 _atom_site_label
 _atom_site_symmetry_multiplicity
 _atom_site_fract_x
 _atom_site_fract_y
 _atom_site_fract_z
 _atom_site_occupancy
  Ca  Ca0  1  0.60808115  0.60808115  0.00000000  1
  Ca  Ca1  1  0.39191885  0.39191885  0.00000000  1
  Ca  Ca2  1  0.39191885  0.60808115  0.00000000  1
  Ca  Ca3  1  0.60808115  0.39191885  0.00000000  1
  Ca  Ca4  1  0.00000000  0.50000000  0.00000000  1
  Ca  Ca5  1  0.50000000  0.00000000  0.00000000  1
  Ca  Ca6  1  0.00000000  0.00000000  0.71198618  1
  Ca  Ca7  1  0.00000000  0.00000000  0.28801382  1
  Ca  Ca8  1  0.26155416  0.59302812  0.22212439  1
  Ca  Ca9  1  0.73844584  0.40697188  0.22212439  1
  Ca  Ca10  1  0.40697188  0.26155416  0.22212439  1
  Ca  Ca11  1  0.59302812  0.73844584  0.22212439  1
  Ca  Ca12  1  0.73844584  0.59302812  0.77787561  1
  Ca  Ca13  1  0.26155416  0.40697188  0.77787561  1
  Ca  Ca14  1  0.59302812  0.26155416  0.77787561  1
  Ca  Ca15  1  0.40697188  0.73844584  0.77787561  1
  Ca  Ca16  1  0.73844584  0.40697188  0.77787561  1
  Ca  Ca17  1  0.26155416  0.59302812  0.77787561  1
  Ca  Ca18  1  0.59302812  0.73844584  0.77787561  1
  Ca  Ca19  1  0.40697188  0.26155416  0.77787561  1
  Ca  Ca20  1  0.26155416  0.40697188  0.22212439  1
  Ca  Ca21  1  0.73844584  0.59302812  0.22212439  1
  Ca  Ca22  1  0.40697188  0.73844584  0.22212439  1
  Ca  Ca23  1  0.59302812  0.26155416  0.22212439  1
  F  F24  1  0.00000000  0.00000000  0.42632999  1
  F  F25  1  0.00000000  0.00000000  0.57367001  1
  F  F26  1  0.47861227  0.00000000  0.50000000  1
  F  F27  1  0.52138773  0.00000000  0.50000000  1
  F  F28  1  0.00000000  0.47861227  0.50000000  1
  F  F29  1  0.00000000  0.52138773  0.50000000  1
  F  F30  1  0.18162385  0.00000000  0.50000000  1
  F  F31  1  0.81837615  0.00000000  0.50000000  1
  F  F32  1  0.00000000  0.18162385  0.50000000  1
  F  F33  1  0.00000000  0.81837615  0.50000000  1
  F  F34  1  0.38586509  0.24875142  0.60467694  1
  F  F35  1  -0.38586509  -0.24875142  0.60467694  1
  F  F36  1  -0.24875142  0.38586509  0.60467694  1
  F  F37  1  0.24875142  -0.38586509  0.60467694  1
  F  F38  1  -0.38586509  0.24875142  -0.60467694  1
  F  F39  1  0.38586509  -0.24875142  -0.60467694  1
  F  F40  1  0.24875142  0.38586509  -0.60467694  1
  F  F41  1  -0.24875142  -0.38586509  -0.60467694  1
  F  F42  1  -0.38586509  -0.24875142  -0.60467694  1
  F  F43  1  0.38586509  0.24875142  -0.60467694  1
  F  F44  1  0.24875142  -0.38586509  -0.60467694  1
  F  F45  1  -0.24875142  0.38586509  -0.60467694  1
  F  F46  1  0.38586509  -0.24875142  0.60467694  1
  F  F47  1  -0.38586509  0.24875142  0.60467694  1
  F  F48  1  -0.24875142  -0.38586509  0.60467694  1
  F  F49  1  0.24875142  0.38586509  0.60467694  1
  F  F50  1  0.62954634  0.87518734  0.31110541  1
  F  F51  1  0.37045366  0.12481266  0.31110541  1
  F  F52  1  0.12481266  0.62954634  0.31110541  1
  F  F53  1  0.87518734  0.37045366  0.31110541  1
  F  F54  1  0.37045366  0.87518734  0.68889459  1
  F  F55  1  0.62954634  0.12481266  0.68889459  1
  F  F56  1  0.87518734  0.62954634  0.68889459  1
  F  F57  1  0.12481266  0.37045366  0.68889459  1
  F  F58  1  0.37045366  0.12481266  0.68889459  1
  F  F59  1  0.62954634  0.87518734  0.68889459  1
  F  F60  1  0.87518734  0.37045366  0.68889459  1
  F  F61  1  0.12481266  0.62954634  0.68889459  1
  F  F62  1  0.62954634  0.12481266  0.31110541  1
  F  F63  1  0.37045366  0.87518734  0.31110541  1
  F  F64  1  0.12481266  0.37045366  0.31110541  1
  F  F65  1  0.87518734  0.62954634  0.31110541  1
  F  F66  1  0.23694117  0.23694117  0.00000000  1
  F  F67  1  0.76305883  0.76305883  0.00000000  1
  F  F68  1  0.76305883  0.23694117  0.00000000  1
  F  F69  1  0.23694117  0.76305883  0.00000000  1
  F  F70  1  0.22824751  0.14180774  0.59857392  1
  F  F71  1  0.77175249  0.85819226  0.59857392  1
  F  F72  1  0.85819226  0.22824751  0.59857392  1
  F  F73  1  0.14180774  0.77175249  0.59857392  1
  F  F74  1  0.77175249  0.14180774  0.40142608  1
  F  F75  1  0.22824751  0.85819226  0.40142608  1
  F  F76  1  0.14180774  0.22824751  0.40142608  1
  F  F77  1  0.85819226  0.77175249  0.40142608  1
  F  F78  1  0.77175249  0.85819226  0.40142608  1
  F  F79  1  0.22824751  0.14180774  0.40142608  1
  F  F80  1  0.14180774  0.77175249  0.40142608  1
  F  F81  1  0.85819226  0.22824751  0.40142608  1
  F  F82  1  0.22824751  0.85819226  0.59857392  1
  F  F83  1  0.77175249  0.14180774  0.59857392  1
  F  F84  1  0.85819226  0.77175249  0.59857392  1
  F  F85  1  0.14180774  0.22824751  0.59857392  1
  F  F86  1  0.00000000  0.00000000  0.91152102  1
  F  F87  1  0.00000000  0.00000000  0.08847898  1
  Li  Li88  1  0.38225502  0.50000000  0.06773616  1
  Li  Li89  1  0.61774498  0.50000000  0.06773616  1
  Li  Li90  1  0.50000000  0.38225502  0.06773616  1
  Li  Li91  1  0.50000000  0.61774498  0.06773616  1
  Li  Li92  1  0.61774498  0.50000000  0.93226384  1
  Li  Li93  1  0.38225502  0.50000000  0.93226384  1
  Li  Li94  1  0.50000000  0.38225502  0.93226384  1
  Li  Li95  1  0.50000000  0.61774498  0.93226384  1
  Li  Li96  1  0.70474866  0.92599526  0.00000000  1
  Li  Li97  1  0.29525134  0.07400474  0.00000000  1
  Li  Li98  1  0.07400474  0.70474866  0.00000000  1
  Li  Li99  1  0.92599526  0.29525134  0.00000000  1
  Li  Li100  1  0.29525134  0.92599526  0.00000000  1
  Li  Li101  1  0.70474866  0.07400474  0.00000000  1
  Li  Li102  1  0.92599526  0.70474866  0.00000000  1
  Li  Li103  1  0.07400474  0.29525134  0.00000000  1
