# generated using pymatgen
data_LiYAs2P
_symmetry_space_group_name_H-M   'P 1'
_cell_length_a   5.12692641
_cell_length_b   5.24223999
_cell_length_c   6.91897226
_cell_angle_alpha   94.14966833
_cell_angle_beta   99.21790551
_cell_angle_gamma   106.88586273
_symmetry_Int_Tables_number   1
_chemical_formula_structural   LiYAs2P
_chemical_formula_sum   'Li2 Y2 As4 P2'
_cell_volume   174.24585423
_cell_formula_units_Z   2
loop_
 _symmetry_equiv_pos_site_id
 _symmetry_equiv_pos_as_xyz
  1  'x, y, z'
loop_
 _atom_site_type_symbol
 _atom_site_label
 _atom_site_symmetry_multiplicity
 _atom_site_fract_x
 _atom_site_fract_y
 _atom_site_fract_z
 _atom_site_occupancy
  P  P0  1  0.12500000  0.12500000  0.12500000  1
  P  P1  1  0.50000000  0.50000000  0.50000000  1
  As  As2  1  0.25000000  0.25000000  0.25000000  1
  As  As3  1  0.75000000  0.75000000  0.75000000  1
  As  As4  1  0.79438807  0.16944050  0.06568855  1
  As  As5  1  0.64186053  0.09536702  0.25438891  1
  Li  Li6  1  0.36807438  0.05968486  0.06628589  1
  Li  Li7  1  0.78637103  0.16670861  0.55389409  1
  Y  Y8  1  0.48167962  0.98447403  0.85624611  1
  Y  Y9  1  0.87959785  0.23382459  0.41870270  1
