# generated using pymatgen
data_LiF
_symmetry_space_group_name_H-M   'P 1'
_cell_length_a   8.93509801
_cell_length_b   8.21784669
_cell_length_c   11.55193163
_cell_angle_alpha   90.00000000
_cell_angle_beta   90.00000000
_cell_angle_gamma   90.00000000
_symmetry_Int_Tables_number   1
_chemical_formula_structural   LiF
_chemical_formula_sum   'Li32 F32'
_cell_volume   848.22675168
_cell_formula_units_Z   32
loop_
 _symmetry_equiv_pos_site_id
 _symmetry_equiv_pos_as_xyz
  1  'x, y, z'
loop_
 _atom_site_type_symbol
 _atom_site_label
 _atom_site_symmetry_multiplicity
 _atom_site_fract_x
 _atom_site_fract_y
 _atom_site_fract_z
 _atom_site_occupancy
  F  F0  1  0.18598699  0.25000000  0.10668450  1
  F  F1  1  0.31401301  0.75000000  0.60668450  1
  F  F2  1  0.81401301  0.75000000  0.89331550  1
  F  F3  1  0.68598699  0.25000000  0.39331550  1
  F  F4  1  0.89544611  0.09143525  0.48224187  1
  F  F5  1  0.60455389  0.90856475  0.98224187  1
  F  F6  1  0.10455389  0.59143525  0.51775813  1
  F  F7  1  0.39544611  0.40856475  0.01775813  1
  F  F8  1  0.10455389  0.90856475  0.51775813  1
  F  F9  1  0.39544611  0.09143525  0.01775813  1
  F  F10  1  0.89544611  0.40856475  0.48224187  1
  F  F11  1  0.60455389  0.59143525  0.98224187  1
  F  F12  1  0.33217788  0.81637328  0.40462956  1
  F  F13  1  0.16782212  0.18362672  0.90462956  1
  F  F14  1  0.66782212  0.31637328  0.59537044  1
  F  F15  1  0.83217788  0.68362672  0.09537044  1
  F  F16  1  0.66782212  0.18362672  0.59537044  1
  F  F17  1  0.83217788  0.81637328  0.09537044  1
  F  F18  1  0.33217788  0.68362672  0.40462956  1
  F  F19  1  0.16782212  0.31637328  0.90462956  1
  F  F20  1  0.68558869  0.37858895  0.95752520  1
  F  F21  1  0.81441131  0.62141105  0.45752520  1
  F  F22  1  0.31441131  0.87858895  0.04247480  1
  F  F23  1  0.18558869  0.12141105  0.54247480  1
  F  F24  1  0.31441131  0.62141105  0.04247480  1
  F  F25  1  0.18558869  0.37858895  0.54247480  1
  F  F26  1  0.68558869  0.12141105  0.95752520  1
  F  F27  1  0.81441131  0.87858895  0.45752520  1
  F  F28  1  0.48717338  0.25000000  0.74924236  1
  F  F29  1  0.01282662  0.75000000  0.24924236  1
  F  F30  1  0.51282662  0.75000000  0.25075764  1
  F  F31  1  0.98717338  0.25000000  0.75075764  1
  Li  Li32  1  0.44407770  0.14740105  0.53689791  1
  Li  Li33  1  0.05592230  -0.14740105  1.03689791  1
  Li  Li34  1  -0.44407770  0.64740105  -0.53689791  1
  Li  Li35  1  0.94407770  0.35259895  -0.03689791  1
  Li  Li36  1  -0.44407770  -0.14740105  -0.53689791  1
  Li  Li37  1  0.94407770  0.14740105  -0.03689791  1
  Li  Li38  1  0.44407770  0.35259895  0.53689791  1
  Li  Li39  1  0.05592230  0.64740105  1.03689791  1
  Li  Li40  1  0.00000000  0.00000000  0.00000000  1
  Li  Li41  1  0.50000000  0.00000000  0.50000000  1
  Li  Li42  1  0.00000000  0.50000000  0.00000000  1
  Li  Li43  1  0.50000000  0.50000000  0.50000000  1
  Li  Li44  1  0.02844040  0.15949300  0.29578609  1
  Li  Li45  1  0.47155960  0.84050700  0.79578609  1
  Li  Li46  1  0.97155960  0.65949300  0.70421391  1
  Li  Li47  1  0.52844040  0.34050700  0.20421391  1
  Li  Li48  1  0.97155960  0.84050700  0.70421391  1
  Li  Li49  1  0.52844040  0.15949300  0.20421391  1
  Li  Li50  1  0.02844040  0.34050700  0.29578609  1
  Li  Li51  1  0.47155960  0.65949300  0.79578609  1
  Li  Li52  1  0.86198553  0.52110303  0.68070663  1
  Li  Li53  1  0.63801447  0.47889697  0.18070663  1
  Li  Li54  1  0.13801447  0.02110303  0.31929337  1
  Li  Li55  1  0.36198553  0.97889697  0.81929337  1
  Li  Li56  1  0.13801447  0.47889697  0.31929337  1
  Li  Li57  1  0.36198553  0.52110303  0.81929337  1
  Li  Li58  1  0.86198553  0.97889697  0.68070663  1
  Li  Li59  1  0.63801447  0.02110303  0.18070663  1
  Li  Li60  1  0.00000000  0.00000000  0.50000000  1
  Li  Li61  1  0.50000000  0.00000000  0.00000000  1
  Li  Li62  1  0.00000000  0.50000000  0.50000000  1
  Li  Li63  1  0.50000000  0.50000000  0.00000000  1
