# generated using pymatgen
data_LiF
_symmetry_space_group_name_H-M   'P 1'
_cell_length_a   10.83984575
_cell_length_b   7.12128505
_cell_length_c   6.69895277
_cell_angle_alpha   90.00000000
_cell_angle_beta   90.00000000
_cell_angle_gamma   90.00000000
_symmetry_Int_Tables_number   1
_chemical_formula_structural   LiF
_chemical_formula_sum   'Li24 F24'
_cell_volume   517.11649093
_cell_formula_units_Z   24
loop_
 _symmetry_equiv_pos_site_id
 _symmetry_equiv_pos_as_xyz
  1  'x, y, z'
loop_
 _atom_site_type_symbol
 _atom_site_label
 _atom_site_symmetry_multiplicity
 _atom_site_fract_x
 _atom_site_fract_y
 _atom_site_fract_z
 _atom_site_occupancy
  F  F0  1  0.28547145  0.42745627  0.25378086  1
  F  F1  1  0.21452855  0.57254373  0.75378086  1
  F  F2  1  0.71452855  0.92745627  0.74621914  1
  F  F3  1  0.78547145  0.07254373  0.24621914  1
  F  F4  1  0.71452855  0.57254373  0.74621914  1
  F  F5  1  0.78547145  0.42745627  0.24621914  1
  F  F6  1  0.28547145  0.07254373  0.25378086  1
  F  F7  1  0.21452855  0.92745627  0.75378086  1
  F  F8  1  0.09585990  0.25000000  0.02010907  1
  F  F9  1  0.40414010  0.75000000  0.52010907  1
  F  F10  1  0.90414010  0.75000000  0.97989093  1
  F  F11  1  0.59585990  0.25000000  0.47989093  1
  F  F12  1  0.00000000  0.00000000  0.50000000  1
  F  F13  1  0.50000000  0.00000000  -0.00000000  1
  F  F14  1  0.00000000  0.50000000  0.50000000  1
  F  F15  1  0.50000000  0.50000000  -0.00000000  1
  F  F16  1  0.43536013  0.25000000  0.77711311  1
  F  F17  1  0.06463987  0.75000000  0.27711311  1
  F  F18  1  0.56463987  0.75000000  0.22288689  1
  F  F19  1  0.93536013  0.25000000  0.72288689  1
  F  F20  1  0.99664544  0.25000000  0.69535855  1
  F  F21  1  0.50335456  0.75000000  0.19535855  1
  F  F22  1  0.00335456  0.75000000  0.30464145  1
  F  F23  1  0.49664544  0.25000000  0.80464145  1
  Li  Li24  1  0.23634103  0.25000000  0.22179842  1
  Li  Li25  1  0.26365897  0.75000000  0.72179842  1
  Li  Li26  1  0.76365897  0.75000000  0.77820158  1
  Li  Li27  1  0.73634103  0.25000000  0.27820158  1
  Li  Li28  1  0.00000000  0.00000000  0.00000000  1
  Li  Li29  1  0.50000000  0.00000000  0.50000000  1
  Li  Li30  1  0.00000000  0.50000000  0.00000000  1
  Li  Li31  1  0.50000000  0.50000000  0.50000000  1
  Li  Li32  1  0.84990486  0.25000000  0.48278265  1
  Li  Li33  1  0.65009514  0.75000000  0.98278265  1
  Li  Li34  1  0.15009514  0.75000000  0.51721735  1
  Li  Li35  1  0.34990486  0.25000000  0.01721735  1
  Li  Li36  1  0.91600452  0.25000000  0.31715283  1
  Li  Li37  1  0.58399548  0.75000000  0.81715283  1
  Li  Li38  1  0.08399548  0.75000000  0.68284717  1
  Li  Li39  1  0.41600452  0.25000000  0.18284717  1
  Li  Li40  1  0.12092296  0.01199477  0.59272871  1
  Li  Li41  1  0.37907704  -0.01199477  1.09272871  1
  Li  Li42  1  -0.12092296  0.51199477  -0.59272871  1
  Li  Li43  1  0.62092296  0.48800523  -0.09272871  1
  Li  Li44  1  -0.12092296  -0.01199477  -0.59272871  1
  Li  Li45  1  0.62092296  0.01199477  -0.09272871  1
  Li  Li46  1  0.12092296  0.48800523  0.59272871  1
  Li  Li47  1  0.37907704  0.51199477  1.09272871  1
