# generated using pymatgen
data_LiY2As2P3Se
_symmetry_space_group_name_H-M   'P 1'
_cell_length_a   5.30555761
_cell_length_b   5.45296629
_cell_length_c   7.37475496
_cell_angle_alpha   94.27589355
_cell_angle_beta   99.31200721
_cell_angle_gamma   107.17456497
_symmetry_Int_Tables_number   1
_chemical_formula_structural   LiY2As2P3Se
_chemical_formula_sum   'Li1 Y2 As2 P3 Se1'
_cell_volume   199.45844922
_cell_formula_units_Z   1
loop_
 _symmetry_equiv_pos_site_id
 _symmetry_equiv_pos_as_xyz
  1  'x, y, z'
loop_
 _atom_site_type_symbol
 _atom_site_label
 _atom_site_symmetry_multiplicity
 _atom_site_fract_x
 _atom_site_fract_y
 _atom_site_fract_z
 _atom_site_occupancy
  Se  Se0  1  0.12500000  0.00000000  0.25000000  1
  Y  Y1  1  0.00000000  0.00000000  0.00000000  1
  Y  Y2  1  0.37500000  0.00000000  0.25000000  1
  P  P3  1  0.25000000  0.25000000  0.25000000  1
  P  P4  1  0.00000000  0.25000000  0.12500000  1
  P  P5  1  0.49568754  0.58415897  0.13214229  1
  As  As6  1  0.36640601  0.05743207  0.75389539  1
  As  As7  1  0.95440784  0.56297453  0.57211227  1
  Li  Li8  1  0.20128166  0.12297681  0.22753513  1
