# generated using pymatgen
data_LiF
_symmetry_space_group_name_H-M   'P 1'
_cell_length_a   11.17928139
_cell_length_b   11.17928139
_cell_length_c   5.31249892
_cell_angle_alpha   90.00000000
_cell_angle_beta   90.00000000
_cell_angle_gamma   120.00000000
_symmetry_Int_Tables_number   1
_chemical_formula_structural   LiF
_chemical_formula_sum   'Li16 F16'
_cell_volume   574.98598816
_cell_formula_units_Z   16
loop_
 _symmetry_equiv_pos_site_id
 _symmetry_equiv_pos_as_xyz
  1  'x, y, z'
loop_
 _atom_site_type_symbol
 _atom_site_label
 _atom_site_symmetry_multiplicity
 _atom_site_fract_x
 _atom_site_fract_y
 _atom_site_fract_z
 _atom_site_occupancy
  F  F0  1  0.05711479  0.47235821  0.19205772  1
  F  F1  1  -0.47235821  -0.41524342  0.19205772  1
  F  F2  1  0.41524342  -0.05711479  0.19205772  1
  F  F3  1  0.05711479  0.47235821  -0.19205772  1
  F  F4  1  -0.47235821  -0.41524342  -0.19205772  1
  F  F5  1  0.41524342  -0.05711479  -0.19205772  1
  F  F6  1  0.47235821  0.05711479  -0.19205772  1
  F  F7  1  -0.41524342  -0.47235821  -0.19205772  1
  F  F8  1  -0.05711479  0.41524342  -0.19205772  1
  F  F9  1  0.47235821  0.05711479  0.19205772  1
  F  F10  1  -0.41524342  -0.47235821  0.19205772  1
  F  F11  1  -0.05711479  0.41524342  0.19205772  1
  F  F12  1  0.00000000  0.00000000  0.00000000  1
  F  F13  1  0.84000924  0.00000000  0.50000000  1
  F  F14  1  0.00000000  0.84000924  0.50000000  1
  F  F15  1  0.15999076  0.15999076  0.50000000  1
  Li  Li16  1  0.49887628  0.00000000  0.00000000  1
  Li  Li17  1  0.00000000  0.49887628  0.00000000  1
  Li  Li18  1  0.50112372  0.50112372  0.00000000  1
  Li  Li19  1  0.91290659  0.14102253  0.50000000  1
  Li  Li20  1  0.85897747  0.77188406  0.50000000  1
  Li  Li21  1  0.22811594  0.08709341  0.50000000  1
  Li  Li22  1  0.14102253  0.91290659  0.50000000  1
  Li  Li23  1  0.77188406  0.85897747  0.50000000  1
  Li  Li24  1  0.08709341  0.22811594  0.50000000  1
  Li  Li25  1  0.58224156  0.00000000  0.25378187  1
  Li  Li26  1  0.00000000  0.58224156  0.25378187  1
  Li  Li27  1  0.41775844  0.41775844  0.25378187  1
  Li  Li28  1  0.58224156  0.00000000  0.74621813  1
  Li  Li29  1  0.00000000  0.58224156  0.74621813  1
  Li  Li30  1  0.41775844  0.41775844  0.74621813  1
  Li  Li31  1  0.00000000  0.00000000  0.50000000  1
