# generated using pymatgen
data_LiYPSe
_symmetry_space_group_name_H-M   'P 1'
_cell_length_a   5.45585070
_cell_length_b   5.73261878
_cell_length_c   7.27932809
_cell_angle_alpha   93.96419024
_cell_angle_beta   98.63318221
_cell_angle_gamma   105.92257666
_symmetry_Int_Tables_number   1
_chemical_formula_structural   LiYPSe
_chemical_formula_sum   'Li2 Y2 P2 Se2'
_cell_volume   214.99296334
_cell_formula_units_Z   2
loop_
 _symmetry_equiv_pos_site_id
 _symmetry_equiv_pos_as_xyz
  1  'x, y, z'
loop_
 _atom_site_type_symbol
 _atom_site_label
 _atom_site_symmetry_multiplicity
 _atom_site_fract_x
 _atom_site_fract_y
 _atom_site_fract_z
 _atom_site_occupancy
  Se  Se0  1  0.00000000  0.00000000  0.00000000  1
  Se  Se1  1  0.33300000  0.66700000  0.25000000  1
  P  P2  1  0.66700000  0.33300000  0.50000000  1
  P  P3  1  0.00000000  0.00000000  0.75000000  1
  Li  Li4  1  0.80767931  0.27966137  0.71988350  1
  Li  Li5  1  0.82569146  0.35139146  0.15525399  1
  Y  Y6  1  0.45023011  0.83079152  0.11086242  1
  Y  Y7  1  0.16762105  0.22578121  0.95415389  1
