# generated using pymatgen
data_LiF
_symmetry_space_group_name_H-M   'P 1'
_cell_length_a   5.75589871
_cell_length_b   5.75589871
_cell_length_c   14.32513849
_cell_angle_alpha   90.00000000
_cell_angle_beta   90.00000000
_cell_angle_gamma   120.00000000
_symmetry_Int_Tables_number   1
_chemical_formula_structural   LiF
_chemical_formula_sum   'Li22 F22'
_cell_volume   411.01317764
_cell_formula_units_Z   22
loop_
 _symmetry_equiv_pos_site_id
 _symmetry_equiv_pos_as_xyz
  1  'x, y, z'
loop_
 _atom_site_type_symbol
 _atom_site_label
 _atom_site_symmetry_multiplicity
 _atom_site_fract_x
 _atom_site_fract_y
 _atom_site_fract_z
 _atom_site_occupancy
  F  F0  1  0.72037056  0.22954819  0.28629404  1
  F  F1  1  0.77045181  0.49082237  0.28629404  1
  F  F2  1  0.50917763  0.27962944  0.28629404  1
  F  F3  1  0.77045181  0.27962944  0.71370596  1
  F  F4  1  0.50917763  0.22954819  0.71370596  1
  F  F5  1  0.72037056  0.49082237  0.71370596  1
  F  F6  1  0.66666667  0.33333333  0.00000000  1
  F  F7  1  0.05999161  0.42113731  0.02144414  1
  F  F8  1  0.57886269  0.63885430  0.02144414  1
  F  F9  1  0.36114570  0.94000839  0.02144414  1
  F  F10  1  0.57886269  0.94000839  0.97855586  1
  F  F11  1  0.36114570  0.42113731  0.97855586  1
  F  F12  1  0.05999161  0.63885430  0.97855586  1
  F  F13  1  0.01263978  0.45129018  0.64262355  1
  F  F14  1  0.54870982  0.56134960  0.64262355  1
  F  F15  1  0.43865040  0.98736022  0.64262355  1
  F  F16  1  0.54870982  0.98736022  0.35737645  1
  F  F17  1  0.43865040  0.45129018  0.35737645  1
  F  F18  1  0.01263978  0.56134960  0.35737645  1
  F  F19  1  0.44704537  0.55295463  0.00000000  1
  F  F20  1  0.44704537  0.89409073  -0.00000000  1
  F  F21  1  0.10590927  0.55295463  0.00000000  1
  Li  Li22  1  0.20436159  0.79563841  0.50000000  1
  Li  Li23  1  0.20436159  0.40872318  0.50000000  1
  Li  Li24  1  0.59127682  0.79563841  0.50000000  1
  Li  Li25  1  0.97314931  0.64110247  0.63532906  1
  Li  Li26  1  -0.64110247  0.33204684  0.63532906  1
  Li  Li27  1  -0.33204684  -0.97314931  0.63532906  1
  Li  Li28  1  -0.64110247  -0.97314931  -0.63532906  1
  Li  Li29  1  -0.33204684  0.64110247  -0.63532906  1
  Li  Li30  1  0.97314931  0.33204684  -0.63532906  1
  Li  Li31  1  0.00000000  0.00000000  0.00000000  1
  Li  Li32  1  0.79303302  0.20696698  0.50000000  1
  Li  Li33  1  0.79303302  0.58606604  0.50000000  1
  Li  Li34  1  0.41393396  0.20696698  0.50000000  1
  Li  Li35  1  0.81686783  0.75467692  0.66909534  1
  Li  Li36  1  0.24532308  0.06219091  0.66909534  1
  Li  Li37  1  0.93780909  0.18313217  0.66909534  1
  Li  Li38  1  0.24532308  0.18313217  0.33090466  1
  Li  Li39  1  0.93780909  0.75467692  0.33090466  1
  Li  Li40  1  0.81686783  0.06219091  0.33090466  1
  Li  Li41  1  0.33333333  0.66666667  0.50000000  1
  Li  Li42  1  0.66666667  0.33333333  0.14478872  1
  Li  Li43  1  0.66666667  0.33333333  0.85521128  1
