# generated using pymatgen
data_LiY2Te4P2Se
_symmetry_space_group_name_H-M   'P 1'
_cell_length_a   4.23496632
_cell_length_b   4.43507143
_cell_length_c   6.12360473
_cell_angle_alpha   96.08146068
_cell_angle_beta   100.17266802
_cell_angle_gamma   107.03334744
_symmetry_Int_Tables_number   1
_chemical_formula_structural   LiY2Te4P2Se
_chemical_formula_sum   'Li1 Y2 Te4 P2 Se1'
_cell_volume   106.71180830
_cell_formula_units_Z   1
loop_
 _symmetry_equiv_pos_site_id
 _symmetry_equiv_pos_as_xyz
  1  'x, y, z'
loop_
 _atom_site_type_symbol
 _atom_site_label
 _atom_site_symmetry_multiplicity
 _atom_site_fract_x
 _atom_site_fract_y
 _atom_site_fract_z
 _atom_site_occupancy
  Se  Se0  1  0.00000000  0.00000000  0.00000000  1
  Te  Te1  1  0.50000000  0.50000000  0.50000000  1
  Te  Te2  1  0.50000000  0.50000000  0.00000000  1
  Te  Te3  1  0.50000000  0.00000000  0.50000000  1
  Te  Te4  1  0.00000000  0.50000000  0.50000000  1
  Y  Y5  1  0.56322597  0.79301558  0.75759772  1
  Y  Y6  1  0.98666658  0.60217557  0.20041421  1
  P  P7  1  0.07099710  0.21584333  0.19889954  1
  P  P8  1  0.62190022  0.87852446  0.52612379  1
  Li  Li9  1  0.00361486  0.83495252  0.92963591  1
