# generated using pymatgen
data_Li2Y2As2P3Se
_symmetry_space_group_name_H-M   'P 1'
_cell_length_a   5.04438798
_cell_length_b   5.03383987
_cell_length_c   7.26188311
_cell_angle_alpha   94.75816400
_cell_angle_beta   100.36229198
_cell_angle_gamma   109.11165367
_symmetry_Int_Tables_number   1
_chemical_formula_structural   Li2Y2As2P3Se
_chemical_formula_sum   'Li2 Y2 As2 P3 Se1'
_cell_volume   169.38554296
_cell_formula_units_Z   1
loop_
 _symmetry_equiv_pos_site_id
 _symmetry_equiv_pos_as_xyz
  1  'x, y, z'
loop_
 _atom_site_type_symbol
 _atom_site_label
 _atom_site_symmetry_multiplicity
 _atom_site_fract_x
 _atom_site_fract_y
 _atom_site_fract_z
 _atom_site_occupancy
  Se  Se0  1  0.00000000  0.00000000  0.00000000  1
  P  P1  1  0.50000000  0.50000000  0.50000000  1
  P  P2  1  0.50000000  0.50000000  0.00000000  1
  P  P3  1  0.50000000  0.00000000  0.50000000  1
  As  As4  1  0.00000000  0.50000000  0.50000000  1
  As  As5  1  0.55401790  0.37793855  0.37182534  1
  Li  Li6  1  0.71013777  0.12473390  0.01522317  1
  Li  Li7  1  0.72831813  0.24815330  0.06399787  1
  Y  Y8  1  0.09811269  0.13602719  0.73561205  1
  Y  Y9  1  0.34672456  0.19734971  0.04014719  1
