# generated using pymatgen
data_LiF
_symmetry_space_group_name_H-M   'P 1'
_cell_length_a   12.35612204
_cell_length_b   7.54242741
_cell_length_c   4.05838242
_cell_angle_alpha   90.00000000
_cell_angle_beta   90.00000000
_cell_angle_gamma   90.00000000
_symmetry_Int_Tables_number   1
_chemical_formula_structural   LiF
_chemical_formula_sum   'Li24 F24'
_cell_volume   378.22157294
_cell_formula_units_Z   24
loop_
 _symmetry_equiv_pos_site_id
 _symmetry_equiv_pos_as_xyz
  1  'x, y, z'
loop_
 _atom_site_type_symbol
 _atom_site_label
 _atom_site_symmetry_multiplicity
 _atom_site_fract_x
 _atom_site_fract_y
 _atom_site_fract_z
 _atom_site_occupancy
  F  F0  1  0.07877276  0.88824496  0.09939078  1
  F  F1  1  0.42122724  0.11175504  0.59939078  1
  F  F2  1  0.92122724  0.38824496  0.90060922  1
  F  F3  1  0.57877276  0.61175504  0.40060922  1
  F  F4  1  0.92122724  0.11175504  0.90060922  1
  F  F5  1  0.57877276  0.88824496  0.40060922  1
  F  F6  1  0.07877276  0.61175504  0.09939078  1
  F  F7  1  0.42122724  0.38824496  0.59939078  1
  F  F8  1  0.16184693  0.44537395  0.84687198  1
  F  F9  1  0.33815307  0.55462605  0.34687198  1
  F  F10  1  0.83815307  0.94537395  0.15312802  1
  F  F11  1  0.66184693  0.05462605  0.65312802  1
  F  F12  1  0.83815307  0.55462605  0.15312802  1
  F  F13  1  0.66184693  0.44537395  0.65312802  1
  F  F14  1  0.16184693  0.05462605  0.84687198  1
  F  F15  1  0.33815307  0.94537395  0.34687198  1
  F  F16  1  0.69180235  0.50592045  0.28480462  1
  F  F17  1  0.80819765  0.49407955  0.78480462  1
  F  F18  1  0.30819765  0.00592045  0.71519538  1
  F  F19  1  0.19180235  0.99407955  0.21519538  1
  F  F20  1  0.30819765  0.49407955  0.71519538  1
  F  F21  1  0.19180235  0.50592045  0.21519538  1
  F  F22  1  0.69180235  0.99407955  0.28480462  1
  F  F23  1  0.80819765  0.00592045  0.78480462  1
  Li  Li24  1  0.00000000  0.00000000  0.00000000  1
  Li  Li25  1  0.50000000  0.00000000  0.50000000  1
  Li  Li26  1  0.00000000  0.50000000  0.00000000  1
  Li  Li27  1  0.50000000  0.50000000  0.50000000  1
  Li  Li28  1  0.12122660  0.25000000  0.11157208  1
  Li  Li29  1  0.37877340  0.75000000  0.61157208  1
  Li  Li30  1  0.87877340  0.75000000  0.88842792  1
  Li  Li31  1  0.62122660  0.25000000  0.38842792  1
  Li  Li32  1  0.31723849  0.10721132  0.53970248  1
  Li  Li33  1  0.18276151  -0.10721132  1.03970248  1
  Li  Li34  1  -0.31723849  0.60721132  -0.53970248  1
  Li  Li35  1  0.81723849  0.39278868  -0.03970248  1
  Li  Li36  1  -0.31723849  -0.10721132  -0.53970248  1
  Li  Li37  1  0.81723849  0.10721132  -0.03970248  1
  Li  Li38  1  0.31723849  0.39278868  0.53970248  1
  Li  Li39  1  0.18276151  0.60721132  1.03970248  1
  Li  Li40  1  0.20258694  0.25000000  0.52455515  1
  Li  Li41  1  0.29741306  0.75000000  0.02455515  1
  Li  Li42  1  0.79741306  0.75000000  0.47544485  1
  Li  Li43  1  0.70258694  0.25000000  0.97544485  1
  Li  Li44  1  0.00000000  0.00000000  0.50000000  1
  Li  Li45  1  0.50000000  0.00000000  0.00000000  1
  Li  Li46  1  0.00000000  0.50000000  0.50000000  1
  Li  Li47  1  0.50000000  0.50000000  -0.00000000  1
