# generated using pymatgen
data_Li4AlP4SeO3
_symmetry_space_group_name_H-M   'P 1'
_cell_length_a   6.37431372
_cell_length_b   6.82487436
_cell_length_c   7.03992131
_cell_angle_alpha   89.70921441
_cell_angle_beta   90.78178809
_cell_angle_gamma   90.54063227
_symmetry_Int_Tables_number   1
_chemical_formula_structural   Li4AlP4SeO3
_chemical_formula_sum   'Li4 Al1 P4 Se1 O3'
_cell_volume   306.21807476
_cell_formula_units_Z   1
loop_
 _symmetry_equiv_pos_site_id
 _symmetry_equiv_pos_as_xyz
  1  'x, y, z'
loop_
 _atom_site_type_symbol
 _atom_site_label
 _atom_site_symmetry_multiplicity
 _atom_site_fract_x
 _atom_site_fract_y
 _atom_site_fract_z
 _atom_site_occupancy
  Al  Al0  1  0.00000000  0.00000000  0.00000000  1
  Se  Se1  1  0.50000000  0.50000000  0.50000000  1
  P  P2  1  0.25000000  0.25000000  0.25000000  1
  P  P3  1  0.75000000  0.25000000  0.00000000  1
  P  P4  1  0.25000000  0.75000000  0.50000000  1
  P  P5  1  0.99126555  0.60690655  0.92704405  1
  O  O6  1  0.10089839  0.31004103  0.36604720  1
  O  O7  1  0.75104436  0.57105059  0.30832595  1
  O  O8  1  0.16868516  0.47688993  0.85488825  1
  Li  Li9  1  0.03944099  0.28729862  0.38921397  1
  Li  Li10  1  0.65359092  0.54042610  0.35745085  1
  Li  Li11  1  0.08525516  0.25972570  0.07225573  1
  Li  Li12  1  0.21739269  0.53260034  0.90061003  1
