# generated using pymatgen
data_LiF
_symmetry_space_group_name_H-M   'P 1'
_cell_length_a   9.32426645
_cell_length_b   11.17852259
_cell_length_c   7.73586161
_cell_angle_alpha   90.00000000
_cell_angle_beta   90.00000000
_cell_angle_gamma   90.00000000
_symmetry_Int_Tables_number   1
_chemical_formula_structural   LiF
_chemical_formula_sum   'Li28 F28'
_cell_volume   806.32063823
_cell_formula_units_Z   28
loop_
 _symmetry_equiv_pos_site_id
 _symmetry_equiv_pos_as_xyz
  1  'x, y, z'
loop_
 _atom_site_type_symbol
 _atom_site_label
 _atom_site_symmetry_multiplicity
 _atom_site_fract_x
 _atom_site_fract_y
 _atom_site_fract_z
 _atom_site_occupancy
  F  F0  1  0.35521910  0.09724520  0.06117689  1
  F  F1  1  0.14478090  0.90275480  0.56117689  1
  F  F2  1  0.64478090  0.59724520  0.93882311  1
  F  F3  1  0.85521910  0.40275480  0.43882311  1
  F  F4  1  0.64478090  0.90275480  0.93882311  1
  F  F5  1  0.85521910  0.09724520  0.43882311  1
  F  F6  1  0.35521910  0.40275480  0.06117689  1
  F  F7  1  0.14478090  0.59724520  0.56117689  1
  F  F8  1  0.51793711  0.25000000  0.32647540  1
  F  F9  1  0.98206289  0.75000000  0.82647540  1
  F  F10  1  0.48206289  0.75000000  0.67352460  1
  F  F11  1  0.01793711  0.25000000  0.17352460  1
  F  F12  1  0.73298459  0.99593541  0.63816201  1
  F  F13  1  0.76701541  0.00406459  0.13816201  1
  F  F14  1  0.26701541  0.49593541  0.36183799  1
  F  F15  1  0.23298459  0.50406459  0.86183799  1
  F  F16  1  0.26701541  0.00406459  0.36183799  1
  F  F17  1  0.23298459  0.99593541  0.86183799  1
  F  F18  1  0.73298459  0.50406459  0.63816201  1
  F  F19  1  0.76701541  0.49593541  0.13816201  1
  F  F20  1  0.29694796  0.04957883  0.05947886  1
  F  F21  1  0.20305204  0.95042117  0.55947886  1
  F  F22  1  0.70305204  0.54957883  0.94052114  1
  F  F23  1  0.79694796  0.45042117  0.44052114  1
  F  F24  1  0.70305204  0.95042117  0.94052114  1
  F  F25  1  0.79694796  0.04957883  0.44052114  1
  F  F26  1  0.29694796  0.45042117  0.05947886  1
  F  F27  1  0.20305204  0.54957883  0.55947886  1
  Li  Li28  1  0.00000000  0.00000000  0.50000000  1
  Li  Li29  1  0.50000000  0.00000000  0.00000000  1
  Li  Li30  1  0.00000000  0.50000000  0.50000000  1
  Li  Li31  1  0.50000000  0.50000000  -0.00000000  1
  Li  Li32  1  0.96293998  0.65299981  0.53122806  1
  Li  Li33  1  -0.46293998  -0.65299981  1.03122806  1
  Li  Li34  1  -0.96293998  1.15299981  -0.53122806  1
  Li  Li35  1  1.46293998  -0.15299981  -0.03122806  1
  Li  Li36  1  -0.96293998  -0.65299981  -0.53122806  1
  Li  Li37  1  1.46293998  0.65299981  -0.03122806  1
  Li  Li38  1  0.96293998  -0.15299981  0.53122806  1
  Li  Li39  1  -0.46293998  1.15299981  1.03122806  1
  Li  Li40  1  0.50015210  0.25000000  0.53357571  1
  Li  Li41  1  0.99984790  0.75000000  0.03357571  1
  Li  Li42  1  0.49984790  0.75000000  0.46642429  1
  Li  Li43  1  0.00015210  0.25000000  0.96642429  1
  Li  Li44  1  0.74340617  0.91789687  0.83736993  1
  Li  Li45  1  0.75659383  0.08210313  0.33736993  1
  Li  Li46  1  0.25659383  0.41789687  0.16263007  1
  Li  Li47  1  0.24340617  0.58210313  0.66263007  1
  Li  Li48  1  0.25659383  0.08210313  0.16263007  1
  Li  Li49  1  0.24340617  0.91789687  0.66263007  1
  Li  Li50  1  0.74340617  0.58210313  0.83736993  1
  Li  Li51  1  0.75659383  0.41789687  0.33736993  1
  Li  Li52  1  0.00000000  0.00000000  0.00000000  1
  Li  Li53  1  0.50000000  0.00000000  0.50000000  1
  Li  Li54  1  0.00000000  0.50000000  0.00000000  1
  Li  Li55  1  0.50000000  0.50000000  0.50000000  1
