# generated using pymatgen
data_Li2Y2As4P2Se
_symmetry_space_group_name_H-M   'P 1'
_cell_length_a   5.70016378
_cell_length_b   5.69230031
_cell_length_c   6.84492045
_cell_angle_alpha   93.05942572
_cell_angle_beta   95.90752576
_cell_angle_gamma   101.06946954
_symmetry_Int_Tables_number   1
_chemical_formula_structural   Li2Y2As4P2Se
_chemical_formula_sum   'Li2 Y2 As4 P2 Se1'
_cell_volume   216.19850916
_cell_formula_units_Z   1
loop_
 _symmetry_equiv_pos_site_id
 _symmetry_equiv_pos_as_xyz
  1  'x, y, z'
loop_
 _atom_site_type_symbol
 _atom_site_label
 _atom_site_symmetry_multiplicity
 _atom_site_fract_x
 _atom_site_fract_y
 _atom_site_fract_z
 _atom_site_occupancy
  Se  Se0  1  0.00000000  0.00000000  0.00000000  1
  Y  Y1  1  0.50000000  0.50000000  0.50000000  1
  Y  Y2  1  0.50000000  0.50000000  0.00000000  1
  P  P3  1  0.50000000  0.00000000  0.50000000  1
  P  P4  1  0.00000000  0.50000000  0.50000000  1
  As  As5  1  0.55660150  0.26549746  0.84252491  1
  As  As6  1  0.27996965  0.33046433  0.40756537  1
  As  As7  1  0.07052323  0.32714994  0.40678457  1
  As  As8  1  0.06070734  0.19120994  0.29051739  1
  Li  Li9  1  0.29177518  0.50082935  0.67426605  1
  Li  Li10  1  0.85368414  0.14716871  0.81111071  1
