# generated using pymatgen
data_LiF
_symmetry_space_group_name_H-M   'P 1'
_cell_length_a   9.18759900
_cell_length_b   9.73894027
_cell_length_c   10.44296688
_cell_angle_alpha   90.00000000
_cell_angle_beta   90.00000000
_cell_angle_gamma   90.00000000
_symmetry_Int_Tables_number   1
_chemical_formula_structural   LiF
_chemical_formula_sum   'Li24 F24'
_cell_volume   934.41033764
_cell_formula_units_Z   24
loop_
 _symmetry_equiv_pos_site_id
 _symmetry_equiv_pos_as_xyz
  1  'x, y, z'
loop_
 _atom_site_type_symbol
 _atom_site_label
 _atom_site_symmetry_multiplicity
 _atom_site_fract_x
 _atom_site_fract_y
 _atom_site_fract_z
 _atom_site_occupancy
  F  F0  1  0.44062419  0.83446553  0.28607465  1
  F  F1  1  0.55937581  0.16553447  0.28607465  1
  F  F2  1  0.05937581  0.33446553  0.71392535  1
  F  F3  1  0.94062419  0.66553447  0.71392535  1
  F  F4  1  0.55937581  0.16553447  0.71392535  1
  F  F5  1  0.44062419  0.83446553  0.71392535  1
  F  F6  1  0.94062419  0.66553447  0.28607465  1
  F  F7  1  0.05937581  0.33446553  0.28607465  1
  F  F8  1  0.68543146  0.25198708  0.12753576  1
  F  F9  1  0.31456854  0.74801292  0.12753576  1
  F  F10  1  0.81456854  0.75198708  0.87246424  1
  F  F11  1  0.18543146  0.24801292  0.87246424  1
  F  F12  1  0.31456854  0.74801292  0.87246424  1
  F  F13  1  0.68543146  0.25198708  0.87246424  1
  F  F14  1  0.18543146  0.24801292  0.12753576  1
  F  F15  1  0.81456854  0.75198708  0.12753576  1
  F  F16  1  0.42220823  0.29287577  0.36339289  1
  F  F17  1  0.57779177  0.70712423  0.36339289  1
  F  F18  1  0.07779177  0.79287577  0.63660711  1
  F  F19  1  0.92220823  0.20712423  0.63660711  1
  F  F20  1  0.57779177  0.70712423  0.63660711  1
  F  F21  1  0.42220823  0.29287577  0.63660711  1
  F  F22  1  0.92220823  0.20712423  0.36339289  1
  F  F23  1  0.07779177  0.79287577  0.36339289  1
  Li  Li24  1  0.04964209  0.65820032  0.91305823  1
  Li  Li25  1  -0.04964209  -0.65820032  0.91305823  1
  Li  Li26  1  0.45035791  1.15820032  -0.91305823  1
  Li  Li27  1  0.54964209  -0.15820032  -0.91305823  1
  Li  Li28  1  -0.04964209  -0.65820032  -0.91305823  1
  Li  Li29  1  0.04964209  0.65820032  -0.91305823  1
  Li  Li30  1  0.54964209  -0.15820032  0.91305823  1
  Li  Li31  1  0.45035791  1.15820032  0.91305823  1
  Li  Li32  1  0.38244405  0.88724929  -0.00000000  1
  Li  Li33  1  0.61755595  0.11275071  0.00000000  1
  Li  Li34  1  0.11755595  0.38724929  0.00000000  1
  Li  Li35  1  0.88244405  0.61275071  0.00000000  1
  Li  Li36  1  0.64451294  0.48914575  0.00000000  1
  Li  Li37  1  0.35548706  0.51085425  0.00000000  1
  Li  Li38  1  0.85548706  0.98914575  0.00000000  1
  Li  Li39  1  0.14451294  0.01085425  0.00000000  1
  Li  Li40  1  0.69976380  0.55564204  0.18769032  1
  Li  Li41  1  0.30023620  0.44435796  0.18769032  1
  Li  Li42  1  0.80023620  0.05564204  0.81230968  1
  Li  Li43  1  0.19976380  0.94435796  0.81230968  1
  Li  Li44  1  0.30023620  0.44435796  0.81230968  1
  Li  Li45  1  0.69976380  0.55564204  0.81230968  1
  Li  Li46  1  0.19976380  0.94435796  0.18769032  1
  Li  Li47  1  0.80023620  0.05564204  0.18769032  1
