# generated using pymatgen
data_LiF
_symmetry_space_group_name_H-M   'P 1'
_cell_length_a   8.90137467
_cell_length_b   8.90137467
_cell_length_c   20.69562739
_cell_angle_alpha   90.00000000
_cell_angle_beta   90.00000000
_cell_angle_gamma   120.00000000
_symmetry_Int_Tables_number   1
_chemical_formula_structural   LiF
_chemical_formula_sum   'Li63 F63'
_cell_volume   1420.11459548
_cell_formula_units_Z   63
loop_
 _symmetry_equiv_pos_site_id
 _symmetry_equiv_pos_as_xyz
  1  'x, y, z'
loop_
 _atom_site_type_symbol
 _atom_site_label
 _atom_site_symmetry_multiplicity
 _atom_site_fract_x
 _atom_site_fract_y
 _atom_site_fract_z
 _atom_site_occupancy
  F  F0  1  0.33333333  0.66666667  0.76637118  1
  F  F1  1  0.33333333  0.66666667  0.23362882  1
  F  F2  1  0.00000000  0.00000000  0.50000000  1
  F  F3  1  0.65334047  0.16255727  0.88202854  1
  F  F4  1  0.83744273  0.49078320  0.88202854  1
  F  F5  1  0.50921680  0.34665953  0.88202854  1
  F  F6  1  0.83744273  0.34665953  0.11797146  1
  F  F7  1  0.50921680  0.16255727  0.11797146  1
  F  F8  1  0.65334047  0.49078320  0.11797146  1
  F  F9  1  0.66666667  0.33333333  0.58713753  1
  F  F10  1  0.66666667  0.33333333  0.41286247  1
  F  F11  1  0.11746463  0.19588142  0.19123214  1
  F  F12  1  0.80411858  0.92158321  0.19123214  1
  F  F13  1  0.07841679  0.88253537  0.19123214  1
  F  F14  1  0.80411858  0.88253537  0.80876786  1
  F  F15  1  0.07841679  0.19588142  0.80876786  1
  F  F16  1  0.11746463  0.92158321  0.80876786  1
  F  F17  1  0.37233473  0.43447429  0.27367845  1
  F  F18  1  0.56552571  0.93786044  0.27367845  1
  F  F19  1  0.06213956  0.62766527  0.27367845  1
  F  F20  1  0.56552571  0.62766527  0.72632155  1
  F  F21  1  0.06213956  0.43447429  0.72632155  1
  F  F22  1  0.37233473  0.93786044  0.72632155  1
  F  F23  1  0.35688520  0.22166811  0.83509095  1
  F  F24  1  0.77833189  0.13521709  0.83509095  1
  F  F25  1  0.86478291  0.64311480  0.83509095  1
  F  F26  1  0.77833189  0.64311480  0.16490905  1
  F  F27  1  0.86478291  0.22166811  0.16490905  1
  F  F28  1  0.35688520  0.13521709  0.16490905  1
  F  F29  1  0.99591384  0.92168591  0.60972637  1
  F  F30  1  0.07831409  0.07422792  0.60972637  1
  F  F31  1  0.92577208  0.00408616  0.60972637  1
  F  F32  1  0.07831409  0.00408616  0.39027363  1
  F  F33  1  0.92577208  0.92168591  0.39027363  1
  F  F34  1  0.99591384  0.07422792  0.39027363  1
  F  F35  1  0.52881688  0.63148549  0.60766248  1
  F  F36  1  0.36851451  0.89733139  0.60766248  1
  F  F37  1  0.10266861  0.47118312  0.60766248  1
  F  F38  1  0.36851451  0.47118312  0.39233752  1
  F  F39  1  0.10266861  0.63148549  0.39233752  1
  F  F40  1  0.52881688  0.89733139  0.39233752  1
  F  F41  1  0.00000000  0.00000000  0.65064512  1
  F  F42  1  0.00000000  0.00000000  0.34935488  1
  F  F43  1  0.12716851  0.24746959  0.29277664  1
  F  F44  1  0.75253041  0.87969892  0.29277664  1
  F  F45  1  0.12030108  0.87283149  0.29277664  1
  F  F46  1  0.75253041  0.87283149  0.70722336  1
  F  F47  1  0.12030108  0.24746959  0.70722336  1
  F  F48  1  0.12716851  0.87969892  0.70722336  1
  F  F49  1  0.53329765  0.80478770  0.62977959  1
  F  F50  1  0.19521230  0.72850995  0.62977959  1
  F  F51  1  0.27149005  0.46670235  0.62977959  1
  F  F52  1  0.19521230  0.46670235  0.37022041  1
  F  F53  1  0.27149005  0.80478770  0.37022041  1
  F  F54  1  0.53329765  0.72850995  0.37022041  1
  F  F55  1  0.33333333  0.66666667  0.90586077  1
  F  F56  1  0.33333333  0.66666667  0.09413923  1
  F  F57  1  0.98360570  0.13930545  0.28402162  1
  F  F58  1  0.86069455  0.84430025  0.28402162  1
  F  F59  1  0.15569975  0.01639430  0.28402162  1
  F  F60  1  0.86069455  0.01639430  0.71597838  1
  F  F61  1  0.15569975  0.13930545  0.71597838  1
  F  F62  1  0.98360570  0.84430025  0.71597838  1
  Li  Li63  1  0.66666667  0.33333333  0.00000000  1
  Li  Li64  1  0.65816132  0.81287646  0.96441816  1
  Li  Li65  1  -0.81287646  -0.15471514  0.96441816  1
  Li  Li66  1  0.15471514  -0.65816132  0.96441816  1
  Li  Li67  1  -0.81287646  -0.65816132  -0.96441816  1
  Li  Li68  1  0.15471514  0.81287646  -0.96441816  1
  Li  Li69  1  0.65816132  -0.15471514  -0.96441816  1
  Li  Li70  1  0.44778664  0.40136590  0.33159482  1
  Li  Li71  1  0.59863410  0.04642074  0.33159482  1
  Li  Li72  1  0.95357926  0.55221336  0.33159482  1
  Li  Li73  1  0.59863410  0.55221336  0.66840518  1
  Li  Li74  1  0.95357926  0.40136590  0.66840518  1
  Li  Li75  1  0.44778664  0.04642074  0.66840518  1
  Li  Li76  1  0.66666667  0.33333333  0.76011750  1
  Li  Li77  1  0.66666667  0.33333333  0.23988250  1
  Li  Li78  1  0.41234679  0.28313761  0.03430462  1
  Li  Li79  1  0.71686239  0.12920919  0.03430462  1
  Li  Li80  1  0.87079081  0.58765321  0.03430462  1
  Li  Li81  1  0.71686239  0.58765321  0.96569538  1
  Li  Li82  1  0.87079081  0.28313761  0.96569538  1
  Li  Li83  1  0.41234679  0.12920919  0.96569538  1
  Li  Li84  1  0.33333333  0.66666667  0.69100279  1
  Li  Li85  1  0.33333333  0.66666667  0.30899721  1
  Li  Li86  1  0.33333333  0.66666667  0.50000000  1
  Li  Li87  1  0.48337132  0.84196921  0.17669047  1
  Li  Li88  1  0.15803079  0.64140211  0.17669047  1
  Li  Li89  1  0.35859789  0.51662868  0.17669047  1
  Li  Li90  1  0.15803079  0.51662868  0.82330953  1
  Li  Li91  1  0.35859789  0.84196921  0.82330953  1
  Li  Li92  1  0.48337132  0.64140211  0.82330953  1
  Li  Li93  1  0.17027408  0.82972592  0.50000000  1
  Li  Li94  1  0.17027408  0.34054817  0.50000000  1
  Li  Li95  1  0.65945183  0.82972592  0.50000000  1
  Li  Li96  1  0.47495491  0.52504509  0.00000000  1
  Li  Li97  1  0.47495491  0.94990982  0.00000000  1
  Li  Li98  1  0.05009018  0.52504509  0.00000000  1
  Li  Li99  1  0.99425601  0.14747057  0.67270926  1
  Li  Li100  1  0.85252943  0.84678544  0.67270926  1
  Li  Li101  1  0.15321456  0.00574399  0.67270926  1
  Li  Li102  1  0.85252943  0.00574399  0.32729074  1
  Li  Li103  1  0.15321456  0.14747057  0.32729074  1
  Li  Li104  1  0.99425601  0.84678544  0.32729074  1
  Li  Li105  1  0.34326934  0.39251872  0.13660073  1
  Li  Li106  1  0.60748128  0.95075062  0.13660073  1
  Li  Li107  1  0.04924938  0.65673066  0.13660073  1
  Li  Li108  1  0.60748128  0.65673066  0.86339927  1
  Li  Li109  1  0.04924938  0.39251872  0.86339927  1
  Li  Li110  1  0.34326934  0.95075062  0.86339927  1
  Li  Li111  1  0.00000000  0.00000000  0.00000000  1
  Li  Li112  1  0.45545240  0.48466659  0.54646667  1
  Li  Li113  1  0.51533341  0.97078582  0.54646667  1
  Li  Li114  1  0.02921418  0.54454760  0.54646667  1
  Li  Li115  1  0.51533341  0.54454760  0.45353333  1
  Li  Li116  1  0.02921418  0.48466659  0.45353333  1
  Li  Li117  1  0.45545240  0.97078582  0.45353333  1
  Li  Li118  1  0.66666667  0.33333333  0.50000000  1
  Li  Li119  1  0.57853058  0.47340495  0.58251382  1
  Li  Li120  1  0.52659505  0.10512563  0.58251382  1
  Li  Li121  1  0.89487437  0.42146942  0.58251382  1
  Li  Li122  1  0.52659505  0.42146942  0.41748618  1
  Li  Li123  1  0.89487437  0.47340495  0.41748618  1
  Li  Li124  1  0.57853058  0.10512563  0.41748618  1
  Li  Li125  1  0.33333333  0.66666667  0.00000000  1
