# generated using pymatgen
data_Li2Y2As3P2Se
_symmetry_space_group_name_H-M   'P 1'
_cell_length_a   5.20001839
_cell_length_b   5.30757020
_cell_length_c   7.16192612
_cell_angle_alpha   94.40716218
_cell_angle_beta   99.59788300
_cell_angle_gamma   107.70181889
_symmetry_Int_Tables_number   1
_chemical_formula_structural   Li2Y2As3P2Se
_chemical_formula_sum   'Li2 Y2 As3 P2 Se1'
_cell_volume   183.95084667
_cell_formula_units_Z   1
loop_
 _symmetry_equiv_pos_site_id
 _symmetry_equiv_pos_as_xyz
  1  'x, y, z'
loop_
 _atom_site_type_symbol
 _atom_site_label
 _atom_site_symmetry_multiplicity
 _atom_site_fract_x
 _atom_site_fract_y
 _atom_site_fract_z
 _atom_site_occupancy
  Se  Se0  1  0.00000000  0.00000000  0.00000000  1
  P  P1  1  0.50000000  0.50000000  0.50000000  1
  P  P2  1  0.50000000  0.50000000  0.00000000  1
  As  As3  1  0.50000000  0.00000000  0.50000000  1
  As  As4  1  0.00000000  0.50000000  0.50000000  1
  As  As5  1  0.53919755  0.62443095  0.42594435  1
  Li  Li6  1  0.71278024  0.03066203  0.31177599  1
  Li  Li7  1  0.27183941  0.19592794  0.82208582  1
  Y  Y8  1  0.93451093  0.29646206  0.50454617  1
  Y  Y9  1  0.12748169  0.82410883  0.23783660  1
