# generated using pymatgen
data_LiF
_symmetry_space_group_name_H-M   'P 1'
_cell_length_a   4.56935187
_cell_length_b   9.22064962
_cell_length_c   7.06293436
_cell_angle_alpha   90.00000000
_cell_angle_beta   90.00000000
_cell_angle_gamma   90.00000000
_symmetry_Int_Tables_number   1
_chemical_formula_structural   LiF
_chemical_formula_sum   'Li10 F10'
_cell_volume   297.57832325
_cell_formula_units_Z   10
loop_
 _symmetry_equiv_pos_site_id
 _symmetry_equiv_pos_as_xyz
  1  'x, y, z'
loop_
 _atom_site_type_symbol
 _atom_site_label
 _atom_site_symmetry_multiplicity
 _atom_site_fract_x
 _atom_site_fract_y
 _atom_site_fract_z
 _atom_site_occupancy
  F  F0  1  0.82502213  0.59364631  0.15140981  1
  F  F1  1  -0.82502213  -0.59364631  0.15140981  1
  F  F2  1  -0.32502213  1.09364631  -0.15140981  1
  F  F3  1  1.32502213  -0.09364631  -0.15140981  1
  F  F4  1  -0.82502213  -0.59364631  -0.15140981  1
  F  F5  1  0.82502213  0.59364631  -0.15140981  1
  F  F6  1  1.32502213  -0.09364631  0.15140981  1
  F  F7  1  -0.32502213  1.09364631  0.15140981  1
  F  F8  1  0.00000000  0.50000000  0.00000000  1
  F  F9  1  0.50000000  0.00000000  -0.00000000  1
  Li  Li10  1  0.22218902  0.46582434  0.50000000  1
  Li  Li11  1  0.77781098  0.53417566  0.50000000  1
  Li  Li12  1  0.27781098  0.96582434  0.50000000  1
  Li  Li13  1  0.72218902  0.03417566  0.50000000  1
  Li  Li14  1  0.08034271  0.68094924  0.50000000  1
  Li  Li15  1  0.91965729  0.31905076  0.50000000  1
  Li  Li16  1  0.41965729  0.18094924  0.50000000  1
  Li  Li17  1  0.58034271  0.81905076  0.50000000  1
  Li  Li18  1  0.00000000  0.00000000  0.50000000  1
  Li  Li19  1  0.50000000  0.50000000  0.50000000  1
