# generated using pymatgen
data_Li3Y2P3
_symmetry_space_group_name_H-M   'P 1'
_cell_length_a   5.11374680
_cell_length_b   5.28145648
_cell_length_c   7.07026028
_cell_angle_alpha   94.49965396
_cell_angle_beta   99.79931087
_cell_angle_gamma   108.07332161
_symmetry_Int_Tables_number   1
_chemical_formula_structural   Li3Y2P3
_chemical_formula_sum   'Li3 Y2 P3'
_cell_volume   177.11910842
_cell_formula_units_Z   1
loop_
 _symmetry_equiv_pos_site_id
 _symmetry_equiv_pos_as_xyz
  1  'x, y, z'
loop_
 _atom_site_type_symbol
 _atom_site_label
 _atom_site_symmetry_multiplicity
 _atom_site_fract_x
 _atom_site_fract_y
 _atom_site_fract_z
 _atom_site_occupancy
  Y  Y0  1  0.00000000  0.00000000  0.00000000  1
  Y  Y1  1  0.50000000  0.50000000  0.50000000  1
  P  P2  1  0.50000000  0.50000000  0.00000000  1
  P  P3  1  0.50000000  0.00000000  0.50000000  1
  P  P4  1  0.00000000  0.50000000  0.50000000  1
  Li  Li5  1  0.52676429  0.30799484  0.69801880  1
  Li  Li6  1  0.66744406  0.64400754  0.72180985  1
  Li  Li7  1  0.15649896  0.19645928  0.60965801  1
