# generated using pymatgen
data_LiF
_symmetry_space_group_name_H-M   'P 1'
_cell_length_a   6.49912889
_cell_length_b   8.90308160
_cell_length_c   12.54896298
_cell_angle_alpha   90.00000000
_cell_angle_beta   90.00000000
_cell_angle_gamma   90.00000000
_symmetry_Int_Tables_number   1
_chemical_formula_structural   LiF
_chemical_formula_sum   'Li24 F24'
_cell_volume   726.11154399
_cell_formula_units_Z   24
loop_
 _symmetry_equiv_pos_site_id
 _symmetry_equiv_pos_as_xyz
  1  'x, y, z'
loop_
 _atom_site_type_symbol
 _atom_site_label
 _atom_site_symmetry_multiplicity
 _atom_site_fract_x
 _atom_site_fract_y
 _atom_site_fract_z
 _atom_site_occupancy
  F  F0  1  0.72321467  0.05608466  0.14967732  1
  F  F1  1  -0.72321467  -0.05608466  0.14967732  1
  F  F2  1  -0.22321467  0.55608466  -0.14967732  1
  F  F3  1  1.22321467  0.44391534  -0.14967732  1
  F  F4  1  -0.72321467  -0.05608466  -0.14967732  1
  F  F5  1  0.72321467  0.05608466  -0.14967732  1
  F  F6  1  1.22321467  0.44391534  0.14967732  1
  F  F7  1  -0.22321467  0.55608466  0.14967732  1
  F  F8  1  0.00000000  0.00000000  0.00000000  1
  F  F9  1  0.50000000  0.50000000  0.00000000  1
  F  F10  1  0.39634346  0.68316319  0.38176100  1
  F  F11  1  0.60365654  0.31683681  0.38176100  1
  F  F12  1  0.10365654  0.18316319  0.61823900  1
  F  F13  1  0.89634346  0.81683681  0.61823900  1
  F  F14  1  0.60365654  0.31683681  0.61823900  1
  F  F15  1  0.39634346  0.68316319  0.61823900  1
  F  F16  1  0.89634346  0.81683681  0.38176100  1
  F  F17  1  0.10365654  0.18316319  0.38176100  1
  F  F18  1  0.00000000  0.50000000  0.18261166  1
  F  F19  1  0.50000000  0.00000000  0.81738834  1
  F  F20  1  0.00000000  0.50000000  0.81738834  1
  F  F21  1  0.50000000  0.00000000  0.18261166  1
  F  F22  1  0.00000000  0.00000000  0.50000000  1
  F  F23  1  0.50000000  0.50000000  0.50000000  1
  Li  Li24  1  0.43041749  0.42138174  0.85044285  1
  Li  Li25  1  0.56958251  0.57861826  0.85044285  1
  Li  Li26  1  0.06958251  0.92138174  0.14955715  1
  Li  Li27  1  0.93041749  0.07861826  0.14955715  1
  Li  Li28  1  0.56958251  0.57861826  0.14955715  1
  Li  Li29  1  0.43041749  0.42138174  0.14955715  1
  Li  Li30  1  0.93041749  0.07861826  0.85044285  1
  Li  Li31  1  0.06958251  0.92138174  0.85044285  1
  Li  Li32  1  0.74524216  0.57397620  0.00000000  1
  Li  Li33  1  0.25475784  0.42602380  0.00000000  1
  Li  Li34  1  0.75475784  0.07397620  0.00000000  1
  Li  Li35  1  0.24524216  0.92602380  0.00000000  1
  Li  Li36  1  0.00000000  0.50000000  0.50000000  1
  Li  Li37  1  0.50000000  0.00000000  0.50000000  1
  Li  Li38  1  0.38605379  0.49762025  0.72843656  1
  Li  Li39  1  0.61394621  0.50237975  0.72843656  1
  Li  Li40  1  0.11394621  0.99762025  0.27156344  1
  Li  Li41  1  0.88605379  0.00237975  0.27156344  1
  Li  Li42  1  0.61394621  0.50237975  0.27156344  1
  Li  Li43  1  0.38605379  0.49762025  0.27156344  1
  Li  Li44  1  0.88605379  0.00237975  0.72843656  1
  Li  Li45  1  0.11394621  0.99762025  0.72843656  1
  Li  Li46  1  0.00000000  0.50000000  0.00000000  1
  Li  Li47  1  0.50000000  0.00000000  0.00000000  1
