# generated using pymatgen
data_Li3Y2(P2Se)2
_symmetry_space_group_name_H-M   'P 1'
_cell_length_a   5.07521835
_cell_length_b   4.94280964
_cell_length_c   7.04684896
_cell_angle_alpha   95.36403225
_cell_angle_beta   101.68174707
_cell_angle_gamma   111.54518564
_symmetry_Int_Tables_number   1
_chemical_formula_structural   Li3Y2(P2Se)2
_chemical_formula_sum   'Li3 Y2 P4 Se2'
_cell_volume   158.26162849
_cell_formula_units_Z   1
loop_
 _symmetry_equiv_pos_site_id
 _symmetry_equiv_pos_as_xyz
  1  'x, y, z'
loop_
 _atom_site_type_symbol
 _atom_site_label
 _atom_site_symmetry_multiplicity
 _atom_site_fract_x
 _atom_site_fract_y
 _atom_site_fract_z
 _atom_site_occupancy
  P  P0  1  0.12500000  0.12500000  0.12500000  1
  P  P1  1  0.50000000  0.50000000  0.50000000  1
  P  P2  1  0.25000000  0.25000000  0.25000000  1
  P  P3  1  0.75000000  0.75000000  0.75000000  1
  Se  Se4  1  0.38968172  0.02950060  0.51128150  1
  Se  Se5  1  0.18737444  0.07904113  0.14289212  1
  Li  Li6  1  0.47365556  0.97518735  0.81489629  1
  Li  Li7  1  0.73303570  0.13979250  0.02012571  1
  Li  Li8  1  0.24832396  0.88852085  0.05005091  1
  Y  Y9  1  0.25487098  0.85516536  0.74122380  1
  Y  Y10  1  0.44087194  0.78928241  0.18644263  1
