# generated using pymatgen
data_LiF
_symmetry_space_group_name_H-M   'P 1'
_cell_length_a   8.77512415
_cell_length_b   8.77512415
_cell_length_c   6.30252240
_cell_angle_alpha   90.00000000
_cell_angle_beta   90.00000000
_cell_angle_gamma   120.00000000
_symmetry_Int_Tables_number   1
_chemical_formula_structural   LiF
_chemical_formula_sum   'Li18 F18'
_cell_volume   420.29243106
_cell_formula_units_Z   18
loop_
 _symmetry_equiv_pos_site_id
 _symmetry_equiv_pos_as_xyz
  1  'x, y, z'
loop_
 _atom_site_type_symbol
 _atom_site_label
 _atom_site_symmetry_multiplicity
 _atom_site_fract_x
 _atom_site_fract_y
 _atom_site_fract_z
 _atom_site_occupancy
  F  F0  1  0.82537689  0.40374950  0.60416492  1
  F  F1  1  0.59625050  0.42162739  0.60416492  1
  F  F2  1  0.57837261  0.17462311  0.60416492  1
  F  F3  1  0.59625050  0.17462311  0.39583508  1
  F  F4  1  0.57837261  0.40374950  0.39583508  1
  F  F5  1  0.82537689  0.42162739  0.39583508  1
  F  F6  1  0.49445127  0.23398117  0.86812989  1
  F  F7  1  0.76601883  0.26047010  0.86812989  1
  F  F8  1  0.73952990  0.50554873  0.86812989  1
  F  F9  1  0.76601883  0.50554873  0.13187011  1
  F  F10  1  0.73952990  0.23398117  0.13187011  1
  F  F11  1  0.49445127  0.26047010  0.13187011  1
  F  F12  1  0.70081671  0.11716517  0.55279142  1
  F  F13  1  0.88283483  0.58365153  0.55279142  1
  F  F14  1  0.41634847  0.29918329  0.55279142  1
  F  F15  1  0.88283483  0.29918329  0.44720858  1
  F  F16  1  0.41634847  0.11716517  0.44720858  1
  F  F17  1  0.70081671  0.58365153  0.44720858  1
  Li  Li18  1  0.44619396  0.55380604  0.50000000  1
  Li  Li19  1  0.44619396  0.89238792  0.50000000  1
  Li  Li20  1  0.10761208  0.55380604  0.50000000  1
  Li  Li21  1  0.93199293  0.76182259  0.29847295  1
  Li  Li22  1  -0.76182259  0.17017034  0.29847295  1
  Li  Li23  1  -0.17017034  -0.93199293  0.29847295  1
  Li  Li24  1  -0.76182259  -0.93199293  -0.29847295  1
  Li  Li25  1  -0.17017034  0.76182259  -0.29847295  1
  Li  Li26  1  0.93199293  0.17017034  -0.29847295  1
  Li  Li27  1  0.58503823  0.41496177  0.00000000  1
  Li  Li28  1  0.58503823  0.17007647  0.00000000  1
  Li  Li29  1  0.82992353  0.41496177  0.00000000  1
  Li  Li30  1  0.00000000  0.00000000  0.00000000  1
  Li  Li31  1  0.00000000  0.00000000  0.50000000  1
  Li  Li32  1  0.82749985  0.17250015  0.50000000  1
  Li  Li33  1  0.82749985  0.65499971  0.50000000  1
  Li  Li34  1  0.34500029  0.17250015  0.50000000  1
  Li  Li35  1  0.33333333  0.66666667  0.50000000  1
