# generated using pymatgen
data_LiF
_symmetry_space_group_name_H-M   'P 1'
_cell_length_a   7.27958365
_cell_length_b   7.97072342
_cell_length_c   7.17241630
_cell_angle_alpha   90.00000000
_cell_angle_beta   90.00000000
_cell_angle_gamma   90.00000000
_symmetry_Int_Tables_number   1
_chemical_formula_structural   LiF
_chemical_formula_sum   'Li16 F16'
_cell_volume   416.16904060
_cell_formula_units_Z   16
loop_
 _symmetry_equiv_pos_site_id
 _symmetry_equiv_pos_as_xyz
  1  'x, y, z'
loop_
 _atom_site_type_symbol
 _atom_site_label
 _atom_site_symmetry_multiplicity
 _atom_site_fract_x
 _atom_site_fract_y
 _atom_site_fract_z
 _atom_site_occupancy
  F  F0  1  0.51809264  0.21707172  0.50000000  1
  F  F1  1  0.48190736  0.78292828  0.50000000  1
  F  F2  1  0.98190736  0.71707172  0.50000000  1
  F  F3  1  0.01809264  0.28292828  0.50000000  1
  F  F4  1  0.00000000  0.00000000  0.00000000  1
  F  F5  1  0.50000000  0.50000000  0.00000000  1
  F  F6  1  0.00000000  0.50000000  0.84660702  1
  F  F7  1  0.50000000  0.00000000  0.15339298  1
  F  F8  1  0.00000000  0.50000000  0.15339298  1
  F  F9  1  0.50000000  0.00000000  0.84660702  1
  F  F10  1  0.00000000  0.00000000  0.12597511  1
  F  F11  1  0.50000000  0.50000000  0.87402489  1
  F  F12  1  0.00000000  0.00000000  0.87402489  1
  F  F13  1  0.50000000  0.50000000  0.12597511  1
  F  F14  1  0.00000000  0.50000000  0.00000000  1
  F  F15  1  0.50000000  0.00000000  0.00000000  1
  Li  Li16  1  0.00000000  0.50000000  0.69486806  1
  Li  Li17  1  0.50000000  0.00000000  0.30513194  1
  Li  Li18  1  0.00000000  0.50000000  0.30513194  1
  Li  Li19  1  0.50000000  0.00000000  0.69486806  1
  Li  Li20  1  0.39357132  0.62451237  0.65076002  1
  Li  Li21  1  -0.39357132  -0.62451237  0.65076002  1
  Li  Li22  1  0.10642868  1.12451237  -0.65076002  1
  Li  Li23  1  0.89357132  -0.12451237  -0.65076002  1
  Li  Li24  1  -0.39357132  -0.62451237  -0.65076002  1
  Li  Li25  1  0.39357132  0.62451237  -0.65076002  1
  Li  Li26  1  0.89357132  -0.12451237  0.65076002  1
  Li  Li27  1  0.10642868  1.12451237  0.65076002  1
  Li  Li28  1  0.04397017  0.85132555  0.50000000  1
  Li  Li29  1  0.95602983  0.14867445  0.50000000  1
  Li  Li30  1  0.45602983  0.35132555  0.50000000  1
  Li  Li31  1  0.54397017  0.64867445  0.50000000  1
