# generated using pymatgen
data_Sr3TiS2O3
_symmetry_space_group_name_H-M   'P 1'
_cell_length_a   20.44888079
_cell_length_b   20.44888079
_cell_length_c   27.55116456
_cell_angle_alpha   90.00000000
_cell_angle_beta   90.00000000
_cell_angle_gamma   120.00000000
_symmetry_Int_Tables_number   1
_chemical_formula_structural   Sr3TiS2O3
_chemical_formula_sum   'Sr108 Ti36 S72 O108'
_cell_volume   9977.22298683
_cell_formula_units_Z   36
loop_
 _symmetry_equiv_pos_site_id
 _symmetry_equiv_pos_as_xyz
  1  'x, y, z'
loop_
 _atom_site_type_symbol
 _atom_site_label
 _atom_site_symmetry_multiplicity
 _atom_site_fract_x
 _atom_site_fract_y
 _atom_site_fract_z
 _atom_site_occupancy
  O  O0  1  0.52933839  0.69966839  0.54570194  1
  O  O1  1  0.30033161  0.82967000  0.54570194  1
  O  O2  1  0.17033000  0.47066161  0.54570194  1
  O  O3  1  0.69966839  0.52933839  0.45429806  1
  O  O4  1  0.82967000  0.30033161  0.45429806  1
  O  O5  1  0.47066161  0.17033000  0.45429806  1
  O  O6  1  0.47066161  0.30033161  0.45429806  1
  O  O7  1  0.69966839  0.17033000  0.45429806  1
  O  O8  1  0.82967000  0.52933839  0.45429806  1
  O  O9  1  0.30033161  0.47066161  0.54570194  1
  O  O10  1  0.17033000  0.69966839  0.54570194  1
  O  O11  1  0.52933839  0.82967000  0.54570194  1
  O  O12  1  0.19600506  0.03300173  0.87903527  1
  O  O13  1  0.96699827  0.16300333  0.87903527  1
  O  O14  1  0.83699667  0.80399494  0.87903527  1
  O  O15  1  0.36633506  0.86267173  0.78763140  1
  O  O16  1  0.49633667  0.63366494  0.78763140  1
  O  O17  1  0.13732827  0.50366333  0.78763140  1
  O  O18  1  0.13732827  0.63366494  0.78763140  1
  O  O19  1  0.36633506  0.50366333  0.78763140  1
  O  O20  1  0.49633667  0.86267173  0.78763140  1
  O  O21  1  0.96699827  0.80399494  0.87903527  1
  O  O22  1  0.83699667  0.03300173  0.87903527  1
  O  O23  1  0.19600506  0.16300333  0.87903527  1
  O  O24  1  0.86267173  0.36633506  0.21236860  1
  O  O25  1  0.63366494  0.49633667  0.21236860  1
  O  O26  1  0.50366333  0.13732827  0.21236860  1
  O  O27  1  0.03300173  0.19600506  0.12096473  1
  O  O28  1  0.16300333  0.96699827  0.12096473  1
  O  O29  1  0.80399494  0.83699667  0.12096473  1
  O  O30  1  0.80399494  0.96699827  0.12096473  1
  O  O31  1  0.03300173  0.83699667  0.12096473  1
  O  O32  1  0.16300333  0.19600506  0.12096473  1
  O  O33  1  0.63366494  0.13732827  0.21236860  1
  O  O34  1  0.50366333  0.36633506  0.21236860  1
  O  O35  1  0.86267173  0.49633667  0.21236860  1
  O  O36  1  0.06185521  0.76227434  0.78585494  1
  O  O37  1  0.23772566  0.29958087  0.78585494  1
  O  O38  1  0.70041913  0.93814479  0.78585494  1
  O  O39  1  0.76227434  0.06185521  0.21414506  1
  O  O40  1  0.29958087  0.23772566  0.21414506  1
  O  O41  1  0.93814479  0.70041913  0.21414506  1
  O  O42  1  0.93814479  0.23772566  0.21414506  1
  O  O43  1  0.76227434  0.70041913  0.21414506  1
  O  O44  1  0.29958087  0.06185521  0.21414506  1
  O  O45  1  0.23772566  0.93814479  0.78585494  1
  O  O46  1  0.70041913  0.76227434  0.78585494  1
  O  O47  1  0.06185521  0.29958087  0.78585494  1
  O  O48  1  0.72852188  0.09560767  0.11918827  1
  O  O49  1  0.90439233  0.63291421  0.11918827  1
  O  O50  1  0.36708579  0.27147812  0.11918827  1
  O  O51  1  0.42894101  0.39518855  0.54747839  1
  O  O52  1  0.96624754  0.57105899  0.54747839  1
  O  O53  1  0.60481145  0.03375246  0.54747839  1
  O  O54  1  0.60481145  0.57105899  0.54747839  1
  O  O55  1  0.42894101  0.03375246  0.54747839  1
  O  O56  1  0.96624754  0.39518855  0.54747839  1
  O  O57  1  0.90439233  0.27147812  0.11918827  1
  O  O58  1  0.36708579  0.09560767  0.11918827  1
  O  O59  1  0.72852188  0.63291421  0.11918827  1
  O  O60  1  0.39518855  0.42894101  0.45252161  1
  O  O61  1  0.57105899  0.96624754  0.45252161  1
  O  O62  1  0.03375246  0.60481145  0.45252161  1
  O  O63  1  0.09560767  0.72852188  0.88081173  1
  O  O64  1  0.63291421  0.90439233  0.88081173  1
  O  O65  1  0.27147812  0.36708579  0.88081173  1
  O  O66  1  0.27147812  0.90439233  0.88081173  1
  O  O67  1  0.09560767  0.36708579  0.88081173  1
  O  O68  1  0.63291421  0.72852188  0.88081173  1
  O  O69  1  0.57105899  0.60481145  0.45252161  1
  O  O70  1  0.03375246  0.42894101  0.45252161  1
  O  O71  1  0.39518855  0.96624754  0.45252161  1
  O  O72  1  0.18451075  0.81548925  0.88879321  1
  O  O73  1  0.18451075  0.36902149  0.88879321  1
  O  O74  1  0.63097851  0.81548925  0.88879321  1
  O  O75  1  0.81548925  0.18451075  0.11120679  1
  O  O76  1  0.36902149  0.18451075  0.11120679  1
  O  O77  1  0.81548925  0.63097851  0.11120679  1
  O  O78  1  0.85117741  0.14882259  0.22212655  1
  O  O79  1  0.85117741  0.70235483  0.22212655  1
  O  O80  1  0.29764517  0.14882259  0.22212655  1
  O  O81  1  0.48215592  0.51784408  0.44454012  1
  O  O82  1  0.03568816  0.51784408  0.44454012  1
  O  O83  1  0.48215592  0.96431184  0.44454012  1
  O  O84  1  0.51784408  0.48215592  0.55545988  1
  O  O85  1  0.51784408  0.03568816  0.55545988  1
  O  O86  1  0.96431184  0.48215592  0.55545988  1
  O  O87  1  0.14882259  0.85117741  0.77787345  1
  O  O88  1  0.70235483  0.85117741  0.77787345  1
  O  O89  1  0.14882259  0.29764517  0.77787345  1
  O  O90  1  0.78428707  -0.00000000  0.50000000  1
  O  O91  1  0.00000000  0.78428707  0.50000000  1
  O  O92  1  0.21571293  0.21571293  0.50000000  1
  O  O93  1  0.21571293  -0.00000000  0.50000000  1
  O  O94  1  0.00000000  0.21571293  0.50000000  1
  O  O95  1  0.78428707  0.78428707  0.50000000  1
  O  O96  1  0.45095373  0.33333333  0.83333333  1
  O  O97  1  0.66666667  0.11762040  0.83333333  1
  O  O98  1  0.88237960  0.54904627  0.83333333  1
  O  O99  1  0.88237960  0.33333333  0.83333333  1
  O  O100  1  0.66666667  0.54904627  0.83333333  1
  O  O101  1  0.45095373  0.11762040  0.83333333  1
  O  O102  1  0.11762040  0.66666667  0.16666667  1
  O  O103  1  0.33333333  0.45095373  0.16666667  1
  O  O104  1  0.54904627  0.88237960  0.16666667  1
  O  O105  1  0.54904627  0.66666667  0.16666667  1
  O  O106  1  0.33333333  0.88237960  0.16666667  1
  O  O107  1  0.11762040  0.45095373  0.16666667  1
  S  S108  1  0.00000000  0.00000000  0.50000000  1
  S  S109  1  0.66666667  0.33333333  0.83333333  1
  S  S110  1  0.33333333  0.66666667  0.16666667  1
  S  S111  1  0.94035867  0.34794108  0.15461688  1
  S  S112  1  -0.34794108  0.59241759  0.15461688  1
  S  S113  1  -0.59241759  -0.94035867  0.15461688  1
  S  S114  1  0.34794108  0.94035867  -0.15461688  1
  S  S115  1  0.59241759  -0.34794108  -0.15461688  1
  S  S116  1  -0.94035867  -0.59241759  -0.15461688  1
  S  S117  1  -0.94035867  -0.34794108  -0.15461688  1
  S  S118  1  0.34794108  -0.59241759  -0.15461688  1
  S  S119  1  0.59241759  0.94035867  -0.15461688  1
  S  S120  1  -0.34794108  -0.94035867  0.15461688  1
  S  S121  1  -0.59241759  0.34794108  0.15461688  1
  S  S122  1  0.94035867  0.59241759  0.15461688  1
  S  S123  1  1.60702534  0.68127442  0.48795021  1
  S  S124  1  0.31872558  0.92575092  0.48795021  1
  S  S125  1  0.07424908  -0.60702534  0.48795021  1
  S  S126  1  1.01460775  1.27369200  0.17871646  1
  S  S127  1  1.25908425  -0.01460775  0.17871646  1
  S  S128  1  -0.27369200  -0.25908425  0.17871646  1
  S  S129  1  -0.27369200  -0.01460775  0.17871646  1
  S  S130  1  1.01460775  -0.25908425  0.17871646  1
  S  S131  1  1.25908425  1.27369200  0.17871646  1
  S  S132  1  0.31872558  -0.60702534  0.48795021  1
  S  S133  1  0.07424908  0.68127442  0.48795021  1
  S  S134  1  1.60702534  0.92575092  0.48795021  1
  S  S135  1  1.27369200  1.01460775  0.82128354  1
  S  S136  1  -0.01460775  1.25908425  0.82128354  1
  S  S137  1  -0.25908425  -0.27369200  0.82128354  1
  S  S138  1  0.68127442  1.60702534  0.51204979  1
  S  S139  1  0.92575092  0.31872558  0.51204979  1
  S  S140  1  -0.60702534  0.07424908  0.51204979  1
  S  S141  1  -0.60702534  0.31872558  0.51204979  1
  S  S142  1  0.68127442  0.07424908  0.51204979  1
  S  S143  1  0.92575092  1.60702534  0.51204979  1
  S  S144  1  -0.01460775  -0.27369200  0.82128354  1
  S  S145  1  -0.25908425  1.01460775  0.82128354  1
  S  S146  1  1.27369200  1.25908425  0.82128354  1
  S  S147  1  0.83337218  0.16662782  0.84971498  1
  S  S148  1  0.83337218  0.66674436  0.84971498  1
  S  S149  1  0.33325564  0.16662782  0.84971498  1
  S  S150  1  0.16662782  0.83337218  0.15028502  1
  S  S151  1  0.66674436  0.83337218  0.15028502  1
  S  S152  1  0.16662782  0.33325564  0.15028502  1
  S  S153  1  0.50003885  0.49996115  0.18304832  1
  S  S154  1  0.50003885  0.00007770  0.18304832  1
  S  S155  1  0.99992230  0.49996115  0.18304832  1
  S  S156  1  0.83329448  0.16670552  0.48361835  1
  S  S157  1  0.33341103  0.16670552  0.48361835  1
  S  S158  1  0.83329448  0.66658897  0.48361835  1
  S  S159  1  0.16670552  0.83329448  0.51638165  1
  S  S160  1  0.16670552  0.33341103  0.51638165  1
  S  S161  1  0.66658897  0.83329448  0.51638165  1
  S  S162  1  0.49996115  0.50003885  0.81695168  1
  S  S163  1  0.00007770  0.50003885  0.81695168  1
  S  S164  1  0.49996115  0.99992230  0.81695168  1
  S  S165  1  0.50000000  -0.00000000  -0.00000000  1
  S  S166  1  0.00000000  0.50000000  0.00000000  1
  S  S167  1  0.50000000  0.50000000  0.00000000  1
  S  S168  1  0.16666667  0.33333333  0.33333333  1
  S  S169  1  0.66666667  0.83333333  0.33333333  1
  S  S170  1  0.16666667  0.83333333  0.33333333  1
  S  S171  1  0.83333333  0.66666667  0.66666667  1
  S  S172  1  0.33333333  0.16666667  0.66666667  1
  S  S173  1  0.83333333  0.16666667  0.66666667  1
  S  S174  1  0.00000000  0.00000000  0.87741840  1
  S  S175  1  0.00000000  0.00000000  0.12258160  1
  S  S176  1  0.66666667  0.33333333  0.21075173  1
  S  S177  1  0.66666667  0.33333333  0.45591493  1
  S  S178  1  0.33333333  0.66666667  0.54408507  1
  S  S179  1  0.33333333  0.66666667  0.78924827  1
  Sr  Sr180  1  0.00000000  0.00000000  0.58641522  1
  Sr  Sr181  1  0.00000000  0.00000000  0.41358478  1
  Sr  Sr182  1  0.66666667  0.33333333  0.91974855  1
  Sr  Sr183  1  0.66666667  0.33333333  0.74691812  1
  Sr  Sr184  1  0.33333333  0.66666667  0.25308188  1
  Sr  Sr185  1  0.33333333  0.66666667  0.08025145  1
  Sr  Sr186  1  0.17754636  0.45551324  0.80064044  1
  Sr  Sr187  1  0.54448676  0.72203312  0.80064044  1
  Sr  Sr188  1  0.27796688  0.82245364  0.80064044  1
  Sr  Sr189  1  0.45551324  0.17754636  0.19935956  1
  Sr  Sr190  1  0.72203312  0.54448676  0.19935956  1
  Sr  Sr191  1  0.82245364  0.27796688  0.19935956  1
  Sr  Sr192  1  0.82245364  0.54448676  0.19935956  1
  Sr  Sr193  1  0.45551324  0.27796688  0.19935956  1
  Sr  Sr194  1  0.72203312  0.17754636  0.19935956  1
  Sr  Sr195  1  0.54448676  0.82245364  0.80064044  1
  Sr  Sr196  1  0.27796688  0.45551324  0.80064044  1
  Sr  Sr197  1  0.17754636  0.72203312  0.80064044  1
  Sr  Sr198  1  0.84421302  0.78884657  0.13397378  1
  Sr  Sr199  1  0.21115343  0.05536645  0.13397378  1
  Sr  Sr200  1  0.94463355  0.15578698  0.13397378  1
  Sr  Sr201  1  0.12217990  0.51087969  0.53269289  1
  Sr  Sr202  1  0.38869978  0.87782010  0.53269289  1
  Sr  Sr203  1  0.48912031  0.61130022  0.53269289  1
  Sr  Sr204  1  0.48912031  0.87782010  0.53269289  1
  Sr  Sr205  1  0.12217990  0.61130022  0.53269289  1
  Sr  Sr206  1  0.38869978  0.51087969  0.53269289  1
  Sr  Sr207  1  0.21115343  0.15578698  0.13397378  1
  Sr  Sr208  1  0.94463355  0.78884657  0.13397378  1
  Sr  Sr209  1  0.84421302  0.05536645  0.13397378  1
  Sr  Sr210  1  0.51087969  0.12217990  0.46730711  1
  Sr  Sr211  1  0.87782010  0.38869978  0.46730711  1
  Sr  Sr212  1  0.61130022  0.48912031  0.46730711  1
  Sr  Sr213  1  0.78884657  0.84421302  0.86602622  1
  Sr  Sr214  1  0.05536645  0.21115343  0.86602622  1
  Sr  Sr215  1  0.15578698  0.94463355  0.86602622  1
  Sr  Sr216  1  0.15578698  0.21115343  0.86602622  1
  Sr  Sr217  1  0.78884657  0.94463355  0.86602622  1
  Sr  Sr218  1  0.05536645  0.84421302  0.86602622  1
  Sr  Sr219  1  0.87782010  0.48912031  0.46730711  1
  Sr  Sr220  1  0.61130022  0.12217990  0.46730711  1
  Sr  Sr221  1  0.51087969  0.38869978  0.46730711  1
  Sr  Sr222  1  0.18002216  0.81997784  0.58356865  1
  Sr  Sr223  1  0.18002216  0.36004432  0.58356865  1
  Sr  Sr224  1  0.63995568  0.81997784  0.58356865  1
  Sr  Sr225  1  0.81997784  0.18002216  0.41643135  1
  Sr  Sr226  1  0.36004432  0.18002216  0.41643135  1
  Sr  Sr227  1  0.81997784  0.63995568  0.41643135  1
  Sr  Sr228  1  0.84668883  0.15331117  0.91690198  1
  Sr  Sr229  1  0.84668883  0.69337765  0.91690198  1
  Sr  Sr230  1  0.30662235  0.15331117  0.91690198  1
  Sr  Sr231  1  0.48664451  0.51335549  0.74976469  1
  Sr  Sr232  1  0.02671098  0.51335549  0.74976469  1
  Sr  Sr233  1  0.48664451  0.97328902  0.74976469  1
  Sr  Sr234  1  0.51335549  0.48664451  0.25023531  1
  Sr  Sr235  1  0.51335549  0.02671098  0.25023531  1
  Sr  Sr236  1  0.97328902  0.48664451  0.25023531  1
  Sr  Sr237  1  0.15331117  0.84668883  0.08309802  1
  Sr  Sr238  1  0.69337765  0.84668883  0.08309802  1
  Sr  Sr239  1  0.15331117  0.30662235  0.08309802  1
  Sr  Sr240  1  0.36842760  0.94548937  0.32714752  1
  Sr  Sr241  1  0.05451063  0.42293823  0.32714752  1
  Sr  Sr242  1  0.57706177  0.63157240  0.32714752  1
  Sr  Sr243  1  0.94548937  0.36842760  0.67285248  1
  Sr  Sr244  1  0.42293823  0.05451063  0.67285248  1
  Sr  Sr245  1  0.63157240  0.57706177  0.67285248  1
  Sr  Sr246  1  0.63157240  0.05451063  0.67285248  1
  Sr  Sr247  1  0.94548937  0.57706177  0.67285248  1
  Sr  Sr248  1  0.42293823  0.36842760  0.67285248  1
  Sr  Sr249  1  0.05451063  0.63157240  0.32714752  1
  Sr  Sr250  1  0.57706177  0.94548937  0.32714752  1
  Sr  Sr251  1  0.36842760  0.42293823  0.32714752  1
  Sr  Sr252  1  0.03509426  0.27882271  0.66048086  1
  Sr  Sr253  1  0.72117729  0.75627156  0.66048086  1
  Sr  Sr254  1  0.24372844  0.96490574  0.66048086  1
  Sr  Sr255  1  0.61215604  0.70176093  0.00618581  1
  Sr  Sr256  1  0.08960489  0.38784396  0.00618581  1
  Sr  Sr257  1  0.29823907  0.91039511  0.00618581  1
  Sr  Sr258  1  0.29823907  0.38784396  0.00618581  1
  Sr  Sr259  1  0.61215604  0.91039511  0.00618581  1
  Sr  Sr260  1  0.08960489  0.70176093  0.00618581  1
  Sr  Sr261  1  0.72117729  0.96490574  0.66048086  1
  Sr  Sr262  1  0.24372844  0.27882271  0.66048086  1
  Sr  Sr263  1  0.03509426  0.75627156  0.66048086  1
  Sr  Sr264  1  0.70176093  0.61215604  0.99381419  1
  Sr  Sr265  1  0.38784396  0.08960489  0.99381419  1
  Sr  Sr266  1  0.91039511  0.29823907  0.99381419  1
  Sr  Sr267  1  0.27882271  0.03509426  0.33951914  1
  Sr  Sr268  1  0.75627156  0.72117729  0.33951914  1
  Sr  Sr269  1  0.96490574  0.24372844  0.33951914  1
  Sr  Sr270  1  0.96490574  0.72117729  0.33951914  1
  Sr  Sr271  1  0.27882271  0.24372844  0.33951914  1
  Sr  Sr272  1  0.75627156  0.03509426  0.33951914  1
  Sr  Sr273  1  0.38784396  0.29823907  0.99381419  1
  Sr  Sr274  1  0.91039511  0.61215604  0.99381419  1
  Sr  Sr275  1  0.70176093  0.08960489  0.99381419  1
  Sr  Sr276  1  0.00000000  0.00000000  0.00000000  1
  Sr  Sr277  1  0.66666667  0.33333333  0.33333333  1
  Sr  Sr278  1  0.33333333  0.66666667  0.66666667  1
  Sr  Sr279  1  0.50000000  -0.00000000  0.50000000  1
  Sr  Sr280  1  0.00000000  0.50000000  0.50000000  1
  Sr  Sr281  1  0.50000000  0.50000000  0.50000000  1
  Sr  Sr282  1  0.16666667  0.33333333  0.83333333  1
  Sr  Sr283  1  0.66666667  0.83333333  0.83333333  1
  Sr  Sr284  1  0.16666667  0.83333333  0.83333333  1
  Sr  Sr285  1  0.83333333  0.66666667  0.16666667  1
  Sr  Sr286  1  0.33333333  0.16666667  0.16666667  1
  Sr  Sr287  1  0.83333333  0.16666667  0.16666667  1
  Ti  Ti288  1  0.32128912  0.25202647  0.41024101  1
  Ti  Ti289  1  0.74797353  0.06926266  0.41024101  1
  Ti  Ti290  1  0.93073734  0.67871088  0.41024101  1
  Ti  Ti291  1  0.25202647  0.32128912  0.58975899  1
  Ti  Ti292  1  0.06926266  0.74797353  0.58975899  1
  Ti  Ti293  1  0.67871088  0.93073734  0.58975899  1
  Ti  Ti294  1  0.67871088  0.74797353  0.58975899  1
  Ti  Ti295  1  0.25202647  0.93073734  0.58975899  1
  Ti  Ti296  1  0.06926266  0.32128912  0.58975899  1
  Ti  Ti297  1  0.74797353  0.67871088  0.41024101  1
  Ti  Ti298  1  0.93073734  0.25202647  0.41024101  1
  Ti  Ti299  1  0.32128912  0.06926266  0.41024101  1
  Ti  Ti300  1  0.98795579  0.58535980  0.74357435  1
  Ti  Ti301  1  0.41464020  0.40259599  0.74357435  1
  Ti  Ti302  1  0.59740401  0.01204421  0.74357435  1
  Ti  Ti303  1  0.91869313  0.65462245  0.92309232  1
  Ti  Ti304  1  0.73592932  0.08130687  0.92309232  1
  Ti  Ti305  1  0.34537755  0.26407068  0.92309232  1
  Ti  Ti306  1  0.34537755  0.08130687  0.92309232  1
  Ti  Ti307  1  0.91869313  0.26407068  0.92309232  1
  Ti  Ti308  1  0.73592932  0.65462245  0.92309232  1
  Ti  Ti309  1  0.41464020  0.01204421  0.74357435  1
  Ti  Ti310  1  0.59740401  0.58535980  0.74357435  1
  Ti  Ti311  1  0.98795579  0.40259599  0.74357435  1
  Ti  Ti312  1  0.65462245  0.91869313  0.07690768  1
  Ti  Ti313  1  0.08130687  0.73592932  0.07690768  1
  Ti  Ti314  1  0.26407068  0.34537755  0.07690768  1
  Ti  Ti315  1  0.58535980  0.98795579  0.25642565  1
  Ti  Ti316  1  0.40259599  0.41464020  0.25642565  1
  Ti  Ti317  1  0.01204421  0.59740401  0.25642565  1
  Ti  Ti318  1  0.01204421  0.41464020  0.25642565  1
  Ti  Ti319  1  0.58535980  0.59740401  0.25642565  1
  Ti  Ti320  1  0.40259599  0.98795579  0.25642565  1
  Ti  Ti321  1  0.08130687  0.34537755  0.07690768  1
  Ti  Ti322  1  0.26407068  0.91869313  0.07690768  1
  Ti  Ti323  1  0.65462245  0.73592932  0.07690768  1
