# generated using pymatgen
data_LiCaF3
_symmetry_space_group_name_H-M   'P 1'
_cell_length_a   10.66725477
_cell_length_b   10.66725477
_cell_length_c   14.31233980
_cell_angle_alpha   90.00000000
_cell_angle_beta   90.00000000
_cell_angle_gamma   120.00000000
_symmetry_Int_Tables_number   1
_chemical_formula_structural   LiCaF3
_chemical_formula_sum   'Li18 Ca18 F54'
_cell_volume   1410.41398415
_cell_formula_units_Z   18
loop_
 _symmetry_equiv_pos_site_id
 _symmetry_equiv_pos_as_xyz
  1  'x, y, z'
loop_
 _atom_site_type_symbol
 _atom_site_label
 _atom_site_symmetry_multiplicity
 _atom_site_fract_x
 _atom_site_fract_y
 _atom_site_fract_z
 _atom_site_occupancy
  Ca  Ca0  1  0.82878373  0.00000000  0.25000000  1
  Ca  Ca1  1  0.00000000  0.82878373  0.25000000  1
  Ca  Ca2  1  0.17121627  0.17121627  0.25000000  1
  Ca  Ca3  1  0.17121627  0.00000000  0.75000000  1
  Ca  Ca4  1  0.00000000  0.17121627  0.75000000  1
  Ca  Ca5  1  0.82878373  0.82878373  0.75000000  1
  Ca  Ca6  1  0.49545040  0.33333333  0.58333333  1
  Ca  Ca7  1  0.66666667  0.16211707  0.58333333  1
  Ca  Ca8  1  0.83788293  0.50454960  0.58333333  1
  Ca  Ca9  1  0.83788293  0.33333333  0.08333333  1
  Ca  Ca10  1  0.66666667  0.50454960  0.08333333  1
  Ca  Ca11  1  0.49545040  0.16211707  0.08333333  1
  Ca  Ca12  1  0.16211707  0.66666667  0.91666667  1
  Ca  Ca13  1  0.33333333  0.49545040  0.91666667  1
  Ca  Ca14  1  0.50454960  0.83788293  0.91666667  1
  Ca  Ca15  1  0.50454960  0.66666667  0.41666667  1
  Ca  Ca16  1  0.33333333  0.83788293  0.41666667  1
  Ca  Ca17  1  0.16211707  0.49545040  0.41666667  1
  F  F18  1  0.73913141  0.33764663  0.94314565  1
  F  F19  1  -0.33764663  0.40148478  0.94314565  1
  F  F20  1  -0.40148478  -0.73913141  0.94314565  1
  F  F21  1  0.33764663  0.73913141  -0.44314565  1
  F  F22  1  0.40148478  -0.33764663  -0.44314565  1
  F  F23  1  -0.73913141  -0.40148478  -0.44314565  1
  F  F24  1  -0.73913141  -0.33764663  -0.94314565  1
  F  F25  1  0.33764663  -0.40148478  -0.94314565  1
  F  F26  1  0.40148478  0.73913141  -0.94314565  1
  F  F27  1  -0.33764663  -0.73913141  1.44314565  1
  F  F28  1  -0.40148478  0.33764663  1.44314565  1
  F  F29  1  0.73913141  0.40148478  1.44314565  1
  F  F30  1  1.40579808  0.67097997  1.27647898  1
  F  F31  1  0.32902003  0.73481811  1.27647898  1
  F  F32  1  0.26518189  -0.40579808  1.27647898  1
  F  F33  1  1.00431330  1.07246474  -0.10981231  1
  F  F34  1  1.06815144  -0.00431330  -0.10981231  1
  F  F35  1  -0.07246474  -0.06815144  -0.10981231  1
  F  F36  1  -0.07246474  -0.00431330  -0.60981231  1
  F  F37  1  1.00431330  -0.06815144  -0.60981231  1
  F  F38  1  1.06815144  1.07246474  -0.60981231  1
  F  F39  1  0.32902003  -0.40579808  1.77647898  1
  F  F40  1  0.26518189  0.67097997  1.77647898  1
  F  F41  1  1.40579808  0.73481811  1.77647898  1
  F  F42  1  1.07246474  1.00431330  1.60981231  1
  F  F43  1  -0.00431330  1.06815144  1.60981231  1
  F  F44  1  -0.06815144  -0.07246474  1.60981231  1
  F  F45  1  0.67097997  1.40579808  0.22352102  1
  F  F46  1  0.73481811  0.32902003  0.22352102  1
  F  F47  1  -0.40579808  0.26518189  0.22352102  1
  F  F48  1  -0.40579808  0.32902003  -0.27647898  1
  F  F49  1  0.67097997  0.26518189  -0.27647898  1
  F  F50  1  0.73481811  1.40579808  -0.27647898  1
  F  F51  1  -0.00431330  -0.07246474  2.10981231  1
  F  F52  1  -0.06815144  1.00431330  2.10981231  1
  F  F53  1  1.07246474  1.06815144  2.10981231  1
  F  F54  1  0.42777225  0.00000000  0.25000000  1
  F  F55  1  0.00000000  0.42777225  0.25000000  1
  F  F56  1  0.57222775  0.57222775  0.25000000  1
  F  F57  1  0.57222775  -0.00000000  0.75000000  1
  F  F58  1  0.00000000  0.57222775  0.75000000  1
  F  F59  1  0.42777225  0.42777225  0.75000000  1
  F  F60  1  0.09443892  0.33333333  0.58333333  1
  F  F61  1  0.66666667  0.76110559  0.58333333  1
  F  F62  1  0.23889441  0.90556108  0.58333333  1
  F  F63  1  0.23889441  0.33333333  0.08333333  1
  F  F64  1  0.66666667  0.90556108  0.08333333  1
  F  F65  1  0.09443892  0.76110559  0.08333333  1
  F  F66  1  0.76110559  0.66666667  0.91666667  1
  F  F67  1  0.33333333  0.09443892  0.91666667  1
  F  F68  1  0.90556108  0.23889441  0.91666667  1
  F  F69  1  0.90556108  0.66666667  0.41666667  1
  F  F70  1  0.33333333  0.23889441  0.41666667  1
  F  F71  1  0.76110559  0.09443892  0.41666667  1
  Li  Li72  1  0.00000000  0.00000000  0.00000000  1
  Li  Li73  1  0.00000000  0.00000000  0.50000000  1
  Li  Li74  1  0.66666667  0.33333333  0.33333333  1
  Li  Li75  1  0.66666667  0.33333333  0.83333333  1
  Li  Li76  1  0.33333333  0.66666667  0.66666667  1
  Li  Li77  1  0.33333333  0.66666667  0.16666667  1
  Li  Li78  1  0.00000000  0.00000000  0.66482765  1
  Li  Li79  1  0.00000000  0.00000000  0.83517235  1
  Li  Li80  1  0.00000000  0.00000000  0.33517235  1
  Li  Li81  1  0.00000000  0.00000000  0.16482765  1
  Li  Li82  1  0.66666667  0.33333333  0.99816098  1
  Li  Li83  1  0.66666667  0.33333333  0.16850569  1
  Li  Li84  1  0.66666667  0.33333333  0.66850569  1
  Li  Li85  1  0.66666667  0.33333333  0.49816098  1
  Li  Li86  1  0.33333333  0.66666667  0.33149431  1
  Li  Li87  1  0.33333333  0.66666667  0.50183902  1
  Li  Li88  1  0.33333333  0.66666667  0.00183902  1
  Li  Li89  1  0.33333333  0.66666667  0.83149431  1
