# generated using pymatgen
data_LiF
_symmetry_space_group_name_H-M   'P 1'
_cell_length_a   11.43975225
_cell_length_b   11.43975225
_cell_length_c   14.84011568
_cell_angle_alpha   90.00000000
_cell_angle_beta   90.00000000
_cell_angle_gamma   120.00000000
_symmetry_Int_Tables_number   1
_chemical_formula_structural   LiF
_chemical_formula_sum   'Li48 F48'
_cell_volume   1681.90381635
_cell_formula_units_Z   48
loop_
 _symmetry_equiv_pos_site_id
 _symmetry_equiv_pos_as_xyz
  1  'x, y, z'
loop_
 _atom_site_type_symbol
 _atom_site_label
 _atom_site_symmetry_multiplicity
 _atom_site_fract_x
 _atom_site_fract_y
 _atom_site_fract_z
 _atom_site_occupancy
  F  F0  1  0.00000000  0.00000000  0.00000000  1
  F  F1  1  0.00000000  0.00000000  0.50000000  1
  F  F2  1  0.66666667  0.33333333  0.33333333  1
  F  F3  1  0.66666667  0.33333333  0.83333333  1
  F  F4  1  0.33333333  0.66666667  0.66666667  1
  F  F5  1  0.33333333  0.66666667  0.16666667  1
  F  F6  1  0.92587917  0.62945254  0.97152411  1
  F  F7  1  -0.62945254  0.29642662  0.97152411  1
  F  F8  1  -0.29642662  -0.92587917  0.97152411  1
  F  F9  1  0.62945254  0.92587917  -0.47152411  1
  F  F10  1  0.29642662  -0.62945254  -0.47152411  1
  F  F11  1  -0.92587917  -0.29642662  -0.47152411  1
  F  F12  1  -0.92587917  -0.62945254  -0.97152411  1
  F  F13  1  0.62945254  -0.29642662  -0.97152411  1
  F  F14  1  0.29642662  0.92587917  -0.97152411  1
  F  F15  1  -0.62945254  -0.92587917  1.47152411  1
  F  F16  1  -0.29642662  0.62945254  1.47152411  1
  F  F17  1  0.92587917  0.29642662  1.47152411  1
  F  F18  1  1.59254584  0.96278588  1.30485744  1
  F  F19  1  0.03721412  0.62975996  1.30485744  1
  F  F20  1  0.37024004  -0.59254584  1.30485744  1
  F  F21  1  1.29611921  1.25921250  -0.13819078  1
  F  F22  1  0.96309329  -0.29611921  -0.13819078  1
  F  F23  1  -0.25921250  0.03690671  -0.13819078  1
  F  F24  1  -0.25921250  -0.29611921  -0.63819078  1
  F  F25  1  1.29611921  0.03690671  -0.63819078  1
  F  F26  1  0.96309329  1.25921250  -0.63819078  1
  F  F27  1  0.03721412  -0.59254584  1.80485744  1
  F  F28  1  0.37024004  0.96278588  1.80485744  1
  F  F29  1  1.59254584  0.62975996  1.80485744  1
  F  F30  1  1.25921250  1.29611921  1.63819078  1
  F  F31  1  -0.29611921  0.96309329  1.63819078  1
  F  F32  1  0.03690671  -0.25921250  1.63819078  1
  F  F33  1  0.96278588  1.59254584  0.19514256  1
  F  F34  1  0.62975996  0.03721412  0.19514256  1
  F  F35  1  -0.59254584  0.37024004  0.19514256  1
  F  F36  1  -0.59254584  0.03721412  -0.30485744  1
  F  F37  1  0.96278588  0.37024004  -0.30485744  1
  F  F38  1  0.62975996  1.59254584  -0.30485744  1
  F  F39  1  -0.29611921  -0.25921250  2.13819078  1
  F  F40  1  0.03690671  1.29611921  2.13819078  1
  F  F41  1  1.25921250  0.96309329  2.13819078  1
  F  F42  1  0.00000000  0.00000000  0.25000000  1
  F  F43  1  0.00000000  0.00000000  0.75000000  1
  F  F44  1  0.66666667  0.33333333  0.58333333  1
  F  F45  1  0.66666667  0.33333333  0.08333333  1
  F  F46  1  0.33333333  0.66666667  0.91666667  1
  F  F47  1  0.33333333  0.66666667  0.41666667  1
  Li  Li48  1  0.59896693  0.40057750  0.76716083  1
  Li  Li49  1  0.59942250  0.19838943  0.76716083  1
  Li  Li50  1  0.80161057  0.40103307  0.76716083  1
  Li  Li51  1  0.40057750  0.59896693  0.73283917  1
  Li  Li52  1  0.19838943  0.59942250  0.73283917  1
  Li  Li53  1  0.40103307  0.80161057  0.73283917  1
  Li  Li54  1  0.40103307  0.59942250  0.23283917  1
  Li  Li55  1  0.40057750  0.80161057  0.23283917  1
  Li  Li56  1  0.19838943  0.59896693  0.23283917  1
  Li  Li57  1  0.59942250  0.40103307  0.26716083  1
  Li  Li58  1  0.80161057  0.40057750  0.26716083  1
  Li  Li59  1  0.59896693  0.19838943  0.26716083  1
  Li  Li60  1  0.26563360  0.73391083  0.10049416  1
  Li  Li61  1  0.26608917  0.53172277  0.10049416  1
  Li  Li62  1  0.46827723  0.73436640  0.10049416  1
  Li  Li63  1  0.06724416  0.93230027  0.06617250  1
  Li  Li64  1  0.86505610  0.93275584  0.06617250  1
  Li  Li65  1  0.06769973  0.13494390  0.06617250  1
  Li  Li66  1  0.06769973  0.93275584  0.56617250  1
  Li  Li67  1  0.06724416  0.13494390  0.56617250  1
  Li  Li68  1  0.86505610  0.93230027  0.56617250  1
  Li  Li69  1  0.26608917  0.73436640  0.60049416  1
  Li  Li70  1  0.46827723  0.73391083  0.60049416  1
  Li  Li71  1  0.26563360  0.53172277  0.60049416  1
  Li  Li72  1  0.93230027  0.06724416  0.43382750  1
  Li  Li73  1  0.93275584  0.86505610  0.43382750  1
  Li  Li74  1  0.13494390  0.06769973  0.43382750  1
  Li  Li75  1  0.73391083  0.26563360  0.39950584  1
  Li  Li76  1  0.53172277  0.26608917  0.39950584  1
  Li  Li77  1  0.73436640  0.46827723  0.39950584  1
  Li  Li78  1  0.73436640  0.26608917  0.89950584  1
  Li  Li79  1  0.73391083  0.46827723  0.89950584  1
  Li  Li80  1  0.53172277  0.26563360  0.89950584  1
  Li  Li81  1  0.93275584  0.06769973  0.93382750  1
  Li  Li82  1  0.13494390  0.06724416  0.93382750  1
  Li  Li83  1  0.93230027  0.86505610  0.93382750  1
  Li  Li84  1  0.00000000  0.00000000  0.08360177  1
  Li  Li85  1  0.00000000  0.00000000  0.41639823  1
  Li  Li86  1  0.00000000  0.00000000  0.91639823  1
  Li  Li87  1  0.00000000  0.00000000  0.58360177  1
  Li  Li88  1  0.66666667  0.33333333  0.41693510  1
  Li  Li89  1  0.66666667  0.33333333  0.74973156  1
  Li  Li90  1  0.66666667  0.33333333  0.24973156  1
  Li  Li91  1  0.66666667  0.33333333  0.91693510  1
  Li  Li92  1  0.33333333  0.66666667  0.75026844  1
  Li  Li93  1  0.33333333  0.66666667  0.08306490  1
  Li  Li94  1  0.33333333  0.66666667  0.58306490  1
  Li  Li95  1  0.33333333  0.66666667  0.25026844  1
