# generated using pymatgen
data_Li4TeF2
_symmetry_space_group_name_H-M   'P 1'
_cell_length_a   8.88704491
_cell_length_b   14.94777074
_cell_length_c   16.66538615
_cell_angle_alpha   90.00000000
_cell_angle_beta   90.00000000
_cell_angle_gamma   90.00000000
_symmetry_Int_Tables_number   1
_chemical_formula_structural   Li4TeF2
_chemical_formula_sum   'Li96 Te24 F48'
_cell_volume   2213.85505855
_cell_formula_units_Z   24
loop_
 _symmetry_equiv_pos_site_id
 _symmetry_equiv_pos_as_xyz
  1  'x, y, z'
loop_
 _atom_site_type_symbol
 _atom_site_label
 _atom_site_symmetry_multiplicity
 _atom_site_fract_x
 _atom_site_fract_y
 _atom_site_fract_z
 _atom_site_occupancy
  F  F0  1  0.00000000  0.00000000  0.00000000  1
  F  F1  1  0.50000000  0.00000000  0.50000000  1
  F  F2  1  0.00000000  0.50000000  -0.00000000  1
  F  F3  1  0.50000000  0.50000000  0.50000000  1
  F  F4  1  0.60607699  0.00533194  0.25390527  1
  F  F5  1  -0.10607699  -0.00533194  0.75390527  1
  F  F6  1  -0.60607699  0.50533194  -0.25390527  1
  F  F7  1  1.10607699  0.49466806  0.24609473  1
  F  F8  1  -0.60607699  -0.00533194  -0.25390527  1
  F  F9  1  1.10607699  0.00533194  0.24609473  1
  F  F10  1  0.60607699  0.49466806  0.25390527  1
  F  F11  1  -0.10607699  0.50533194  0.75390527  1
  F  F12  1  0.21371586  0.56895709  0.26992346  1
  F  F13  1  0.28628414  0.43104291  0.76992346  1
  F  F14  1  0.78628414  0.06895709  0.73007654  1
  F  F15  1  0.71371586  0.93104291  0.23007654  1
  F  F16  1  0.78628414  0.43104291  0.73007654  1
  F  F17  1  0.71371586  0.56895709  0.23007654  1
  F  F18  1  0.21371586  0.93104291  0.26992346  1
  F  F19  1  0.28628414  0.06895709  0.76992346  1
  F  F20  1  0.95656553  0.25000000  0.41148238  1
  F  F21  1  0.54343447  0.75000000  0.91148238  1
  F  F22  1  0.04343447  0.75000000  0.58851762  1
  F  F23  1  0.45656553  0.25000000  0.08851762  1
  F  F24  1  0.45660063  0.25000000  0.19180873  1
  F  F25  1  0.04339937  0.75000000  0.69180873  1
  F  F26  1  0.54339937  0.75000000  0.80819127  1
  F  F27  1  0.95660063  0.25000000  0.30819127  1
  F  F28  1  0.00000000  0.00000000  0.50000000  1
  F  F29  1  0.50000000  0.00000000  0.00000000  1
  F  F30  1  0.00000000  0.50000000  0.50000000  1
  F  F31  1  0.50000000  0.50000000  0.00000000  1
  F  F32  1  0.73125755  0.25000000  0.15131647  1
  F  F33  1  0.76874245  0.75000000  0.65131647  1
  F  F34  1  0.26874245  0.75000000  0.84868353  1
  F  F35  1  0.23125755  0.25000000  0.34868353  1
  F  F36  1  0.01919728  0.73067608  0.03724501  1
  F  F37  1  0.48080272  0.26932392  0.53724501  1
  F  F38  1  0.98080272  0.23067608  0.96275499  1
  F  F39  1  0.51919728  0.76932392  0.46275499  1
  F  F40  1  0.98080272  0.26932392  0.96275499  1
  F  F41  1  0.51919728  0.73067608  0.46275499  1
  F  F42  1  0.01919728  0.76932392  0.03724501  1
  F  F43  1  0.48080272  0.23067608  0.53724501  1
  F  F44  1  0.66797596  0.25000000  0.74113876  1
  F  F45  1  0.83202404  0.75000000  0.24113876  1
  F  F46  1  0.33202404  0.75000000  0.25886124  1
  F  F47  1  0.16797596  0.25000000  0.75886124  1
  Li  Li48  1  0.00168356  0.12189169  0.29488732  1
  Li  Li49  1  0.49831644  0.87810831  0.79488732  1
  Li  Li50  1  0.99831644  0.62189169  0.70511268  1
  Li  Li51  1  0.50168356  0.37810831  0.20511268  1
  Li  Li52  1  0.99831644  0.87810831  0.70511268  1
  Li  Li53  1  0.50168356  0.12189169  0.20511268  1
  Li  Li54  1  0.00168356  0.37810831  0.29488732  1
  Li  Li55  1  0.49831644  0.62189169  0.79488732  1
  Li  Li56  1  0.67882863  0.19560936  0.58995941  1
  Li  Li57  1  0.82117137  0.80439064  0.08995941  1
  Li  Li58  1  0.32117137  0.69560936  0.41004059  1
  Li  Li59  1  0.17882863  0.30439064  0.91004059  1
  Li  Li60  1  0.32117137  0.80439064  0.41004059  1
  Li  Li61  1  0.17882863  0.19560936  0.91004059  1
  Li  Li62  1  0.67882863  0.30439064  0.58995941  1
  Li  Li63  1  0.82117137  0.69560936  0.08995941  1
  Li  Li64  1  0.30975317  0.86829578  0.58947313  1
  Li  Li65  1  0.19024683  0.13170422  0.08947313  1
  Li  Li66  1  0.69024683  0.36829578  0.41052687  1
  Li  Li67  1  0.80975317  0.63170422  0.91052687  1
  Li  Li68  1  0.69024683  0.13170422  0.41052687  1
  Li  Li69  1  0.80975317  0.86829578  0.91052687  1
  Li  Li70  1  0.30975317  0.63170422  0.58947313  1
  Li  Li71  1  0.19024683  0.36829578  0.08947313  1
  Li  Li72  1  0.65536377  0.10557897  0.10214748  1
  Li  Li73  1  0.84463623  0.89442103  0.60214748  1
  Li  Li74  1  0.34463623  0.60557897  0.89785252  1
  Li  Li75  1  0.15536377  0.39442103  0.39785252  1
  Li  Li76  1  0.34463623  0.89442103  0.89785252  1
  Li  Li77  1  0.15536377  0.10557897  0.39785252  1
  Li  Li78  1  0.65536377  0.39442103  0.10214748  1
  Li  Li79  1  0.84463623  0.60557897  0.60214748  1
  Li  Li80  1  0.73885964  0.25000000  0.30687717  1
  Li  Li81  1  0.76114036  0.75000000  0.80687717  1
  Li  Li82  1  0.26114036  0.75000000  0.69312283  1
  Li  Li83  1  0.23885964  0.25000000  0.19312283  1
  Li  Li84  1  0.76816203  0.25000000  0.72317169  1
  Li  Li85  1  0.73183797  0.75000000  0.22317169  1
  Li  Li86  1  0.23183797  0.75000000  0.27682831  1
  Li  Li87  1  0.26816203  0.25000000  0.77682831  1
  Li  Li88  1  0.17264830  0.59478204  0.40996987  1
  Li  Li89  1  0.32735170  0.40521796  0.90996987  1
  Li  Li90  1  0.82735170  0.09478204  0.59003013  1
  Li  Li91  1  0.67264830  0.90521796  0.09003013  1
  Li  Li92  1  0.82735170  0.40521796  0.59003013  1
  Li  Li93  1  0.67264830  0.59478204  0.09003013  1
  Li  Li94  1  0.17264830  0.90521796  0.40996987  1
  Li  Li95  1  0.32735170  0.09478204  0.90996987  1
  Li  Li96  1  0.26948320  0.87927837  0.70684625  1
  Li  Li97  1  0.23051680  0.12072163  0.20684625  1
  Li  Li98  1  0.73051680  0.37927837  0.29315375  1
  Li  Li99  1  0.76948320  0.62072163  0.79315375  1
  Li  Li100  1  0.73051680  0.12072163  0.29315375  1
  Li  Li101  1  0.76948320  0.87927837  0.79315375  1
  Li  Li102  1  0.26948320  0.62072163  0.70684625  1
  Li  Li103  1  0.23051680  0.37927837  0.20684625  1
  Li  Li104  1  0.83418155  0.25000000  0.45095507  1
  Li  Li105  1  0.66581845  0.75000000  0.95095507  1
  Li  Li106  1  0.16581845  0.75000000  0.54904493  1
  Li  Li107  1  0.33418155  0.25000000  0.04904493  1
  Li  Li108  1  0.11539423  0.10333621  0.49023126  1
  Li  Li109  1  0.38460577  0.89666379  0.99023126  1
  Li  Li110  1  0.88460577  0.60333621  0.50976874  1
  Li  Li111  1  0.61539423  0.39666379  0.00976874  1
  Li  Li112  1  0.88460577  0.89666379  0.50976874  1
  Li  Li113  1  0.61539423  0.10333621  0.00976874  1
  Li  Li114  1  0.11539423  0.39666379  0.49023126  1
  Li  Li115  1  0.38460577  0.60333621  0.99023126  1
  Li  Li116  1  0.47064255  0.04285438  0.28984935  1
  Li  Li117  1  0.02935745  0.95714562  0.78984935  1
  Li  Li118  1  0.52935745  0.54285438  0.71015065  1
  Li  Li119  1  0.97064255  0.45714562  0.21015065  1
  Li  Li120  1  0.52935745  0.95714562  0.71015065  1
  Li  Li121  1  0.97064255  0.04285438  0.21015065  1
  Li  Li122  1  0.47064255  0.45714562  0.28984935  1
  Li  Li123  1  0.02935745  0.54285438  0.78984935  1
  Li  Li124  1  0.58070610  0.25000000  0.87343864  1
  Li  Li125  1  0.91929390  0.75000000  0.37343864  1
  Li  Li126  1  0.41929390  0.75000000  0.12656136  1
  Li  Li127  1  0.08070610  0.25000000  0.62656136  1
  Li  Li128  1  0.86694478  0.09249140  0.33497824  1
  Li  Li129  1  0.63305522  0.90750860  0.83497824  1
  Li  Li130  1  0.13305522  0.59249140  0.66502176  1
  Li  Li131  1  0.36694478  0.40750860  0.16502176  1
  Li  Li132  1  0.13305522  0.90750860  0.66502176  1
  Li  Li133  1  0.36694478  0.09249140  0.16502176  1
  Li  Li134  1  0.86694478  0.40750860  0.33497824  1
  Li  Li135  1  0.63305522  0.59249140  0.83497824  1
  Li  Li136  1  0.35370254  0.63029462  0.10722122  1
  Li  Li137  1  0.14629746  0.36970538  0.60722122  1
  Li  Li138  1  0.64629746  0.13029462  0.89277878  1
  Li  Li139  1  0.85370254  0.86970538  0.39277878  1
  Li  Li140  1  0.64629746  0.36970538  0.89277878  1
  Li  Li141  1  0.85370254  0.63029462  0.39277878  1
  Li  Li142  1  0.35370254  0.86970538  0.10722122  1
  Li  Li143  1  0.14629746  0.13029462  0.60722122  1
  Te  Te144  1  0.60245448  0.83009042  0.89022917  1
  Te  Te145  1  0.89754552  0.16990958  0.39022917  1
  Te  Te146  1  0.39754552  0.33009042  0.10977083  1
  Te  Te147  1  0.10245448  0.66990958  0.60977083  1
  Te  Te148  1  0.39754552  0.16990958  0.10977083  1
  Te  Te149  1  0.10245448  0.83009042  0.60977083  1
  Te  Te150  1  0.60245448  0.66990958  0.89022917  1
  Te  Te151  1  0.89754552  0.33009042  0.39022917  1
  Te  Te152  1  0.50457137  0.13001978  0.68218940  1
  Te  Te153  1  0.99542863  0.86998022  0.18218940  1
  Te  Te154  1  0.49542863  0.63001978  0.31781060  1
  Te  Te155  1  0.00457137  0.36998022  0.81781060  1
  Te  Te156  1  0.49542863  0.86998022  0.31781060  1
  Te  Te157  1  0.00457137  0.13001978  0.81781060  1
  Te  Te158  1  0.50457137  0.36998022  0.68218940  1
  Te  Te159  1  0.99542863  0.63001978  0.18218940  1
  Te  Te160  1  0.33081085  0.87570395  0.80250365  1
  Te  Te161  1  0.16918915  0.12429605  0.30250365  1
  Te  Te162  1  0.66918915  0.37570395  0.19749635  1
  Te  Te163  1  0.83081085  0.62429605  0.69749635  1
  Te  Te164  1  0.66918915  0.12429605  0.19749635  1
  Te  Te165  1  0.83081085  0.87570395  0.69749635  1
  Te  Te166  1  0.33081085  0.62429605  0.80250365  1
  Te  Te167  1  0.16918915  0.37570395  0.30250365  1
