# generated using pymatgen
data_Li2Si4Te3F12
_symmetry_space_group_name_H-M   'P 1'
_cell_length_a   9.78948272
_cell_length_b   9.78948272
_cell_length_c   8.93538374
_cell_angle_alpha   90.00000000
_cell_angle_beta   90.00000000
_cell_angle_gamma   90.00000000
_symmetry_Int_Tables_number   1
_chemical_formula_structural   Li2Si4Te3F12
_chemical_formula_sum   'Li8 Si16 Te12 F48'
_cell_volume   856.31331527
_cell_formula_units_Z   4
loop_
 _symmetry_equiv_pos_site_id
 _symmetry_equiv_pos_as_xyz
  1  'x, y, z'
loop_
 _atom_site_type_symbol
 _atom_site_label
 _atom_site_symmetry_multiplicity
 _atom_site_fract_x
 _atom_site_fract_y
 _atom_site_fract_z
 _atom_site_occupancy
  F  F0  1  0.00000000  0.94484947  0.29150946  1
  F  F1  1  0.50000000  0.05515053  0.79150946  1
  F  F2  1  0.30515053  0.75000000  0.54150946  1
  F  F3  1  0.19484947  0.25000000  0.04150946  1
  F  F4  1  0.50000000  0.94484947  0.20849054  1
  F  F5  1  0.00000000  0.05515053  0.70849054  1
  F  F6  1  0.19484947  0.75000000  0.95849054  1
  F  F7  1  0.30515053  0.25000000  0.45849054  1
  F  F8  1  0.50000000  0.44484947  0.79150946  1
  F  F9  1  0.00000000  0.55515053  0.29150946  1
  F  F10  1  0.80515053  0.25000000  0.04150946  1
  F  F11  1  0.69484947  0.75000000  0.54150946  1
  F  F12  1  0.00000000  0.44484947  0.70849054  1
  F  F13  1  0.50000000  0.55515053  0.20849054  1
  F  F14  1  0.69484947  0.25000000  0.45849054  1
  F  F15  1  0.80515053  0.75000000  0.95849054  1
  F  F16  1  0.89454058  0.98664225  0.19482410  1
  F  F17  1  -0.39454058  -0.98664225  0.69482410  1
  F  F18  1  -0.73664225  1.64454058  0.44482410  1
  F  F19  1  1.23664225  -0.64454058  0.94482410  1
  F  F20  1  -0.39454058  0.98664225  0.30517590  1
  F  F21  1  0.89454058  -0.98664225  -0.19482410  1
  F  F22  1  1.23664225  1.64454058  0.05517590  1
  F  F23  1  -0.73664225  -0.64454058  0.55517590  1
  F  F24  1  -0.89454058  -0.98664225  -0.19482410  1
  F  F25  1  1.39454058  0.98664225  0.30517590  1
  F  F26  1  1.73664225  -0.64454058  0.55517590  1
  F  F27  1  -0.23664225  1.64454058  0.05517590  1
  F  F28  1  1.39454058  -0.98664225  0.69482410  1
  F  F29  1  -0.89454058  0.98664225  0.19482410  1
  F  F30  1  -0.23664225  -0.64454058  0.94482410  1
  F  F31  1  1.73664225  1.64454058  0.44482410  1
  F  F32  1  1.39454058  1.48664225  0.69482410  1
  F  F33  1  0.10545942  -0.48664225  1.19482410  1
  F  F34  1  -0.23664225  2.14454058  0.94482410  1
  F  F35  1  1.73664225  -0.14454058  1.44482410  1
  F  F36  1  0.10545942  1.48664225  0.80517590  1
  F  F37  1  1.39454058  -0.48664225  0.30517590  1
  F  F38  1  1.73664225  2.14454058  0.55517590  1
  F  F39  1  -0.23664225  -0.14454058  1.05517590  1
  F  F40  1  -0.39454058  -0.48664225  0.30517590  1
  F  F41  1  1.89454058  1.48664225  0.80517590  1
  F  F42  1  2.23664225  -0.14454058  1.05517590  1
  F  F43  1  0.26335775  2.14454058  0.55517590  1
  F  F44  1  1.89454058  -0.48664225  1.19482410  1
  F  F45  1  -0.39454058  1.48664225  0.69482410  1
  F  F46  1  0.26335775  -0.14454058  1.44482410  1
  F  F47  1  2.23664225  2.14454058  0.94482410  1
  Li  Li48  1  0.00000000  0.25000000  0.24220881  1
  Li  Li49  1  0.00000000  0.75000000  0.49220881  1
  Li  Li50  1  0.50000000  0.25000000  0.25779119  1
  Li  Li51  1  0.50000000  0.75000000  0.00779119  1
  Li  Li52  1  0.50000000  0.75000000  0.74220881  1
  Li  Li53  1  0.50000000  0.25000000  0.99220881  1
  Li  Li54  1  0.00000000  0.75000000  0.75779119  1
  Li  Li55  1  0.00000000  0.25000000  0.50779119  1
  Si  Si56  1  0.76801132  0.01801132  0.87500000  1
  Si  Si57  1  0.73198868  0.98198868  0.37500000  1
  Si  Si58  1  0.23198868  0.51801132  0.12500000  1
  Si  Si59  1  0.26801132  0.48198868  0.62500000  1
  Si  Si60  1  0.23198868  0.98198868  0.12500000  1
  Si  Si61  1  0.26801132  0.01801132  0.62500000  1
  Si  Si62  1  0.76801132  0.48198868  0.87500000  1
  Si  Si63  1  0.73198868  0.51801132  0.37500000  1
  Si  Si64  1  0.26801132  0.51801132  0.37500000  1
  Si  Si65  1  0.23198868  0.48198868  0.87500000  1
  Si  Si66  1  0.73198868  0.01801132  0.62500000  1
  Si  Si67  1  0.76801132  0.98198868  0.12500000  1
  Si  Si68  1  0.73198868  0.48198868  0.62500000  1
  Si  Si69  1  0.76801132  0.51801132  0.12500000  1
  Si  Si70  1  0.26801132  0.98198868  0.37500000  1
  Si  Si71  1  0.23198868  0.01801132  0.87500000  1
  Te  Te72  1  0.00000000  0.25000000  0.04958658  1
  Te  Te73  1  0.00000000  0.75000000  0.29958658  1
  Te  Te74  1  0.50000000  0.25000000  0.45041342  1
  Te  Te75  1  0.50000000  0.75000000  0.20041342  1
  Te  Te76  1  0.50000000  0.75000000  0.54958658  1
  Te  Te77  1  0.50000000  0.25000000  0.79958658  1
  Te  Te78  1  0.00000000  0.75000000  0.95041342  1
  Te  Te79  1  0.00000000  0.25000000  0.70041342  1
  Te  Te80  1  0.00000000  0.75000000  0.12500000  1
  Te  Te81  1  0.50000000  0.75000000  0.37500000  1
  Te  Te82  1  0.50000000  0.25000000  0.62500000  1
  Te  Te83  1  0.00000000  0.25000000  0.87500000  1
