# generated using pymatgen
data_LiYAsP2Se
_symmetry_space_group_name_H-M   'P 1'
_cell_length_a   5.27181756
_cell_length_b   5.28972725
_cell_length_c   6.66489770
_cell_angle_alpha   94.87755527
_cell_angle_beta   97.47407472
_cell_angle_gamma   102.17552350
_symmetry_Int_Tables_number   1
_chemical_formula_structural   LiYAsP2Se
_chemical_formula_sum   'Li1 Y1 As1 P2 Se1'
_cell_volume   178.91941085
_cell_formula_units_Z   1
loop_
 _symmetry_equiv_pos_site_id
 _symmetry_equiv_pos_as_xyz
  1  'x, y, z'
loop_
 _atom_site_type_symbol
 _atom_site_label
 _atom_site_symmetry_multiplicity
 _atom_site_fract_x
 _atom_site_fract_y
 _atom_site_fract_z
 _atom_site_occupancy
  Se  Se0  1  0.12500000  0.00000000  0.25000000  1
  Y  Y1  1  0.00000000  0.00000000  0.00000000  1
  P  P2  1  0.37500000  0.00000000  0.25000000  1
  P  P3  1  0.25000000  0.25000000  0.25000000  1
  As  As4  1  0.00000000  0.25000000  0.12500000  1
  Li  Li5  1  0.93920567  0.19491117  0.06316832  1
