# generated using pymatgen
data_Li2Y2As2P3Se
_symmetry_space_group_name_H-M   'P 1'
_cell_length_a   5.10879231
_cell_length_b   5.07519200
_cell_length_c   7.16861787
_cell_angle_alpha   94.60955726
_cell_angle_beta   100.03865741
_cell_angle_gamma   108.51475949
_symmetry_Int_Tables_number   1
_chemical_formula_structural   Li2Y2As2P3Se
_chemical_formula_sum   'Li2 Y2 As2 P3 Se1'
_cell_volume   171.70706391
_cell_formula_units_Z   1
loop_
 _symmetry_equiv_pos_site_id
 _symmetry_equiv_pos_as_xyz
  1  'x, y, z'
loop_
 _atom_site_type_symbol
 _atom_site_label
 _atom_site_symmetry_multiplicity
 _atom_site_fract_x
 _atom_site_fract_y
 _atom_site_fract_z
 _atom_site_occupancy
  P  P0  1  0.00000000  0.00000000  0.00000000  1
  P  P1  1  0.50000000  0.50000000  0.50000000  1
  P  P2  1  0.50000000  0.50000000  0.00000000  1
  Se  Se3  1  0.50000000  0.00000000  0.50000000  1
  As  As4  1  0.00000000  0.50000000  0.50000000  1
  As  As5  1  0.34692065  0.97075255  0.03572225  1
  Li  Li6  1  0.10434552  0.58832593  0.97896485  1
  Li  Li7  1  0.13954589  0.88488951  0.16347117  1
  Y  Y8  1  0.12308010  0.69754482  0.06935860  1
  Y  Y9  1  0.72745692  0.51559378  0.17309510  1
