# generated using pymatgen
data_Li3Y2(P2Se)2
_symmetry_space_group_name_H-M   'P 1'
_cell_length_a   4.89291576
_cell_length_b   5.20928267
_cell_length_c   7.14925708
_cell_angle_alpha   94.90261421
_cell_angle_beta   100.67687452
_cell_angle_gamma   109.69185279
_symmetry_Int_Tables_number   1
_chemical_formula_structural   Li3Y2(P2Se)2
_chemical_formula_sum   'Li3 Y2 P4 Se2'
_cell_volume   166.42962412
_cell_formula_units_Z   1
loop_
 _symmetry_equiv_pos_site_id
 _symmetry_equiv_pos_as_xyz
  1  'x, y, z'
loop_
 _atom_site_type_symbol
 _atom_site_label
 _atom_site_symmetry_multiplicity
 _atom_site_fract_x
 _atom_site_fract_y
 _atom_site_fract_z
 _atom_site_occupancy
  Se  Se0  1  0.00000000  0.00000000  0.00000000  1
  Se  Se1  1  0.50000000  0.50000000  0.50000000  1
  P  P2  1  0.25000000  0.25000000  0.25000000  1
  P  P3  1  0.75000000  0.25000000  0.00000000  1
  P  P4  1  0.25000000  0.75000000  0.50000000  1
  P  P5  1  0.24215489  0.47653053  0.41855336  1
  Li  Li6  1  0.73821459  0.96280845  0.85104441  1
  Li  Li7  1  0.19241854  0.01059596  0.29157703  1
  Li  Li8  1  0.13641647  0.36708488  0.16881906  1
  Y  Y9  1  0.02835275  0.53737754  0.23427721  1
  Y  Y10  1  0.16890600  0.66082908  0.40578693  1
