# generated using pymatgen
data_K2LiTeCl
_symmetry_space_group_name_H-M   'P 1'
_cell_length_a   14.36898192
_cell_length_b   26.73497894
_cell_length_c   33.01449295
_cell_angle_alpha   90.00000000
_cell_angle_beta   90.00000000
_cell_angle_gamma   90.00000000
_symmetry_Int_Tables_number   1
_chemical_formula_structural   K2LiTeCl
_chemical_formula_sum   'K96 Li48 Te48 Cl48'
_cell_volume   12682.66368644
_cell_formula_units_Z   48
loop_
 _symmetry_equiv_pos_site_id
 _symmetry_equiv_pos_as_xyz
  1  'x, y, z'
loop_
 _atom_site_type_symbol
 _atom_site_label
 _atom_site_symmetry_multiplicity
 _atom_site_fract_x
 _atom_site_fract_y
 _atom_site_fract_z
 _atom_site_occupancy
  Cl  Cl0  1  0.54029206  0.25578512  0.00000000  1
  Cl  Cl1  1  0.45970794  0.74421488  0.00000000  1
  Cl  Cl2  1  0.95970794  0.75578512  0.00000000  1
  Cl  Cl3  1  0.04029206  0.24421488  -0.00000000  1
  Cl  Cl4  1  0.00000000  0.00000000  0.52466549  1
  Cl  Cl5  1  0.50000000  0.50000000  0.47533451  1
  Cl  Cl6  1  0.00000000  0.00000000  0.47533451  1
  Cl  Cl7  1  0.50000000  0.50000000  0.52466549  1
  Cl  Cl8  1  0.63942784  0.39714933  0.27846425  1
  Cl  Cl9  1  0.36057216  0.60285067  0.27846425  1
  Cl  Cl10  1  0.86057216  0.89714933  0.72153575  1
  Cl  Cl11  1  0.13942784  0.10285067  0.72153575  1
  Cl  Cl12  1  0.36057216  0.60285067  0.72153575  1
  Cl  Cl13  1  0.63942784  0.39714933  0.72153575  1
  Cl  Cl14  1  0.13942784  0.10285067  0.27846425  1
  Cl  Cl15  1  0.86057216  0.89714933  0.27846425  1
  Cl  Cl16  1  0.32127827  0.52969116  0.61315410  1
  Cl  Cl17  1  0.67872173  0.47030884  0.61315410  1
  Cl  Cl18  1  0.17872173  0.02969116  0.38684590  1
  Cl  Cl19  1  0.82127827  0.97030884  0.38684590  1
  Cl  Cl20  1  0.67872173  0.47030884  0.38684590  1
  Cl  Cl21  1  0.32127827  0.52969116  0.38684590  1
  Cl  Cl22  1  0.82127827  0.97030884  0.61315410  1
  Cl  Cl23  1  0.17872173  0.02969116  0.61315410  1
  Cl  Cl24  1  0.44384713  0.59797314  0.46252575  1
  Cl  Cl25  1  0.55615287  0.40202686  0.46252575  1
  Cl  Cl26  1  0.05615287  0.09797314  0.53747425  1
  Cl  Cl27  1  0.94384713  0.90202686  0.53747425  1
  Cl  Cl28  1  0.55615287  0.40202686  0.53747425  1
  Cl  Cl29  1  0.44384713  0.59797314  0.53747425  1
  Cl  Cl30  1  0.94384713  0.90202686  0.46252575  1
  Cl  Cl31  1  0.05615287  0.09797314  0.46252575  1
  Cl  Cl32  1  0.74925390  0.30640436  0.09754994  1
  Cl  Cl33  1  0.25074610  0.69359564  0.09754994  1
  Cl  Cl34  1  0.75074610  0.80640436  0.90245006  1
  Cl  Cl35  1  0.24925390  0.19359564  0.90245006  1
  Cl  Cl36  1  0.25074610  0.69359564  0.90245006  1
  Cl  Cl37  1  0.74925390  0.30640436  0.90245006  1
  Cl  Cl38  1  0.24925390  0.19359564  0.09754994  1
  Cl  Cl39  1  0.75074610  0.80640436  0.09754994  1
  Cl  Cl40  1  0.09054167  0.55563446  0.56128647  1
  Cl  Cl41  1  0.90945833  0.44436554  0.56128647  1
  Cl  Cl42  1  0.40945833  0.05563446  0.43871353  1
  Cl  Cl43  1  0.59054167  0.94436554  0.43871353  1
  Cl  Cl44  1  0.90945833  0.44436554  0.43871353  1
  Cl  Cl45  1  0.09054167  0.55563446  0.43871353  1
  Cl  Cl46  1  0.59054167  0.94436554  0.56128647  1
  Cl  Cl47  1  0.40945833  0.05563446  0.56128647  1
  K  K48  1  0.02684231  0.15935465  -0.00000000  1
  K  K49  1  0.97315769  0.84064535  0.00000000  1
  K  K50  1  0.47315769  0.65935465  0.00000000  1
  K  K51  1  0.52684231  0.34064535  0.00000000  1
  K  K52  1  0.76035028  0.33417895  0.79112906  1
  K  K53  1  0.23964972  0.66582105  0.79112906  1
  K  K54  1  0.73964972  0.83417895  0.20887094  1
  K  K55  1  0.26035028  0.16582105  0.20887094  1
  K  K56  1  0.23964972  0.66582105  0.20887094  1
  K  K57  1  0.76035028  0.33417895  0.20887094  1
  K  K58  1  0.26035028  0.16582105  0.79112906  1
  K  K59  1  0.73964972  0.83417895  0.79112906  1
  K  K60  1  0.00000000  0.50000000  0.24451490  1
  K  K61  1  0.50000000  -0.00000000  0.75548510  1
  K  K62  1  0.00000000  0.50000000  0.75548510  1
  K  K63  1  0.50000000  -0.00000000  0.24451490  1
  K  K64  1  0.29245356  0.87191115  0.18609988  1
  K  K65  1  0.70754644  0.12808885  0.18609988  1
  K  K66  1  0.20754644  0.37191115  0.81390012  1
  K  K67  1  0.79245356  0.62808885  0.81390012  1
  K  K68  1  0.70754644  0.12808885  0.81390012  1
  K  K69  1  0.29245356  0.87191115  0.81390012  1
  K  K70  1  0.79245356  0.62808885  0.18609988  1
  K  K71  1  0.20754644  0.37191115  0.18609988  1
  K  K72  1  0.49099009  0.73581375  0.50000000  1
  K  K73  1  0.50900991  0.26418625  0.50000000  1
  K  K74  1  0.00900991  0.23581375  0.50000000  1
  K  K75  1  0.99099009  0.76418625  0.50000000  1
  K  K76  1  0.77682521  0.35410768  0.33353860  1
  K  K77  1  0.22317479  0.64589232  0.33353860  1
  K  K78  1  0.72317479  0.85410768  0.66646140  1
  K  K79  1  0.27682521  0.14589232  0.66646140  1
  K  K80  1  0.22317479  0.64589232  0.66646140  1
  K  K81  1  0.77682521  0.35410768  0.66646140  1
  K  K82  1  0.27682521  0.14589232  0.33353860  1
  K  K83  1  0.72317479  0.85410768  0.33353860  1
  K  K84  1  0.97017830  0.16897931  0.84617890  1
  K  K85  1  0.02982170  0.83102069  0.84617890  1
  K  K86  1  0.52982170  0.66897931  0.15382110  1
  K  K87  1  0.47017830  0.33102069  0.15382110  1
  K  K88  1  0.02982170  0.83102069  0.15382110  1
  K  K89  1  0.97017830  0.16897931  0.15382110  1
  K  K90  1  0.47017830  0.33102069  0.84617890  1
  K  K91  1  0.52982170  0.66897931  0.84617890  1
  K  K92  1  0.80369615  0.87128695  0.50000000  1
  K  K93  1  0.19630385  0.12871305  0.50000000  1
  K  K94  1  0.69630385  0.37128695  0.50000000  1
  K  K95  1  0.30369615  0.62871305  0.50000000  1
  K  K96  1  0.00000000  0.00000000  0.57990788  1
  K  K97  1  0.50000000  0.50000000  0.42009212  1
  K  K98  1  0.00000000  0.00000000  0.42009212  1
  K  K99  1  0.50000000  0.50000000  0.57990788  1
  K  K100  1  0.37778100  0.37021623  0.90819184  1
  K  K101  1  0.62221900  0.62978377  0.90819184  1
  K  K102  1  0.12221900  0.87021623  0.09180816  1
  K  K103  1  0.87778100  0.12978377  0.09180816  1
  K  K104  1  0.62221900  0.62978377  0.09180816  1
  K  K105  1  0.37778100  0.37021623  0.09180816  1
  K  K106  1  0.87778100  0.12978377  0.90819184  1
  K  K107  1  0.12221900  0.87021623  0.90819184  1
  K  K108  1  0.86718315  0.00983840  0.09102462  1
  K  K109  1  0.13281685  0.99016160  0.09102462  1
  K  K110  1  0.63281685  0.50983840  0.90897538  1
  K  K111  1  0.36718315  0.49016160  0.90897538  1
  K  K112  1  0.13281685  0.99016160  0.90897538  1
  K  K113  1  0.86718315  0.00983840  0.90897538  1
  K  K114  1  0.36718315  0.49016160  0.09102462  1
  K  K115  1  0.63281685  0.50983840  0.09102462  1
  K  K116  1  0.88314022  0.39930948  0.90871939  1
  K  K117  1  0.11685978  0.60069052  0.90871939  1
  K  K118  1  0.61685978  0.89930948  0.09128061  1
  K  K119  1  0.38314022  0.10069052  0.09128061  1
  K  K120  1  0.11685978  0.60069052  0.09128061  1
  K  K121  1  0.88314022  0.39930948  0.09128061  1
  K  K122  1  0.38314022  0.10069052  0.90871939  1
  K  K123  1  0.61685978  0.89930948  0.90871939  1
  K  K124  1  0.79308080  0.74948337  0.69557509  1
  K  K125  1  0.20691920  0.25051663  0.69557509  1
  K  K126  1  0.70691920  0.24948337  0.30442491  1
  K  K127  1  0.29308080  0.75051663  0.30442491  1
  K  K128  1  0.20691920  0.25051663  0.30442491  1
  K  K129  1  0.79308080  0.74948337  0.30442491  1
  K  K130  1  0.29308080  0.75051663  0.69557509  1
  K  K131  1  0.70691920  0.24948337  0.69557509  1
  K  K132  1  0.53525898  0.75354948  0.24574126  1
  K  K133  1  0.46474102  0.24645052  0.24574126  1
  K  K134  1  0.96474102  0.25354948  0.75425874  1
  K  K135  1  0.03525898  0.74645052  0.75425874  1
  K  K136  1  0.46474102  0.24645052  0.75425874  1
  K  K137  1  0.53525898  0.75354948  0.75425874  1
  K  K138  1  0.03525898  0.74645052  0.24574126  1
  K  K139  1  0.96474102  0.25354948  0.24574126  1
  K  K140  1  0.00000000  0.00000000  0.64246699  1
  K  K141  1  0.50000000  0.50000000  0.35753301  1
  K  K142  1  0.00000000  0.00000000  0.35753301  1
  K  K143  1  0.50000000  0.50000000  0.64246699  1
  Li  Li144  1  0.76304756  0.60874411  0.08343564  1
  Li  Li145  1  -0.76304756  -0.60874411  0.08343564  1
  Li  Li146  1  -0.26304756  1.10874411  -0.08343564  1
  Li  Li147  1  1.26304756  -0.10874411  -0.08343564  1
  Li  Li148  1  -0.76304756  -0.60874411  -0.08343564  1
  Li  Li149  1  0.76304756  0.60874411  -0.08343564  1
  Li  Li150  1  1.26304756  -0.10874411  0.08343564  1
  Li  Li151  1  -0.26304756  1.10874411  0.08343564  1
  Li  Li152  1  0.73543477  0.67514996  0.52555700  1
  Li  Li153  1  0.26456523  0.32485004  0.52555700  1
  Li  Li154  1  0.76456523  0.17514996  0.47444300  1
  Li  Li155  1  0.23543477  0.82485004  0.47444300  1
  Li  Li156  1  0.26456523  0.32485004  0.47444300  1
  Li  Li157  1  0.73543477  0.67514996  0.47444300  1
  Li  Li158  1  0.23543477  0.82485004  0.52555700  1
  Li  Li159  1  0.76456523  0.17514996  0.52555700  1
  Li  Li160  1  0.00000000  0.50000000  0.00000000  1
  Li  Li161  1  0.50000000  -0.00000000  -0.00000000  1
  Li  Li162  1  0.59781626  0.77022258  0.00000000  1
  Li  Li163  1  0.40218374  0.22977742  0.00000000  1
  Li  Li164  1  0.90218374  0.27022258  0.00000000  1
  Li  Li165  1  0.09781626  0.72977742  0.00000000  1
  Li  Li166  1  0.10166699  0.51322294  0.65191494  1
  Li  Li167  1  0.89833301  0.48677706  0.65191494  1
  Li  Li168  1  0.39833301  0.01322294  0.34808506  1
  Li  Li169  1  0.60166699  0.98677706  0.34808506  1
  Li  Li170  1  0.89833301  0.48677706  0.34808506  1
  Li  Li171  1  0.10166699  0.51322294  0.34808506  1
  Li  Li172  1  0.60166699  0.98677706  0.65191494  1
  Li  Li173  1  0.39833301  0.01322294  0.65191494  1
  Li  Li174  1  0.00000000  0.00000000  0.00000000  1
  Li  Li175  1  0.50000000  0.50000000  0.00000000  1
  Li  Li176  1  0.21037938  0.20763859  0.93683426  1
  Li  Li177  1  0.78962062  0.79236141  0.93683426  1
  Li  Li178  1  0.28962062  0.70763859  0.06316574  1
  Li  Li179  1  0.71037938  0.29236141  0.06316574  1
  Li  Li180  1  0.78962062  0.79236141  0.06316574  1
  Li  Li181  1  0.21037938  0.20763859  0.06316574  1
  Li  Li182  1  0.71037938  0.29236141  0.93683426  1
  Li  Li183  1  0.28962062  0.70763859  0.93683426  1
  Li  Li184  1  0.41957217  0.71733663  0.02341256  1
  Li  Li185  1  0.58042783  0.28266337  0.02341256  1
  Li  Li186  1  0.08042783  0.21733663  0.97658744  1
  Li  Li187  1  0.91957217  0.78266337  0.97658744  1
  Li  Li188  1  0.58042783  0.28266337  0.97658744  1
  Li  Li189  1  0.41957217  0.71733663  0.97658744  1
  Li  Li190  1  0.91957217  0.78266337  0.02341256  1
  Li  Li191  1  0.08042783  0.21733663  0.02341256  1
  Te  Te192  1  0.38052432  0.20663198  0.83283782  1
  Te  Te193  1  0.61947568  0.79336802  0.83283782  1
  Te  Te194  1  0.11947568  0.70663198  0.16716218  1
  Te  Te195  1  0.88052432  0.29336802  0.16716218  1
  Te  Te196  1  0.61947568  0.79336802  0.16716218  1
  Te  Te197  1  0.38052432  0.20663198  0.16716218  1
  Te  Te198  1  0.88052432  0.29336802  0.83283782  1
  Te  Te199  1  0.11947568  0.70663198  0.83283782  1
  Te  Te200  1  0.39298253  0.91594264  0.29730010  1
  Te  Te201  1  0.60701747  0.08405736  0.29730010  1
  Te  Te202  1  0.10701747  0.41594264  0.70269990  1
  Te  Te203  1  0.89298253  0.58405736  0.70269990  1
  Te  Te204  1  0.60701747  0.08405736  0.70269990  1
  Te  Te205  1  0.39298253  0.91594264  0.70269990  1
  Te  Te206  1  0.89298253  0.58405736  0.29730010  1
  Te  Te207  1  0.10701747  0.41594264  0.29730010  1
  Te  Te208  1  0.40153166  0.83328556  0.33726732  1
  Te  Te209  1  0.59846834  0.16671444  0.33726732  1
  Te  Te210  1  0.09846834  0.33328556  0.66273268  1
  Te  Te211  1  0.90153166  0.66671444  0.66273268  1
  Te  Te212  1  0.59846834  0.16671444  0.66273268  1
  Te  Te213  1  0.40153166  0.83328556  0.66273268  1
  Te  Te214  1  0.90153166  0.66671444  0.33726732  1
  Te  Te215  1  0.09846834  0.33328556  0.33726732  1
  Te  Te216  1  0.94174553  0.11056014  0.30037568  1
  Te  Te217  1  0.05825447  0.88943986  0.30037568  1
  Te  Te218  1  0.55825447  0.61056014  0.69962432  1
  Te  Te219  1  0.44174553  0.38943986  0.69962432  1
  Te  Te220  1  0.05825447  0.88943986  0.69962432  1
  Te  Te221  1  0.94174553  0.11056014  0.69962432  1
  Te  Te222  1  0.44174553  0.38943986  0.30037568  1
  Te  Te223  1  0.55825447  0.61056014  0.30037568  1
  Te  Te224  1  0.93470360  0.32515827  0.00000000  1
  Te  Te225  1  0.06529640  0.67484173  -0.00000000  1
  Te  Te226  1  0.56529640  0.82515827  0.00000000  1
  Te  Te227  1  0.43470360  0.17484173  0.00000000  1
  Te  Te228  1  0.39585572  0.40475089  0.85020087  1
  Te  Te229  1  0.60414428  0.59524911  0.85020087  1
  Te  Te230  1  0.10414428  0.90475089  0.14979913  1
  Te  Te231  1  0.89585572  0.09524911  0.14979913  1
  Te  Te232  1  0.60414428  0.59524911  0.14979913  1
  Te  Te233  1  0.39585572  0.40475089  0.14979913  1
  Te  Te234  1  0.89585572  0.09524911  0.85020087  1
  Te  Te235  1  0.10414428  0.90475089  0.85020087  1
  Te  Te236  1  0.28756199  0.45353614  0.50000000  1
  Te  Te237  1  0.71243801  0.54646386  0.50000000  1
  Te  Te238  1  0.21243801  0.95353614  0.50000000  1
  Te  Te239  1  0.78756199  0.04646386  0.50000000  1
