# generated using pymatgen
data_Li2As4P2Se
_symmetry_space_group_name_H-M   'P 1'
_cell_length_a   5.34741160
_cell_length_b   5.54817135
_cell_length_c   6.92222635
_cell_angle_alpha   93.70463936
_cell_angle_beta   97.62856561
_cell_angle_gamma   104.13630624
_symmetry_Int_Tables_number   1
_chemical_formula_structural   Li2As4P2Se
_chemical_formula_sum   'Li2 As4 P2 Se1'
_cell_volume   196.38078351
_cell_formula_units_Z   1
loop_
 _symmetry_equiv_pos_site_id
 _symmetry_equiv_pos_as_xyz
  1  'x, y, z'
loop_
 _atom_site_type_symbol
 _atom_site_label
 _atom_site_symmetry_multiplicity
 _atom_site_fract_x
 _atom_site_fract_y
 _atom_site_fract_z
 _atom_site_occupancy
  Se  Se0  1  0.12500000  0.12500000  0.12500000  1
  P  P1  1  0.50000000  0.50000000  0.50000000  1
  P  P2  1  0.25000000  0.25000000  0.25000000  1
  As  As3  1  0.75000000  0.75000000  0.75000000  1
  As  As4  1  0.40728606  0.08093527  0.25335224  1
  As  As5  1  0.12060835  0.39096234  0.58221106  1
  As  As6  1  0.00865349  0.92104983  0.15701588  1
  Li  Li7  1  0.16920331  0.05865939  0.50771241  1
  Li  Li8  1  0.00896599  0.32866657  0.85337492  1
