# generated using pymatgen
data_LiF
_symmetry_space_group_name_H-M   'P 1'
_cell_length_a   13.92525615
_cell_length_b   7.23195646
_cell_length_c   9.42885848
_cell_angle_alpha   90.00000000
_cell_angle_beta   90.00000000
_cell_angle_gamma   90.00000000
_symmetry_Int_Tables_number   1
_chemical_formula_structural   LiF
_chemical_formula_sum   'Li24 F24'
_cell_volume   949.55060024
_cell_formula_units_Z   24
loop_
 _symmetry_equiv_pos_site_id
 _symmetry_equiv_pos_as_xyz
  1  'x, y, z'
loop_
 _atom_site_type_symbol
 _atom_site_label
 _atom_site_symmetry_multiplicity
 _atom_site_fract_x
 _atom_site_fract_y
 _atom_site_fract_z
 _atom_site_occupancy
  F  F0  1  0.90725757  0.19360341  0.28165728  1
  F  F1  1  0.59274243  0.80639659  0.78165728  1
  F  F2  1  0.09274243  0.69360341  0.71834272  1
  F  F3  1  0.40725757  0.30639659  0.21834272  1
  F  F4  1  0.09274243  0.80639659  0.71834272  1
  F  F5  1  0.40725757  0.19360341  0.21834272  1
  F  F6  1  0.90725757  0.30639659  0.28165728  1
  F  F7  1  0.59274243  0.69360341  0.78165728  1
  F  F8  1  0.74743190  0.25000000  0.59269499  1
  F  F9  1  0.75256810  0.75000000  0.09269499  1
  F  F10  1  0.25256810  0.75000000  0.40730501  1
  F  F11  1  0.24743190  0.25000000  0.90730501  1
  F  F12  1  0.24201505  0.25000000  0.24471519  1
  F  F13  1  0.25798495  0.75000000  0.74471519  1
  F  F14  1  0.75798495  0.75000000  0.75528481  1
  F  F15  1  0.74201505  0.25000000  0.25528481  1
  F  F16  1  0.19173568  0.54107523  0.18032419  1
  F  F17  1  0.30826432  0.45892477  0.68032419  1
  F  F18  1  0.80826432  0.04107523  0.81967581  1
  F  F19  1  0.69173568  0.95892477  0.31967581  1
  F  F20  1  0.80826432  0.45892477  0.81967581  1
  F  F21  1  0.69173568  0.54107523  0.31967581  1
  F  F22  1  0.19173568  0.95892477  0.18032419  1
  F  F23  1  0.30826432  0.04107523  0.68032419  1
  Li  Li24  1  0.51856772  0.25000000  0.07858258  1
  Li  Li25  1  0.98143228  0.75000000  0.57858258  1
  Li  Li26  1  0.48143228  0.75000000  0.92141742  1
  Li  Li27  1  0.01856772  0.25000000  0.42141742  1
  Li  Li28  1  0.93376406  0.48348489  0.33669012  1
  Li  Li29  1  -0.43376406  -0.48348489  0.83669012  1
  Li  Li30  1  -0.93376406  0.98348489  -0.33669012  1
  Li  Li31  1  1.43376406  0.01651511  0.16330988  1
  Li  Li32  1  -0.93376406  -0.48348489  -0.33669012  1
  Li  Li33  1  1.43376406  0.48348489  0.16330988  1
  Li  Li34  1  0.93376406  0.01651511  0.33669012  1
  Li  Li35  1  -0.43376406  0.98348489  0.83669012  1
  Li  Li36  1  0.00000000  0.00000000  0.50000000  1
  Li  Li37  1  0.50000000  0.00000000  0.00000000  1
  Li  Li38  1  0.00000000  0.50000000  0.50000000  1
  Li  Li39  1  0.50000000  0.50000000  -0.00000000  1
  Li  Li40  1  0.19391440  0.15226725  0.15363783  1
  Li  Li41  1  0.30608560  0.84773275  0.65363783  1
  Li  Li42  1  0.80608560  0.65226725  0.84636217  1
  Li  Li43  1  0.69391440  0.34773275  0.34636217  1
  Li  Li44  1  0.80608560  0.84773275  0.84636217  1
  Li  Li45  1  0.69391440  0.15226725  0.34636217  1
  Li  Li46  1  0.19391440  0.34773275  0.15363783  1
  Li  Li47  1  0.30608560  0.65226725  0.65363783  1
