# generated using pymatgen
data_LiF
_symmetry_space_group_name_H-M   'P 1'
_cell_length_a   6.67814643
_cell_length_b   8.59930756
_cell_length_c   15.39546120
_cell_angle_alpha   90.00000000
_cell_angle_beta   90.00000000
_cell_angle_gamma   90.00000000
_symmetry_Int_Tables_number   1
_chemical_formula_structural   LiF
_chemical_formula_sum   'Li24 F24'
_cell_volume   884.12184751
_cell_formula_units_Z   24
loop_
 _symmetry_equiv_pos_site_id
 _symmetry_equiv_pos_as_xyz
  1  'x, y, z'
loop_
 _atom_site_type_symbol
 _atom_site_label
 _atom_site_symmetry_multiplicity
 _atom_site_fract_x
 _atom_site_fract_y
 _atom_site_fract_z
 _atom_site_occupancy
  F  F0  1  0.93404684  0.25000000  0.82535720  1
  F  F1  1  0.56595316  0.75000000  0.32535720  1
  F  F2  1  0.06595316  0.75000000  0.17464280  1
  F  F3  1  0.43404684  0.25000000  0.67464280  1
  F  F4  1  0.15730930  0.98829358  0.52528702  1
  F  F5  1  0.34269070  0.01170642  0.02528702  1
  F  F6  1  0.84269070  0.48829358  0.47471298  1
  F  F7  1  0.65730930  0.51170642  0.97471298  1
  F  F8  1  0.84269070  0.01170642  0.47471298  1
  F  F9  1  0.65730930  0.98829358  0.97471298  1
  F  F10  1  0.15730930  0.51170642  0.52528702  1
  F  F11  1  0.34269070  0.48829358  0.02528702  1
  F  F12  1  0.75622809  0.44229069  0.69465455  1
  F  F13  1  0.74377191  0.55770931  0.19465455  1
  F  F14  1  0.24377191  0.94229069  0.30534545  1
  F  F15  1  0.25622809  0.05770931  0.80534545  1
  F  F16  1  0.24377191  0.55770931  0.30534545  1
  F  F17  1  0.25622809  0.44229069  0.80534545  1
  F  F18  1  0.75622809  0.05770931  0.69465455  1
  F  F19  1  0.74377191  0.94229069  0.19465455  1
  F  F20  1  0.00000000  0.00000000  0.50000000  1
  F  F21  1  0.50000000  0.00000000  0.00000000  1
  F  F22  1  0.00000000  0.50000000  0.50000000  1
  F  F23  1  0.50000000  0.50000000  0.00000000  1
  Li  Li24  1  0.00000000  0.00000000  0.00000000  1
  Li  Li25  1  0.50000000  0.00000000  0.50000000  1
  Li  Li26  1  0.00000000  0.50000000  0.00000000  1
  Li  Li27  1  0.50000000  0.50000000  0.50000000  1
  Li  Li28  1  0.72908592  0.25000000  0.73287299  1
  Li  Li29  1  0.77091408  0.75000000  0.23287299  1
  Li  Li30  1  0.27091408  0.75000000  0.26712701  1
  Li  Li31  1  0.22908592  0.25000000  0.76712701  1
  Li  Li32  1  0.75992551  0.85923115  0.90357501  1
  Li  Li33  1  -0.25992551  -0.85923115  1.40357501  1
  Li  Li34  1  -0.75992551  1.35923115  -0.90357501  1
  Li  Li35  1  1.25992551  -0.35923115  -0.40357501  1
  Li  Li36  1  -0.75992551  -0.85923115  -0.90357501  1
  Li  Li37  1  1.25992551  0.85923115  -0.40357501  1
  Li  Li38  1  0.75992551  -0.35923115  0.90357501  1
  Li  Li39  1  -0.25992551  1.35923115  1.40357501  1
  Li  Li40  1  0.62514254  0.25000000  0.19176301  1
  Li  Li41  1  0.87485746  0.75000000  0.69176301  1
  Li  Li42  1  0.37485746  0.75000000  0.80823699  1
  Li  Li43  1  0.12514254  0.25000000  0.30823699  1
  Li  Li44  1  0.97186169  0.25000000  0.38193803  1
  Li  Li45  1  0.52813831  0.75000000  0.88193803  1
  Li  Li46  1  0.02813831  0.75000000  0.61806197  1
  Li  Li47  1  0.47186169  0.25000000  0.11806197  1
