# generated using pymatgen
data_Li2MoP2Se
_symmetry_space_group_name_H-M   'P 1'
_cell_length_a   5.21245486
_cell_length_b   5.44085448
_cell_length_c   7.01947798
_cell_angle_alpha   93.91438549
_cell_angle_beta   98.82632712
_cell_angle_gamma   106.08670677
_symmetry_Int_Tables_number   1
_chemical_formula_structural   Li2MoP2Se
_chemical_formula_sum   'Li2 Mo1 P2 Se1'
_cell_volume   187.72266290
_cell_formula_units_Z   1
loop_
 _symmetry_equiv_pos_site_id
 _symmetry_equiv_pos_as_xyz
  1  'x, y, z'
loop_
 _atom_site_type_symbol
 _atom_site_label
 _atom_site_symmetry_multiplicity
 _atom_site_fract_x
 _atom_site_fract_y
 _atom_site_fract_z
 _atom_site_occupancy
  Se  Se0  1  0.12500000  0.00000000  0.25000000  1
  P  P1  1  0.00000000  0.00000000  0.00000000  1
  P  P2  1  0.37500000  0.00000000  0.25000000  1
  Mo  Mo3  1  0.25000000  0.25000000  0.25000000  1
  Li  Li4  1  0.00000000  0.25000000  0.12500000  1
  Li  Li5  1  0.05867142  0.32627020  0.57102546  1
