# generated using pymatgen
data_Li2YAs2P2Se
_symmetry_space_group_name_H-M   'P 1'
_cell_length_a   5.51829627
_cell_length_b   5.61510240
_cell_length_c   7.08369486
_cell_angle_alpha   94.28848711
_cell_angle_beta   98.32620499
_cell_angle_gamma   104.49236673
_symmetry_Int_Tables_number   1
_chemical_formula_structural   Li2YAs2P2Se
_chemical_formula_sum   'Li2 Y1 As2 P2 Se1'
_cell_volume   208.85322479
_cell_formula_units_Z   1
loop_
 _symmetry_equiv_pos_site_id
 _symmetry_equiv_pos_as_xyz
  1  'x, y, z'
loop_
 _atom_site_type_symbol
 _atom_site_label
 _atom_site_symmetry_multiplicity
 _atom_site_fract_x
 _atom_site_fract_y
 _atom_site_fract_z
 _atom_site_occupancy
  Se  Se0  1  0.12500000  0.00000000  0.25000000  1
  P  P1  1  0.00000000  0.00000000  0.00000000  1
  P  P2  1  0.37500000  0.00000000  0.25000000  1
  As  As3  1  0.25000000  0.25000000  0.25000000  1
  As  As4  1  0.00000000  0.25000000  0.12500000  1
  Li  Li5  1  0.30341482  0.07670654  0.21145588  1
  Li  Li6  1  0.93697007  0.58262635  0.78667393  1
  Y  Y7  1  0.12259140  0.73449745  0.55815627  1
