# generated using pymatgen
data_LiF
_symmetry_space_group_name_H-M   'P 1'
_cell_length_a   5.92595496
_cell_length_b   16.56547437
_cell_length_c   8.40273069
_cell_angle_alpha   90.00000000
_cell_angle_beta   90.00000000
_cell_angle_gamma   90.00000000
_symmetry_Int_Tables_number   1
_chemical_formula_structural   LiF
_chemical_formula_sum   'Li20 F20'
_cell_volume   824.86460311
_cell_formula_units_Z   20
loop_
 _symmetry_equiv_pos_site_id
 _symmetry_equiv_pos_as_xyz
  1  'x, y, z'
loop_
 _atom_site_type_symbol
 _atom_site_label
 _atom_site_symmetry_multiplicity
 _atom_site_fract_x
 _atom_site_fract_y
 _atom_site_fract_z
 _atom_site_occupancy
  F  F0  1  0.00000000  0.50000000  0.50000000  1
  F  F1  1  0.50000000  0.00000000  0.50000000  1
  F  F2  1  0.45758738  0.84600692  0.00000000  1
  F  F3  1  0.54241262  0.15399308  -0.00000000  1
  F  F4  1  0.04241262  0.34600692  -0.00000000  1
  F  F5  1  0.95758738  0.65399308  0.00000000  1
  F  F6  1  0.92509756  0.05139080  0.84729342  1
  F  F7  1  -0.92509756  -0.05139080  0.84729342  1
  F  F8  1  -0.42509756  0.55139080  -0.84729342  1
  F  F9  1  1.42509756  0.44860920  -0.84729342  1
  F  F10  1  -0.92509756  -0.05139080  -0.84729342  1
  F  F11  1  0.92509756  0.05139080  -0.84729342  1
  F  F12  1  1.42509756  0.44860920  0.84729342  1
  F  F13  1  -0.42509756  0.55139080  0.84729342  1
  F  F14  1  0.00000000  0.00000000  0.30201210  1
  F  F15  1  0.50000000  0.50000000  0.69798790  1
  F  F16  1  0.00000000  0.00000000  0.69798790  1
  F  F17  1  0.50000000  0.50000000  0.30201210  1
  F  F18  1  0.00000000  0.00000000  0.00000000  1
  F  F19  1  0.50000000  0.50000000  0.00000000  1
  Li  Li20  1  0.36277912  0.60367742  0.26822721  1
  Li  Li21  1  0.63722088  0.39632258  0.26822721  1
  Li  Li22  1  0.13722088  0.10367742  0.73177279  1
  Li  Li23  1  0.86277912  0.89632258  0.73177279  1
  Li  Li24  1  0.63722088  0.39632258  0.73177279  1
  Li  Li25  1  0.36277912  0.60367742  0.73177279  1
  Li  Li26  1  0.86277912  0.89632258  0.26822721  1
  Li  Li27  1  0.13722088  0.10367742  0.26822721  1
  Li  Li28  1  0.57896525  0.09076041  0.50000000  1
  Li  Li29  1  0.42103475  0.90923959  0.50000000  1
  Li  Li30  1  0.92103475  0.59076041  0.50000000  1
  Li  Li31  1  0.07896525  0.40923959  0.50000000  1
  Li  Li32  1  0.73281948  0.18479216  0.90654760  1
  Li  Li33  1  0.26718052  0.81520784  0.90654760  1
  Li  Li34  1  0.76718052  0.68479216  0.09345240  1
  Li  Li35  1  0.23281948  0.31520784  0.09345240  1
  Li  Li36  1  0.26718052  0.81520784  0.09345240  1
  Li  Li37  1  0.73281948  0.18479216  0.09345240  1
  Li  Li38  1  0.23281948  0.31520784  0.90654760  1
  Li  Li39  1  0.76718052  0.68479216  0.90654760  1
