# generated using pymatgen
data_LiF
_symmetry_space_group_name_H-M   'P 1'
_cell_length_a   14.61484886
_cell_length_b   14.61484886
_cell_length_c   16.81043910
_cell_angle_alpha   90.00000000
_cell_angle_beta   90.00000000
_cell_angle_gamma   120.00000000
_symmetry_Int_Tables_number   1
_chemical_formula_structural   LiF
_chemical_formula_sum   'Li108 F108'
_cell_volume   3109.55574176
_cell_formula_units_Z   108
loop_
 _symmetry_equiv_pos_site_id
 _symmetry_equiv_pos_as_xyz
  1  'x, y, z'
loop_
 _atom_site_type_symbol
 _atom_site_label
 _atom_site_symmetry_multiplicity
 _atom_site_fract_x
 _atom_site_fract_y
 _atom_site_fract_z
 _atom_site_occupancy
  F  F0  1  0.51163459  0.06773261  0.57504013  1
  F  F1  1  0.93226739  0.44390198  0.57504013  1
  F  F2  1  0.55609802  0.48836541  0.57504013  1
  F  F3  1  0.06773261  0.51163459  0.92495987  1
  F  F4  1  0.44390198  0.93226739  0.92495987  1
  F  F5  1  0.48836541  0.55609802  0.92495987  1
  F  F6  1  0.48836541  0.93226739  0.42495987  1
  F  F7  1  0.06773261  0.55609802  0.42495987  1
  F  F8  1  0.44390198  0.51163459  0.42495987  1
  F  F9  1  0.93226739  0.48836541  0.07504013  1
  F  F10  1  0.55609802  0.06773261  0.07504013  1
  F  F11  1  0.51163459  0.44390198  0.07504013  1
  F  F12  1  0.17830125  0.40106594  0.90837346  1
  F  F13  1  0.59893406  0.77723531  0.90837346  1
  F  F14  1  0.22276469  0.82169875  0.90837346  1
  F  F15  1  0.73439928  0.84496792  0.25829320  1
  F  F16  1  0.11056864  0.26560072  0.25829320  1
  F  F17  1  0.15503208  0.88943136  0.25829320  1
  F  F18  1  0.15503208  0.26560072  0.75829320  1
  F  F19  1  0.73439928  0.88943136  0.75829320  1
  F  F20  1  0.11056864  0.84496792  0.75829320  1
  F  F21  1  0.59893406  0.82169875  0.40837346  1
  F  F22  1  0.22276469  0.40106594  0.40837346  1
  F  F23  1  0.17830125  0.77723531  0.40837346  1
  F  F24  1  0.84496792  0.73439928  0.24170680  1
  F  F25  1  0.26560072  0.11056864  0.24170680  1
  F  F26  1  0.88943136  0.15503208  0.24170680  1
  F  F27  1  0.40106594  0.17830125  0.59162654  1
  F  F28  1  0.77723531  0.59893406  0.59162654  1
  F  F29  1  0.82169875  0.22276469  0.59162654  1
  F  F30  1  0.82169875  0.59893406  0.09162654  1
  F  F31  1  0.40106594  0.22276469  0.09162654  1
  F  F32  1  0.77723531  0.17830125  0.09162654  1
  F  F33  1  0.26560072  0.15503208  0.74170680  1
  F  F34  1  0.88943136  0.73439928  0.74170680  1
  F  F35  1  0.84496792  0.11056864  0.74170680  1
  F  F36  1  0.04555604  0.23454183  0.34897762  1
  F  F37  1  0.76545817  0.81101421  0.34897762  1
  F  F38  1  0.18898579  0.95444396  0.34897762  1
  F  F39  1  0.23454183  0.04555604  0.15102238  1
  F  F40  1  0.81101421  0.76545817  0.15102238  1
  F  F41  1  0.95444396  0.18898579  0.15102238  1
  F  F42  1  0.95444396  0.76545817  0.65102238  1
  F  F43  1  0.23454183  0.18898579  0.65102238  1
  F  F44  1  0.81101421  0.04555604  0.65102238  1
  F  F45  1  0.76545817  0.95444396  0.84897762  1
  F  F46  1  0.18898579  0.23454183  0.84897762  1
  F  F47  1  0.04555604  0.81101421  0.84897762  1
  F  F48  1  0.71222270  0.56787516  0.68231096  1
  F  F49  1  0.43212484  0.14434754  0.68231096  1
  F  F50  1  0.85565246  0.28777730  0.68231096  1
  F  F51  1  0.90120850  0.37888937  0.48435571  1
  F  F52  1  0.47768087  0.09879150  0.48435571  1
  F  F53  1  0.62111063  0.52231913  0.48435571  1
  F  F54  1  0.62111063  0.09879150  0.98435571  1
  F  F55  1  0.90120850  0.52231913  0.98435571  1
  F  F56  1  0.47768087  0.37888937  0.98435571  1
  F  F57  1  0.43212484  0.28777730  0.18231096  1
  F  F58  1  0.85565246  0.56787516  0.18231096  1
  F  F59  1  0.71222270  0.14434754  0.18231096  1
  F  F60  1  0.37888937  0.90120850  0.01564429  1
  F  F61  1  0.09879150  0.47768087  0.01564429  1
  F  F62  1  0.52231913  0.62111063  0.01564429  1
  F  F63  1  0.56787516  0.71222270  0.81768904  1
  F  F64  1  0.14434754  0.43212484  0.81768904  1
  F  F65  1  0.28777730  0.85565246  0.81768904  1
  F  F66  1  0.28777730  0.43212484  0.31768904  1
  F  F67  1  0.56787516  0.85565246  0.31768904  1
  F  F68  1  0.14434754  0.71222270  0.31768904  1
  F  F69  1  0.09879150  0.62111063  0.51564429  1
  F  F70  1  0.52231913  0.90120850  0.51564429  1
  F  F71  1  0.37888937  0.47768087  0.51564429  1
  F  F72  1  0.00000000  0.00000000  0.00000000  1
  F  F73  1  0.00000000  0.00000000  0.50000000  1
  F  F74  1  0.66666667  0.33333333  0.33333333  1
  F  F75  1  0.66666667  0.33333333  0.83333333  1
  F  F76  1  0.33333333  0.66666667  0.66666667  1
  F  F77  1  0.33333333  0.66666667  0.16666667  1
  F  F78  1  0.14134498  0.00000000  0.25000000  1
  F  F79  1  0.00000000  0.14134498  0.25000000  1
  F  F80  1  0.85865502  0.85865502  0.25000000  1
  F  F81  1  0.85865502  0.00000000  0.75000000  1
  F  F82  1  0.00000000  0.85865502  0.75000000  1
  F  F83  1  0.14134498  0.14134498  0.75000000  1
  F  F84  1  0.80801165  0.33333333  0.58333333  1
  F  F85  1  0.66666667  0.47467831  0.58333333  1
  F  F86  1  0.52532169  0.19198835  0.58333333  1
  F  F87  1  0.52532169  0.33333333  0.08333333  1
  F  F88  1  0.66666667  0.19198835  0.08333333  1
  F  F89  1  0.80801165  0.47467831  0.08333333  1
  F  F90  1  0.47467831  0.66666667  0.91666667  1
  F  F91  1  0.33333333  0.80801165  0.91666667  1
  F  F92  1  0.19198835  0.52532169  0.91666667  1
  F  F93  1  0.19198835  0.66666667  0.41666667  1
  F  F94  1  0.33333333  0.52532169  0.41666667  1
  F  F95  1  0.47467831  0.80801165  0.41666667  1
  F  F96  1  0.00000000  0.00000000  0.10900638  1
  F  F97  1  0.00000000  0.00000000  0.39099362  1
  F  F98  1  0.00000000  0.00000000  0.89099362  1
  F  F99  1  0.00000000  0.00000000  0.60900638  1
  F  F100  1  0.66666667  0.33333333  0.44233971  1
  F  F101  1  0.66666667  0.33333333  0.72432695  1
  F  F102  1  0.66666667  0.33333333  0.22432695  1
  F  F103  1  0.66666667  0.33333333  0.94233971  1
  F  F104  1  0.33333333  0.66666667  0.77567305  1
  F  F105  1  0.33333333  0.66666667  0.05766029  1
  F  F106  1  0.33333333  0.66666667  0.55766029  1
  F  F107  1  0.33333333  0.66666667  0.27567305  1
  Li  Li108  1  0.00000000  0.00000000  0.25000000  1
  Li  Li109  1  0.00000000  0.00000000  0.75000000  1
  Li  Li110  1  0.66666667  0.33333333  0.58333333  1
  Li  Li111  1  0.66666667  0.33333333  0.08333333  1
  Li  Li112  1  0.33333333  0.66666667  0.91666667  1
  Li  Li113  1  0.33333333  0.66666667  0.41666667  1
  Li  Li114  1  0.37795595  0.00319754  0.17288750  1
  Li  Li115  1  -0.00319754  0.37475841  0.17288750  1
  Li  Li116  1  -0.37475841  -0.37795595  0.17288750  1
  Li  Li117  1  0.00319754  0.37795595  0.32711250  1
  Li  Li118  1  0.37475841  -0.00319754  0.32711250  1
  Li  Li119  1  -0.37795595  -0.37475841  0.32711250  1
  Li  Li120  1  -0.37795595  -0.00319754  -0.17288750  1
  Li  Li121  1  0.00319754  -0.37475841  -0.17288750  1
  Li  Li122  1  0.37475841  0.37795595  -0.17288750  1
  Li  Li123  1  -0.00319754  -0.37795595  0.67288750  1
  Li  Li124  1  -0.37475841  0.00319754  0.67288750  1
  Li  Li125  1  0.37795595  0.37475841  0.67288750  1
  Li  Li126  1  1.04462261  0.33653087  0.50622084  1
  Li  Li127  1  0.66346913  0.70809174  0.50622084  1
  Li  Li128  1  0.29190826  -0.04462261  0.50622084  1
  Li  Li129  1  0.66986420  0.71128928  0.66044583  1
  Li  Li130  1  1.04142508  0.33013580  0.66044583  1
  Li  Li131  1  0.28871072  -0.04142508  0.66044583  1
  Li  Li132  1  0.28871072  0.33013580  0.16044583  1
  Li  Li133  1  0.66986420  -0.04142508  0.16044583  1
  Li  Li134  1  1.04142508  0.71128928  0.16044583  1
  Li  Li135  1  0.66346913  -0.04462261  1.00622084  1
  Li  Li136  1  0.29190826  0.33653087  1.00622084  1
  Li  Li137  1  1.04462261  0.70809174  1.00622084  1
  Li  Li138  1  0.71128928  0.66986420  0.83955417  1
  Li  Li139  1  0.33013580  1.04142508  0.83955417  1
  Li  Li140  1  -0.04142508  0.28871072  0.83955417  1
  Li  Li141  1  0.33653087  1.04462261  0.99377916  1
  Li  Li142  1  0.70809174  0.66346913  0.99377916  1
  Li  Li143  1  -0.04462261  0.29190826  0.99377916  1
  Li  Li144  1  -0.04462261  0.66346913  0.49377916  1
  Li  Li145  1  0.33653087  0.29190826  0.49377916  1
  Li  Li146  1  0.70809174  1.04462261  0.49377916  1
  Li  Li147  1  0.33013580  0.28871072  1.33955417  1
  Li  Li148  1  -0.04142508  0.66986420  1.33955417  1
  Li  Li149  1  0.71128928  1.04142508  1.33955417  1
  Li  Li150  1  0.18528401  0.58014437  0.69311246  1
  Li  Li151  1  0.41985563  0.60513965  0.69311246  1
  Li  Li152  1  0.39486035  0.81471599  0.69311246  1
  Li  Li153  1  0.58014437  0.18528401  0.80688754  1
  Li  Li154  1  0.60513965  0.41985563  0.80688754  1
  Li  Li155  1  0.81471599  0.39486035  0.80688754  1
  Li  Li156  1  0.81471599  0.41985563  0.30688754  1
  Li  Li157  1  0.58014437  0.39486035  0.30688754  1
  Li  Li158  1  0.60513965  0.18528401  0.30688754  1
  Li  Li159  1  0.41985563  0.81471599  0.19311246  1
  Li  Li160  1  0.39486035  0.58014437  0.19311246  1
  Li  Li161  1  0.18528401  0.60513965  0.19311246  1
  Li  Li162  1  0.85195068  0.91347770  0.02644580  1
  Li  Li163  1  0.08652230  0.93847298  0.02644580  1
  Li  Li164  1  0.06152702  0.14804932  0.02644580  1
  Li  Li165  1  0.24681104  0.51861735  0.14022087  1
  Li  Li166  1  0.27180631  0.75318896  0.14022087  1
  Li  Li167  1  0.48138265  0.72819369  0.14022087  1
  Li  Li168  1  0.48138265  0.75318896  0.64022087  1
  Li  Li169  1  0.24681104  0.72819369  0.64022087  1
  Li  Li170  1  0.27180631  0.51861735  0.64022087  1
  Li  Li171  1  0.08652230  0.14804932  0.52644580  1
  Li  Li172  1  0.06152702  0.91347770  0.52644580  1
  Li  Li173  1  0.85195068  0.93847298  0.52644580  1
  Li  Li174  1  0.51861735  0.24681104  0.35977913  1
  Li  Li175  1  0.75318896  0.27180631  0.35977913  1
  Li  Li176  1  0.72819369  0.48138265  0.35977913  1
  Li  Li177  1  0.91347770  0.85195068  0.47355420  1
  Li  Li178  1  0.93847298  0.08652230  0.47355420  1
  Li  Li179  1  0.14804932  0.06152702  0.47355420  1
  Li  Li180  1  0.14804932  0.08652230  0.97355420  1
  Li  Li181  1  0.91347770  0.06152702  0.97355420  1
  Li  Li182  1  0.93847298  0.85195068  0.97355420  1
  Li  Li183  1  0.75318896  0.48138265  0.85977913  1
  Li  Li184  1  0.72819369  0.24681104  0.85977913  1
  Li  Li185  1  0.51861735  0.27180631  0.85977913  1
  Li  Li186  1  0.50000000  0.00000000  -0.00000000  1
  Li  Li187  1  0.00000000  0.50000000  0.00000000  1
  Li  Li188  1  0.50000000  0.50000000  0.00000000  1
  Li  Li189  1  0.00000000  0.50000000  0.50000000  1
  Li  Li190  1  0.50000000  0.00000000  0.50000000  1
  Li  Li191  1  0.50000000  0.50000000  0.50000000  1
  Li  Li192  1  0.16666667  0.33333333  0.33333333  1
  Li  Li193  1  0.66666667  0.83333333  0.33333333  1
  Li  Li194  1  0.16666667  0.83333333  0.33333333  1
  Li  Li195  1  0.66666667  0.83333333  0.83333333  1
  Li  Li196  1  0.16666667  0.33333333  0.83333333  1
  Li  Li197  1  0.16666667  0.83333333  0.83333333  1
  Li  Li198  1  0.83333333  0.66666667  0.66666667  1
  Li  Li199  1  0.33333333  0.16666667  0.66666667  1
  Li  Li200  1  0.83333333  0.16666667  0.66666667  1
  Li  Li201  1  0.33333333  0.16666667  0.16666667  1
  Li  Li202  1  0.83333333  0.66666667  0.16666667  1
  Li  Li203  1  0.83333333  0.16666667  0.16666667  1
  Li  Li204  1  0.00000000  0.00000000  0.17046020  1
  Li  Li205  1  0.00000000  0.00000000  0.32953980  1
  Li  Li206  1  0.00000000  0.00000000  0.82953980  1
  Li  Li207  1  0.00000000  0.00000000  0.67046020  1
  Li  Li208  1  0.66666667  0.33333333  0.50379353  1
  Li  Li209  1  0.66666667  0.33333333  0.66287313  1
  Li  Li210  1  0.66666667  0.33333333  0.16287313  1
  Li  Li211  1  0.66666667  0.33333333  0.00379353  1
  Li  Li212  1  0.33333333  0.66666667  0.83712687  1
  Li  Li213  1  0.33333333  0.66666667  0.99620647  1
  Li  Li214  1  0.33333333  0.66666667  0.49620647  1
  Li  Li215  1  0.33333333  0.66666667  0.33712687  1
