# generated using pymatgen
data_Li2Y2As4P2Se
_symmetry_space_group_name_H-M   'P 1'
_cell_length_a   5.62157501
_cell_length_b   5.92416970
_cell_length_c   7.16071537
_cell_angle_alpha   93.20410792
_cell_angle_beta   96.56655680
_cell_angle_gamma   102.17334393
_symmetry_Int_Tables_number   1
_chemical_formula_structural   Li2Y2As4P2Se
_chemical_formula_sum   'Li2 Y2 As4 P2 Se1'
_cell_volume   230.79556335
_cell_formula_units_Z   1
loop_
 _symmetry_equiv_pos_site_id
 _symmetry_equiv_pos_as_xyz
  1  'x, y, z'
loop_
 _atom_site_type_symbol
 _atom_site_label
 _atom_site_symmetry_multiplicity
 _atom_site_fract_x
 _atom_site_fract_y
 _atom_site_fract_z
 _atom_site_occupancy
  Se  Se0  1  0.00000000  0.00000000  0.00000000  1
  P  P1  1  0.50000000  0.50000000  0.50000000  1
  P  P2  1  0.25000000  0.25000000  0.25000000  1
  As  As3  1  0.75000000  0.25000000  0.00000000  1
  As  As4  1  0.25000000  0.75000000  0.50000000  1
  As  As5  1  0.78584498  0.29070198  0.72329976  1
  As  As6  1  0.23441810  0.40031826  0.21156021  1
  Li  Li7  1  0.59615079  0.28135040  0.76964846  1
  Li  Li8  1  0.52740937  0.43156154  0.79938367  1
  Y  Y9  1  0.17296936  0.80404487  0.17928065  1
  Y  Y10  1  0.87842351  0.04110455  0.05653653  1
