# generated using pymatgen
data_LiF
_symmetry_space_group_name_H-M   'P 1'
_cell_length_a   7.81591722
_cell_length_b   10.08166336
_cell_length_c   18.79410353
_cell_angle_alpha   90.00000000
_cell_angle_beta   90.00000000
_cell_angle_gamma   90.00000000
_symmetry_Int_Tables_number   1
_chemical_formula_structural   LiF
_chemical_formula_sum   'Li56 F56'
_cell_volume   1480.92736466
_cell_formula_units_Z   56
loop_
 _symmetry_equiv_pos_site_id
 _symmetry_equiv_pos_as_xyz
  1  'x, y, z'
loop_
 _atom_site_type_symbol
 _atom_site_label
 _atom_site_symmetry_multiplicity
 _atom_site_fract_x
 _atom_site_fract_y
 _atom_site_fract_z
 _atom_site_occupancy
  F  F0  1  0.01412624  0.71192164  0.52901919  1
  F  F1  1  0.48587376  0.28807836  0.02901919  1
  F  F2  1  0.98587376  0.21192164  0.47098081  1
  F  F3  1  0.51412624  0.78807836  0.97098081  1
  F  F4  1  0.98587376  0.28807836  0.47098081  1
  F  F5  1  0.51412624  0.71192164  0.97098081  1
  F  F6  1  0.01412624  0.78807836  0.52901919  1
  F  F7  1  0.48587376  0.21192164  0.02901919  1
  F  F8  1  0.85423126  0.25000000  0.41199161  1
  F  F9  1  0.64576874  0.75000000  0.91199161  1
  F  F10  1  0.14576874  0.75000000  0.58800839  1
  F  F11  1  0.35423126  0.25000000  0.08800839  1
  F  F12  1  0.46910779  0.50880401  0.18895273  1
  F  F13  1  0.03089221  0.49119599  0.68895273  1
  F  F14  1  0.53089221  0.00880401  0.81104727  1
  F  F15  1  0.96910779  0.99119599  0.31104727  1
  F  F16  1  0.53089221  0.49119599  0.81104727  1
  F  F17  1  0.96910779  0.50880401  0.31104727  1
  F  F18  1  0.46910779  0.99119599  0.18895273  1
  F  F19  1  0.03089221  0.00880401  0.68895273  1
  F  F20  1  0.68926446  0.25000000  0.71273565  1
  F  F21  1  0.81073554  0.75000000  0.21273565  1
  F  F22  1  0.31073554  0.75000000  0.28726435  1
  F  F23  1  0.18926446  0.25000000  0.78726435  1
  F  F24  1  0.31801706  0.36286204  0.47812893  1
  F  F25  1  0.18198294  0.63713796  0.97812893  1
  F  F26  1  0.68198294  0.86286204  0.52187107  1
  F  F27  1  0.81801706  0.13713796  0.02187107  1
  F  F28  1  0.68198294  0.63713796  0.52187107  1
  F  F29  1  0.81801706  0.36286204  0.02187107  1
  F  F30  1  0.31801706  0.13713796  0.47812893  1
  F  F31  1  0.18198294  0.86286204  0.97812893  1
  F  F32  1  0.89810312  0.25000000  0.23709032  1
  F  F33  1  0.60189688  0.75000000  0.73709032  1
  F  F34  1  0.10189688  0.75000000  0.76290968  1
  F  F35  1  0.39810312  0.25000000  0.26290968  1
  F  F36  1  0.34976433  0.49999533  0.14571991  1
  F  F37  1  0.15023567  0.50000467  0.64571991  1
  F  F38  1  0.65023567  0.99999533  0.85428009  1
  F  F39  1  0.84976433  0.00000467  0.35428009  1
  F  F40  1  0.65023567  0.50000467  0.85428009  1
  F  F41  1  0.84976433  0.49999533  0.35428009  1
  F  F42  1  0.34976433  0.00000467  0.14571991  1
  F  F43  1  0.15023567  0.99999533  0.64571991  1
  F  F44  1  0.25322978  0.84357063  0.59346195  1
  F  F45  1  0.24677022  0.15642937  0.09346195  1
  F  F46  1  0.74677022  0.34357063  0.40653805  1
  F  F47  1  0.75322978  0.65642937  0.90653805  1
  F  F48  1  0.74677022  0.15642937  0.40653805  1
  F  F49  1  0.75322978  0.84357063  0.90653805  1
  F  F50  1  0.25322978  0.65642937  0.59346195  1
  F  F51  1  0.24677022  0.34357063  0.09346195  1
  F  F52  1  0.42005577  0.25000000  0.56576704  1
  F  F53  1  0.07994423  0.75000000  0.06576704  1
  F  F54  1  0.57994423  0.75000000  0.43423296  1
  F  F55  1  0.92005577  0.25000000  0.93423296  1
  Li  Li56  1  0.06084393  0.25000000  0.58140023  1
  Li  Li57  1  0.43915607  0.75000000  0.08140023  1
  Li  Li58  1  0.93915607  0.75000000  0.41859977  1
  Li  Li59  1  0.56084393  0.25000000  0.91859977  1
  Li  Li60  1  0.00000000  0.00000000  0.00000000  1
  Li  Li61  1  0.50000000  -0.00000000  0.50000000  1
  Li  Li62  1  0.00000000  0.50000000  0.00000000  1
  Li  Li63  1  0.50000000  0.50000000  0.50000000  1
  Li  Li64  1  0.29189209  0.68248885  0.54428273  1
  Li  Li65  1  0.20810791  -0.68248885  1.04428273  1
  Li  Li66  1  -0.29189209  1.18248885  -0.54428273  1
  Li  Li67  1  0.79189209  -0.18248885  -0.04428273  1
  Li  Li68  1  -0.29189209  -0.68248885  -0.54428273  1
  Li  Li69  1  0.79189209  0.68248885  -0.04428273  1
  Li  Li70  1  0.29189209  -0.18248885  0.54428273  1
  Li  Li71  1  0.20810791  1.18248885  1.04428273  1
  Li  Li72  1  0.54551535  0.84308106  0.46209581  1
  Li  Li73  1  0.95448465  0.15691894  0.96209581  1
  Li  Li74  1  0.45448465  0.34308106  0.53790419  1
  Li  Li75  1  0.04551535  0.65691894  0.03790419  1
  Li  Li76  1  0.45448465  0.15691894  0.53790419  1
  Li  Li77  1  0.04551535  0.84308106  0.03790419  1
  Li  Li78  1  0.54551535  0.65691894  0.46209581  1
  Li  Li79  1  0.95448465  0.34308106  0.96209581  1
  Li  Li80  1  0.06857629  0.86145679  0.31154406  1
  Li  Li81  1  0.43142371  0.13854321  0.81154406  1
  Li  Li82  1  0.93142371  0.36145679  0.68845594  1
  Li  Li83  1  0.56857629  0.63854321  0.18845594  1
  Li  Li84  1  0.93142371  0.13854321  0.68845594  1
  Li  Li85  1  0.56857629  0.86145679  0.18845594  1
  Li  Li86  1  0.06857629  0.63854321  0.31154406  1
  Li  Li87  1  0.43142371  0.36145679  0.81154406  1
  Li  Li88  1  0.00000000  0.00000000  0.50000000  1
  Li  Li89  1  0.50000000  -0.00000000  -0.00000000  1
  Li  Li90  1  0.00000000  0.50000000  0.50000000  1
  Li  Li91  1  0.50000000  0.50000000  0.00000000  1
  Li  Li92  1  0.19590822  0.25000000  0.67967565  1
  Li  Li93  1  0.30409178  0.75000000  0.17967565  1
  Li  Li94  1  0.80409178  0.75000000  0.32032435  1
  Li  Li95  1  0.69590822  0.25000000  0.82032435  1
  Li  Li96  1  0.82734458  0.11494873  0.85180970  1
  Li  Li97  1  0.67265542  0.88505127  0.35180970  1
  Li  Li98  1  0.17265542  0.61494873  0.14819030  1
  Li  Li99  1  0.32734458  0.38505127  0.64819030  1
  Li  Li100  1  0.17265542  0.88505127  0.14819030  1
  Li  Li101  1  0.32734458  0.11494873  0.64819030  1
  Li  Li102  1  0.82734458  0.38505127  0.85180970  1
  Li  Li103  1  0.67265542  0.61494873  0.35180970  1
  Li  Li104  1  0.84348772  0.32852961  0.30754265  1
  Li  Li105  1  0.65651228  0.67147039  0.80754265  1
  Li  Li106  1  0.15651228  0.82852961  0.69245735  1
  Li  Li107  1  0.34348772  0.17147039  0.19245735  1
  Li  Li108  1  0.15651228  0.67147039  0.69245735  1
  Li  Li109  1  0.34348772  0.32852961  0.19245735  1
  Li  Li110  1  0.84348772  0.17147039  0.30754265  1
  Li  Li111  1  0.65651228  0.82852961  0.80754265  1
