# generated using pymatgen
data_LiF
_symmetry_space_group_name_H-M   'P 1'
_cell_length_a   8.55103934
_cell_length_b   8.55103934
_cell_length_c   24.44852033
_cell_angle_alpha   90.00000000
_cell_angle_beta   90.00000000
_cell_angle_gamma   120.00000000
_symmetry_Int_Tables_number   1
_chemical_formula_structural   LiF
_chemical_formula_sum   'Li42 F42'
_cell_volume   1548.17845990
_cell_formula_units_Z   42
loop_
 _symmetry_equiv_pos_site_id
 _symmetry_equiv_pos_as_xyz
  1  'x, y, z'
loop_
 _atom_site_type_symbol
 _atom_site_label
 _atom_site_symmetry_multiplicity
 _atom_site_fract_x
 _atom_site_fract_y
 _atom_site_fract_z
 _atom_site_occupancy
  F  F0  1  0.28771923  0.54427884  0.16448191  1
  F  F1  1  0.45572116  0.74344039  0.16448191  1
  F  F2  1  0.25655961  0.71228077  0.16448191  1
  F  F3  1  0.54427884  0.28771923  0.33551809  1
  F  F4  1  0.74344039  0.45572116  0.33551809  1
  F  F5  1  0.71228077  0.25655961  0.33551809  1
  F  F6  1  0.71228077  0.45572116  0.83551809  1
  F  F7  1  0.54427884  0.25655961  0.83551809  1
  F  F8  1  0.74344039  0.28771923  0.83551809  1
  F  F9  1  0.45572116  0.71228077  0.66448191  1
  F  F10  1  0.25655961  0.54427884  0.66448191  1
  F  F11  1  0.28771923  0.74344039  0.66448191  1
  F  F12  1  0.95438589  0.87761218  0.49781524  1
  F  F13  1  0.12238782  0.07677372  0.49781524  1
  F  F14  1  0.92322628  0.04561411  0.49781524  1
  F  F15  1  0.21094551  0.62105256  0.66885142  1
  F  F16  1  0.41010705  0.78905449  0.66885142  1
  F  F17  1  0.37894744  0.58989295  0.66885142  1
  F  F18  1  0.37894744  0.78905449  0.16885142  1
  F  F19  1  0.21094551  0.58989295  0.16885142  1
  F  F20  1  0.41010705  0.62105256  0.16885142  1
  F  F21  1  0.12238782  0.04561411  0.99781524  1
  F  F22  1  0.92322628  0.87761218  0.99781524  1
  F  F23  1  0.95438589  0.07677372  0.99781524  1
  F  F24  1  0.62105256  0.21094551  0.83114858  1
  F  F25  1  0.78905449  0.41010705  0.83114858  1
  F  F26  1  0.58989295  0.37894744  0.83114858  1
  F  F27  1  0.87761218  0.95438589  0.00218476  1
  F  F28  1  0.07677372  0.12238782  0.00218476  1
  F  F29  1  0.04561411  0.92322628  0.00218476  1
  F  F30  1  0.04561411  0.12238782  0.50218476  1
  F  F31  1  0.87761218  0.92322628  0.50218476  1
  F  F32  1  0.07677372  0.95438589  0.50218476  1
  F  F33  1  0.78905449  0.37894744  0.33114858  1
  F  F34  1  0.58989295  0.21094551  0.33114858  1
  F  F35  1  0.62105256  0.41010705  0.33114858  1
  F  F36  1  0.00000000  0.00000000  0.00000000  1
  F  F37  1  0.00000000  0.00000000  0.50000000  1
  F  F38  1  0.66666667  0.33333333  0.33333333  1
  F  F39  1  0.66666667  0.33333333  0.83333333  1
  F  F40  1  0.33333333  0.66666667  0.66666667  1
  F  F41  1  0.33333333  0.66666667  0.16666667  1
  Li  Li42  1  0.00000000  0.00000000  0.25000000  1
  Li  Li43  1  0.00000000  0.00000000  0.75000000  1
  Li  Li44  1  0.66666667  0.33333333  0.58333333  1
  Li  Li45  1  0.66666667  0.33333333  0.08333333  1
  Li  Li46  1  0.33333333  0.66666667  0.91666667  1
  Li  Li47  1  0.33333333  0.66666667  0.41666667  1
  Li  Li48  1  0.13225517  0.26847949  0.27887358  1
  Li  Li49  1  -0.26847949  -0.13622432  0.27887358  1
  Li  Li50  1  0.13622432  -0.13225517  0.27887358  1
  Li  Li51  1  0.26847949  0.13225517  0.22112642  1
  Li  Li52  1  -0.13622432  -0.26847949  0.22112642  1
  Li  Li53  1  -0.13225517  0.13622432  0.22112642  1
  Li  Li54  1  -0.13225517  -0.26847949  -0.27887358  1
  Li  Li55  1  0.26847949  0.13622432  -0.27887358  1
  Li  Li56  1  -0.13622432  0.13225517  -0.27887358  1
  Li  Li57  1  -0.26847949  -0.13225517  0.77887358  1
  Li  Li58  1  0.13622432  0.26847949  0.77887358  1
  Li  Li59  1  0.13225517  -0.13622432  0.77887358  1
  Li  Li60  1  0.79892183  0.60181282  0.61220691  1
  Li  Li61  1  0.39818718  0.19710901  0.61220691  1
  Li  Li62  1  0.80289099  0.20107817  0.61220691  1
  Li  Li63  1  0.93514615  0.46558850  0.55445975  1
  Li  Li64  1  0.53044235  0.06485385  0.55445975  1
  Li  Li65  1  0.53441150  0.46955765  0.55445975  1
  Li  Li66  1  0.53441150  0.06485385  0.05445975  1
  Li  Li67  1  0.93514615  0.46955765  0.05445975  1
  Li  Li68  1  0.53044235  0.46558850  0.05445975  1
  Li  Li69  1  0.39818718  0.20107817  1.11220691  1
  Li  Li70  1  0.80289099  0.60181282  1.11220691  1
  Li  Li71  1  0.79892183  0.19710901  1.11220691  1
  Li  Li72  1  0.46558850  0.93514615  0.94554025  1
  Li  Li73  1  0.06485385  0.53044235  0.94554025  1
  Li  Li74  1  0.46955765  0.53441150  0.94554025  1
  Li  Li75  1  0.60181282  0.79892183  0.88779309  1
  Li  Li76  1  0.19710901  0.39818718  0.88779309  1
  Li  Li77  1  0.20107817  0.80289099  0.88779309  1
  Li  Li78  1  0.20107817  0.39818718  0.38779309  1
  Li  Li79  1  0.60181282  0.80289099  0.38779309  1
  Li  Li80  1  0.19710901  0.79892183  0.38779309  1
  Li  Li81  1  0.06485385  0.53441150  1.44554025  1
  Li  Li82  1  0.46955765  0.93514615  1.44554025  1
  Li  Li83  1  0.46558850  0.53044235  1.44554025  1
