# generated using pymatgen
data_Li4TeF2
_symmetry_space_group_name_H-M   'P 1'
_cell_length_a   11.70804605
_cell_length_b   11.70804605
_cell_length_c   24.68700223
_cell_angle_alpha   90.00000000
_cell_angle_beta   90.00000000
_cell_angle_gamma   120.00000000
_symmetry_Int_Tables_number   1
_chemical_formula_structural   Li4TeF2
_chemical_formula_sum   'Li96 Te24 F48'
_cell_volume   2930.67616007
_cell_formula_units_Z   24
loop_
 _symmetry_equiv_pos_site_id
 _symmetry_equiv_pos_as_xyz
  1  'x, y, z'
loop_
 _atom_site_type_symbol
 _atom_site_label
 _atom_site_symmetry_multiplicity
 _atom_site_fract_x
 _atom_site_fract_y
 _atom_site_fract_z
 _atom_site_occupancy
  F  F0  1  0.22550451  0.10693990  0.35025489  1
  F  F1  1  -0.10693990  0.11856461  0.35025489  1
  F  F2  1  -0.11856461  -0.22550451  0.35025489  1
  F  F3  1  -0.10693990  -0.22550451  -0.35025489  1
  F  F4  1  -0.11856461  0.10693990  -0.35025489  1
  F  F5  1  0.22550451  0.11856461  -0.35025489  1
  F  F6  1  0.66666667  0.33333333  0.50000000  1
  F  F7  1  0.81003509  0.92409397  0.80689525  1
  F  F8  1  0.07590603  0.88594113  0.80689525  1
  F  F9  1  0.11405887  0.18996491  0.80689525  1
  F  F10  1  0.07590603  0.18996491  0.19310475  1
  F  F11  1  0.11405887  0.92409397  0.19310475  1
  F  F12  1  0.81003509  0.88594113  0.19310475  1
  F  F13  1  0.00000000  0.00000000  0.53523210  1
  F  F14  1  0.00000000  0.00000000  0.46476790  1
  F  F15  1  0.78611279  0.37672164  0.32453483  1
  F  F16  1  0.62327836  0.40939115  0.32453483  1
  F  F17  1  0.59060885  0.21388721  0.32453483  1
  F  F18  1  0.62327836  0.21388721  0.67546517  1
  F  F19  1  0.59060885  0.37672164  0.67546517  1
  F  F20  1  0.78611279  0.40939115  0.67546517  1
  F  F21  1  0.65826516  0.78974496  0.65624197  1
  F  F22  1  0.21025504  0.86852020  0.65624197  1
  F  F23  1  0.13147980  0.34173484  0.65624197  1
  F  F24  1  0.21025504  0.34173484  0.34375803  1
  F  F25  1  0.13147980  0.78974496  0.34375803  1
  F  F26  1  0.65826516  0.86852020  0.34375803  1
  F  F27  1  0.46957873  0.79064507  0.15674914  1
  F  F28  1  0.20935493  0.67893366  0.15674914  1
  F  F29  1  0.32106634  0.53042127  0.15674914  1
  F  F30  1  0.20935493  0.53042127  0.84325086  1
  F  F31  1  0.32106634  0.79064507  0.84325086  1
  F  F32  1  0.46957873  0.67893366  0.84325086  1
  F  F33  1  0.74860176  0.35173489  0.92575461  1
  F  F34  1  0.64826511  0.39686687  0.92575461  1
  F  F35  1  0.60313313  0.25139824  0.92575461  1
  F  F36  1  0.64826511  0.25139824  0.07424539  1
  F  F37  1  0.60313313  0.35173489  0.07424539  1
  F  F38  1  0.74860176  0.39686687  0.07424539  1
  F  F39  1  0.00000000  0.00000000  0.39692423  1
  F  F40  1  0.00000000  0.00000000  0.60307577  1
  F  F41  1  0.85778953  0.14221047  0.00000000  1
  F  F42  1  0.85778953  0.71557906  0.00000000  1
  F  F43  1  0.28442094  0.14221047  0.00000000  1
  F  F44  1  0.07629107  0.92370893  0.00000000  1
  F  F45  1  0.07629107  0.15258214  0.00000000  1
  F  F46  1  0.84741786  0.92370893  0.00000000  1
  F  F47  1  0.66666667  0.33333333  0.00000000  1
  Li  Li48  1  0.33333333  0.66666667  0.50000000  1
  Li  Li49  1  0.65390501  0.79302547  0.72709846  1
  Li  Li50  1  0.20697453  0.86087953  0.72709846  1
  Li  Li51  1  0.13912047  0.34609499  0.72709846  1
  Li  Li52  1  0.20697453  0.34609499  0.27290154  1
  Li  Li53  1  0.13912047  0.79302547  0.27290154  1
  Li  Li54  1  0.65390501  0.86087953  0.27290154  1
  Li  Li55  1  0.87901765  0.92877264  0.83012796  1
  Li  Li56  1  0.07122736  0.95024501  0.83012796  1
  Li  Li57  1  0.04975499  0.12098235  0.83012796  1
  Li  Li58  1  0.07122736  0.12098235  0.16987204  1
  Li  Li59  1  0.04975499  0.92877264  0.16987204  1
  Li  Li60  1  0.87901765  0.95024501  0.16987204  1
  Li  Li61  1  0.40664504  0.83982652  0.70466102  1
  Li  Li62  1  0.16017348  0.56681851  0.70466102  1
  Li  Li63  1  0.43318149  0.59335496  0.70466102  1
  Li  Li64  1  0.16017348  0.59335496  0.29533898  1
  Li  Li65  1  0.43318149  0.83982652  0.29533898  1
  Li  Li66  1  0.40664504  0.56681851  0.29533898  1
  Li  Li67  1  0.38847446  0.88354421  0.12853283  1
  Li  Li68  1  0.11645579  0.50493025  0.12853283  1
  Li  Li69  1  0.49506975  0.61152554  0.12853283  1
  Li  Li70  1  0.11645579  0.61152554  0.87146717  1
  Li  Li71  1  0.49506975  0.88354421  0.87146717  1
  Li  Li72  1  0.38847446  0.50493025  0.87146717  1
  Li  Li73  1  0.60882987  0.82546501  0.55255011  1
  Li  Li74  1  0.17453499  0.78336486  0.55255011  1
  Li  Li75  1  0.21663514  0.39117013  0.55255011  1
  Li  Li76  1  0.17453499  0.39117013  0.44744989  1
  Li  Li77  1  0.21663514  0.82546501  0.44744989  1
  Li  Li78  1  0.60882987  0.78336486  0.44744989  1
  Li  Li79  1  0.59806899  0.40193101  0.00000000  1
  Li  Li80  1  0.59806899  0.19613798  0.00000000  1
  Li  Li81  1  0.80386202  0.40193101  -0.00000000  1
  Li  Li82  1  0.64061591  0.72551329  0.68359220  1
  Li  Li83  1  0.27448671  0.91510263  0.68359220  1
  Li  Li84  1  0.08489737  0.35938409  0.68359220  1
  Li  Li85  1  0.27448671  0.35938409  0.31640780  1
  Li  Li86  1  0.08489737  0.72551329  0.31640780  1
  Li  Li87  1  0.64061591  0.91510263  0.31640780  1
  Li  Li88  1  0.33333333  0.66666667  0.00000000  1
  Li  Li89  1  0.73541725  0.93389733  0.87772388  1
  Li  Li90  1  0.06610267  0.80151992  0.87772388  1
  Li  Li91  1  0.19848008  0.26458275  0.87772388  1
  Li  Li92  1  0.06610267  0.26458275  0.12227612  1
  Li  Li93  1  0.19848008  0.93389733  0.12227612  1
  Li  Li94  1  0.73541725  0.80151992  0.12227612  1
  Li  Li95  1  0.33333333  0.66666667  0.36016297  1
  Li  Li96  1  0.33333333  0.66666667  0.63983703  1
  Li  Li97  1  0.64965130  0.05490275  0.61473636  1
  Li  Li98  1  0.94509725  0.59474856  0.61473636  1
  Li  Li99  1  0.40525144  0.35034870  0.61473636  1
  Li  Li100  1  0.94509725  0.35034870  0.38526364  1
  Li  Li101  1  0.40525144  0.05490275  0.38526364  1
  Li  Li102  1  0.64965130  0.59474856  0.38526364  1
  Li  Li103  1  0.84466579  0.91986221  0.56322871  1
  Li  Li104  1  0.08013779  0.92480358  0.56322871  1
  Li  Li105  1  0.07519642  0.15533421  0.56322871  1
  Li  Li106  1  0.08013779  0.15533421  0.43677129  1
  Li  Li107  1  0.07519642  0.91986221  0.43677129  1
  Li  Li108  1  0.84466579  0.92480358  0.43677129  1
  Li  Li109  1  0.85547995  0.30995336  0.63482673  1
  Li  Li110  1  0.69004664  0.54552659  0.63482673  1
  Li  Li111  1  0.45447341  0.14452005  0.63482673  1
  Li  Li112  1  0.69004664  0.14452005  0.36517327  1
  Li  Li113  1  0.45447341  0.30995336  0.36517327  1
  Li  Li114  1  0.85547995  0.54552659  0.36517327  1
  Li  Li115  1  0.77148996  0.22851004  0.50000000  1
  Li  Li116  1  0.77148996  0.54297993  0.50000000  1
  Li  Li117  1  0.45702007  0.22851004  0.50000000  1
  Li  Li118  1  0.73563960  0.68860590  0.41675334  1
  Li  Li119  1  0.31139410  0.04703370  0.41675334  1
  Li  Li120  1  0.95296630  0.26436040  0.41675334  1
  Li  Li121  1  0.31139410  0.26436040  0.58324666  1
  Li  Li122  1  0.95296630  0.68860590  0.58324666  1
  Li  Li123  1  0.73563960  0.04703370  0.58324666  1
  Li  Li124  1  0.00000000  0.00000000  0.00000000  1
  Li  Li125  1  0.78599458  0.13388339  0.77000531  1
  Li  Li126  1  0.86611661  0.65211119  0.77000531  1
  Li  Li127  1  0.34788881  0.21400542  0.77000531  1
  Li  Li128  1  0.86611661  0.21400542  0.22999469  1
  Li  Li129  1  0.34788881  0.13388339  0.22999469  1
  Li  Li130  1  0.78599458  0.65211119  0.22999469  1
  Li  Li131  1  0.66666667  0.33333333  0.91241294  1
  Li  Li132  1  0.66666667  0.33333333  0.08758706  1
  Li  Li133  1  0.61139567  0.10831949  0.49093551  1
  Li  Li134  1  0.89168051  0.50307618  0.49093551  1
  Li  Li135  1  0.49692382  0.38860433  0.49093551  1
  Li  Li136  1  0.89168051  0.38860433  0.50906449  1
  Li  Li137  1  0.49692382  0.10831949  0.50906449  1
  Li  Li138  1  0.61139567  0.50307618  0.50906449  1
  Li  Li139  1  0.95102105  0.04897895  0.50000000  1
  Li  Li140  1  0.95102105  0.90204210  0.50000000  1
  Li  Li141  1  0.09795790  0.04897895  0.50000000  1
  Li  Li142  1  0.00000000  0.00000000  0.80547467  1
  Li  Li143  1  0.00000000  0.00000000  0.19452533  1
  Te  Te144  1  0.35946277  0.97676046  0.02566642  1
  Te  Te145  1  0.02323954  0.38270231  0.02566642  1
  Te  Te146  1  0.61729769  0.64053723  0.02566642  1
  Te  Te147  1  0.02323954  0.64053723  0.97433358  1
  Te  Te148  1  0.61729769  0.97676046  0.97433358  1
  Te  Te149  1  0.35946277  0.38270231  0.97433358  1
  Te  Te150  1  0.38980406  0.42074097  0.10792435  1
  Te  Te151  1  0.57925903  0.96906309  0.10792435  1
  Te  Te152  1  0.03093691  0.61019594  0.10792435  1
  Te  Te153  1  0.57925903  0.61019594  0.89207565  1
  Te  Te154  1  0.03093691  0.42074097  0.89207565  1
  Te  Te155  1  0.38980406  0.96906309  0.89207565  1
  Te  Te156  1  0.31878384  0.27662821  0.71503029  1
  Te  Te157  1  0.72337179  0.04215563  0.71503029  1
  Te  Te158  1  0.95784437  0.68121616  0.71503029  1
  Te  Te159  1  0.72337179  0.68121616  0.28496971  1
  Te  Te160  1  0.95784437  0.27662821  0.28496971  1
  Te  Te161  1  0.31878384  0.04215563  0.28496971  1
  Te  Te162  1  0.22236378  0.98114841  0.23217388  1
  Te  Te163  1  0.01885159  0.24121538  0.23217388  1
  Te  Te164  1  0.75878462  0.77763622  0.23217388  1
  Te  Te165  1  0.01885159  0.77763622  0.76782612  1
  Te  Te166  1  0.75878462  0.98114841  0.76782612  1
  Te  Te167  1  0.22236378  0.24121538  0.76782612  1
