# generated using pymatgen
data_Li2Sn3(Te2Cl3)2
_symmetry_space_group_name_H-M   'P 1'
_cell_length_a   12.12883851
_cell_length_b   12.12883851
_cell_length_c   9.19268728
_cell_angle_alpha   90.00000000
_cell_angle_beta   90.00000000
_cell_angle_gamma   120.00000000
_symmetry_Int_Tables_number   1
_chemical_formula_structural   Li2Sn3(Te2Cl3)2
_chemical_formula_sum   'Li6 Sn9 Te12 Cl18'
_cell_volume   1171.14736498
_cell_formula_units_Z   3
loop_
 _symmetry_equiv_pos_site_id
 _symmetry_equiv_pos_as_xyz
  1  'x, y, z'
loop_
 _atom_site_type_symbol
 _atom_site_label
 _atom_site_symmetry_multiplicity
 _atom_site_fract_x
 _atom_site_fract_y
 _atom_site_fract_z
 _atom_site_occupancy
  Cl  Cl0  1  0.33333333  0.66666667  0.50000000  1
  Cl  Cl1  1  0.66666667  0.33333333  0.50000000  1
  Cl  Cl2  1  0.77205973  0.00000000  0.15283645  1
  Cl  Cl3  1  0.00000000  0.77205973  0.15283645  1
  Cl  Cl4  1  0.22794027  0.22794027  0.15283645  1
  Cl  Cl5  1  0.77205973  0.00000000  0.84716355  1
  Cl  Cl6  1  0.00000000  0.77205973  0.84716355  1
  Cl  Cl7  1  0.22794027  0.22794027  0.84716355  1
  Cl  Cl8  1  0.07929862  0.92689307  0.00000000  1
  Cl  Cl9  1  0.07310693  0.15240555  -0.00000000  1
  Cl  Cl10  1  0.84759445  0.92070138  0.00000000  1
  Cl  Cl11  1  0.92689307  0.07929862  -0.00000000  1
  Cl  Cl12  1  0.15240555  0.07310693  0.00000000  1
  Cl  Cl13  1  0.92070138  0.84759445  0.00000000  1
  Cl  Cl14  1  0.00000000  0.00000000  0.50000000  1
  Cl  Cl15  1  0.65268615  0.00000000  0.00000000  1
  Cl  Cl16  1  0.00000000  0.65268615  0.00000000  1
  Cl  Cl17  1  0.34731385  0.34731385  0.00000000  1
  Li  Li18  1  0.44519675  0.90884634  0.50000000  1
  Li  Li19  1  0.09115366  0.53635041  0.50000000  1
  Li  Li20  1  0.46364959  0.55480325  0.50000000  1
  Li  Li21  1  0.90884634  0.44519675  0.50000000  1
  Li  Li22  1  0.53635041  0.09115366  0.50000000  1
  Li  Li23  1  0.55480325  0.46364959  0.50000000  1
  Sn  Sn24  1  0.71476531  -0.00000000  0.50000000  1
  Sn  Sn25  1  0.00000000  0.71476531  0.50000000  1
  Sn  Sn26  1  0.28523469  0.28523469  0.50000000  1
  Sn  Sn27  1  0.57618216  0.27603097  -0.00000000  1
  Sn  Sn28  1  0.72396903  0.30015119  0.00000000  1
  Sn  Sn29  1  0.69984881  0.42381784  0.00000000  1
  Sn  Sn30  1  0.27603097  0.57618216  -0.00000000  1
  Sn  Sn31  1  0.30015119  0.72396903  0.00000000  1
  Sn  Sn32  1  0.42381784  0.69984881  0.00000000  1
  Te  Te33  1  0.69950249  0.55423982  0.58788677  1
  Te  Te34  1  -0.55423982  0.14526268  0.58788677  1
  Te  Te35  1  -0.14526268  -0.69950249  0.58788677  1
  Te  Te36  1  0.69950249  0.55423982  -0.58788677  1
  Te  Te37  1  -0.55423982  0.14526268  -0.58788677  1
  Te  Te38  1  -0.14526268  -0.69950249  -0.58788677  1
  Te  Te39  1  0.55423982  0.69950249  -0.58788677  1
  Te  Te40  1  0.14526268  -0.55423982  -0.58788677  1
  Te  Te41  1  -0.69950249  -0.14526268  -0.58788677  1
  Te  Te42  1  0.55423982  0.69950249  0.58788677  1
  Te  Te43  1  0.14526268  -0.55423982  0.58788677  1
  Te  Te44  1  -0.69950249  -0.14526268  0.58788677  1
