# generated using pymatgen
data_LiF
_symmetry_space_group_name_H-M   'P 1'
_cell_length_a   15.50273611
_cell_length_b   16.00801901
_cell_length_c   8.67233088
_cell_angle_alpha   90.00000000
_cell_angle_beta   90.00000000
_cell_angle_gamma   90.00000000
_symmetry_Int_Tables_number   1
_chemical_formula_structural   LiF
_chemical_formula_sum   'Li52 F52'
_cell_volume   2152.19582829
_cell_formula_units_Z   52
loop_
 _symmetry_equiv_pos_site_id
 _symmetry_equiv_pos_as_xyz
  1  'x, y, z'
loop_
 _atom_site_type_symbol
 _atom_site_label
 _atom_site_symmetry_multiplicity
 _atom_site_fract_x
 _atom_site_fract_y
 _atom_site_fract_z
 _atom_site_occupancy
  F  F0  1  0.21483382  0.57625361  0.54310257  1
  F  F1  1  0.28516618  0.42374639  0.04310257  1
  F  F2  1  0.78516618  0.07625361  0.45689743  1
  F  F3  1  0.71483382  0.92374639  0.95689743  1
  F  F4  1  0.78516618  0.42374639  0.45689743  1
  F  F5  1  0.71483382  0.57625361  0.95689743  1
  F  F6  1  0.21483382  0.92374639  0.54310257  1
  F  F7  1  0.28516618  0.07625361  0.04310257  1
  F  F8  1  0.76080254  0.67447917  0.73067836  1
  F  F9  1  0.73919746  0.32552083  0.23067836  1
  F  F10  1  0.23919746  0.17447917  0.26932164  1
  F  F11  1  0.26080254  0.82552083  0.76932164  1
  F  F12  1  0.23919746  0.32552083  0.26932164  1
  F  F13  1  0.26080254  0.67447917  0.76932164  1
  F  F14  1  0.76080254  0.82552083  0.73067836  1
  F  F15  1  0.73919746  0.17447917  0.23067836  1
  F  F16  1  0.00000000  0.00000000  0.50000000  1
  F  F17  1  0.50000000  -0.00000000  -0.00000000  1
  F  F18  1  0.00000000  0.50000000  0.50000000  1
  F  F19  1  0.50000000  0.50000000  0.00000000  1
  F  F20  1  0.94844918  0.25000000  0.96346733  1
  F  F21  1  0.55155082  0.75000000  0.46346733  1
  F  F22  1  0.05155082  0.75000000  0.03653267  1
  F  F23  1  0.44844918  0.25000000  0.53653267  1
  F  F24  1  0.12748190  0.46075479  0.18740525  1
  F  F25  1  0.37251810  0.53924521  0.68740525  1
  F  F26  1  0.87251810  0.96075479  0.81259475  1
  F  F27  1  0.62748190  0.03924521  0.31259475  1
  F  F28  1  0.87251810  0.53924521  0.81259475  1
  F  F29  1  0.62748190  0.46075479  0.31259475  1
  F  F30  1  0.12748190  0.03924521  0.18740525  1
  F  F31  1  0.37251810  0.96075479  0.68740525  1
  F  F32  1  0.03811571  0.25000000  0.78568899  1
  F  F33  1  0.46188429  0.75000000  0.28568899  1
  F  F34  1  0.96188429  0.75000000  0.21431101  1
  F  F35  1  0.53811571  0.25000000  0.71431101  1
  F  F36  1  0.44499481  0.25000000  0.39010084  1
  F  F37  1  0.05500519  0.75000000  0.89010084  1
  F  F38  1  0.55500519  0.75000000  0.60989916  1
  F  F39  1  0.94499481  0.25000000  0.10989916  1
  F  F40  1  0.61247183  0.95919956  0.94203488  1
  F  F41  1  0.88752817  0.04080044  0.44203488  1
  F  F42  1  0.38752817  0.45919956  0.05796512  1
  F  F43  1  0.11247183  0.54080044  0.55796512  1
  F  F44  1  0.38752817  0.04080044  0.05796512  1
  F  F45  1  0.11247183  0.95919956  0.55796512  1
  F  F46  1  0.61247183  0.54080044  0.94203488  1
  F  F47  1  0.88752817  0.45919956  0.44203488  1
  F  F48  1  0.11778878  0.25000000  0.27123546  1
  F  F49  1  0.38221122  0.75000000  0.77123546  1
  F  F50  1  0.88221122  0.75000000  0.72876454  1
  F  F51  1  0.61778878  0.25000000  0.22876454  1
  Li  Li52  1  0.76404194  0.93557950  0.58927696  1
  Li  Li53  1  -0.26404194  -0.93557950  1.08927696  1
  Li  Li54  1  -0.76404194  1.43557950  -0.58927696  1
  Li  Li55  1  1.26404194  -0.43557950  -0.08927696  1
  Li  Li56  1  -0.76404194  -0.93557950  -0.58927696  1
  Li  Li57  1  1.26404194  0.93557950  -0.08927696  1
  Li  Li58  1  0.76404194  -0.43557950  0.58927696  1
  Li  Li59  1  -0.26404194  1.43557950  1.08927696  1
  Li  Li60  1  0.65490301  0.40180983  0.16526598  1
  Li  Li61  1  0.84509699  0.59819017  0.66526598  1
  Li  Li62  1  0.34509699  0.90180983  0.83473402  1
  Li  Li63  1  0.15490301  0.09819017  0.33473402  1
  Li  Li64  1  0.34509699  0.59819017  0.83473402  1
  Li  Li65  1  0.15490301  0.40180983  0.33473402  1
  Li  Li66  1  0.65490301  0.09819017  0.16526598  1
  Li  Li67  1  0.84509699  0.90180983  0.66526598  1
  Li  Li68  1  0.95281268  0.32203205  0.67181732  1
  Li  Li69  1  0.54718732  0.67796795  0.17181732  1
  Li  Li70  1  0.04718732  0.82203205  0.32818268  1
  Li  Li71  1  0.45281268  0.17796795  0.82818268  1
  Li  Li72  1  0.04718732  0.67796795  0.32818268  1
  Li  Li73  1  0.45281268  0.32203205  0.82818268  1
  Li  Li74  1  0.95281268  0.17796795  0.67181732  1
  Li  Li75  1  0.54718732  0.82203205  0.17181732  1
  Li  Li76  1  0.83399800  0.14493581  0.41481306  1
  Li  Li77  1  0.66600200  0.85506419  0.91481306  1
  Li  Li78  1  0.16600200  0.64493581  0.58518694  1
  Li  Li79  1  0.33399800  0.35506419  0.08518694  1
  Li  Li80  1  0.16600200  0.85506419  0.58518694  1
  Li  Li81  1  0.33399800  0.14493581  0.08518694  1
  Li  Li82  1  0.83399800  0.35506419  0.41481306  1
  Li  Li83  1  0.66600200  0.64493581  0.91481306  1
  Li  Li84  1  0.22249186  0.00236181  0.51982949  1
  Li  Li85  1  0.27750814  0.99763819  0.01982949  1
  Li  Li86  1  0.77750814  0.50236181  0.48017051  1
  Li  Li87  1  0.72249186  0.49763819  0.98017051  1
  Li  Li88  1  0.77750814  0.99763819  0.48017051  1
  Li  Li89  1  0.72249186  0.00236181  0.98017051  1
  Li  Li90  1  0.22249186  0.49763819  0.51982949  1
  Li  Li91  1  0.27750814  0.50236181  0.01982949  1
  Li  Li92  1  0.08127607  0.25000000  0.90609060  1
  Li  Li93  1  0.41872393  0.75000000  0.40609060  1
  Li  Li94  1  0.91872393  0.75000000  0.09390940  1
  Li  Li95  1  0.58127607  0.25000000  0.59390940  1
  Li  Li96  1  0.32407144  0.49085109  0.69636802  1
  Li  Li97  1  0.17592856  0.50914891  0.19636802  1
  Li  Li98  1  0.67592856  0.99085109  0.30363198  1
  Li  Li99  1  0.82407144  0.00914891  0.80363198  1
  Li  Li100  1  0.67592856  0.50914891  0.30363198  1
  Li  Li101  1  0.82407144  0.49085109  0.80363198  1
  Li  Li102  1  0.32407144  0.00914891  0.69636802  1
  Li  Li103  1  0.17592856  0.99085109  0.19636802  1
