# generated using pymatgen
data_LiF
_symmetry_space_group_name_H-M   'P 1'
_cell_length_a   8.81658909
_cell_length_b   6.60315966
_cell_length_c   6.56637158
_cell_angle_alpha   90.00000000
_cell_angle_beta   90.00000000
_cell_angle_gamma   90.00000000
_symmetry_Int_Tables_number   1
_chemical_formula_structural   LiF
_chemical_formula_sum   'Li14 F14'
_cell_volume   382.27672236
_cell_formula_units_Z   14
loop_
 _symmetry_equiv_pos_site_id
 _symmetry_equiv_pos_as_xyz
  1  'x, y, z'
loop_
 _atom_site_type_symbol
 _atom_site_label
 _atom_site_symmetry_multiplicity
 _atom_site_fract_x
 _atom_site_fract_y
 _atom_site_fract_z
 _atom_site_occupancy
  F  F0  1  0.08790192  0.20926414  0.10718538  1
  F  F1  1  -0.08790192  -0.20926414  0.10718538  1
  F  F2  1  0.41209808  0.70926414  0.39281462  1
  F  F3  1  0.58790192  0.29073586  0.39281462  1
  F  F4  1  -0.08790192  -0.20926414  -0.10718538  1
  F  F5  1  0.08790192  0.20926414  -0.10718538  1
  F  F6  1  0.58790192  0.29073586  0.60718538  1
  F  F7  1  0.41209808  0.70926414  0.60718538  1
  F  F8  1  0.00000000  0.00000000  0.50000000  1
  F  F9  1  0.50000000  0.50000000  -0.00000000  1
  F  F10  1  0.55915747  0.73082848  0.00000000  1
  F  F11  1  0.44084253  0.26917152  -0.00000000  1
  F  F12  1  0.94084253  0.23082848  0.50000000  1
  F  F13  1  0.05915747  0.76917152  0.50000000  1
  Li  Li14  1  0.05861637  0.64767628  0.66682558  1
  Li  Li15  1  0.94138363  0.35232372  0.66682558  1
  Li  Li16  1  0.44138363  0.14767628  0.83317442  1
  Li  Li17  1  0.55861637  0.85232372  0.83317442  1
  Li  Li18  1  0.94138363  0.35232372  0.33317442  1
  Li  Li19  1  0.05861637  0.64767628  0.33317442  1
  Li  Li20  1  0.55861637  0.85232372  0.16682558  1
  Li  Li21  1  0.44138363  0.14767628  0.16682558  1
  Li  Li22  1  0.00000000  0.00000000  0.90102970  1
  Li  Li23  1  0.50000000  0.50000000  0.59897030  1
  Li  Li24  1  0.00000000  0.00000000  0.09897030  1
  Li  Li25  1  0.50000000  0.50000000  0.40102970  1
  Li  Li26  1  0.00000000  0.50000000  0.50000000  1
  Li  Li27  1  0.50000000  0.00000000  0.00000000  1
