# generated using pymatgen
data_LiF
_symmetry_space_group_name_H-M   'P 1'
_cell_length_a   3.82274922
_cell_length_b   3.82274922
_cell_length_c   33.36510821
_cell_angle_alpha   90.00000000
_cell_angle_beta   90.00000000
_cell_angle_gamma   120.00000000
_symmetry_Int_Tables_number   1
_chemical_formula_structural   LiF
_chemical_formula_sum   'Li13 F13'
_cell_volume   422.25498619
_cell_formula_units_Z   13
loop_
 _symmetry_equiv_pos_site_id
 _symmetry_equiv_pos_as_xyz
  1  'x, y, z'
loop_
 _atom_site_type_symbol
 _atom_site_label
 _atom_site_symmetry_multiplicity
 _atom_site_fract_x
 _atom_site_fract_y
 _atom_site_fract_z
 _atom_site_occupancy
  F  F0  1  0.80011345  0.10938066  0.82871322  1
  F  F1  1  0.89061934  0.69073279  0.82871322  1
  F  F2  1  0.30926721  0.19988655  0.82871322  1
  F  F3  1  0.89061934  0.19988655  0.17128678  1
  F  F4  1  0.30926721  0.10938066  0.17128678  1
  F  F5  1  0.80011345  0.69073279  0.17128678  1
  F  F6  1  0.05216328  0.92626103  0.40066087  1
  F  F7  1  0.07373897  0.12590225  0.40066087  1
  F  F8  1  0.87409775  0.94783672  0.40066087  1
  F  F9  1  0.07373897  0.94783672  0.59933913  1
  F  F10  1  0.87409775  0.92626103  0.59933913  1
  F  F11  1  0.05216328  0.12590225  0.59933913  1
  F  F12  1  0.33333333  0.66666667  0.50000000  1
  Li  Li13  1  0.00000000  0.00000000  0.23975107  1
  Li  Li14  1  0.00000000  0.00000000  0.76024893  1
  Li  Li15  1  0.27676427  0.39172145  0.51856989  1
  Li  Li16  1  -0.39172145  -0.11495718  0.51856989  1
  Li  Li17  1  0.11495718  -0.27676427  0.51856989  1
  Li  Li18  1  -0.39172145  -0.27676427  -0.51856989  1
  Li  Li19  1  0.11495718  0.39172145  -0.51856989  1
  Li  Li20  1  0.27676427  -0.11495718  -0.51856989  1
  Li  Li21  1  0.00000000  0.00000000  0.00000000  1
  Li  Li22  1  0.66666667  0.33333333  -0.00000000  1
  Li  Li23  1  0.00000000  0.00000000  0.50000000  1
  Li  Li24  1  0.33333333  0.66666667  -0.00000000  1
  Li  Li25  1  0.66666667  0.33333333  0.50000000  1
