# generated using pymatgen
data_Li2Si4Te3F12
_symmetry_space_group_name_H-M   'P 1'
_cell_length_a   5.92067796
_cell_length_b   5.92067796
_cell_length_c   17.64724189
_cell_angle_alpha   90.00000000
_cell_angle_beta   90.00000000
_cell_angle_gamma   90.00000000
_symmetry_Int_Tables_number   1
_chemical_formula_structural   Li2Si4Te3F12
_chemical_formula_sum   'Li8 Si16 Te12 F48'
_cell_volume   618.61396193
_cell_formula_units_Z   4
loop_
 _symmetry_equiv_pos_site_id
 _symmetry_equiv_pos_as_xyz
  1  'x, y, z'
loop_
 _atom_site_type_symbol
 _atom_site_label
 _atom_site_symmetry_multiplicity
 _atom_site_fract_x
 _atom_site_fract_y
 _atom_site_fract_z
 _atom_site_occupancy
  F  F0  1  0.00000000  0.25000000  0.56689600  1
  F  F1  1  0.00000000  0.75000000  0.81689600  1
  F  F2  1  0.50000000  0.25000000  0.93310400  1
  F  F3  1  0.50000000  0.75000000  0.68310400  1
  F  F4  1  0.50000000  0.75000000  0.06689600  1
  F  F5  1  0.50000000  0.25000000  0.31689600  1
  F  F6  1  0.00000000  0.75000000  0.43310400  1
  F  F7  1  0.00000000  0.25000000  0.18310400  1
  F  F8  1  0.00000000  0.49145058  0.92725770  1
  F  F9  1  0.50000000  -0.49145058  1.42725770  1
  F  F10  1  -0.24145058  0.75000000  1.17725770  1
  F  F11  1  0.74145058  0.25000000  1.67725770  1
  F  F12  1  0.50000000  0.49145058  -0.42725770  1
  F  F13  1  0.00000000  -0.49145058  -0.92725770  1
  F  F14  1  0.74145058  0.75000000  -0.67725770  1
  F  F15  1  -0.24145058  0.25000000  -0.17725770  1
  F  F16  1  0.50000000  0.99145058  1.42725770  1
  F  F17  1  1.00000000  0.00854942  1.92725770  1
  F  F18  1  0.25854942  1.25000000  1.67725770  1
  F  F19  1  1.24145058  0.75000000  2.17725770  1
  F  F20  1  1.00000000  0.99145058  0.07274230  1
  F  F21  1  0.50000000  0.00854942  -0.42725770  1
  F  F22  1  1.24145058  1.25000000  -0.17725770  1
  F  F23  1  0.25854942  0.75000000  0.32274230  1
  F  F24  1  0.00000000  0.63260650  0.87008018  1
  F  F25  1  0.50000000  0.36739350  0.37008018  1
  F  F26  1  0.61739350  0.75000000  0.12008018  1
  F  F27  1  0.88260650  0.25000000  0.62008018  1
  F  F28  1  0.50000000  0.63260650  0.62991982  1
  F  F29  1  0.00000000  0.36739350  0.12991982  1
  F  F30  1  0.88260650  0.75000000  0.37991982  1
  F  F31  1  0.61739350  0.25000000  0.87991982  1
  F  F32  1  0.50000000  0.13260650  0.37008018  1
  F  F33  1  0.00000000  0.86739350  0.87008018  1
  F  F34  1  0.11739350  0.25000000  0.62008018  1
  F  F35  1  0.38260650  0.75000000  0.12008018  1
  F  F36  1  0.00000000  0.13260650  0.12991982  1
  F  F37  1  0.50000000  0.86739350  0.62991982  1
  F  F38  1  0.38260650  0.25000000  0.87991982  1
  F  F39  1  0.11739350  0.75000000  0.37991982  1
  F  F40  1  0.00000000  0.25000000  0.90723390  1
  F  F41  1  0.00000000  0.75000000  0.15723390  1
  F  F42  1  0.50000000  0.25000000  0.59276610  1
  F  F43  1  0.50000000  0.75000000  0.34276610  1
  F  F44  1  0.50000000  0.75000000  0.40723390  1
  F  F45  1  0.50000000  0.25000000  0.65723390  1
  F  F46  1  0.00000000  0.75000000  0.09276610  1
  F  F47  1  0.00000000  0.25000000  0.84276610  1
  Li  Li48  1  0.00000000  0.25000000  0.65961264  1
  Li  Li49  1  0.00000000  0.75000000  0.90961264  1
  Li  Li50  1  0.50000000  0.25000000  0.84038736  1
  Li  Li51  1  0.50000000  0.75000000  0.59038736  1
  Li  Li52  1  0.50000000  0.75000000  0.15961264  1
  Li  Li53  1  0.50000000  0.25000000  0.40961264  1
  Li  Li54  1  0.00000000  0.75000000  0.34038736  1
  Li  Li55  1  0.00000000  0.25000000  0.09038736  1
  Si  Si56  1  0.28186302  0.00000000  0.00000000  1
  Si  Si57  1  0.21813698  0.00000000  0.50000000  1
  Si  Si58  1  0.25000000  0.03186302  0.25000000  1
  Si  Si59  1  0.25000000  0.96813698  0.75000000  1
  Si  Si60  1  0.71813698  0.00000000  0.00000000  1
  Si  Si61  1  0.78186302  0.00000000  0.50000000  1
  Si  Si62  1  0.75000000  0.96813698  0.75000000  1
  Si  Si63  1  0.75000000  0.03186302  0.25000000  1
  Si  Si64  1  0.78186302  0.50000000  0.50000000  1
  Si  Si65  1  0.71813698  0.50000000  0.00000000  1
  Si  Si66  1  0.75000000  0.53186302  0.75000000  1
  Si  Si67  1  0.75000000  0.46813698  0.25000000  1
  Si  Si68  1  0.21813698  0.50000000  0.50000000  1
  Si  Si69  1  0.28186302  0.50000000  0.00000000  1
  Si  Si70  1  0.25000000  0.46813698  0.25000000  1
  Si  Si71  1  0.25000000  0.53186302  0.75000000  1
  Te  Te72  1  0.00000000  0.00000000  0.00000000  1
  Te  Te73  1  0.50000000  0.00000000  0.50000000  1
  Te  Te74  1  0.25000000  0.75000000  0.25000000  1
  Te  Te75  1  0.25000000  0.25000000  0.75000000  1
  Te  Te76  1  0.50000000  0.50000000  0.50000000  1
  Te  Te77  1  0.00000000  0.50000000  0.00000000  1
  Te  Te78  1  0.75000000  0.25000000  0.75000000  1
  Te  Te79  1  0.75000000  0.75000000  0.25000000  1
  Te  Te80  1  0.00000000  0.25000000  0.37500000  1
  Te  Te81  1  0.00000000  0.75000000  0.62500000  1
  Te  Te82  1  0.50000000  0.75000000  0.87500000  1
  Te  Te83  1  0.50000000  0.25000000  0.12500000  1
