# generated using pymatgen
data_LiF
_symmetry_space_group_name_H-M   'P 1'
_cell_length_a   10.17139166
_cell_length_b   6.46880085
_cell_length_c   9.18320676
_cell_angle_alpha   90.00000000
_cell_angle_beta   90.00000000
_cell_angle_gamma   90.00000000
_symmetry_Int_Tables_number   1
_chemical_formula_structural   LiF
_chemical_formula_sum   'Li36 F36'
_cell_volume   604.22476456
_cell_formula_units_Z   36
loop_
 _symmetry_equiv_pos_site_id
 _symmetry_equiv_pos_as_xyz
  1  'x, y, z'
loop_
 _atom_site_type_symbol
 _atom_site_label
 _atom_site_symmetry_multiplicity
 _atom_site_fract_x
 _atom_site_fract_y
 _atom_site_fract_z
 _atom_site_occupancy
  F  F0  1  0.39776682  0.57884657  0.57263709  1
  F  F1  1  0.10223318  0.42115343  0.07263709  1
  F  F2  1  0.60223318  0.07884657  0.42736291  1
  F  F3  1  0.89776682  0.92115343  0.92736291  1
  F  F4  1  0.60223318  0.42115343  0.42736291  1
  F  F5  1  0.89776682  0.57884657  0.92736291  1
  F  F6  1  0.39776682  0.92115343  0.57263709  1
  F  F7  1  0.10223318  0.07884657  0.07263709  1
  F  F8  1  0.12589117  0.65078865  0.42606882  1
  F  F9  1  0.37410883  0.34921135  0.92606882  1
  F  F10  1  0.87410883  0.15078865  0.57393118  1
  F  F11  1  0.62589117  0.84921135  0.07393118  1
  F  F12  1  0.87410883  0.34921135  0.57393118  1
  F  F13  1  0.62589117  0.65078865  0.07393118  1
  F  F14  1  0.12589117  0.84921135  0.42606882  1
  F  F15  1  0.37410883  0.15078865  0.92606882  1
  F  F16  1  0.45981057  0.25000000  0.68579966  1
  F  F17  1  0.04018943  0.75000000  0.18579966  1
  F  F18  1  0.54018943  0.75000000  0.31420034  1
  F  F19  1  0.95981057  0.25000000  0.81420034  1
  F  F20  1  0.28758010  0.25000000  0.36490944  1
  F  F21  1  0.21241990  0.75000000  0.86490944  1
  F  F22  1  0.71241990  0.75000000  0.63509056  1
  F  F23  1  0.78758010  0.25000000  0.13509056  1
  F  F24  1  0.27616188  0.25000000  0.18070044  1
  F  F25  1  0.22383812  0.75000000  0.68070044  1
  F  F26  1  0.72383812  0.75000000  0.81929956  1
  F  F27  1  0.77616188  0.25000000  0.31929956  1
  F  F28  1  0.14057545  0.91184186  0.91044589  1
  F  F29  1  0.35942455  0.08815814  0.41044589  1
  F  F30  1  0.85942455  0.41184186  0.08955411  1
  F  F31  1  0.64057545  0.58815814  0.58955411  1
  F  F32  1  0.85942455  0.08815814  0.08955411  1
  F  F33  1  0.64057545  0.91184186  0.58955411  1
  F  F34  1  0.14057545  0.58815814  0.91044589  1
  F  F35  1  0.35942455  0.41184186  0.41044589  1
  Li  Li36  1  0.39926966  0.00136372  0.82820031  1
  Li  Li37  1  0.10073034  -0.00136372  1.32820031  1
  Li  Li38  1  -0.39926966  0.50136372  -0.82820031  1
  Li  Li39  1  0.89926966  0.49863628  -0.32820031  1
  Li  Li40  1  -0.39926966  -0.00136372  -0.82820031  1
  Li  Li41  1  0.89926966  0.00136372  -0.32820031  1
  Li  Li42  1  0.39926966  0.49863628  0.82820031  1
  Li  Li43  1  0.10073034  0.50136372  1.32820031  1
  Li  Li44  1  0.77817425  0.25000000  0.56704655  1
  Li  Li45  1  0.72182575  0.75000000  0.06704655  1
  Li  Li46  1  0.22182575  0.75000000  0.43295345  1
  Li  Li47  1  0.27817425  0.25000000  0.93295345  1
  Li  Li48  1  0.06181938  0.25000000  0.69461941  1
  Li  Li49  1  0.43818062  0.75000000  0.19461941  1
  Li  Li50  1  0.93818062  0.75000000  0.30538059  1
  Li  Li51  1  0.56181938  0.25000000  0.80538059  1
  Li  Li52  1  0.00000000  0.00000000  0.50000000  1
  Li  Li53  1  0.50000000  0.00000000  0.00000000  1
  Li  Li54  1  0.00000000  0.50000000  0.50000000  1
  Li  Li55  1  0.50000000  0.50000000  -0.00000000  1
  Li  Li56  1  0.12319596  0.25000000  0.44384273  1
  Li  Li57  1  0.37680404  0.75000000  0.94384273  1
  Li  Li58  1  0.87680404  0.75000000  0.55615727  1
  Li  Li59  1  0.62319596  0.25000000  0.05615727  1
  Li  Li60  1  0.00000000  0.00000000  0.00000000  1
  Li  Li61  1  0.50000000  0.00000000  0.50000000  1
  Li  Li62  1  0.00000000  0.50000000  -0.00000000  1
  Li  Li63  1  0.50000000  0.50000000  0.50000000  1
  Li  Li64  1  0.74459914  0.51564263  0.95744297  1
  Li  Li65  1  0.75540086  0.48435737  0.45744297  1
  Li  Li66  1  0.25540086  0.01564263  0.04255703  1
  Li  Li67  1  0.24459914  0.98435737  0.54255703  1
  Li  Li68  1  0.25540086  0.48435737  0.04255703  1
  Li  Li69  1  0.24459914  0.51564263  0.54255703  1
  Li  Li70  1  0.74459914  0.98435737  0.95744297  1
  Li  Li71  1  0.75540086  0.01564263  0.45744297  1
