# generated using pymatgen
data_LiF
_symmetry_space_group_name_H-M   'P 1'
_cell_length_a   8.95428832
_cell_length_b   8.95428832
_cell_length_c   5.07570170
_cell_angle_alpha   90.00000000
_cell_angle_beta   90.00000000
_cell_angle_gamma   120.00000000
_symmetry_Int_Tables_number   1
_chemical_formula_structural   LiF
_chemical_formula_sum   'Li12 F12'
_cell_volume   352.44298465
_cell_formula_units_Z   12
loop_
 _symmetry_equiv_pos_site_id
 _symmetry_equiv_pos_as_xyz
  1  'x, y, z'
loop_
 _atom_site_type_symbol
 _atom_site_label
 _atom_site_symmetry_multiplicity
 _atom_site_fract_x
 _atom_site_fract_y
 _atom_site_fract_z
 _atom_site_occupancy
  F  F0  1  0.23750518  0.67767988  0.50000000  1
  F  F1  1  0.32232012  0.55982530  0.50000000  1
  F  F2  1  0.44017470  0.76249482  0.50000000  1
  F  F3  1  0.67767988  0.23750518  0.50000000  1
  F  F4  1  0.55982530  0.32232012  0.50000000  1
  F  F5  1  0.76249482  0.44017470  0.50000000  1
  F  F6  1  0.55899219  0.76907242  -0.00000000  1
  F  F7  1  0.23092758  0.78991977  0.00000000  1
  F  F8  1  0.21008023  0.44100781  0.00000000  1
  F  F9  1  0.76907242  0.55899219  0.00000000  1
  F  F10  1  0.78991977  0.23092758  0.00000000  1
  F  F11  1  0.44100781  0.21008023  0.00000000  1
  Li  Li12  1  0.46839286  0.61700181  0.85865860  1
  Li  Li13  1  -0.61700181  -0.14860895  0.85865860  1
  Li  Li14  1  0.14860895  -0.46839286  0.85865860  1
  Li  Li15  1  0.46839286  0.61700181  -0.85865860  1
  Li  Li16  1  -0.61700181  -0.14860895  -0.85865860  1
  Li  Li17  1  0.14860895  -0.46839286  -0.85865860  1
  Li  Li18  1  0.61700181  0.46839286  -0.85865860  1
  Li  Li19  1  -0.14860895  -0.61700181  -0.85865860  1
  Li  Li20  1  -0.46839286  0.14860895  -0.85865860  1
  Li  Li21  1  0.61700181  0.46839286  0.85865860  1
  Li  Li22  1  -0.14860895  -0.61700181  0.85865860  1
  Li  Li23  1  -0.46839286  0.14860895  0.85865860  1
