# generated using pymatgen
data_LiF
_symmetry_space_group_name_H-M   'P 1'
_cell_length_a   7.57342674
_cell_length_b   6.97809285
_cell_length_c   11.43551030
_cell_angle_alpha   90.00000000
_cell_angle_beta   90.00000000
_cell_angle_gamma   90.00000000
_symmetry_Int_Tables_number   1
_chemical_formula_structural   LiF
_chemical_formula_sum   'Li24 F24'
_cell_volume   604.34470580
_cell_formula_units_Z   24
loop_
 _symmetry_equiv_pos_site_id
 _symmetry_equiv_pos_as_xyz
  1  'x, y, z'
loop_
 _atom_site_type_symbol
 _atom_site_label
 _atom_site_symmetry_multiplicity
 _atom_site_fract_x
 _atom_site_fract_y
 _atom_site_fract_z
 _atom_site_occupancy
  F  F0  1  0.34889340  0.25000000  0.00173832  1
  F  F1  1  0.15110660  0.75000000  0.50173832  1
  F  F2  1  0.65110660  0.75000000  0.99826168  1
  F  F3  1  0.84889340  0.25000000  0.49826168  1
  F  F4  1  0.00462768  0.33833287  0.24515633  1
  F  F5  1  0.49537232  0.66166713  0.74515633  1
  F  F6  1  0.99537232  0.83833287  0.75484367  1
  F  F7  1  0.50462768  0.16166713  0.25484367  1
  F  F8  1  0.99537232  0.66166713  0.75484367  1
  F  F9  1  0.50462768  0.33833287  0.25484367  1
  F  F10  1  0.00462768  0.16166713  0.24515633  1
  F  F11  1  0.49537232  0.83833287  0.74515633  1
  F  F12  1  0.04422822  0.32563579  0.31728333  1
  F  F13  1  0.45577178  0.67436421  0.81728333  1
  F  F14  1  0.95577178  0.82563579  0.68271667  1
  F  F15  1  0.54422822  0.17436421  0.18271667  1
  F  F16  1  0.95577178  0.67436421  0.68271667  1
  F  F17  1  0.54422822  0.32563579  0.18271667  1
  F  F18  1  0.04422822  0.17436421  0.31728333  1
  F  F19  1  0.45577178  0.82563579  0.81728333  1
  F  F20  1  0.74329853  0.25000000  0.04348515  1
  F  F21  1  0.75670147  0.75000000  0.54348515  1
  F  F22  1  0.25670147  0.75000000  0.95651485  1
  F  F23  1  0.24329853  0.25000000  0.45651485  1
  Li  Li24  1  0.48070503  0.98576127  0.65429349  1
  Li  Li25  1  0.01929497  -0.98576127  1.15429349  1
  Li  Li26  1  -0.48070503  1.48576127  -0.65429349  1
  Li  Li27  1  0.98070503  -0.48576127  -0.15429349  1
  Li  Li28  1  -0.48070503  -0.98576127  -0.65429349  1
  Li  Li29  1  0.98070503  0.98576127  -0.15429349  1
  Li  Li30  1  0.48070503  -0.48576127  0.65429349  1
  Li  Li31  1  0.01929497  1.48576127  1.15429349  1
  Li  Li32  1  0.34394675  0.25000000  0.53231778  1
  Li  Li33  1  0.15605325  0.75000000  0.03231778  1
  Li  Li34  1  0.65605325  0.75000000  0.46768222  1
  Li  Li35  1  0.84394675  0.25000000  0.96768222  1
  Li  Li36  1  0.00000000  0.00000000  0.50000000  1
  Li  Li37  1  0.50000000  0.00000000  0.00000000  1
  Li  Li38  1  0.00000000  0.50000000  0.50000000  1
  Li  Li39  1  0.50000000  0.50000000  -0.00000000  1
  Li  Li40  1  0.10130876  0.25000000  0.88067296  1
  Li  Li41  1  0.39869124  0.75000000  0.38067296  1
  Li  Li42  1  0.89869124  0.75000000  0.11932704  1
  Li  Li43  1  0.60130876  0.25000000  0.61932704  1
  Li  Li44  1  0.00000000  0.00000000  0.00000000  1
  Li  Li45  1  0.50000000  0.00000000  0.50000000  1
  Li  Li46  1  0.00000000  0.50000000  0.00000000  1
  Li  Li47  1  0.50000000  0.50000000  0.50000000  1
