# generated using pymatgen
data_LiF
_symmetry_space_group_name_H-M   'P 1'
_cell_length_a   6.65482698
_cell_length_b   6.65482698
_cell_length_c   4.83479059
_cell_angle_alpha   90.00000000
_cell_angle_beta   90.00000000
_cell_angle_gamma   120.00000000
_symmetry_Int_Tables_number   1
_chemical_formula_structural   LiF
_chemical_formula_sum   'Li6 F6'
_cell_volume   185.43078533
_cell_formula_units_Z   6
loop_
 _symmetry_equiv_pos_site_id
 _symmetry_equiv_pos_as_xyz
  1  'x, y, z'
loop_
 _atom_site_type_symbol
 _atom_site_label
 _atom_site_symmetry_multiplicity
 _atom_site_fract_x
 _atom_site_fract_y
 _atom_site_fract_z
 _atom_site_occupancy
  F  F0  1  0.67348595  0.53942936  0.16031238  1
  F  F1  1  -0.53942936  0.13405659  0.16031238  1
  F  F2  1  -0.13405659  -0.67348595  0.16031238  1
  F  F3  1  -0.53942936  -0.67348595  -0.16031238  1
  F  F4  1  -0.13405659  0.53942936  -0.16031238  1
  F  F5  1  0.67348595  0.13405659  -0.16031238  1
  Li  Li6  1  0.90479560  0.09520440  0.50000000  1
  Li  Li7  1  0.90479560  0.80959121  0.50000000  1
  Li  Li8  1  0.19040879  0.09520440  0.50000000  1
  Li  Li9  1  0.66666667  0.33333333  0.50000000  1
  Li  Li10  1  0.33333333  0.66666667  0.65852475  1
  Li  Li11  1  0.33333333  0.66666667  0.34147525  1
