# generated using pymatgen
data_LiF
_symmetry_space_group_name_H-M   'P 1'
_cell_length_a   6.76495366
_cell_length_b   6.76495366
_cell_length_c   18.42645988
_cell_angle_alpha   90.00000000
_cell_angle_beta   90.00000000
_cell_angle_gamma   120.00000000
_symmetry_Int_Tables_number   1
_chemical_formula_structural   LiF
_chemical_formula_sum   'Li24 F24'
_cell_volume   730.30149592
_cell_formula_units_Z   24
loop_
 _symmetry_equiv_pos_site_id
 _symmetry_equiv_pos_as_xyz
  1  'x, y, z'
loop_
 _atom_site_type_symbol
 _atom_site_label
 _atom_site_symmetry_multiplicity
 _atom_site_fract_x
 _atom_site_fract_y
 _atom_site_fract_z
 _atom_site_occupancy
  F  F0  1  0.74409780  0.42984514  0.28891184  1
  F  F1  1  0.57015486  0.31425266  0.28891184  1
  F  F2  1  0.68574734  0.25590220  0.28891184  1
  F  F3  1  0.57015486  0.25590220  0.71108816  1
  F  F4  1  0.68574734  0.42984514  0.71108816  1
  F  F5  1  0.74409780  0.31425266  0.71108816  1
  F  F6  1  0.00000000  0.00000000  0.00000000  1
  F  F7  1  0.85746967  0.37228832  0.08337772  1
  F  F8  1  0.62771168  0.48518134  0.08337772  1
  F  F9  1  0.51481866  0.14253033  0.08337772  1
  F  F10  1  0.62771168  0.14253033  0.91662228  1
  F  F11  1  0.51481866  0.37228832  0.91662228  1
  F  F12  1  0.85746967  0.48518134  0.91662228  1
  F  F13  1  0.61864543  0.95561963  0.80518433  1
  F  F14  1  0.04438037  0.66302580  0.80518433  1
  F  F15  1  0.33697420  0.38135457  0.80518433  1
  F  F16  1  0.04438037  0.38135457  0.19481567  1
  F  F17  1  0.33697420  0.95561963  0.19481567  1
  F  F18  1  0.61864543  0.66302580  0.19481567  1
  F  F19  1  0.33333333  0.66666667  0.00000000  1
  F  F20  1  0.21446374  0.78553626  0.50000000  1
  F  F21  1  0.21446374  0.42892748  0.50000000  1
  F  F22  1  0.57107252  0.78553626  0.50000000  1
  F  F23  1  0.00000000  0.00000000  0.50000000  1
  Li  Li24  1  0.16488088  0.13766785  0.66255274  1
  Li  Li25  1  -0.13766785  0.02721303  0.66255274  1
  Li  Li26  1  -0.02721303  -0.16488088  0.66255274  1
  Li  Li27  1  -0.13766785  -0.16488088  -0.66255274  1
  Li  Li28  1  -0.02721303  0.13766785  -0.66255274  1
  Li  Li29  1  0.16488088  0.02721303  -0.66255274  1
  Li  Li30  1  0.66666667  0.33333333  0.50000000  1
  Li  Li31  1  0.66666667  0.33333333  0.00000000  1
  Li  Li32  1  0.33333333  0.66666667  0.39501080  1
  Li  Li33  1  0.33333333  0.66666667  0.60498920  1
  Li  Li34  1  0.88822014  0.39773813  0.80576745  1
  Li  Li35  1  0.60226187  0.49048201  0.80576745  1
  Li  Li36  1  0.50951799  0.11177986  0.80576745  1
  Li  Li37  1  0.60226187  0.11177986  0.19423255  1
  Li  Li38  1  0.50951799  0.39773813  0.19423255  1
  Li  Li39  1  0.88822014  0.49048201  0.19423255  1
  Li  Li40  1  0.31621124  0.77843089  0.44909546  1
  Li  Li41  1  0.22156911  0.53778035  0.44909546  1
  Li  Li42  1  0.46221965  0.68378876  0.44909546  1
  Li  Li43  1  0.22156911  0.68378876  0.55090454  1
  Li  Li44  1  0.46221965  0.77843089  0.55090454  1
  Li  Li45  1  0.31621124  0.53778035  0.55090454  1
  Li  Li46  1  0.33333333  0.66666667  0.68661080  1
  Li  Li47  1  0.33333333  0.66666667  0.31338920  1
