# generated using pymatgen
data_LiF
_symmetry_space_group_name_H-M   'P 1'
_cell_length_a   15.41974425
_cell_length_b   15.41974425
_cell_length_c   9.92824853
_cell_angle_alpha   90.00000000
_cell_angle_beta   90.00000000
_cell_angle_gamma   120.00000000
_symmetry_Int_Tables_number   1
_chemical_formula_structural   LiF
_chemical_formula_sum   'Li69 F69'
_cell_volume   2044.36112095
_cell_formula_units_Z   69
loop_
 _symmetry_equiv_pos_site_id
 _symmetry_equiv_pos_as_xyz
  1  'x, y, z'
loop_
 _atom_site_type_symbol
 _atom_site_label
 _atom_site_symmetry_multiplicity
 _atom_site_fract_x
 _atom_site_fract_y
 _atom_site_fract_z
 _atom_site_occupancy
  F  F0  1  0.18591475  0.05666933  0.28765144  1
  F  F1  1  0.94333067  0.12924542  0.28765144  1
  F  F2  1  0.87075458  0.81408525  0.28765144  1
  F  F3  1  0.94333067  0.81408525  0.71234856  1
  F  F4  1  0.87075458  0.05666933  0.71234856  1
  F  F5  1  0.18591475  0.12924542  0.71234856  1
  F  F6  1  0.05284177  0.28051998  0.86033148  1
  F  F7  1  0.71948002  0.77232179  0.86033148  1
  F  F8  1  0.22767821  0.94715823  0.86033148  1
  F  F9  1  0.71948002  0.94715823  0.13966852  1
  F  F10  1  0.22767821  0.28051998  0.13966852  1
  F  F11  1  0.05284177  0.77232179  0.13966852  1
  F  F12  1  0.67188731  0.81799455  0.55732039  1
  F  F13  1  0.18200545  0.85389276  0.55732039  1
  F  F14  1  0.14610724  0.32811269  0.55732039  1
  F  F15  1  0.18200545  0.32811269  0.44267961  1
  F  F16  1  0.14610724  0.81799455  0.44267961  1
  F  F17  1  0.67188731  0.85389276  0.44267961  1
  F  F18  1  0.33333333  0.66666667  0.50000000  1
  F  F19  1  0.43661115  0.88928994  0.29228733  1
  F  F20  1  0.11071006  0.54732122  0.29228733  1
  F  F21  1  0.45267878  0.56338885  0.29228733  1
  F  F22  1  0.11071006  0.56338885  0.70771267  1
  F  F23  1  0.45267878  0.88928994  0.70771267  1
  F  F24  1  0.43661115  0.54732122  0.70771267  1
  F  F25  1  0.97762215  0.29442750  0.78493713  1
  F  F26  1  0.70557250  0.68319465  0.78493713  1
  F  F27  1  0.31680535  0.02237785  0.78493713  1
  F  F28  1  0.70557250  0.02237785  0.21506287  1
  F  F29  1  0.31680535  0.29442750  0.21506287  1
  F  F30  1  0.97762215  0.68319465  0.21506287  1
  F  F31  1  0.40127821  0.64942170  0.21537143  1
  F  F32  1  0.35057830  0.75185652  0.21537143  1
  F  F33  1  0.24814348  0.59872179  0.21537143  1
  F  F34  1  0.35057830  0.59872179  0.78462857  1
  F  F35  1  0.24814348  0.64942170  0.78462857  1
  F  F36  1  0.40127821  0.75185652  0.78462857  1
  F  F37  1  0.66896089  0.90639639  0.15174089  1
  F  F38  1  0.09360361  0.76256450  0.15174089  1
  F  F39  1  0.23743550  0.33103911  0.15174089  1
  F  F40  1  0.09360361  0.33103911  0.84825911  1
  F  F41  1  0.23743550  0.90639639  0.84825911  1
  F  F42  1  0.66896089  0.76256450  0.84825911  1
  F  F43  1  0.95220915  0.17020245  0.23706540  1
  F  F44  1  0.82979755  0.78200669  0.23706540  1
  F  F45  1  0.21799331  0.04779085  0.23706540  1
  F  F46  1  0.82979755  0.04779085  0.76293460  1
  F  F47  1  0.21799331  0.17020245  0.76293460  1
  F  F48  1  0.95220915  0.78200669  0.76293460  1
  F  F49  1  0.11335865  0.86016535  0.40082110  1
  F  F50  1  0.13983465  0.25319330  0.40082110  1
  F  F51  1  0.74680670  0.88664135  0.40082110  1
  F  F52  1  0.13983465  0.88664135  0.59917890  1
  F  F53  1  0.74680670  0.86016535  0.59917890  1
  F  F54  1  0.11335865  0.25319330  0.59917890  1
  F  F55  1  0.33333333  0.66666667  0.56120652  1
  F  F56  1  0.33333333  0.66666667  0.43879348  1
  F  F57  1  0.84856351  0.00785631  0.22766693  1
  F  F58  1  0.99214369  0.84070720  0.22766693  1
  F  F59  1  0.15929280  0.15143649  0.22766693  1
  F  F60  1  0.99214369  0.15143649  0.77233307  1
  F  F61  1  0.15929280  0.00785631  0.77233307  1
  F  F62  1  0.84856351  0.84070720  0.77233307  1
  F  F63  1  0.78974700  0.04691406  0.65440686  1
  F  F64  1  0.95308594  0.74283294  0.65440686  1
  F  F65  1  0.25716706  0.21025300  0.65440686  1
  F  F66  1  0.95308594  0.21025300  0.34559314  1
  F  F67  1  0.25716706  0.04691406  0.34559314  1
  F  F68  1  0.78974700  0.74283294  0.34559314  1
  Li  Li69  1  0.00000000  0.00000000  0.00000000  1
  Li  Li70  1  0.33333333  0.66666667  0.16803123  1
  Li  Li71  1  0.33333333  0.66666667  0.83196877  1
  Li  Li72  1  0.00000000  0.00000000  0.82058576  1
  Li  Li73  1  0.00000000  0.00000000  0.17941424  1
  Li  Li74  1  0.77490114  0.45739028  0.17868693  1
  Li  Li75  1  -0.45739028  0.31751086  0.17868693  1
  Li  Li76  1  -0.31751086  -0.77490114  0.17868693  1
  Li  Li77  1  -0.45739028  -0.77490114  -0.17868693  1
  Li  Li78  1  -0.31751086  0.45739028  -0.17868693  1
  Li  Li79  1  0.77490114  0.31751086  -0.17868693  1
  Li  Li80  1  0.48903222  0.09418932  0.61077602  1
  Li  Li81  1  0.90581068  0.39484291  0.61077602  1
  Li  Li82  1  0.60515709  0.51096778  0.61077602  1
  Li  Li83  1  0.90581068  0.51096778  0.38922398  1
  Li  Li84  1  0.60515709  0.09418932  0.38922398  1
  Li  Li85  1  0.48903222  0.39484291  0.38922398  1
  Li  Li86  1  0.83971100  0.16028900  -0.00000000  1
  Li  Li87  1  0.83971100  0.67942199  0.00000000  1
  Li  Li88  1  0.32057801  0.16028900  0.00000000  1
  Li  Li89  1  0.07814109  0.30637119  0.51077953  1
  Li  Li90  1  0.69362881  0.77176990  0.51077953  1
  Li  Li91  1  0.22823010  0.92185891  0.51077953  1
  Li  Li92  1  0.69362881  0.92185891  0.48922047  1
  Li  Li93  1  0.22823010  0.30637119  0.48922047  1
  Li  Li94  1  0.07814109  0.77176990  0.48922047  1
  Li  Li95  1  0.18180908  0.94956324  0.11484684  1
  Li  Li96  1  0.05043676  0.23224584  0.11484684  1
  Li  Li97  1  0.76775416  0.81819092  0.11484684  1
  Li  Li98  1  0.05043676  0.81819092  0.88515316  1
  Li  Li99  1  0.76775416  0.94956324  0.88515316  1
  Li  Li100  1  0.18180908  0.23224584  0.88515316  1
  Li  Li101  1  0.79458395  0.45053689  0.79778566  1
  Li  Li102  1  0.54946311  0.34404705  0.79778566  1
  Li  Li103  1  0.65595295  0.20541605  0.79778566  1
  Li  Li104  1  0.54946311  0.20541605  0.20221434  1
  Li  Li105  1  0.65595295  0.45053689  0.20221434  1
  Li  Li106  1  0.79458395  0.34404705  0.20221434  1
  Li  Li107  1  0.02842109  0.97157891  0.50000000  1
  Li  Li108  1  0.02842109  0.05684217  0.50000000  1
  Li  Li109  1  0.94315783  0.97157891  0.50000000  1
  Li  Li110  1  0.66666667  0.33333333  0.15752752  1
  Li  Li111  1  0.66666667  0.33333333  0.84247248  1
  Li  Li112  1  0.74020544  0.25979456  0.00000000  1
  Li  Li113  1  0.74020544  0.48041087  0.00000000  1
  Li  Li114  1  0.51958913  0.25979456  -0.00000000  1
  Li  Li115  1  0.16420075  0.45688577  0.26399478  1
  Li  Li116  1  0.54311423  0.70731498  0.26399478  1
  Li  Li117  1  0.29268502  0.83579925  0.26399478  1
  Li  Li118  1  0.54311423  0.83579925  0.73600522  1
  Li  Li119  1  0.29268502  0.45688577  0.73600522  1
  Li  Li120  1  0.16420075  0.70731498  0.73600522  1
  Li  Li121  1  0.14299897  0.11525250  0.11676271  1
  Li  Li122  1  0.88474750  0.02774647  0.11676271  1
  Li  Li123  1  0.97225353  0.85700103  0.11676271  1
  Li  Li124  1  0.88474750  0.85700103  0.88323729  1
  Li  Li125  1  0.97225353  0.11525250  0.88323729  1
  Li  Li126  1  0.14299897  0.02774647  0.88323729  1
  Li  Li127  1  0.97556640  0.11385037  0.58059046  1
  Li  Li128  1  0.88614963  0.86171603  0.58059046  1
  Li  Li129  1  0.13828397  0.02443360  0.58059046  1
  Li  Li130  1  0.88614963  0.02443360  0.41940954  1
  Li  Li131  1  0.13828397  0.11385037  0.41940954  1
  Li  Li132  1  0.97556640  0.86171603  0.41940954  1
  Li  Li133  1  0.66666667  0.33333333  -0.00000000  1
  Li  Li134  1  0.33333333  0.66666667  -0.00000000  1
  Li  Li135  1  0.41667718  0.58332282  0.00000000  1
  Li  Li136  1  0.41667718  0.83335436  0.00000000  1
  Li  Li137  1  0.16664564  0.58332282  0.00000000  1
