# generated using pymatgen
data_LiF
_symmetry_space_group_name_H-M   'P 1'
_cell_length_a   10.03853643
_cell_length_b   7.83783408
_cell_length_c   7.84620558
_cell_angle_alpha   90.00000000
_cell_angle_beta   90.00000000
_cell_angle_gamma   90.00000000
_symmetry_Int_Tables_number   1
_chemical_formula_structural   LiF
_chemical_formula_sum   'Li24 F24'
_cell_volume   617.34245989
_cell_formula_units_Z   24
loop_
 _symmetry_equiv_pos_site_id
 _symmetry_equiv_pos_as_xyz
  1  'x, y, z'
loop_
 _atom_site_type_symbol
 _atom_site_label
 _atom_site_symmetry_multiplicity
 _atom_site_fract_x
 _atom_site_fract_y
 _atom_site_fract_z
 _atom_site_occupancy
  F  F0  1  0.51827980  0.25000000  0.11355121  1
  F  F1  1  0.98172020  0.75000000  0.61355121  1
  F  F2  1  0.48172020  0.75000000  0.88644879  1
  F  F3  1  0.01827980  0.25000000  0.38644879  1
  F  F4  1  0.48143926  0.63706980  0.67382093  1
  F  F5  1  0.01856074  0.36293020  0.17382093  1
  F  F6  1  0.51856074  0.13706980  0.32617907  1
  F  F7  1  0.98143926  0.86293020  0.82617907  1
  F  F8  1  0.51856074  0.36293020  0.32617907  1
  F  F9  1  0.98143926  0.63706980  0.82617907  1
  F  F10  1  0.48143926  0.86293020  0.67382093  1
  F  F11  1  0.01856074  0.13706980  0.17382093  1
  F  F12  1  0.80633875  0.16522905  0.11513741  1
  F  F13  1  0.69366125  0.83477095  0.61513741  1
  F  F14  1  0.19366125  0.66522905  0.88486259  1
  F  F15  1  0.30633875  0.33477095  0.38486259  1
  F  F16  1  0.19366125  0.83477095  0.88486259  1
  F  F17  1  0.30633875  0.16522905  0.38486259  1
  F  F18  1  0.80633875  0.33477095  0.11513741  1
  F  F19  1  0.69366125  0.66522905  0.61513741  1
  F  F20  1  0.02569536  0.25000000  0.85035446  1
  F  F21  1  0.47430464  0.75000000  0.35035446  1
  F  F22  1  0.97430464  0.75000000  0.14964554  1
  F  F23  1  0.52569536  0.25000000  0.64964554  1
  Li  Li24  1  0.31470317  0.40348320  0.18249367  1
  Li  Li25  1  0.18529683  -0.40348320  0.68249367  1
  Li  Li26  1  -0.31470317  0.90348320  -0.18249367  1
  Li  Li27  1  0.81470317  0.09651680  0.31750633  1
  Li  Li28  1  -0.31470317  -0.40348320  -0.18249367  1
  Li  Li29  1  0.81470317  0.40348320  0.31750633  1
  Li  Li30  1  0.31470317  0.09651680  0.18249367  1
  Li  Li31  1  0.18529683  0.90348320  0.68249367  1
  Li  Li32  1  0.11598683  0.36110285  0.33170058  1
  Li  Li33  1  0.38401317  0.63889715  0.83170058  1
  Li  Li34  1  0.88401317  0.86110285  0.66829942  1
  Li  Li35  1  0.61598683  0.13889715  0.16829942  1
  Li  Li36  1  0.88401317  0.63889715  0.66829942  1
  Li  Li37  1  0.61598683  0.36110285  0.16829942  1
  Li  Li38  1  0.11598683  0.13889715  0.33170058  1
  Li  Li39  1  0.38401317  0.86110285  0.83170058  1
  Li  Li40  1  0.00000000  0.00000000  0.00000000  1
  Li  Li41  1  0.50000000  0.00000000  0.50000000  1
  Li  Li42  1  0.00000000  0.50000000  0.00000000  1
  Li  Li43  1  0.50000000  0.50000000  0.50000000  1
  Li  Li44  1  0.00000000  0.00000000  0.50000000  1
  Li  Li45  1  0.50000000  0.00000000  0.00000000  1
  Li  Li46  1  0.00000000  0.50000000  0.50000000  1
  Li  Li47  1  0.50000000  0.50000000  0.00000000  1
