# generated using pymatgen
data_LiF
_symmetry_space_group_name_H-M   'P 1'
_cell_length_a   9.61678022
_cell_length_b   9.61678022
_cell_length_c   5.14044624
_cell_angle_alpha   90.00000000
_cell_angle_beta   90.00000000
_cell_angle_gamma   120.00000000
_symmetry_Int_Tables_number   1
_chemical_formula_structural   LiF
_chemical_formula_sum   'Li14 F14'
_cell_volume   411.70944950
_cell_formula_units_Z   14
loop_
 _symmetry_equiv_pos_site_id
 _symmetry_equiv_pos_as_xyz
  1  'x, y, z'
loop_
 _atom_site_type_symbol
 _atom_site_label
 _atom_site_symmetry_multiplicity
 _atom_site_fract_x
 _atom_site_fract_y
 _atom_site_fract_z
 _atom_site_occupancy
  F  F0  1  0.33333333  0.66666667  0.50000000  1
  F  F1  1  0.00626505  0.11571404  0.42298663  1
  F  F2  1  0.88428596  0.89055101  0.42298663  1
  F  F3  1  0.10944899  0.99373495  0.42298663  1
  F  F4  1  0.88428596  0.99373495  0.57701337  1
  F  F5  1  0.10944899  0.11571404  0.57701337  1
  F  F6  1  0.00626505  0.89055101  0.57701337  1
  F  F7  1  0.33333333  0.66666667  0.80394488  1
  F  F8  1  0.33333333  0.66666667  0.19605512  1
  F  F9  1  0.76260516  0.23739484  0.50000000  1
  F  F10  1  0.76260516  0.52521031  0.50000000  1
  F  F11  1  0.47478969  0.23739484  0.50000000  1
  F  F12  1  0.66666667  0.33333333  0.37776176  1
  F  F13  1  0.66666667  0.33333333  0.62223824  1
  Li  Li14  1  0.64715527  0.62313871  0.02730693  1
  Li  Li15  1  -0.62313871  0.02401656  0.02730693  1
  Li  Li16  1  -0.02401656  -0.64715527  0.02730693  1
  Li  Li17  1  -0.62313871  -0.64715527  -0.02730693  1
  Li  Li18  1  -0.02401656  0.62313871  -0.02730693  1
  Li  Li19  1  0.64715527  0.02401656  -0.02730693  1
  Li  Li20  1  0.71412146  0.00614563  0.26464897  1
  Li  Li21  1  0.99385437  0.70797583  0.26464897  1
  Li  Li22  1  0.29202417  0.28587854  0.26464897  1
  Li  Li23  1  0.99385437  0.28587854  0.73535103  1
  Li  Li24  1  0.29202417  0.00614563  0.73535103  1
  Li  Li25  1  0.71412146  0.70797583  0.73535103  1
  Li  Li26  1  0.00000000  0.00000000  0.00000000  1
  Li  Li27  1  0.66666667  0.33333333  0.00000000  1
