# generated using pymatgen
data_LiF
_symmetry_space_group_name_H-M   'P 1'
_cell_length_a   11.32452743
_cell_length_b   11.32452743
_cell_length_c   21.34885214
_cell_angle_alpha   90.00000000
_cell_angle_beta   90.00000000
_cell_angle_gamma   120.00000000
_symmetry_Int_Tables_number   1
_chemical_formula_structural   LiF
_chemical_formula_sum   'Li66 F66'
_cell_volume   2371.07525034
_cell_formula_units_Z   66
loop_
 _symmetry_equiv_pos_site_id
 _symmetry_equiv_pos_as_xyz
  1  'x, y, z'
loop_
 _atom_site_type_symbol
 _atom_site_label
 _atom_site_symmetry_multiplicity
 _atom_site_fract_x
 _atom_site_fract_y
 _atom_site_fract_z
 _atom_site_occupancy
  F  F0  1  0.25335167  0.12036896  0.87845410  1
  F  F1  1  0.87963104  0.13298270  0.87845410  1
  F  F2  1  0.86701730  0.74664833  0.87845410  1
  F  F3  1  0.12036896  0.25335167  0.62154590  1
  F  F4  1  0.13298270  0.87963104  0.62154590  1
  F  F5  1  0.74664833  0.86701730  0.62154590  1
  F  F6  1  0.74664833  0.87963104  0.12154590  1
  F  F7  1  0.12036896  0.86701730  0.12154590  1
  F  F8  1  0.13298270  0.25335167  0.12154590  1
  F  F9  1  0.87963104  0.74664833  0.37845410  1
  F  F10  1  0.86701730  0.12036896  0.37845410  1
  F  F11  1  0.25335167  0.13298270  0.37845410  1
  F  F12  1  0.92001833  0.45370230  0.21178743  1
  F  F13  1  0.54629770  0.46631604  0.21178743  1
  F  F14  1  0.53368396  0.07998167  0.21178743  1
  F  F15  1  0.78703563  0.58668500  0.95487923  1
  F  F16  1  0.79964937  0.21296437  0.95487923  1
  F  F17  1  0.41331500  0.20035063  0.95487923  1
  F  F18  1  0.41331500  0.21296437  0.45487923  1
  F  F19  1  0.78703563  0.20035063  0.45487923  1
  F  F20  1  0.79964937  0.58668500  0.45487923  1
  F  F21  1  0.54629770  0.07998167  0.71178743  1
  F  F22  1  0.53368396  0.45370230  0.71178743  1
  F  F23  1  0.92001833  0.46631604  0.71178743  1
  F  F24  1  0.58668500  0.78703563  0.54512077  1
  F  F25  1  0.21296437  0.79964937  0.54512077  1
  F  F26  1  0.20035063  0.41331500  0.54512077  1
  F  F27  1  0.45370230  0.92001833  0.28821257  1
  F  F28  1  0.46631604  0.54629770  0.28821257  1
  F  F29  1  0.07998167  0.53368396  0.28821257  1
  F  F30  1  0.07998167  0.54629770  0.78821257  1
  F  F31  1  0.45370230  0.53368396  0.78821257  1
  F  F32  1  0.46631604  0.92001833  0.78821257  1
  F  F33  1  0.21296437  0.41331500  0.04512077  1
  F  F34  1  0.20035063  0.78703563  0.04512077  1
  F  F35  1  0.58668500  0.79964937  0.04512077  1
  F  F36  1  0.48500035  0.00000000  0.25000000  1
  F  F37  1  0.00000000  0.48500035  0.25000000  1
  F  F38  1  0.51499965  0.51499965  0.25000000  1
  F  F39  1  0.51499965  -0.00000000  0.75000000  1
  F  F40  1  0.00000000  0.51499965  0.75000000  1
  F  F41  1  0.48500035  0.48500035  0.75000000  1
  F  F42  1  0.15166702  0.33333333  0.58333333  1
  F  F43  1  0.66666667  0.81833369  0.58333333  1
  F  F44  1  0.18166631  0.84833298  0.58333333  1
  F  F45  1  0.18166631  0.33333333  0.08333333  1
  F  F46  1  0.66666667  0.84833298  0.08333333  1
  F  F47  1  0.15166702  0.81833369  0.08333333  1
  F  F48  1  0.81833369  0.66666667  0.91666667  1
  F  F49  1  0.33333333  0.15166702  0.91666667  1
  F  F50  1  0.84833298  0.18166631  0.91666667  1
  F  F51  1  0.84833298  0.66666667  0.41666667  1
  F  F52  1  0.33333333  0.18166631  0.41666667  1
  F  F53  1  0.81833369  0.15166702  0.41666667  1
  F  F54  1  0.00000000  0.00000000  0.60047243  1
  F  F55  1  0.00000000  0.00000000  0.89952757  1
  F  F56  1  0.00000000  0.00000000  0.39952757  1
  F  F57  1  0.00000000  0.00000000  0.10047243  1
  F  F58  1  0.66666667  0.33333333  0.93380576  1
  F  F59  1  0.66666667  0.33333333  0.23286091  1
  F  F60  1  0.66666667  0.33333333  0.73286091  1
  F  F61  1  0.66666667  0.33333333  0.43380576  1
  F  F62  1  0.33333333  0.66666667  0.26713909  1
  F  F63  1  0.33333333  0.66666667  0.56619424  1
  F  F64  1  0.33333333  0.66666667  0.06619424  1
  F  F65  1  0.33333333  0.66666667  0.76713909  1
  Li  Li66  1  0.00000000  0.00000000  0.00000000  1
  Li  Li67  1  0.00000000  0.00000000  0.50000000  1
  Li  Li68  1  0.66666667  0.33333333  0.33333333  1
  Li  Li69  1  0.66666667  0.33333333  0.83333333  1
  Li  Li70  1  0.33333333  0.66666667  0.66666667  1
  Li  Li71  1  0.33333333  0.66666667  0.16666667  1
  Li  Li72  1  0.50000000  0.00000000  0.00000000  1
  Li  Li73  1  0.00000000  0.50000000  0.00000000  1
  Li  Li74  1  0.50000000  0.50000000  0.00000000  1
  Li  Li75  1  0.00000000  0.50000000  0.50000000  1
  Li  Li76  1  0.50000000  0.00000000  0.50000000  1
  Li  Li77  1  0.50000000  0.50000000  0.50000000  1
  Li  Li78  1  0.16666667  0.33333333  0.33333333  1
  Li  Li79  1  0.66666667  0.83333333  0.33333333  1
  Li  Li80  1  0.16666667  0.83333333  0.33333333  1
  Li  Li81  1  0.66666667  0.83333333  0.83333333  1
  Li  Li82  1  0.16666667  0.33333333  0.83333333  1
  Li  Li83  1  0.16666667  0.83333333  0.83333333  1
  Li  Li84  1  0.83333333  0.66666667  0.66666667  1
  Li  Li85  1  0.33333333  0.16666667  0.66666667  1
  Li  Li86  1  0.83333333  0.16666667  0.66666667  1
  Li  Li87  1  0.33333333  0.16666667  0.16666667  1
  Li  Li88  1  0.83333333  0.66666667  0.16666667  1
  Li  Li89  1  0.83333333  0.16666667  0.16666667  1
  Li  Li90  1  0.48633595  0.72742071  0.84943408  1
  Li  Li91  1  -0.72742071  -0.24108476  0.84943408  1
  Li  Li92  1  0.24108476  -0.48633595  0.84943408  1
  Li  Li93  1  0.72742071  0.48633595  -0.34943408  1
  Li  Li94  1  -0.24108476  -0.72742071  -0.34943408  1
  Li  Li95  1  -0.48633595  0.24108476  -0.34943408  1
  Li  Li96  1  -0.48633595  -0.72742071  -0.84943408  1
  Li  Li97  1  0.72742071  0.24108476  -0.84943408  1
  Li  Li98  1  -0.24108476  0.48633595  -0.84943408  1
  Li  Li99  1  -0.72742071  -0.48633595  1.34943408  1
  Li  Li100  1  0.24108476  0.72742071  1.34943408  1
  Li  Li101  1  0.48633595  -0.24108476  1.34943408  1
  Li  Li102  1  1.15300262  1.06075404  1.18276742  1
  Li  Li103  1  -0.06075404  0.09224857  1.18276742  1
  Li  Li104  1  0.90775143  -0.15300262  1.18276742  1
  Li  Li105  1  1.39408738  0.81966928  -0.01610075  1
  Li  Li106  1  0.42558191  -0.39408738  -0.01610075  1
  Li  Li107  1  0.18033072  0.57441809  -0.01610075  1
  Li  Li108  1  0.18033072  -0.39408738  -0.51610075  1
  Li  Li109  1  1.39408738  0.57441809  -0.51610075  1
  Li  Li110  1  0.42558191  0.81966928  -0.51610075  1
  Li  Li111  1  -0.06075404  -0.15300262  1.68276742  1
  Li  Li112  1  0.90775143  1.06075404  1.68276742  1
  Li  Li113  1  1.15300262  0.09224857  1.68276742  1
  Li  Li114  1  0.81966928  1.39408738  1.51610075  1
  Li  Li115  1  -0.39408738  0.42558191  1.51610075  1
  Li  Li116  1  0.57441809  0.18033072  1.51610075  1
  Li  Li117  1  1.06075404  1.15300262  0.31723258  1
  Li  Li118  1  0.09224857  -0.06075404  0.31723258  1
  Li  Li119  1  -0.15300262  0.90775143  0.31723258  1
  Li  Li120  1  -0.15300262  -0.06075404  -0.18276742  1
  Li  Li121  1  1.06075404  0.90775143  -0.18276742  1
  Li  Li122  1  0.09224857  1.15300262  -0.18276742  1
  Li  Li123  1  -0.39408738  0.18033072  2.01610075  1
  Li  Li124  1  0.57441809  1.39408738  2.01610075  1
  Li  Li125  1  0.81966928  0.42558191  2.01610075  1
  Li  Li126  1  0.00000000  0.00000000  0.25000000  1
  Li  Li127  1  0.00000000  0.00000000  0.75000000  1
  Li  Li128  1  0.66666667  0.33333333  0.58333333  1
  Li  Li129  1  0.66666667  0.33333333  0.08333333  1
  Li  Li130  1  0.33333333  0.66666667  0.91666667  1
  Li  Li131  1  0.33333333  0.66666667  0.41666667  1
