# generated using pymatgen
data_LiSiCl3O
_symmetry_space_group_name_H-M   'P 1'
_cell_length_a   15.71500187
_cell_length_b   15.71500187
_cell_length_c   41.67462966
_cell_angle_alpha   90.00000000
_cell_angle_beta   90.00000000
_cell_angle_gamma   120.00000000
_symmetry_Int_Tables_number   1
_chemical_formula_structural   LiSiCl3O
_chemical_formula_sum   'Li96 Si96 Cl288 O96'
_cell_volume   8913.15080742
_cell_formula_units_Z   96
loop_
 _symmetry_equiv_pos_site_id
 _symmetry_equiv_pos_as_xyz
  1  'x, y, z'
loop_
 _atom_site_type_symbol
 _atom_site_label
 _atom_site_symmetry_multiplicity
 _atom_site_fract_x
 _atom_site_fract_y
 _atom_site_fract_z
 _atom_site_occupancy
  Cl  Cl0  1  0.15395072  0.84604928  0.91445485  1
  Cl  Cl1  1  0.15395072  0.30790144  0.91445485  1
  Cl  Cl2  1  0.69209856  0.84604928  0.91445485  1
  Cl  Cl3  1  0.84604928  0.15395072  0.08554515  1
  Cl  Cl4  1  0.30790144  0.15395072  0.08554515  1
  Cl  Cl5  1  0.84604928  0.69209856  0.08554515  1
  Cl  Cl6  1  0.82061739  0.17938261  0.24778819  1
  Cl  Cl7  1  0.82061739  0.64123477  0.24778819  1
  Cl  Cl8  1  0.35876523  0.17938261  0.24778819  1
  Cl  Cl9  1  0.51271595  0.48728405  0.41887848  1
  Cl  Cl10  1  0.97456810  0.48728405  0.41887848  1
  Cl  Cl11  1  0.51271595  0.02543190  0.41887848  1
  Cl  Cl12  1  0.48728405  0.51271595  0.58112152  1
  Cl  Cl13  1  0.48728405  0.97456810  0.58112152  1
  Cl  Cl14  1  0.02543190  0.51271595  0.58112152  1
  Cl  Cl15  1  0.17938261  0.82061739  0.75221181  1
  Cl  Cl16  1  0.64123477  0.82061739  0.75221181  1
  Cl  Cl17  1  0.17938261  0.35876523  0.75221181  1
  Cl  Cl18  1  0.77686374  0.22313626  0.67396850  1
  Cl  Cl19  1  0.77686374  0.55372748  0.67396850  1
  Cl  Cl20  1  0.44627252  0.22313626  0.67396850  1
  Cl  Cl21  1  0.22313626  0.77686374  0.32603150  1
  Cl  Cl22  1  0.55372748  0.77686374  0.32603150  1
  Cl  Cl23  1  0.22313626  0.44627252  0.32603150  1
  Cl  Cl24  1  0.44353041  0.55646959  0.00730184  1
  Cl  Cl25  1  0.44353041  0.88706081  0.00730184  1
  Cl  Cl26  1  0.11293919  0.55646959  0.00730184  1
  Cl  Cl27  1  0.88980293  0.11019707  0.65936483  1
  Cl  Cl28  1  0.22039415  0.11019707  0.65936483  1
  Cl  Cl29  1  0.88980293  0.77960585  0.65936483  1
  Cl  Cl30  1  0.11019707  0.88980293  0.34063517  1
  Cl  Cl31  1  0.11019707  0.22039415  0.34063517  1
  Cl  Cl32  1  0.77960585  0.88980293  0.34063517  1
  Cl  Cl33  1  0.55646959  0.44353041  0.99269816  1
  Cl  Cl34  1  0.88706081  0.44353041  0.99269816  1
  Cl  Cl35  1  0.55646959  0.11293919  0.99269816  1
  Cl  Cl36  1  0.88610089  0.11389911  0.48312752  1
  Cl  Cl37  1  0.88610089  0.77220178  0.48312752  1
  Cl  Cl38  1  0.22779822  0.11389911  0.48312752  1
  Cl  Cl39  1  0.11389911  0.88610089  0.51687248  1
  Cl  Cl40  1  0.77220178  0.88610089  0.51687248  1
  Cl  Cl41  1  0.11389911  0.22779822  0.51687248  1
  Cl  Cl42  1  0.55276756  0.44723244  0.81646085  1
  Cl  Cl43  1  0.55276756  0.10553511  0.81646085  1
  Cl  Cl44  1  0.89446489  0.44723244  0.81646085  1
  Cl  Cl45  1  0.78056578  0.21943422  0.85020582  1
  Cl  Cl46  1  0.43886844  0.21943422  0.85020582  1
  Cl  Cl47  1  0.78056578  0.56113156  0.85020582  1
  Cl  Cl48  1  0.21943422  0.78056578  0.14979418  1
  Cl  Cl49  1  0.21943422  0.43886844  0.14979418  1
  Cl  Cl50  1  0.56113156  0.78056578  0.14979418  1
  Cl  Cl51  1  0.44723244  0.55276756  0.18353915  1
  Cl  Cl52  1  0.10553511  0.55276756  0.18353915  1
  Cl  Cl53  1  0.44723244  0.89446489  0.18353915  1
  Cl  Cl54  1  0.96366710  0.03633290  0.27032534  1
  Cl  Cl55  1  0.96366710  0.92733419  0.27032534  1
  Cl  Cl56  1  0.07266581  0.03633290  0.27032534  1
  Cl  Cl57  1  0.03633290  0.96366710  0.72967466  1
  Cl  Cl58  1  0.92733419  0.96366710  0.72967466  1
  Cl  Cl59  1  0.03633290  0.07266581  0.72967466  1
  Cl  Cl60  1  0.63033376  0.36966624  0.60365867  1
  Cl  Cl61  1  0.63033376  0.26066753  0.60365867  1
  Cl  Cl62  1  0.73933247  0.36966624  0.60365867  1
  Cl  Cl63  1  0.70299957  0.29700043  0.06300800  1
  Cl  Cl64  1  0.59400086  0.29700043  0.06300800  1
  Cl  Cl65  1  0.70299957  0.40599914  0.06300800  1
  Cl  Cl66  1  0.29700043  0.70299957  0.93699200  1
  Cl  Cl67  1  0.29700043  0.59400086  0.93699200  1
  Cl  Cl68  1  0.40599914  0.70299957  0.93699200  1
  Cl  Cl69  1  0.36966624  0.63033376  0.39634133  1
  Cl  Cl70  1  0.26066753  0.63033376  0.39634133  1
  Cl  Cl71  1  0.36966624  0.73933247  0.39634133  1
  Cl  Cl72  1  0.81295100  0.18704900  0.19791210  1
  Cl  Cl73  1  0.81295100  0.62590200  0.19791210  1
  Cl  Cl74  1  0.37409800  0.18704900  0.19791210  1
  Cl  Cl75  1  0.18704900  0.81295100  0.80208790  1
  Cl  Cl76  1  0.62590200  0.81295100  0.80208790  1
  Cl  Cl77  1  0.18704900  0.37409800  0.80208790  1
  Cl  Cl78  1  0.47961767  0.52038233  0.53124543  1
  Cl  Cl79  1  0.47961767  0.95923533  0.53124543  1
  Cl  Cl80  1  0.04076467  0.52038233  0.53124543  1
  Cl  Cl81  1  0.85371567  0.14628433  0.13542123  1
  Cl  Cl82  1  0.29256866  0.14628433  0.13542123  1
  Cl  Cl83  1  0.85371567  0.70743134  0.13542123  1
  Cl  Cl84  1  0.14628433  0.85371567  0.86457877  1
  Cl  Cl85  1  0.14628433  0.29256866  0.86457877  1
  Cl  Cl86  1  0.70743134  0.85371567  0.86457877  1
  Cl  Cl87  1  0.52038233  0.47961767  0.46875457  1
  Cl  Cl88  1  0.95923533  0.47961767  0.46875457  1
  Cl  Cl89  1  0.52038233  0.04076467  0.46875457  1
  Cl  Cl90  1  0.09521116  0.99275934  0.60661360  1
  Cl  Cl91  1  0.00724066  0.10245182  0.60661360  1
  Cl  Cl92  1  0.89754818  0.90478884  0.60661360  1
  Cl  Cl93  1  0.99275934  0.09521116  0.39338640  1
  Cl  Cl94  1  0.10245182  0.00724066  0.39338640  1
  Cl  Cl95  1  0.90478884  0.89754818  0.39338640  1
  Cl  Cl96  1  0.90478884  0.00724066  0.39338640  1
  Cl  Cl97  1  0.99275934  0.89754818  0.39338640  1
  Cl  Cl98  1  0.10245182  0.09521116  0.39338640  1
  Cl  Cl99  1  0.00724066  0.90478884  0.60661360  1
  Cl  Cl100  1  0.89754818  0.99275934  0.60661360  1
  Cl  Cl101  1  0.09521116  0.10245182  0.60661360  1
  Cl  Cl102  1  0.76187782  0.32609267  0.93994693  1
  Cl  Cl103  1  0.67390733  0.43578515  0.93994693  1
  Cl  Cl104  1  0.56421485  0.23812218  0.93994693  1
  Cl  Cl105  1  0.65942601  0.42854449  0.72671973  1
  Cl  Cl106  1  0.76911848  0.34057399  0.72671973  1
  Cl  Cl107  1  0.57145551  0.23088152  0.72671973  1
  Cl  Cl108  1  0.57145551  0.34057399  0.72671973  1
  Cl  Cl109  1  0.65942601  0.23088152  0.72671973  1
  Cl  Cl110  1  0.76911848  0.42854449  0.72671973  1
  Cl  Cl111  1  0.67390733  0.23812218  0.93994693  1
  Cl  Cl112  1  0.56421485  0.32609267  0.93994693  1
  Cl  Cl113  1  0.76187782  0.43578515  0.93994693  1
  Cl  Cl114  1  0.42854449  0.65942601  0.27328027  1
  Cl  Cl115  1  0.34057399  0.76911848  0.27328027  1
  Cl  Cl116  1  0.23088152  0.57145551  0.27328027  1
  Cl  Cl117  1  0.32609267  0.76187782  0.06005307  1
  Cl  Cl118  1  0.43578515  0.67390733  0.06005307  1
  Cl  Cl119  1  0.23812218  0.56421485  0.06005307  1
  Cl  Cl120  1  0.23812218  0.67390733  0.06005307  1
  Cl  Cl121  1  0.32609267  0.56421485  0.06005307  1
  Cl  Cl122  1  0.43578515  0.76187782  0.06005307  1
  Cl  Cl123  1  0.34057399  0.57145551  0.27328027  1
  Cl  Cl124  1  0.23088152  0.65942601  0.27328027  1
  Cl  Cl125  1  0.42854449  0.76911848  0.27328027  1
  Cl  Cl126  1  0.28927594  0.29201911  0.24826533  1
  Cl  Cl127  1  0.70798089  0.99725683  0.24826533  1
  Cl  Cl128  1  0.00274317  0.71072406  0.24826533  1
  Cl  Cl129  1  0.29201911  0.28927594  0.75173467  1
  Cl  Cl130  1  0.99725683  0.70798089  0.75173467  1
  Cl  Cl131  1  0.71072406  0.00274317  0.75173467  1
  Cl  Cl132  1  0.71072406  0.70798089  0.75173467  1
  Cl  Cl133  1  0.29201911  0.00274317  0.75173467  1
  Cl  Cl134  1  0.99725683  0.28927594  0.75173467  1
  Cl  Cl135  1  0.70798089  0.71072406  0.24826533  1
  Cl  Cl136  1  0.00274317  0.29201911  0.24826533  1
  Cl  Cl137  1  0.28927594  0.99725683  0.24826533  1
  Cl  Cl138  1  0.95594261  0.62535245  0.58159867  1
  Cl  Cl139  1  0.37464755  0.33059016  0.58159867  1
  Cl  Cl140  1  0.66940984  0.04405739  0.58159867  1
  Cl  Cl141  1  0.95868578  0.62260927  0.08506800  1
  Cl  Cl142  1  0.66392349  0.04131422  0.08506800  1
  Cl  Cl143  1  0.37739073  0.33607651  0.08506800  1
  Cl  Cl144  1  0.37739073  0.04131422  0.08506800  1
  Cl  Cl145  1  0.95868578  0.33607651  0.08506800  1
  Cl  Cl146  1  0.66392349  0.62260927  0.08506800  1
  Cl  Cl147  1  0.37464755  0.04405739  0.58159867  1
  Cl  Cl148  1  0.66940984  0.62535245  0.58159867  1
  Cl  Cl149  1  0.95594261  0.33059016  0.58159867  1
  Cl  Cl150  1  0.62260927  0.95868578  0.91493200  1
  Cl  Cl151  1  0.04131422  0.66392349  0.91493200  1
  Cl  Cl152  1  0.33607651  0.37739073  0.91493200  1
  Cl  Cl153  1  0.62535245  0.95594261  0.41840133  1
  Cl  Cl154  1  0.33059016  0.37464755  0.41840133  1
  Cl  Cl155  1  0.04405739  0.66940984  0.41840133  1
  Cl  Cl156  1  0.04405739  0.37464755  0.41840133  1
  Cl  Cl157  1  0.62535245  0.66940984  0.41840133  1
  Cl  Cl158  1  0.33059016  0.95594261  0.41840133  1
  Cl  Cl159  1  0.04131422  0.37739073  0.91493200  1
  Cl  Cl160  1  0.33607651  0.95868578  0.91493200  1
  Cl  Cl161  1  0.62260927  0.66392349  0.91493200  1
  Cl  Cl162  1  0.26991674  0.95081363  0.19803682  1
  Cl  Cl163  1  0.04918637  0.31910312  0.19803682  1
  Cl  Cl164  1  0.68089688  0.73008326  0.19803682  1
  Cl  Cl165  1  0.95081363  0.26991674  0.80196318  1
  Cl  Cl166  1  0.31910312  0.04918637  0.80196318  1
  Cl  Cl167  1  0.73008326  0.68089688  0.80196318  1
  Cl  Cl168  1  0.73008326  0.04918637  0.80196318  1
  Cl  Cl169  1  0.95081363  0.68089688  0.80196318  1
  Cl  Cl170  1  0.31910312  0.26991674  0.80196318  1
  Cl  Cl171  1  0.04918637  0.73008326  0.19803682  1
  Cl  Cl172  1  0.68089688  0.95081363  0.19803682  1
  Cl  Cl173  1  0.26991674  0.31910312  0.19803682  1
  Cl  Cl174  1  0.93658341  0.28414696  0.53137015  1
  Cl  Cl175  1  0.71585304  0.65243645  0.53137015  1
  Cl  Cl176  1  0.34756355  0.06341659  0.53137015  1
  Cl  Cl177  1  0.61748029  0.60325008  0.13529652  1
  Cl  Cl178  1  0.98576979  0.38251971  0.13529652  1
  Cl  Cl179  1  0.39674992  0.01423021  0.13529652  1
  Cl  Cl180  1  0.39674992  0.38251971  0.13529652  1
  Cl  Cl181  1  0.61748029  0.01423021  0.13529652  1
  Cl  Cl182  1  0.98576979  0.60325008  0.13529652  1
  Cl  Cl183  1  0.71585304  0.06341659  0.53137015  1
  Cl  Cl184  1  0.34756355  0.28414696  0.53137015  1
  Cl  Cl185  1  0.93658341  0.65243645  0.53137015  1
  Cl  Cl186  1  0.60325008  0.61748029  0.86470348  1
  Cl  Cl187  1  0.38251971  0.98576979  0.86470348  1
  Cl  Cl188  1  0.01423021  0.39674992  0.86470348  1
  Cl  Cl189  1  0.28414696  0.93658341  0.46862985  1
  Cl  Cl190  1  0.65243645  0.71585304  0.46862985  1
  Cl  Cl191  1  0.06341659  0.34756355  0.46862985  1
  Cl  Cl192  1  0.06341659  0.71585304  0.46862985  1
  Cl  Cl193  1  0.28414696  0.34756355  0.46862985  1
  Cl  Cl194  1  0.65243645  0.93658341  0.46862985  1
  Cl  Cl195  1  0.38251971  0.39674992  0.86470348  1
  Cl  Cl196  1  0.01423021  0.61748029  0.86470348  1
  Cl  Cl197  1  0.60325008  0.98576979  0.86470348  1
  Cl  Cl198  1  0.24130103  0.75869897  0.44751653  1
  Cl  Cl199  1  0.24130103  0.48260206  0.44751653  1
  Cl  Cl200  1  0.51739794  0.75869897  0.44751653  1
  Cl  Cl201  1  0.75869897  0.24130103  0.55248347  1
  Cl  Cl202  1  0.48260206  0.24130103  0.55248347  1
  Cl  Cl203  1  0.75869897  0.51739794  0.55248347  1
  Cl  Cl204  1  0.90796770  0.09203230  0.78084986  1
  Cl  Cl205  1  0.90796770  0.81593540  0.78084986  1
  Cl  Cl206  1  0.18406460  0.09203230  0.78084986  1
  Cl  Cl207  1  0.42536564  0.57463436  0.88581680  1
  Cl  Cl208  1  0.14926873  0.57463436  0.88581680  1
  Cl  Cl209  1  0.42536564  0.85073127  0.88581680  1
  Cl  Cl210  1  0.57463436  0.42536564  0.11418320  1
  Cl  Cl211  1  0.57463436  0.14926873  0.11418320  1
  Cl  Cl212  1  0.85073127  0.42536564  0.11418320  1
  Cl  Cl213  1  0.09203230  0.90796770  0.21915014  1
  Cl  Cl214  1  0.81593540  0.90796770  0.21915014  1
  Cl  Cl215  1  0.09203230  0.18406460  0.21915014  1
  Cl  Cl216  1  0.74695077  -0.00000000  0.50000000  1
  Cl  Cl217  1  0.00000000  0.74695077  0.50000000  1
  Cl  Cl218  1  0.25304923  0.25304923  0.50000000  1
  Cl  Cl219  1  0.25304923  0.00000000  0.50000000  1
  Cl  Cl220  1  0.00000000  0.25304923  0.50000000  1
  Cl  Cl221  1  0.74695077  0.74695077  0.50000000  1
  Cl  Cl222  1  0.41361744  0.33333333  0.83333333  1
  Cl  Cl223  1  0.66666667  0.08028410  0.83333333  1
  Cl  Cl224  1  0.91971590  0.58638256  0.83333333  1
  Cl  Cl225  1  0.91971590  0.33333333  0.83333333  1
  Cl  Cl226  1  0.66666667  0.58638256  0.83333333  1
  Cl  Cl227  1  0.41361744  0.08028410  0.83333333  1
  Cl  Cl228  1  0.08028410  0.66666667  0.16666667  1
  Cl  Cl229  1  0.33333333  0.41361744  0.16666667  1
  Cl  Cl230  1  0.58638256  0.91971590  0.16666667  1
  Cl  Cl231  1  0.58638256  0.66666667  0.16666667  1
  Cl  Cl232  1  0.33333333  0.91971590  0.16666667  1
  Cl  Cl233  1  0.08028410  0.41361744  0.16666667  1
  Cl  Cl234  1  0.88242636  0.60709927  0.92169191  1
  Cl  Cl235  1  0.39290073  0.27532708  0.92169191  1
  Cl  Cl236  1  0.72467292  0.11757364  0.92169191  1
  Cl  Cl237  1  0.60709927  0.88242636  0.07830809  1
  Cl  Cl238  1  0.27532708  0.39290073  0.07830809  1
  Cl  Cl239  1  0.11757364  0.72467292  0.07830809  1
  Cl  Cl240  1  0.11757364  0.39290073  0.07830809  1
  Cl  Cl241  1  0.60709927  0.72467292  0.07830809  1
  Cl  Cl242  1  0.27532708  0.88242636  0.07830809  1
  Cl  Cl243  1  0.39290073  0.11757364  0.92169191  1
  Cl  Cl244  1  0.72467292  0.60709927  0.92169191  1
  Cl  Cl245  1  0.88242636  0.27532708  0.92169191  1
  Cl  Cl246  1  0.54909302  0.94043261  0.25502524  1
  Cl  Cl247  1  0.05956739  0.60866042  0.25502524  1
  Cl  Cl248  1  0.39133958  0.45090698  0.25502524  1
  Cl  Cl249  1  0.27376594  0.21575969  0.41164143  1
  Cl  Cl250  1  0.94199375  0.72623406  0.41164143  1
  Cl  Cl251  1  0.78424031  0.05800625  0.41164143  1
  Cl  Cl252  1  0.78424031  0.72623406  0.41164143  1
  Cl  Cl253  1  0.27376594  0.05800625  0.41164143  1
  Cl  Cl254  1  0.94199375  0.21575969  0.41164143  1
  Cl  Cl255  1  0.05956739  0.45090698  0.25502524  1
  Cl  Cl256  1  0.39133958  0.94043261  0.25502524  1
  Cl  Cl257  1  0.54909302  0.60866042  0.25502524  1
  Cl  Cl258  1  0.21575969  0.27376594  0.58835857  1
  Cl  Cl259  1  0.72623406  0.94199375  0.58835857  1
  Cl  Cl260  1  0.05800625  0.78424031  0.58835857  1
  Cl  Cl261  1  0.94043261  0.54909302  0.74497476  1
  Cl  Cl262  1  0.60866042  0.05956739  0.74497476  1
  Cl  Cl263  1  0.45090698  0.39133958  0.74497476  1
  Cl  Cl264  1  0.45090698  0.05956739  0.74497476  1
  Cl  Cl265  1  0.94043261  0.39133958  0.74497476  1
  Cl  Cl266  1  0.60866042  0.54909302  0.74497476  1
  Cl  Cl267  1  0.72623406  0.78424031  0.58835857  1
  Cl  Cl268  1  0.05800625  0.27376594  0.58835857  1
  Cl  Cl269  1  0.21575969  0.94199375  0.58835857  1
  Cl  Cl270  1  0.53918219  0.46081781  0.26528850  1
  Cl  Cl271  1  0.53918219  0.07836438  0.26528850  1
  Cl  Cl272  1  0.92163562  0.46081781  0.26528850  1
  Cl  Cl273  1  0.46081781  0.53918219  0.73471150  1
  Cl  Cl274  1  0.07836438  0.53918219  0.73471150  1
  Cl  Cl275  1  0.46081781  0.92163562  0.73471150  1
  Cl  Cl276  1  0.20584886  0.79415114  0.59862184  1
  Cl  Cl277  1  0.20584886  0.41169772  0.59862184  1
  Cl  Cl278  1  0.58830228  0.79415114  0.59862184  1
  Cl  Cl279  1  0.12748448  0.87251552  0.06804483  1
  Cl  Cl280  1  0.74503105  0.87251552  0.06804483  1
  Cl  Cl281  1  0.12748448  0.25496895  0.06804483  1
  Cl  Cl282  1  0.87251552  0.12748448  0.93195517  1
  Cl  Cl283  1  0.87251552  0.74503105  0.93195517  1
  Cl  Cl284  1  0.25496895  0.12748448  0.93195517  1
  Cl  Cl285  1  0.79415114  0.20584886  0.40137816  1
  Cl  Cl286  1  0.41169772  0.20584886  0.40137816  1
  Cl  Cl287  1  0.79415114  0.58830228  0.40137816  1
  Li  Li288  1  0.79597941  0.20402059  0.92267152  1
  Li  Li289  1  0.79597941  0.59195883  0.92267152  1
  Li  Li290  1  0.40804117  0.20402059  0.92267152  1
  Li  Li291  1  0.20402059  0.79597941  0.07732848  1
  Li  Li292  1  0.59195883  0.79597941  0.07732848  1
  Li  Li293  1  0.20402059  0.40804117  0.07732848  1
  Li  Li294  1  0.46264608  0.53735392  0.25600485  1
  Li  Li295  1  0.46264608  0.92529216  0.25600485  1
  Li  Li296  1  0.07470784  0.53735392  0.25600485  1
  Li  Li297  1  0.87068725  0.12931275  0.41066181  1
  Li  Li298  1  0.25862549  0.12931275  0.41066181  1
  Li  Li299  1  0.87068725  0.74137451  0.41066181  1
  Li  Li300  1  0.12931275  0.87068725  0.58933819  1
  Li  Li301  1  0.12931275  0.25862549  0.58933819  1
  Li  Li302  1  0.74137451  0.87068725  0.58933819  1
  Li  Li303  1  0.53735392  0.46264608  0.74399515  1
  Li  Li304  1  0.92529216  0.46264608  0.74399515  1
  Li  Li305  1  0.53735392  0.07470784  0.74399515  1
  Li  Li306  1  0.47513345  0.52486655  0.46312636  1
  Li  Li307  1  0.47513345  0.95026690  0.46312636  1
  Li  Li308  1  0.04973310  0.52486655  0.46312636  1
  Li  Li309  1  0.52486655  0.47513345  0.53687364  1
  Li  Li310  1  0.95026690  0.47513345  0.53687364  1
  Li  Li311  1  0.52486655  0.04973310  0.53687364  1
  Li  Li312  1  0.14180012  0.85819988  0.79645969  1
  Li  Li313  1  0.14180012  0.28360024  0.79645969  1
  Li  Li314  1  0.71639976  0.85819988  0.79645969  1
  Li  Li315  1  0.19153322  0.80846678  0.87020698  1
  Li  Li316  1  0.61693357  0.80846678  0.87020698  1
  Li  Li317  1  0.19153322  0.38306643  0.87020698  1
  Li  Li318  1  0.80846678  0.19153322  0.12979302  1
  Li  Li319  1  0.80846678  0.61693357  0.12979302  1
  Li  Li320  1  0.38306643  0.19153322  0.12979302  1
  Li  Li321  1  0.85819988  0.14180012  0.20354031  1
  Li  Li322  1  0.28360024  0.14180012  0.20354031  1
  Li  Li323  1  0.85819988  0.71639976  0.20354031  1
  Li  Li324  1  0.58783029  0.00272130  0.71092466  1
  Li  Li325  1  0.99727870  0.58510899  0.71092466  1
  Li  Li326  1  0.41489101  0.41216971  0.71092466  1
  Li  Li327  1  0.00272130  0.58783029  0.28907534  1
  Li  Li328  1  0.58510899  0.99727870  0.28907534  1
  Li  Li329  1  0.41216971  0.41489101  0.28907534  1
  Li  Li330  1  0.41216971  0.99727870  0.28907534  1
  Li  Li331  1  0.00272130  0.41489101  0.28907534  1
  Li  Li332  1  0.58510899  0.58783029  0.28907534  1
  Li  Li333  1  0.99727870  0.41216971  0.71092466  1
  Li  Li334  1  0.41489101  0.00272130  0.71092466  1
  Li  Li335  1  0.58783029  0.58510899  0.71092466  1
  Li  Li336  1  0.25449696  0.33605463  0.04425800  1
  Li  Li337  1  0.66394537  0.91844233  0.04425800  1
  Li  Li338  1  0.08155767  0.74550304  0.04425800  1
  Li  Li339  1  0.66938797  0.92116363  0.62240867  1
  Li  Li340  1  0.25177566  0.33061203  0.62240867  1
  Li  Li341  1  0.07883637  0.74822434  0.62240867  1
  Li  Li342  1  0.07883637  0.33061203  0.62240867  1
  Li  Li343  1  0.66938797  0.74822434  0.62240867  1
  Li  Li344  1  0.25177566  0.92116363  0.62240867  1
  Li  Li345  1  0.66394537  0.74550304  0.04425800  1
  Li  Li346  1  0.08155767  0.33605463  0.04425800  1
  Li  Li347  1  0.25449696  0.91844233  0.04425800  1
  Li  Li348  1  0.92116363  0.66938797  0.37759133  1
  Li  Li349  1  0.33061203  0.25177566  0.37759133  1
  Li  Li350  1  0.74822434  0.07883637  0.37759133  1
  Li  Li351  1  0.33605463  0.25449696  0.95574200  1
  Li  Li352  1  0.91844233  0.66394537  0.95574200  1
  Li  Li353  1  0.74550304  0.08155767  0.95574200  1
  Li  Li354  1  0.74550304  0.66394537  0.95574200  1
  Li  Li355  1  0.33605463  0.08155767  0.95574200  1
  Li  Li356  1  0.91844233  0.25449696  0.95574200  1
  Li  Li357  1  0.33061203  0.07883637  0.37759133  1
  Li  Li358  1  0.74822434  0.66938797  0.37759133  1
  Li  Li359  1  0.92116363  0.25177566  0.37759133  1
  Li  Li360  1  0.69490567  -0.00000000  0.00000000  1
  Li  Li361  1  0.00000000  0.69490567  0.00000000  1
  Li  Li362  1  0.30509433  0.30509433  0.00000000  1
  Li  Li363  1  0.30509433  -0.00000000  0.00000000  1
  Li  Li364  1  0.00000000  0.30509433  -0.00000000  1
  Li  Li365  1  0.69490567  0.69490567  0.00000000  1
  Li  Li366  1  0.36157234  0.33333333  0.33333333  1
  Li  Li367  1  0.66666667  0.02823900  0.33333333  1
  Li  Li368  1  0.97176100  0.63842766  0.33333333  1
  Li  Li369  1  0.97176100  0.33333333  0.33333333  1
  Li  Li370  1  0.66666667  0.63842766  0.33333333  1
  Li  Li371  1  0.36157234  0.02823900  0.33333333  1
  Li  Li372  1  0.02823900  0.66666667  0.66666667  1
  Li  Li373  1  0.33333333  0.36157234  0.66666667  1
  Li  Li374  1  0.63842766  0.97176100  0.66666667  1
  Li  Li375  1  0.63842766  0.66666667  0.66666667  1
  Li  Li376  1  0.33333333  0.97176100  0.66666667  1
  Li  Li377  1  0.02823900  0.36157234  0.66666667  1
  Li  Li378  1  0.00000000  0.00000000  0.42830954  1
  Li  Li379  1  0.00000000  0.00000000  0.57169046  1
  Li  Li380  1  0.66666667  0.33333333  0.76164288  1
  Li  Li381  1  0.66666667  0.33333333  0.90502379  1
  Li  Li382  1  0.33333333  0.66666667  0.09497621  1
  Li  Li383  1  0.33333333  0.66666667  0.23835712  1
  O  O384  1  0.42956448  0.18733402  0.23178503  1
  O  O385  1  -0.18733402  0.24223046  0.23178503  1
  O  O386  1  -0.24223046  -0.42956448  0.23178503  1
  O  O387  1  0.18733402  0.42956448  -0.23178503  1
  O  O388  1  0.24223046  -0.18733402  -0.23178503  1
  O  O389  1  -0.42956448  -0.24223046  -0.23178503  1
  O  O390  1  -0.42956448  -0.18733402  -0.23178503  1
  O  O391  1  0.18733402  -0.24223046  -0.23178503  1
  O  O392  1  0.24223046  0.42956448  -0.23178503  1
  O  O393  1  -0.18733402  -0.42956448  0.23178503  1
  O  O394  1  -0.24223046  0.18733402  0.23178503  1
  O  O395  1  0.42956448  0.24223046  0.23178503  1
  O  O396  1  1.09623115  0.52066735  0.56511837  1
  O  O397  1  0.47933265  0.57556380  0.56511837  1
  O  O398  1  0.42443620  -0.09623115  0.56511837  1
  O  O399  1  0.85400068  0.76289781  0.10154830  1
  O  O400  1  0.90889713  0.14599932  0.10154830  1
  O  O401  1  0.23710219  0.09110287  0.10154830  1
  O  O402  1  0.23710219  0.14599932  0.10154830  1
  O  O403  1  0.85400068  0.09110287  0.10154830  1
  O  O404  1  0.90889713  0.76289781  0.10154830  1
  O  O405  1  0.47933265  -0.09623115  0.56511837  1
  O  O406  1  0.42443620  0.52066735  0.56511837  1
  O  O407  1  1.09623115  0.57556380  0.56511837  1
  O  O408  1  0.76289781  0.85400068  0.89845170  1
  O  O409  1  0.14599932  0.90889713  0.89845170  1
  O  O410  1  0.09110287  0.23710219  0.89845170  1
  O  O411  1  0.52066735  1.09623115  0.43488163  1
  O  O412  1  0.57556380  0.47933265  0.43488163  1
  O  O413  1  -0.09623115  0.42443620  0.43488163  1
  O  O414  1  -0.09623115  0.47933265  0.43488163  1
  O  O415  1  0.52066735  0.42443620  0.43488163  1
  O  O416  1  0.57556380  1.09623115  0.43488163  1
  O  O417  1  0.14599932  0.23710219  0.89845170  1
  O  O418  1  0.09110287  0.85400068  0.89845170  1
  O  O419  1  0.76289781  0.90889713  0.89845170  1
  O  O420  1  0.06470333  0.93529667  0.44399802  1
  O  O421  1  0.06470333  0.12940666  0.44399802  1
  O  O422  1  0.87059334  0.93529667  0.44399802  1
  O  O423  1  0.93529667  0.06470333  0.55600198  1
  O  O424  1  0.12940666  0.06470333  0.55600198  1
  O  O425  1  0.93529667  0.87059334  0.55600198  1
  O  O426  1  0.73136999  0.26863001  0.77733135  1
  O  O427  1  0.73136999  0.46273999  0.77733135  1
  O  O428  1  0.53726001  0.26863001  0.77733135  1
  O  O429  1  0.60196334  0.39803666  0.88933532  1
  O  O430  1  0.79607332  0.39803666  0.88933532  1
  O  O431  1  0.60196334  0.20392668  0.88933532  1
  O  O432  1  0.39803666  0.60196334  0.11066468  1
  O  O433  1  0.39803666  0.79607332  0.11066468  1
  O  O434  1  0.20392668  0.60196334  0.11066468  1
  O  O435  1  0.26863001  0.73136999  0.22266865  1
  O  O436  1  0.46273999  0.73136999  0.22266865  1
  O  O437  1  0.26863001  0.53726001  0.22266865  1
  O  O438  1  0.00000000  0.00000000  0.50000000  1
  O  O439  1  0.66666667  0.33333333  0.83333333  1
  O  O440  1  0.33333333  0.66666667  0.16666667  1
  O  O441  1  0.46941350  0.48486452  0.91565614  1
  O  O442  1  0.51513548  0.98454898  0.91565614  1
  O  O443  1  0.01545102  0.53058650  0.91565614  1
  O  O444  1  0.48486452  0.46941350  0.08434386  1
  O  O445  1  0.98454898  0.51513548  0.08434386  1
  O  O446  1  0.53058650  0.01545102  0.08434386  1
  O  O447  1  0.53058650  0.51513548  0.08434386  1
  O  O448  1  0.48486452  0.01545102  0.08434386  1
  O  O449  1  0.98454898  0.46941350  0.08434386  1
  O  O450  1  0.51513548  0.53058650  0.91565614  1
  O  O451  1  0.01545102  0.48486452  0.91565614  1
  O  O452  1  0.46941350  0.98454898  0.91565614  1
  O  O453  1  0.13608016  0.81819785  0.24898947  1
  O  O454  1  0.18180215  0.31788232  0.24898947  1
  O  O455  1  0.68211768  0.86391984  0.24898947  1
  O  O456  1  0.15153118  0.80274683  0.41767720  1
  O  O457  1  0.65121565  0.84846882  0.41767720  1
  O  O458  1  0.19725317  0.34878435  0.41767720  1
  O  O459  1  0.19725317  0.84846882  0.41767720  1
  O  O460  1  0.15153118  0.34878435  0.41767720  1
  O  O461  1  0.65121565  0.80274683  0.41767720  1
  O  O462  1  0.18180215  0.86391984  0.24898947  1
  O  O463  1  0.68211768  0.81819785  0.24898947  1
  O  O464  1  0.13608016  0.31788232  0.24898947  1
  O  O465  1  0.80274683  0.15153118  0.58232280  1
  O  O466  1  0.84846882  0.65121565  0.58232280  1
  O  O467  1  0.34878435  0.19725317  0.58232280  1
  O  O468  1  0.81819785  0.13608016  0.75101053  1
  O  O469  1  0.31788232  0.18180215  0.75101053  1
  O  O470  1  0.86391984  0.68211768  0.75101053  1
  O  O471  1  0.86391984  0.18180215  0.75101053  1
  O  O472  1  0.81819785  0.68211768  0.75101053  1
  O  O473  1  0.31788232  0.13608016  0.75101053  1
  O  O474  1  0.84846882  0.19725317  0.58232280  1
  O  O475  1  0.34878435  0.15153118  0.58232280  1
  O  O476  1  0.80274683  0.65121565  0.58232280  1
  O  O477  1  0.00000000  0.00000000  0.00000000  1
  O  O478  1  0.66666667  0.33333333  0.33333333  1
  O  O479  1  0.33333333  0.66666667  0.66666667  1
  Si  Si480  1  0.00000000  0.00000000  0.36303314  1
  Si  Si481  1  0.00000000  0.00000000  0.63696686  1
  Si  Si482  1  0.66666667  0.33333333  0.69636648  1
  Si  Si483  1  0.66666667  0.33333333  0.97030019  1
  Si  Si484  1  0.33333333  0.66666667  0.02969981  1
  Si  Si485  1  0.33333333  0.66666667  0.30363352  1
  Si  Si486  1  0.61832744  0.00000000  0.00000000  1
  Si  Si487  1  0.00000000  0.61832744  0.00000000  1
  Si  Si488  1  0.38167256  0.38167256  0.00000000  1
  Si  Si489  1  0.38167256  -0.00000000  0.00000000  1
  Si  Si490  1  0.00000000  0.38167256  0.00000000  1
  Si  Si491  1  0.61832744  0.61832744  0.00000000  1
  Si  Si492  1  0.28499410  0.33333333  0.33333333  1
  Si  Si493  1  0.66666667  0.95166077  0.33333333  1
  Si  Si494  1  0.04833923  0.71500590  0.33333333  1
  Si  Si495  1  0.04833923  0.33333333  0.33333333  1
  Si  Si496  1  0.66666667  0.71500590  0.33333333  1
  Si  Si497  1  0.28499410  0.95166077  0.33333333  1
  Si  Si498  1  0.95166077  0.66666667  0.66666667  1
  Si  Si499  1  0.33333333  0.28499410  0.66666667  1
  Si  Si500  1  0.71500590  0.04833923  0.66666667  1
  Si  Si501  1  0.71500590  0.66666667  0.66666667  1
  Si  Si502  1  0.33333333  0.04833923  0.66666667  1
  Si  Si503  1  0.95166077  0.28499410  0.66666667  1
  Si  Si504  1  0.12811267  0.87188733  0.00804950  1
  Si  Si505  1  0.12811267  0.25622534  0.00804950  1
  Si  Si506  1  0.74377466  0.87188733  0.00804950  1
  Si  Si507  1  0.87188733  0.12811267  0.99195050  1
  Si  Si508  1  0.25622534  0.12811267  0.99195050  1
  Si  Si509  1  0.87188733  0.74377466  0.99195050  1
  Si  Si510  1  0.79477934  0.20522066  0.34138283  1
  Si  Si511  1  0.79477934  0.58955868  0.34138283  1
  Si  Si512  1  0.41044132  0.20522066  0.34138283  1
  Si  Si513  1  0.53855399  0.46144601  0.32528383  1
  Si  Si514  1  0.92289201  0.46144601  0.32528383  1
  Si  Si515  1  0.53855399  0.07710799  0.32528383  1
  Si  Si516  1  0.46144601  0.53855399  0.67471617  1
  Si  Si517  1  0.46144601  0.92289201  0.67471617  1
  Si  Si518  1  0.07710799  0.53855399  0.67471617  1
  Si  Si519  1  0.20522066  0.79477934  0.65861717  1
  Si  Si520  1  0.58955868  0.79477934  0.65861717  1
  Si  Si521  1  0.20522066  0.41044132  0.65861717  1
  Si  Si522  1  0.05692921  0.94307079  0.64900177  1
  Si  Si523  1  0.05692921  0.11385842  0.64900177  1
  Si  Si524  1  0.88614158  0.94307079  0.64900177  1
  Si  Si525  1  0.94307079  0.05692921  0.35099823  1
  Si  Si526  1  0.11385842  0.05692921  0.35099823  1
  Si  Si527  1  0.94307079  0.88614158  0.35099823  1
  Si  Si528  1  0.72359588  0.27640412  0.98233510  1
  Si  Si529  1  0.72359588  0.44719175  0.98233510  1
  Si  Si530  1  0.55280825  0.27640412  0.98233510  1
  Si  Si531  1  0.60973746  0.39026254  0.68433157  1
  Si  Si532  1  0.78052508  0.39026254  0.68433157  1
  Si  Si533  1  0.60973746  0.21947492  0.68433157  1
  Si  Si534  1  0.39026254  0.60973746  0.31566843  1
  Si  Si535  1  0.39026254  0.78052508  0.31566843  1
  Si  Si536  1  0.21947492  0.60973746  0.31566843  1
  Si  Si537  1  0.27640412  0.72359588  0.01766490  1
  Si  Si538  1  0.44719175  0.72359588  0.01766490  1
  Si  Si539  1  0.27640412  0.55280825  0.01766490  1
  Si  Si540  1  0.50000000  -0.00000000  0.50000000  1
  Si  Si541  1  0.00000000  0.50000000  0.50000000  1
  Si  Si542  1  0.50000000  0.50000000  0.50000000  1
  Si  Si543  1  0.16666667  0.33333333  0.83333333  1
  Si  Si544  1  0.66666667  0.83333333  0.83333333  1
  Si  Si545  1  0.16666667  0.83333333  0.83333333  1
  Si  Si546  1  0.83333333  0.66666667  0.16666667  1
  Si  Si547  1  0.33333333  0.16666667  0.16666667  1
  Si  Si548  1  0.83333333  0.16666667  0.16666667  1
  Si  Si549  1  0.90085373  0.09914627  0.58812289  1
  Si  Si550  1  0.90085373  0.80170745  0.58812289  1
  Si  Si551  1  0.19829255  0.09914627  0.58812289  1
  Si  Si552  1  0.09914627  0.90085373  0.41187711  1
  Si  Si553  1  0.80170745  0.90085373  0.41187711  1
  Si  Si554  1  0.09914627  0.19829255  0.41187711  1
  Si  Si555  1  0.56752039  0.43247961  0.92145622  1
  Si  Si556  1  0.56752039  0.13504078  0.92145622  1
  Si  Si557  1  0.86495922  0.43247961  0.92145622  1
  Si  Si558  1  0.76581294  0.23418706  0.74521044  1
  Si  Si559  1  0.46837412  0.23418706  0.74521044  1
  Si  Si560  1  0.76581294  0.53162588  0.74521044  1
  Si  Si561  1  0.23418706  0.76581294  0.25478956  1
  Si  Si562  1  0.23418706  0.46837412  0.25478956  1
  Si  Si563  1  0.53162588  0.76581294  0.25478956  1
  Si  Si564  1  0.43247961  0.56752039  0.07854378  1
  Si  Si565  1  0.13504078  0.56752039  0.07854378  1
  Si  Si566  1  0.43247961  0.86495922  0.07854378  1
  Si  Si567  1  0.50000000  -0.00000000  -0.00000000  1
  Si  Si568  1  0.00000000  0.50000000  -0.00000000  1
  Si  Si569  1  0.50000000  0.50000000  -0.00000000  1
  Si  Si570  1  0.16666667  0.33333333  0.33333333  1
  Si  Si571  1  0.66666667  0.83333333  0.33333333  1
  Si  Si572  1  0.16666667  0.83333333  0.33333333  1
  Si  Si573  1  0.83333333  0.66666667  0.66666667  1
  Si  Si574  1  0.33333333  0.16666667  0.66666667  1
  Si  Si575  1  0.83333333  0.16666667  0.66666667  1
