# generated using pymatgen
data_LiF
_symmetry_space_group_name_H-M   'P 1'
_cell_length_a   8.95318503
_cell_length_b   8.95318503
_cell_length_c   7.45025156
_cell_angle_alpha   90.00000000
_cell_angle_beta   90.00000000
_cell_angle_gamma   120.00000000
_symmetry_Int_Tables_number   1
_chemical_formula_structural   LiF
_chemical_formula_sum   'Li23 F23'
_cell_volume   517.19782430
_cell_formula_units_Z   23
loop_
 _symmetry_equiv_pos_site_id
 _symmetry_equiv_pos_as_xyz
  1  'x, y, z'
loop_
 _atom_site_type_symbol
 _atom_site_label
 _atom_site_symmetry_multiplicity
 _atom_site_fract_x
 _atom_site_fract_y
 _atom_site_fract_z
 _atom_site_occupancy
  F  F0  1  0.26239869  0.79688598  0.74176142  1
  F  F1  1  0.20311402  0.46551271  0.74176142  1
  F  F2  1  0.53448729  0.73760131  0.74176142  1
  F  F3  1  0.20311402  0.73760131  0.25823858  1
  F  F4  1  0.53448729  0.79688598  0.25823858  1
  F  F5  1  0.26239869  0.46551271  0.25823858  1
  F  F6  1  0.87815565  0.13530087  0.85421133  1
  F  F7  1  0.86469913  0.74285478  0.85421133  1
  F  F8  1  0.25714522  0.12184435  0.85421133  1
  F  F9  1  0.86469913  0.12184435  0.14578867  1
  F  F10  1  0.25714522  0.13530087  0.14578867  1
  F  F11  1  0.87815565  0.74285478  0.14578867  1
  F  F12  1  0.33333333  0.66666667  0.50000000  1
  F  F13  1  0.33333333  0.66666667  0.85394529  1
  F  F14  1  0.33333333  0.66666667  0.14605471  1
  F  F15  1  0.66666667  0.33333333  0.00000000  1
  F  F16  1  0.00000000  0.00000000  0.30766405  1
  F  F17  1  0.00000000  0.00000000  0.69233595  1
  F  F18  1  0.22320970  0.77679030  0.50000000  1
  F  F19  1  0.22320970  0.44641940  0.50000000  1
  F  F20  1  0.55358060  0.77679030  0.50000000  1
  F  F21  1  0.66666667  0.33333333  0.79683674  1
  F  F22  1  0.66666667  0.33333333  0.20316326  1
  Li  Li23  1  0.62164618  0.57945259  0.78357844  1
  Li  Li24  1  -0.57945259  0.04219359  0.78357844  1
  Li  Li25  1  -0.04219359  -0.62164618  0.78357844  1
  Li  Li26  1  -0.57945259  -0.62164618  -0.78357844  1
  Li  Li27  1  -0.04219359  0.57945259  -0.78357844  1
  Li  Li28  1  0.62164618  0.04219359  -0.78357844  1
  Li  Li29  1  0.00933246  0.11301328  0.71378607  1
  Li  Li30  1  0.88698672  0.89631918  0.71378607  1
  Li  Li31  1  0.10368082  0.99066754  0.71378607  1
  Li  Li32  1  0.88698672  0.99066754  0.28621393  1
  Li  Li33  1  0.10368082  0.11301328  0.28621393  1
  Li  Li34  1  0.00933246  0.89631918  0.28621393  1
  Li  Li35  1  0.16105180  0.83894820  0.50000000  1
  Li  Li36  1  0.16105180  0.32210360  0.50000000  1
  Li  Li37  1  0.67789640  0.83894820  0.50000000  1
  Li  Li38  1  0.52180103  0.51648651  0.39905479  1
  Li  Li39  1  0.48351349  0.00531452  0.39905479  1
  Li  Li40  1  0.99468548  0.47819897  0.39905479  1
  Li  Li41  1  0.48351349  0.47819897  0.60094521  1
  Li  Li42  1  0.99468548  0.51648651  0.60094521  1
  Li  Li43  1  0.52180103  0.00531452  0.60094521  1
  Li  Li44  1  0.00000000  0.00000000  0.00000000  1
  Li  Li45  1  0.33333333  0.66666667  0.00000000  1
