# generated using pymatgen
data_Li2Y2As4P3Se
_symmetry_space_group_name_H-M   'P 1'
_cell_length_a   4.79931131
_cell_length_b   5.02225915
_cell_length_c   6.81617460
_cell_angle_alpha   94.42021253
_cell_angle_beta   99.98702801
_cell_angle_gamma   108.18979064
_symmetry_Int_Tables_number   1
_chemical_formula_structural   Li2Y2As4P3Se
_chemical_formula_sum   'Li2 Y2 As4 P3 Se1'
_cell_volume   152.19867561
_cell_formula_units_Z   1
loop_
 _symmetry_equiv_pos_site_id
 _symmetry_equiv_pos_as_xyz
  1  'x, y, z'
loop_
 _atom_site_type_symbol
 _atom_site_label
 _atom_site_symmetry_multiplicity
 _atom_site_fract_x
 _atom_site_fract_y
 _atom_site_fract_z
 _atom_site_occupancy
  Se  Se0  1  0.00000000  0.00000000  0.00000000  1
  P  P1  1  0.50000000  0.50000000  0.50000000  1
  P  P2  1  0.25000000  0.25000000  0.25000000  1
  P  P3  1  0.75000000  0.25000000  0.00000000  1
  As  As4  1  0.25000000  0.75000000  0.50000000  1
  As  As5  1  0.95592743  0.33701535  0.86739782  1
  As  As6  1  0.07602928  0.43984962  0.50097521  1
  As  As7  1  0.45444758  0.55574713  0.48540144  1
  Li  Li8  1  0.31153767  0.36862000  0.16169468  1
  Li  Li9  1  0.71939270  0.65087547  0.19013334  1
  Y  Y10  1  0.47850634  0.63210186  0.23508904  1
  Y  Y11  1  0.14084726  0.93016780  0.00176637  1
