# generated using pymatgen
data_LiYAs2P
_symmetry_space_group_name_H-M   'P 1'
_cell_length_a   5.12278345
_cell_length_b   5.18265781
_cell_length_c   6.92323356
_cell_angle_alpha   94.56728916
_cell_angle_beta   99.94660628
_cell_angle_gamma   108.34498534
_symmetry_Int_Tables_number   1
_chemical_formula_structural   LiYAs2P
_chemical_formula_sum   'Li2 Y2 As4 P2'
_cell_volume   170.07133180
_cell_formula_units_Z   2
loop_
 _symmetry_equiv_pos_site_id
 _symmetry_equiv_pos_as_xyz
  1  'x, y, z'
loop_
 _atom_site_type_symbol
 _atom_site_label
 _atom_site_symmetry_multiplicity
 _atom_site_fract_x
 _atom_site_fract_y
 _atom_site_fract_z
 _atom_site_occupancy
  P  P0  1  0.00000000  0.00000000  0.00000000  1
  P  P1  1  0.50000000  0.50000000  0.50000000  1
  As  As2  1  0.50000000  0.50000000  0.00000000  1
  As  As3  1  0.50000000  0.00000000  0.50000000  1
  As  As4  1  0.00000000  0.50000000  0.50000000  1
  As  As5  1  0.43079201  0.00454447  0.08430825  1
  Li  Li6  1  0.63147168  0.13118521  0.21234342  1
  Li  Li7  1  0.33462349  0.12149357  0.00359463  1
  Y  Y8  1  0.67526579  0.64837699  0.97976866  1
  Y  Y9  1  0.35349454  0.97239329  0.40838575  1
