# generated using pymatgen
data_Li4TeF2
_symmetry_space_group_name_H-M   'P 1'
_cell_length_a   9.95957440
_cell_length_b   18.82727134
_cell_length_c   12.12214033
_cell_angle_alpha   90.00000000
_cell_angle_beta   90.00000000
_cell_angle_gamma   90.00000000
_symmetry_Int_Tables_number   1
_chemical_formula_structural   Li4TeF2
_chemical_formula_sum   'Li96 Te24 F48'
_cell_volume   2273.04204563
_cell_formula_units_Z   24
loop_
 _symmetry_equiv_pos_site_id
 _symmetry_equiv_pos_as_xyz
  1  'x, y, z'
loop_
 _atom_site_type_symbol
 _atom_site_label
 _atom_site_symmetry_multiplicity
 _atom_site_fract_x
 _atom_site_fract_y
 _atom_site_fract_z
 _atom_site_occupancy
  F  F0  1  0.00000000  0.00000000  0.50000000  1
  F  F1  1  0.50000000  0.50000000  0.50000000  1
  F  F2  1  0.00000000  0.50000000  0.00000000  1
  F  F3  1  0.50000000  0.00000000  0.00000000  1
  F  F4  1  0.59126856  0.54900103  0.38701632  1
  F  F5  1  -0.59126856  -0.54900103  0.38701632  1
  F  F6  1  -0.09126856  1.04900103  -0.38701632  1
  F  F7  1  1.09126856  -0.04900103  -0.38701632  1
  F  F8  1  -0.59126856  -0.54900103  -0.38701632  1
  F  F9  1  0.59126856  0.54900103  -0.38701632  1
  F  F10  1  1.09126856  -0.04900103  0.38701632  1
  F  F11  1  -0.09126856  1.04900103  0.38701632  1
  F  F12  1  0.39205150  0.28794574  0.91920487  1
  F  F13  1  0.60794850  0.71205426  0.91920487  1
  F  F14  1  0.10794850  0.78794574  0.08079513  1
  F  F15  1  0.89205150  0.21205426  0.08079513  1
  F  F16  1  0.60794850  0.71205426  0.08079513  1
  F  F17  1  0.39205150  0.28794574  0.08079513  1
  F  F18  1  0.89205150  0.21205426  0.91920487  1
  F  F19  1  0.10794850  0.78794574  0.91920487  1
  F  F20  1  0.18818821  0.22239374  0.58317320  1
  F  F21  1  0.81181179  0.77760626  0.58317320  1
  F  F22  1  0.31181179  0.72239374  0.41682680  1
  F  F23  1  0.68818821  0.27760626  0.41682680  1
  F  F24  1  0.81181179  0.77760626  0.41682680  1
  F  F25  1  0.18818821  0.22239374  0.41682680  1
  F  F26  1  0.68818821  0.27760626  0.58317320  1
  F  F27  1  0.31181179  0.72239374  0.58317320  1
  F  F28  1  0.98530458  0.16373627  0.87351620  1
  F  F29  1  0.01469542  0.83626373  0.87351620  1
  F  F30  1  0.51469542  0.66373627  0.12648380  1
  F  F31  1  0.48530458  0.33626373  0.12648380  1
  F  F32  1  0.01469542  0.83626373  0.12648380  1
  F  F33  1  0.98530458  0.16373627  0.12648380  1
  F  F34  1  0.48530458  0.33626373  0.87351620  1
  F  F35  1  0.51469542  0.66373627  0.87351620  1
  F  F36  1  0.03209186  0.16442070  0.96586519  1
  F  F37  1  0.96790814  0.83557930  0.96586519  1
  F  F38  1  0.46790814  0.66442070  0.03413481  1
  F  F39  1  0.53209186  0.33557930  0.03413481  1
  F  F40  1  0.96790814  0.83557930  0.03413481  1
  F  F41  1  0.03209186  0.16442070  0.03413481  1
  F  F42  1  0.53209186  0.33557930  0.96586519  1
  F  F43  1  0.46790814  0.66442070  0.96586519  1
  F  F44  1  0.00000000  0.50000000  0.10097362  1
  F  F45  1  0.50000000  0.00000000  0.89902638  1
  F  F46  1  0.00000000  0.50000000  0.89902638  1
  F  F47  1  0.50000000  0.00000000  0.10097362  1
  Li  Li48  1  0.12819926  0.21978494  -0.00000000  1
  Li  Li49  1  0.87180074  0.78021506  0.00000000  1
  Li  Li50  1  0.37180074  0.71978494  0.00000000  1
  Li  Li51  1  0.62819926  0.28021506  0.00000000  1
  Li  Li52  1  0.15626382  0.01519367  0.50000000  1
  Li  Li53  1  0.84373618  0.98480633  0.50000000  1
  Li  Li54  1  0.34373618  0.51519367  0.50000000  1
  Li  Li55  1  0.65626382  0.48480633  0.50000000  1
  Li  Li56  1  0.09531035  0.85681877  0.27670778  1
  Li  Li57  1  0.90468965  0.14318123  0.27670778  1
  Li  Li58  1  0.40468965  0.35681877  0.72329222  1
  Li  Li59  1  0.59531035  0.64318123  0.72329222  1
  Li  Li60  1  0.90468965  0.14318123  0.72329222  1
  Li  Li61  1  0.09531035  0.85681877  0.72329222  1
  Li  Li62  1  0.59531035  0.64318123  0.27670778  1
  Li  Li63  1  0.40468965  0.35681877  0.27670778  1
  Li  Li64  1  0.06182956  0.11979870  0.71788485  1
  Li  Li65  1  0.93817044  0.88020130  0.71788485  1
  Li  Li66  1  0.43817044  0.61979870  0.28211515  1
  Li  Li67  1  0.56182956  0.38020130  0.28211515  1
  Li  Li68  1  0.93817044  0.88020130  0.28211515  1
  Li  Li69  1  0.06182956  0.11979870  0.28211515  1
  Li  Li70  1  0.56182956  0.38020130  0.71788485  1
  Li  Li71  1  0.43817044  0.61979870  0.71788485  1
  Li  Li72  1  0.00000000  0.00000000  0.66251513  1
  Li  Li73  1  0.50000000  0.50000000  0.33748487  1
  Li  Li74  1  0.00000000  0.00000000  0.33748487  1
  Li  Li75  1  0.50000000  0.50000000  0.66251513  1
  Li  Li76  1  0.67555047  0.61105475  0.50000000  1
  Li  Li77  1  0.32444953  0.38894525  0.50000000  1
  Li  Li78  1  0.82444953  0.11105475  0.50000000  1
  Li  Li79  1  0.17555047  0.88894525  0.50000000  1
  Li  Li80  1  0.03999809  0.94079037  0.50000000  1
  Li  Li81  1  0.96000191  0.05920963  0.50000000  1
  Li  Li82  1  0.46000191  0.44079037  0.50000000  1
  Li  Li83  1  0.53999809  0.55920963  0.50000000  1
  Li  Li84  1  0.16685094  0.03358119  0.62396125  1
  Li  Li85  1  0.83314906  0.96641881  0.62396125  1
  Li  Li86  1  0.33314906  0.53358119  0.37603875  1
  Li  Li87  1  0.66685094  0.46641881  0.37603875  1
  Li  Li88  1  0.83314906  0.96641881  0.37603875  1
  Li  Li89  1  0.16685094  0.03358119  0.37603875  1
  Li  Li90  1  0.66685094  0.46641881  0.62396125  1
  Li  Li91  1  0.33314906  0.53358119  0.62396125  1
  Li  Li92  1  0.34193267  0.48336508  0.27987291  1
  Li  Li93  1  0.65806733  0.51663492  0.27987291  1
  Li  Li94  1  0.15806733  0.98336508  0.72012709  1
  Li  Li95  1  0.84193267  0.01663492  0.72012709  1
  Li  Li96  1  0.65806733  0.51663492  0.72012709  1
  Li  Li97  1  0.34193267  0.48336508  0.72012709  1
  Li  Li98  1  0.84193267  0.01663492  0.27987291  1
  Li  Li99  1  0.15806733  0.98336508  0.27987291  1
  Li  Li100  1  0.75650805  0.30584691  -0.00000000  1
  Li  Li101  1  0.24349195  0.69415309  0.00000000  1
  Li  Li102  1  0.74349195  0.80584691  0.00000000  1
  Li  Li103  1  0.25650805  0.19415309  0.00000000  1
  Li  Li104  1  0.30234829  0.06052572  0.50000000  1
  Li  Li105  1  0.69765171  0.93947428  0.50000000  1
  Li  Li106  1  0.19765171  0.56052572  0.50000000  1
  Li  Li107  1  0.80234829  0.43947428  0.50000000  1
  Li  Li108  1  0.95612091  0.35730245  0.66791263  1
  Li  Li109  1  0.04387909  0.64269755  0.66791263  1
  Li  Li110  1  0.54387909  0.85730245  0.33208737  1
  Li  Li111  1  0.45612091  0.14269755  0.33208737  1
  Li  Li112  1  0.04387909  0.64269755  0.33208737  1
  Li  Li113  1  0.95612091  0.35730245  0.33208737  1
  Li  Li114  1  0.45612091  0.14269755  0.66791263  1
  Li  Li115  1  0.54387909  0.85730245  0.66791263  1
  Li  Li116  1  0.21217103  0.27034521  0.50000000  1
  Li  Li117  1  0.78782897  0.72965479  0.50000000  1
  Li  Li118  1  0.28782897  0.77034521  0.50000000  1
  Li  Li119  1  0.71217103  0.22965479  0.50000000  1
  Li  Li120  1  0.36900249  0.07317069  0.79397762  1
  Li  Li121  1  0.63099751  0.92682931  0.79397762  1
  Li  Li122  1  0.13099751  0.57317069  0.20602238  1
  Li  Li123  1  0.86900249  0.42682931  0.20602238  1
  Li  Li124  1  0.63099751  0.92682931  0.20602238  1
  Li  Li125  1  0.36900249  0.07317069  0.20602238  1
  Li  Li126  1  0.86900249  0.42682931  0.79397762  1
  Li  Li127  1  0.13099751  0.57317069  0.79397762  1
  Li  Li128  1  0.21335548  0.89971552  0.34718039  1
  Li  Li129  1  0.78664452  0.10028448  0.34718039  1
  Li  Li130  1  0.28664452  0.39971552  0.65281961  1
  Li  Li131  1  0.71335548  0.60028448  0.65281961  1
  Li  Li132  1  0.78664452  0.10028448  0.65281961  1
  Li  Li133  1  0.21335548  0.89971552  0.65281961  1
  Li  Li134  1  0.71335548  0.60028448  0.34718039  1
  Li  Li135  1  0.28664452  0.39971552  0.34718039  1
  Li  Li136  1  0.40231224  0.85748375  0.13647525  1
  Li  Li137  1  0.59768776  0.14251625  0.13647525  1
  Li  Li138  1  0.09768776  0.35748375  0.86352475  1
  Li  Li139  1  0.90231224  0.64251625  0.86352475  1
  Li  Li140  1  0.59768776  0.14251625  0.86352475  1
  Li  Li141  1  0.40231224  0.85748375  0.86352475  1
  Li  Li142  1  0.90231224  0.64251625  0.13647525  1
  Li  Li143  1  0.09768776  0.35748375  0.13647525  1
  Te  Te144  1  0.45433085  0.96494019  0.50000000  1
  Te  Te145  1  0.54566915  0.03505981  0.50000000  1
  Te  Te146  1  0.04566915  0.46494019  0.50000000  1
  Te  Te147  1  0.95433085  0.53505981  0.50000000  1
  Te  Te148  1  0.81130921  0.56091633  0.19586197  1
  Te  Te149  1  0.18869079  0.43908367  0.19586197  1
  Te  Te150  1  0.68869079  0.06091633  0.80413803  1
  Te  Te151  1  0.31130921  0.93908367  0.80413803  1
  Te  Te152  1  0.18869079  0.43908367  0.80413803  1
  Te  Te153  1  0.81130921  0.56091633  0.80413803  1
  Te  Te154  1  0.31130921  0.93908367  0.19586197  1
  Te  Te155  1  0.68869079  0.06091633  0.19586197  1
  Te  Te156  1  0.36617447  0.10571474  0.91512388  1
  Te  Te157  1  0.63382553  0.89428526  0.91512388  1
  Te  Te158  1  0.13382553  0.60571474  0.08487612  1
  Te  Te159  1  0.86617447  0.39428526  0.08487612  1
  Te  Te160  1  0.63382553  0.89428526  0.08487612  1
  Te  Te161  1  0.36617447  0.10571474  0.08487612  1
  Te  Te162  1  0.86617447  0.39428526  0.91512388  1
  Te  Te163  1  0.13382553  0.60571474  0.91512388  1
  Te  Te164  1  0.00000000  0.50000000  0.79693661  1
  Te  Te165  1  0.50000000  0.00000000  0.20306339  1
  Te  Te166  1  0.00000000  0.50000000  0.20306339  1
  Te  Te167  1  0.50000000  0.00000000  0.79693661  1
