# generated using pymatgen
data_LiCaF3
_symmetry_space_group_name_H-M   'P 1'
_cell_length_a   8.36193830
_cell_length_b   12.04437412
_cell_length_c   14.77925583
_cell_angle_alpha   90.00000000
_cell_angle_beta   90.00000000
_cell_angle_gamma   90.00000000
_symmetry_Int_Tables_number   1
_chemical_formula_structural   LiCaF3
_chemical_formula_sum   'Li18 Ca18 F54'
_cell_volume   1488.48260146
_cell_formula_units_Z   18
loop_
 _symmetry_equiv_pos_site_id
 _symmetry_equiv_pos_as_xyz
  1  'x, y, z'
loop_
 _atom_site_type_symbol
 _atom_site_label
 _atom_site_symmetry_multiplicity
 _atom_site_fract_x
 _atom_site_fract_y
 _atom_site_fract_z
 _atom_site_occupancy
  Ca  Ca0  1  0.00000000  0.50000000  0.62467645  1
  Ca  Ca1  1  0.50000000  0.00000000  0.37532355  1
  Ca  Ca2  1  0.00000000  0.50000000  0.37532355  1
  Ca  Ca3  1  0.50000000  0.00000000  0.62467645  1
  Ca  Ca4  1  0.76254077  0.71947063  0.75912427  1
  Ca  Ca5  1  -0.76254077  -0.71947063  0.75912427  1
  Ca  Ca6  1  -0.26254077  1.21947063  -0.75912427  1
  Ca  Ca7  1  1.26254077  -0.21947063  -0.75912427  1
  Ca  Ca8  1  -0.76254077  -0.71947063  -0.75912427  1
  Ca  Ca9  1  0.76254077  0.71947063  -0.75912427  1
  Ca  Ca10  1  1.26254077  -0.21947063  0.75912427  1
  Ca  Ca11  1  -0.26254077  1.21947063  0.75912427  1
  Ca  Ca12  1  0.00000000  0.50000000  -0.00000000  1
  Ca  Ca13  1  0.50000000  0.00000000  0.00000000  1
  Ca  Ca14  1  0.79127239  0.99766243  0.50000000  1
  Ca  Ca15  1  0.20872761  0.00233757  0.50000000  1
  Ca  Ca16  1  0.70872761  0.49766243  0.50000000  1
  Ca  Ca17  1  0.29127239  0.50233757  0.50000000  1
  F  F18  1  0.43974258  0.28776276  0.76003389  1
  F  F19  1  0.56025742  0.71223724  0.76003389  1
  F  F20  1  0.06025742  0.78776276  0.23996611  1
  F  F21  1  0.93974258  0.21223724  0.23996611  1
  F  F22  1  0.56025742  0.71223724  0.23996611  1
  F  F23  1  0.43974258  0.28776276  0.23996611  1
  F  F24  1  0.93974258  0.21223724  0.76003389  1
  F  F25  1  0.06025742  0.78776276  0.76003389  1
  F  F26  1  0.41980238  0.63035224  0.66274600  1
  F  F27  1  0.58019762  0.36964776  0.66274600  1
  F  F28  1  0.08019762  0.13035224  0.33725400  1
  F  F29  1  0.91980238  0.86964776  0.33725400  1
  F  F30  1  0.58019762  0.36964776  0.33725400  1
  F  F31  1  0.41980238  0.63035224  0.33725400  1
  F  F32  1  0.91980238  0.86964776  0.66274600  1
  F  F33  1  0.08019762  0.13035224  0.66274600  1
  F  F34  1  0.45470390  0.01489771  0.52939440  1
  F  F35  1  0.54529610  0.98510229  0.52939440  1
  F  F36  1  0.04529610  0.51489771  0.47060560  1
  F  F37  1  0.95470390  0.48510229  0.47060560  1
  F  F38  1  0.54529610  0.98510229  0.47060560  1
  F  F39  1  0.45470390  0.01489771  0.47060560  1
  F  F40  1  0.95470390  0.48510229  0.52939440  1
  F  F41  1  0.04529610  0.51489771  0.52939440  1
  F  F42  1  0.91740893  0.43420948  0.09867991  1
  F  F43  1  0.08259107  0.56579052  0.09867991  1
  F  F44  1  0.58259107  0.93420948  0.90132009  1
  F  F45  1  0.41740893  0.06579052  0.90132009  1
  F  F46  1  0.08259107  0.56579052  0.90132009  1
  F  F47  1  0.91740893  0.43420948  0.90132009  1
  F  F48  1  0.41740893  0.06579052  0.09867991  1
  F  F49  1  0.58259107  0.93420948  0.09867991  1
  F  F50  1  0.76917352  0.75937340  0.00000000  1
  F  F51  1  0.23082648  0.24062660  0.00000000  1
  F  F52  1  0.73082648  0.25937340  0.00000000  1
  F  F53  1  0.26917352  0.74062660  -0.00000000  1
  F  F54  1  0.35033092  0.38120613  0.38193959  1
  F  F55  1  0.64966908  0.61879387  0.38193959  1
  F  F56  1  0.14966908  0.88120613  0.61806041  1
  F  F57  1  0.85033092  0.11879387  0.61806041  1
  F  F58  1  0.64966908  0.61879387  0.61806041  1
  F  F59  1  0.35033092  0.38120613  0.61806041  1
  F  F60  1  0.85033092  0.11879387  0.38193959  1
  F  F61  1  0.14966908  0.88120613  0.38193959  1
  F  F62  1  0.00000000  0.00000000  0.50000000  1
  F  F63  1  0.50000000  0.50000000  0.50000000  1
  F  F64  1  0.08089211  0.09697108  0.93737213  1
  F  F65  1  0.91910789  0.90302892  0.93737213  1
  F  F66  1  0.41910789  0.59697108  0.06262787  1
  F  F67  1  0.58089211  0.40302892  0.06262787  1
  F  F68  1  0.91910789  0.90302892  0.06262787  1
  F  F69  1  0.08089211  0.09697108  0.06262787  1
  F  F70  1  0.58089211  0.40302892  0.93737213  1
  F  F71  1  0.41910789  0.59697108  0.93737213  1
  Li  Li72  1  0.37408524  0.69317249  -0.00000000  1
  Li  Li73  1  0.62591476  0.30682751  0.00000000  1
  Li  Li74  1  0.12591476  0.19317249  0.00000000  1
  Li  Li75  1  0.87408524  0.80682751  0.00000000  1
  Li  Li76  1  0.00000000  0.50000000  0.20085960  1
  Li  Li77  1  0.50000000  0.00000000  0.79914040  1
  Li  Li78  1  0.00000000  0.50000000  0.79914040  1
  Li  Li79  1  0.50000000  0.00000000  0.20085960  1
  Li  Li80  1  0.20860826  0.15424679  0.16241879  1
  Li  Li81  1  0.79139174  0.84575321  0.16241879  1
  Li  Li82  1  0.29139174  0.65424679  0.83758121  1
  Li  Li83  1  0.70860826  0.34575321  0.83758121  1
  Li  Li84  1  0.79139174  0.84575321  0.83758121  1
  Li  Li85  1  0.20860826  0.15424679  0.83758121  1
  Li  Li86  1  0.70860826  0.34575321  0.16241879  1
  Li  Li87  1  0.29139174  0.65424679  0.16241879  1
  Li  Li88  1  0.00000000  0.00000000  0.00000000  1
  Li  Li89  1  0.50000000  0.50000000  -0.00000000  1
