# generated using pymatgen
data_LiF
_symmetry_space_group_name_H-M   'P 1'
_cell_length_a   10.85053412
_cell_length_b   10.85053412
_cell_length_c   4.54753344
_cell_angle_alpha   90.00000000
_cell_angle_beta   90.00000000
_cell_angle_gamma   120.00000000
_symmetry_Int_Tables_number   1
_chemical_formula_structural   LiF
_chemical_formula_sum   'Li14 F14'
_cell_volume   463.66975373
_cell_formula_units_Z   14
loop_
 _symmetry_equiv_pos_site_id
 _symmetry_equiv_pos_as_xyz
  1  'x, y, z'
loop_
 _atom_site_type_symbol
 _atom_site_label
 _atom_site_symmetry_multiplicity
 _atom_site_fract_x
 _atom_site_fract_y
 _atom_site_fract_z
 _atom_site_occupancy
  F  F0  1  0.40957908  0.85739246  0.57783951  1
  F  F1  1  0.14260754  0.55218662  0.57783951  1
  F  F2  1  0.44781338  0.59042092  0.57783951  1
  F  F3  1  0.14260754  0.59042092  0.42216049  1
  F  F4  1  0.44781338  0.85739246  0.42216049  1
  F  F5  1  0.40957908  0.55218662  0.42216049  1
  F  F6  1  0.42376480  0.57623520  0.00000000  1
  F  F7  1  0.42376480  0.84752961  0.00000000  1
  F  F8  1  0.15247039  0.57623520  -0.00000000  1
  F  F9  1  0.66666667  0.33333333  0.50000000  1
  F  F10  1  0.00000000  0.00000000  0.00000000  1
  F  F11  1  0.07887078  0.92112922  0.00000000  1
  F  F12  1  0.07887078  0.15774156  -0.00000000  1
  F  F13  1  0.84225844  0.92112922  -0.00000000  1
  Li  Li14  1  0.33333333  0.66666667  0.00000000  1
  Li  Li15  1  0.00000000  0.00000000  0.50000000  1
  Li  Li16  1  0.63517836  0.60679635  0.81099814  1
  Li  Li17  1  -0.60679635  0.02838201  0.81099814  1
  Li  Li18  1  -0.02838201  -0.63517836  0.81099814  1
  Li  Li19  1  -0.60679635  -0.63517836  -0.81099814  1
  Li  Li20  1  -0.02838201  0.60679635  -0.81099814  1
  Li  Li21  1  0.63517836  0.02838201  -0.81099814  1
  Li  Li22  1  0.35208486  0.01403623  0.23043799  1
  Li  Li23  1  0.98596377  0.33804864  0.23043799  1
  Li  Li24  1  0.66195136  0.64791514  0.23043799  1
  Li  Li25  1  0.98596377  0.64791514  0.76956201  1
  Li  Li26  1  0.66195136  0.01403623  0.76956201  1
  Li  Li27  1  0.35208486  0.33804864  0.76956201  1
