# generated using pymatgen
data_LiF
_symmetry_space_group_name_H-M   'P 1'
_cell_length_a   9.68589220
_cell_length_b   9.68589220
_cell_length_c   2.21365454
_cell_angle_alpha   90.00000000
_cell_angle_beta   90.00000000
_cell_angle_gamma   120.00000000
_symmetry_Int_Tables_number   1
_chemical_formula_structural   LiF
_chemical_formula_sum   'Li6 F6'
_cell_volume   179.85385062
_cell_formula_units_Z   6
loop_
 _symmetry_equiv_pos_site_id
 _symmetry_equiv_pos_as_xyz
  1  'x, y, z'
loop_
 _atom_site_type_symbol
 _atom_site_label
 _atom_site_symmetry_multiplicity
 _atom_site_fract_x
 _atom_site_fract_y
 _atom_site_fract_z
 _atom_site_occupancy
  F  F0  1  0.00142398  0.11157302  0.85553526  1
  F  F1  1  -0.11157302  -0.11014904  0.85553526  1
  F  F2  1  0.11014904  -0.00142398  0.85553526  1
  F  F3  1  -0.11157302  -0.00142398  -0.85553526  1
  F  F4  1  0.11014904  0.11157302  -0.85553526  1
  F  F5  1  0.00142398  -0.11014904  -0.85553526  1
  Li  Li6  1  0.26493157  0.73506843  0.50000000  1
  Li  Li7  1  0.26493157  0.52986314  0.50000000  1
  Li  Li8  1  0.47013686  0.73506843  0.50000000  1
  Li  Li9  1  0.45725566  0.54274434  -0.00000000  1
  Li  Li10  1  0.45725566  0.91451132  -0.00000000  1
  Li  Li11  1  0.08548868  0.54274434  0.00000000  1
