# generated using pymatgen
data_LiF
_symmetry_space_group_name_H-M   'P 1'
_cell_length_a   15.61482645
_cell_length_b   9.22198654
_cell_length_c   12.74372183
_cell_angle_alpha   90.00000000
_cell_angle_beta   90.00000000
_cell_angle_gamma   90.00000000
_symmetry_Int_Tables_number   1
_chemical_formula_structural   LiF
_chemical_formula_sum   'Li58 F58'
_cell_volume   1835.09236773
_cell_formula_units_Z   58
loop_
 _symmetry_equiv_pos_site_id
 _symmetry_equiv_pos_as_xyz
  1  'x, y, z'
loop_
 _atom_site_type_symbol
 _atom_site_label
 _atom_site_symmetry_multiplicity
 _atom_site_fract_x
 _atom_site_fract_y
 _atom_site_fract_z
 _atom_site_occupancy
  F  F0  1  0.77845823  0.77525411  0.78220845  1
  F  F1  1  0.22154177  0.22474589  0.78220845  1
  F  F2  1  0.72154177  0.27525411  0.21779155  1
  F  F3  1  0.27845823  0.72474589  0.21779155  1
  F  F4  1  0.22154177  0.22474589  0.21779155  1
  F  F5  1  0.77845823  0.77525411  0.21779155  1
  F  F6  1  0.27845823  0.72474589  0.78220845  1
  F  F7  1  0.72154177  0.27525411  0.78220845  1
  F  F8  1  0.66788751  0.07990536  0.79162046  1
  F  F9  1  0.33211249  0.92009464  0.79162046  1
  F  F10  1  0.83211249  0.57990536  0.20837954  1
  F  F11  1  0.16788751  0.42009464  0.20837954  1
  F  F12  1  0.33211249  0.92009464  0.20837954  1
  F  F13  1  0.66788751  0.07990536  0.20837954  1
  F  F14  1  0.16788751  0.42009464  0.79162046  1
  F  F15  1  0.83211249  0.57990536  0.79162046  1
  F  F16  1  0.40379726  0.87596484  0.40389250  1
  F  F17  1  0.59620274  0.12403516  0.40389250  1
  F  F18  1  0.09620274  0.37596484  0.59610750  1
  F  F19  1  0.90379726  0.62403516  0.59610750  1
  F  F20  1  0.59620274  0.12403516  0.59610750  1
  F  F21  1  0.40379726  0.87596484  0.59610750  1
  F  F22  1  0.90379726  0.62403516  0.40389250  1
  F  F23  1  0.09620274  0.37596484  0.40389250  1
  F  F24  1  0.88246227  0.28292473  0.50000000  1
  F  F25  1  0.11753773  0.71707527  0.50000000  1
  F  F26  1  0.61753773  0.78292473  0.50000000  1
  F  F27  1  0.38246227  0.21707527  0.50000000  1
  F  F28  1  0.53885172  0.60028137  0.53551513  1
  F  F29  1  0.46114828  0.39971863  0.53551513  1
  F  F30  1  0.96114828  0.10028137  0.46448487  1
  F  F31  1  0.03885172  0.89971863  0.46448487  1
  F  F32  1  0.46114828  0.39971863  0.46448487  1
  F  F33  1  0.53885172  0.60028137  0.46448487  1
  F  F34  1  0.03885172  0.89971863  0.53551513  1
  F  F35  1  0.96114828  0.10028137  0.53551513  1
  F  F36  1  0.21322151  0.51016092  0.95938525  1
  F  F37  1  0.78677849  0.48983908  0.95938525  1
  F  F38  1  0.28677849  0.01016092  0.04061475  1
  F  F39  1  0.71322151  0.98983908  0.04061475  1
  F  F40  1  0.78677849  0.48983908  0.04061475  1
  F  F41  1  0.21322151  0.51016092  0.04061475  1
  F  F42  1  0.71322151  0.98983908  0.95938525  1
  F  F43  1  0.28677849  0.01016092  0.95938525  1
  F  F44  1  0.93786112  0.61494593  0.10909047  1
  F  F45  1  0.06213888  0.38505407  0.10909047  1
  F  F46  1  0.56213888  0.11494593  0.89090953  1
  F  F47  1  0.43786112  0.88505407  0.89090953  1
  F  F48  1  0.06213888  0.38505407  0.89090953  1
  F  F49  1  0.93786112  0.61494593  0.89090953  1
  F  F50  1  0.43786112  0.88505407  0.10909047  1
  F  F51  1  0.56213888  0.11494593  0.10909047  1
  F  F52  1  0.00000000  0.00000000  0.70497018  1
  F  F53  1  0.50000000  0.50000000  0.29502982  1
  F  F54  1  0.00000000  0.00000000  0.29502982  1
  F  F55  1  0.50000000  0.50000000  0.70497018  1
  F  F56  1  0.00000000  0.00000000  0.50000000  1
  F  F57  1  0.50000000  0.50000000  0.50000000  1
  Li  Li58  1  0.41149641  0.58699512  0.71569904  1
  Li  Li59  1  -0.41149641  -0.58699512  0.71569904  1
  Li  Li60  1  0.08850359  1.08699512  -0.71569904  1
  Li  Li61  1  0.91149641  -0.08699512  -0.71569904  1
  Li  Li62  1  -0.41149641  -0.58699512  -0.71569904  1
  Li  Li63  1  0.41149641  0.58699512  -0.71569904  1
  Li  Li64  1  0.91149641  -0.08699512  0.71569904  1
  Li  Li65  1  0.08850359  1.08699512  0.71569904  1
  Li  Li66  1  0.62423562  0.73639378  0.86442582  1
  Li  Li67  1  0.37576438  0.26360622  0.86442582  1
  Li  Li68  1  0.87576438  0.23639378  0.13557418  1
  Li  Li69  1  0.12423562  0.76360622  0.13557418  1
  Li  Li70  1  0.37576438  0.26360622  0.13557418  1
  Li  Li71  1  0.62423562  0.73639378  0.13557418  1
  Li  Li72  1  0.12423562  0.76360622  0.86442582  1
  Li  Li73  1  0.87576438  0.23639378  0.86442582  1
  Li  Li74  1  0.56318358  0.21887143  0.50000000  1
  Li  Li75  1  0.43681642  0.78112857  0.50000000  1
  Li  Li76  1  0.93681642  0.71887143  0.50000000  1
  Li  Li77  1  0.06318358  0.28112857  0.50000000  1
  Li  Li78  1  0.90135138  0.53805342  0.20634298  1
  Li  Li79  1  0.09864862  0.46194658  0.20634298  1
  Li  Li80  1  0.59864862  0.03805342  0.79365702  1
  Li  Li81  1  0.40135138  0.96194658  0.79365702  1
  Li  Li82  1  0.09864862  0.46194658  0.79365702  1
  Li  Li83  1  0.90135138  0.53805342  0.79365702  1
  Li  Li84  1  0.40135138  0.96194658  0.20634298  1
  Li  Li85  1  0.59864862  0.03805342  0.20634298  1
  Li  Li86  1  0.59803997  0.48989152  0.50000000  1
  Li  Li87  1  0.40196003  0.51010848  0.50000000  1
  Li  Li88  1  0.90196003  0.98989152  0.50000000  1
  Li  Li89  1  0.09803997  0.01010848  0.50000000  1
  Li  Li90  1  0.00000000  0.00000000  0.59344156  1
  Li  Li91  1  0.50000000  0.50000000  0.40655844  1
  Li  Li92  1  0.00000000  0.00000000  0.40655844  1
  Li  Li93  1  0.50000000  0.50000000  0.59344156  1
  Li  Li94  1  0.00000000  0.50000000  0.50000000  1
  Li  Li95  1  0.50000000  0.00000000  0.50000000  1
  Li  Li96  1  0.00000000  0.50000000  0.26843501  1
  Li  Li97  1  0.50000000  0.00000000  0.73156499  1
  Li  Li98  1  0.00000000  0.50000000  0.73156499  1
  Li  Li99  1  0.50000000  0.00000000  0.26843501  1
  Li  Li100  1  0.60489513  0.44053094  0.88216862  1
  Li  Li101  1  0.39510487  0.55946906  0.88216862  1
  Li  Li102  1  0.89510487  0.94053094  0.11783138  1
  Li  Li103  1  0.10489513  0.05946906  0.11783138  1
  Li  Li104  1  0.39510487  0.55946906  0.11783138  1
  Li  Li105  1  0.60489513  0.44053094  0.11783138  1
  Li  Li106  1  0.10489513  0.05946906  0.88216862  1
  Li  Li107  1  0.89510487  0.94053094  0.88216862  1
  Li  Li108  1  0.76849750  0.75798347  0.00000000  1
  Li  Li109  1  0.23150250  0.24201653  -0.00000000  1
  Li  Li110  1  0.73150250  0.25798347  -0.00000000  1
  Li  Li111  1  0.26849750  0.74201653  0.00000000  1
  Li  Li112  1  0.00000000  0.00000000  0.00000000  1
  Li  Li113  1  0.50000000  0.50000000  -0.00000000  1
  Li  Li114  1  0.00000000  0.50000000  0.00000000  1
  Li  Li115  1  0.50000000  0.00000000  0.00000000  1
