# generated using pymatgen
data_Li2YAsP4
_symmetry_space_group_name_H-M   'P 1'
_cell_length_a   4.97049737
_cell_length_b   5.21303699
_cell_length_c   7.20360869
_cell_angle_alpha   95.19824151
_cell_angle_beta   101.05693370
_cell_angle_gamma   109.59750337
_symmetry_Int_Tables_number   1
_chemical_formula_structural   Li2YAsP4
_chemical_formula_sum   'Li2 Y1 As1 P4'
_cell_volume   170.13866679
_cell_formula_units_Z   1
loop_
 _symmetry_equiv_pos_site_id
 _symmetry_equiv_pos_as_xyz
  1  'x, y, z'
loop_
 _atom_site_type_symbol
 _atom_site_label
 _atom_site_symmetry_multiplicity
 _atom_site_fract_x
 _atom_site_fract_y
 _atom_site_fract_z
 _atom_site_occupancy
  Y  Y0  1  0.00000000  0.00000000  0.00000000  1
  P  P1  1  0.33300000  0.66700000  0.25000000  1
  P  P2  1  0.66700000  0.33300000  0.50000000  1
  P  P3  1  0.00000000  0.00000000  0.75000000  1
  P  P4  1  0.40263737  0.63617105  0.26533507  1
  As  As5  1  0.63138771  0.50884873  0.86927931  1
  Li  Li6  1  0.28723259  0.16625587  0.14218115  1
  Li  Li7  1  0.11282645  0.46032626  0.02122755  1
