# generated using pymatgen
data_LiF
_symmetry_space_group_name_H-M   'P 1'
_cell_length_a   8.17473455
_cell_length_b   8.17473455
_cell_length_c   16.29169172
_cell_angle_alpha   90.00000000
_cell_angle_beta   90.00000000
_cell_angle_gamma   120.00000000
_symmetry_Int_Tables_number   1
_chemical_formula_structural   LiF
_chemical_formula_sum   'Li27 F27'
_cell_volume   942.85331739
_cell_formula_units_Z   27
loop_
 _symmetry_equiv_pos_site_id
 _symmetry_equiv_pos_as_xyz
  1  'x, y, z'
loop_
 _atom_site_type_symbol
 _atom_site_label
 _atom_site_symmetry_multiplicity
 _atom_site_fract_x
 _atom_site_fract_y
 _atom_site_fract_z
 _atom_site_occupancy
  F  F0  1  0.07644447  0.31452707  0.90775024  1
  F  F1  1  0.68547293  0.76191741  0.90775024  1
  F  F2  1  0.23808259  0.92355553  0.90775024  1
  F  F3  1  0.07644447  0.31452707  0.09224976  1
  F  F4  1  0.68547293  0.76191741  0.09224976  1
  F  F5  1  0.23808259  0.92355553  0.09224976  1
  F  F6  1  0.31452707  0.07644447  0.09224976  1
  F  F7  1  0.76191741  0.68547293  0.09224976  1
  F  F8  1  0.92355553  0.23808259  0.09224976  1
  F  F9  1  0.31452707  0.07644447  0.90775024  1
  F  F10  1  0.76191741  0.68547293  0.90775024  1
  F  F11  1  0.92355553  0.23808259  0.90775024  1
  F  F12  1  0.71128281  0.16314226  0.25208319  1
  F  F13  1  0.83685774  0.54814054  0.25208319  1
  F  F14  1  0.45185946  0.28871719  0.25208319  1
  F  F15  1  0.71128281  0.16314226  0.74791681  1
  F  F16  1  0.83685774  0.54814054  0.74791681  1
  F  F17  1  0.45185946  0.28871719  0.74791681  1
  F  F18  1  0.16314226  0.71128281  0.74791681  1
  F  F19  1  0.54814054  0.83685774  0.74791681  1
  F  F20  1  0.28871719  0.45185946  0.74791681  1
  F  F21  1  0.16314226  0.71128281  0.25208319  1
  F  F22  1  0.54814054  0.83685774  0.25208319  1
  F  F23  1  0.28871719  0.45185946  0.25208319  1
  F  F24  1  0.41979840  0.00000000  0.50000000  1
  F  F25  1  0.00000000  0.41979840  0.50000000  1
  F  F26  1  0.58020160  0.58020160  0.50000000  1
  Li  Li27  1  0.00000000  0.00000000  0.00000000  1
  Li  Li28  1  0.21301014  0.00000000  0.28169772  1
  Li  Li29  1  0.00000000  0.21301014  0.28169772  1
  Li  Li30  1  0.78698986  0.78698986  0.28169772  1
  Li  Li31  1  0.21301014  0.00000000  0.71830228  1
  Li  Li32  1  0.00000000  0.21301014  0.71830228  1
  Li  Li33  1  0.78698986  0.78698986  0.71830228  1
  Li  Li34  1  0.32483491  0.00000000  -0.00000000  1
  Li  Li35  1  0.00000000  0.32483491  -0.00000000  1
  Li  Li36  1  0.67516509  0.67516509  0.00000000  1
  Li  Li37  1  0.00000000  0.00000000  0.50000000  1
  Li  Li38  1  0.33333333  0.66666667  0.79154284  1
  Li  Li39  1  0.33333333  0.66666667  0.20845716  1
  Li  Li40  1  0.66666667  0.33333333  0.20845716  1
  Li  Li41  1  0.66666667  0.33333333  0.79154284  1
  Li  Li42  1  0.44445433  0.17832479  0.91273107  1
  Li  Li43  1  -0.17832479  0.26612954  0.91273107  1
  Li  Li44  1  -0.26612954  -0.44445433  0.91273107  1
  Li  Li45  1  0.44445433  0.17832479  -0.91273107  1
  Li  Li46  1  -0.17832479  0.26612954  -0.91273107  1
  Li  Li47  1  -0.26612954  -0.44445433  -0.91273107  1
  Li  Li48  1  0.17832479  0.44445433  -0.91273107  1
  Li  Li49  1  0.26612954  -0.17832479  -0.91273107  1
  Li  Li50  1  -0.44445433  -0.26612954  -0.91273107  1
  Li  Li51  1  0.17832479  0.44445433  0.91273107  1
  Li  Li52  1  0.26612954  -0.17832479  0.91273107  1
  Li  Li53  1  -0.44445433  -0.26612954  0.91273107  1
