# generated using pymatgen
data_LiF
_symmetry_space_group_name_H-M   'P 1'
_cell_length_a   12.50913252
_cell_length_b   14.94034898
_cell_length_c   8.01271171
_cell_angle_alpha   90.00000000
_cell_angle_beta   90.00000000
_cell_angle_gamma   90.00000000
_symmetry_Int_Tables_number   1
_chemical_formula_structural   LiF
_chemical_formula_sum   'Li52 F52'
_cell_volume   1497.50214430
_cell_formula_units_Z   52
loop_
 _symmetry_equiv_pos_site_id
 _symmetry_equiv_pos_as_xyz
  1  'x, y, z'
loop_
 _atom_site_type_symbol
 _atom_site_label
 _atom_site_symmetry_multiplicity
 _atom_site_fract_x
 _atom_site_fract_y
 _atom_site_fract_z
 _atom_site_occupancy
  F  F0  1  0.19114153  0.25000000  0.97655971  1
  F  F1  1  0.30885847  0.75000000  0.47655971  1
  F  F2  1  0.80885847  0.75000000  0.02344029  1
  F  F3  1  0.69114153  0.25000000  0.52344029  1
  F  F4  1  0.29499445  0.63008716  0.55178295  1
  F  F5  1  0.20500555  0.36991284  0.05178295  1
  F  F6  1  0.70500555  0.13008716  0.44821705  1
  F  F7  1  0.79499445  0.86991284  0.94821705  1
  F  F8  1  0.70500555  0.36991284  0.44821705  1
  F  F9  1  0.79499445  0.63008716  0.94821705  1
  F  F10  1  0.29499445  0.86991284  0.55178295  1
  F  F11  1  0.20500555  0.13008716  0.05178295  1
  F  F12  1  0.26487054  0.59093256  0.50421222  1
  F  F13  1  0.23512946  0.40906744  0.00421222  1
  F  F14  1  0.73512946  0.09093256  0.49578778  1
  F  F15  1  0.76487054  0.90906744  0.99578778  1
  F  F16  1  0.73512946  0.40906744  0.49578778  1
  F  F17  1  0.76487054  0.59093256  0.99578778  1
  F  F18  1  0.26487054  0.90906744  0.50421222  1
  F  F19  1  0.23512946  0.09093256  0.00421222  1
  F  F20  1  0.19564129  0.42835968  0.85196165  1
  F  F21  1  0.30435871  0.57164032  0.35196165  1
  F  F22  1  0.80435871  0.92835968  0.14803835  1
  F  F23  1  0.69564129  0.07164032  0.64803835  1
  F  F24  1  0.80435871  0.57164032  0.14803835  1
  F  F25  1  0.69564129  0.42835968  0.64803835  1
  F  F26  1  0.19564129  0.07164032  0.85196165  1
  F  F27  1  0.30435871  0.92835968  0.35196165  1
  F  F28  1  0.08508694  0.22041259  0.66822842  1
  F  F29  1  0.41491306  0.77958741  0.16822842  1
  F  F30  1  0.91491306  0.72041259  0.33177158  1
  F  F31  1  0.58508694  0.27958741  0.83177158  1
  F  F32  1  0.91491306  0.77958741  0.33177158  1
  F  F33  1  0.58508694  0.22041259  0.83177158  1
  F  F34  1  0.08508694  0.27958741  0.66822842  1
  F  F35  1  0.41491306  0.72041259  0.16822842  1
  F  F36  1  0.88948890  0.08172356  0.78291956  1
  F  F37  1  0.61051110  0.91827644  0.28291956  1
  F  F38  1  0.11051110  0.58172356  0.21708044  1
  F  F39  1  0.38948890  0.41827644  0.71708044  1
  F  F40  1  0.11051110  0.91827644  0.21708044  1
  F  F41  1  0.38948890  0.08172356  0.71708044  1
  F  F42  1  0.88948890  0.41827644  0.78291956  1
  F  F43  1  0.61051110  0.58172356  0.28291956  1
  F  F44  1  0.96559445  0.62758155  0.82129385  1
  F  F45  1  0.53440555  0.37241845  0.32129385  1
  F  F46  1  0.03440555  0.12758155  0.17870615  1
  F  F47  1  0.46559445  0.87241845  0.67870615  1
  F  F48  1  0.03440555  0.37241845  0.17870615  1
  F  F49  1  0.46559445  0.62758155  0.67870615  1
  F  F50  1  0.96559445  0.87241845  0.82129385  1
  F  F51  1  0.53440555  0.12758155  0.32129385  1
  Li  Li52  1  0.72269762  0.50088823  0.51855547  1
  Li  Li53  1  -0.22269762  -0.50088823  1.01855547  1
  Li  Li54  1  -0.72269762  1.00088823  -0.51855547  1
  Li  Li55  1  1.22269762  -0.00088823  -0.01855547  1
  Li  Li56  1  -0.72269762  -0.50088823  -0.51855547  1
  Li  Li57  1  1.22269762  0.50088823  -0.01855547  1
  Li  Li58  1  0.72269762  -0.00088823  0.51855547  1
  Li  Li59  1  -0.22269762  1.00088823  1.01855547  1
  Li  Li60  1  0.00000000  0.00000000  0.00000000  1
  Li  Li61  1  0.50000000  0.00000000  0.50000000  1
  Li  Li62  1  0.00000000  0.50000000  0.00000000  1
  Li  Li63  1  0.50000000  0.50000000  0.50000000  1
  Li  Li64  1  0.00000000  0.00000000  0.50000000  1
  Li  Li65  1  0.50000000  0.00000000  0.00000000  1
  Li  Li66  1  0.00000000  0.50000000  0.50000000  1
  Li  Li67  1  0.50000000  0.50000000  0.00000000  1
  Li  Li68  1  0.85285200  0.04488312  0.65439745  1
  Li  Li69  1  0.64714800  0.95511688  0.15439745  1
  Li  Li70  1  0.14714800  0.54488312  0.34560255  1
  Li  Li71  1  0.35285200  0.45511688  0.84560255  1
  Li  Li72  1  0.14714800  0.95511688  0.34560255  1
  Li  Li73  1  0.35285200  0.04488312  0.84560255  1
  Li  Li74  1  0.85285200  0.45511688  0.65439745  1
  Li  Li75  1  0.64714800  0.54488312  0.15439745  1
  Li  Li76  1  0.59710563  0.64879727  0.62546098  1
  Li  Li77  1  0.90289437  0.35120273  0.12546098  1
  Li  Li78  1  0.40289437  0.14879727  0.37453902  1
  Li  Li79  1  0.09710563  0.85120273  0.87453902  1
  Li  Li80  1  0.40289437  0.35120273  0.37453902  1
  Li  Li81  1  0.09710563  0.64879727  0.87453902  1
  Li  Li82  1  0.59710563  0.85120273  0.62546098  1
  Li  Li83  1  0.90289437  0.14879727  0.12546098  1
  Li  Li84  1  0.30411886  0.67188427  0.64360730  1
  Li  Li85  1  0.19588114  0.32811573  0.14360730  1
  Li  Li86  1  0.69588114  0.17188427  0.35639270  1
  Li  Li87  1  0.80411886  0.82811573  0.85639270  1
  Li  Li88  1  0.69588114  0.32811573  0.35639270  1
  Li  Li89  1  0.80411886  0.67188427  0.85639270  1
  Li  Li90  1  0.30411886  0.82811573  0.64360730  1
  Li  Li91  1  0.19588114  0.17188427  0.14360730  1
  Li  Li92  1  0.45106761  0.25000000  0.88918627  1
  Li  Li93  1  0.04893239  0.75000000  0.38918627  1
  Li  Li94  1  0.54893239  0.75000000  0.11081373  1
  Li  Li95  1  0.95106761  0.25000000  0.61081373  1
  Li  Li96  1  0.39496120  0.09914807  0.06341089  1
  Li  Li97  1  0.10503880  0.90085193  0.56341089  1
  Li  Li98  1  0.60503880  0.59914807  0.93658911  1
  Li  Li99  1  0.89496120  0.40085193  0.43658911  1
  Li  Li100  1  0.60503880  0.90085193  0.93658911  1
  Li  Li101  1  0.89496120  0.09914807  0.43658911  1
  Li  Li102  1  0.39496120  0.40085193  0.06341089  1
  Li  Li103  1  0.10503880  0.59914807  0.56341089  1
