# generated using pymatgen
data_LiF
_symmetry_space_group_name_H-M   'P 1'
_cell_length_a   20.39835123
_cell_length_b   20.39835123
_cell_length_c   5.17854801
_cell_angle_alpha   90.00000000
_cell_angle_beta   90.00000000
_cell_angle_gamma   90.00000000
_symmetry_Int_Tables_number   1
_chemical_formula_structural   LiF
_chemical_formula_sum   'Li64 F64'
_cell_volume   2154.75619350
_cell_formula_units_Z   64
loop_
 _symmetry_equiv_pos_site_id
 _symmetry_equiv_pos_as_xyz
  1  'x, y, z'
loop_
 _atom_site_type_symbol
 _atom_site_label
 _atom_site_symmetry_multiplicity
 _atom_site_fract_x
 _atom_site_fract_y
 _atom_site_fract_z
 _atom_site_occupancy
  F  F0  1  0.69958558  0.45975307  0.95165260  1
  F  F1  1  -0.19958558  -0.45975307  1.45165260  1
  F  F2  1  -0.20975307  1.44958558  1.20165260  1
  F  F3  1  0.70975307  -0.44958558  1.70165260  1
  F  F4  1  -0.19958558  0.45975307  -0.95165260  1
  F  F5  1  0.69958558  -0.45975307  -0.45165260  1
  F  F6  1  0.70975307  1.44958558  -0.20165260  1
  F  F7  1  -0.20975307  -0.44958558  -0.70165260  1
  F  F8  1  -0.69958558  -0.45975307  -0.95165260  1
  F  F9  1  1.19958558  0.45975307  -0.45165260  1
  F  F10  1  1.20975307  -0.44958558  -0.20165260  1
  F  F11  1  0.29024693  1.44958558  -0.70165260  1
  F  F12  1  1.19958558  -0.45975307  0.95165260  1
  F  F13  1  -0.69958558  0.45975307  1.45165260  1
  F  F14  1  0.29024693  -0.44958558  1.20165260  1
  F  F15  1  1.20975307  1.44958558  1.70165260  1
  F  F16  1  1.19958558  0.95975307  1.45165260  1
  F  F17  1  0.30041442  0.04024693  1.95165260  1
  F  F18  1  0.29024693  1.94958558  1.70165260  1
  F  F19  1  1.20975307  0.05041442  2.20165260  1
  F  F20  1  0.30041442  0.95975307  -0.45165260  1
  F  F21  1  1.19958558  0.04024693  0.04834740  1
  F  F22  1  1.20975307  1.94958558  0.29834740  1
  F  F23  1  0.29024693  0.05041442  -0.20165260  1
  F  F24  1  -0.19958558  0.04024693  -0.45165260  1
  F  F25  1  1.69958558  0.95975307  0.04834740  1
  F  F26  1  1.70975307  0.05041442  0.29834740  1
  F  F27  1  0.79024693  1.94958558  -0.20165260  1
  F  F28  1  1.69958558  0.04024693  1.45165260  1
  F  F29  1  -0.19958558  0.95975307  1.95165260  1
  F  F30  1  0.79024693  0.05041442  1.70165260  1
  F  F31  1  1.70975307  1.94958558  2.20165260  1
  F  F32  1  0.55019411  0.95703763  0.76554904  1
  F  F33  1  0.94980589  0.04296237  0.26554904  1
  F  F34  1  0.29296237  0.30019411  0.01554904  1
  F  F35  1  0.20703763  0.69980589  0.51554904  1
  F  F36  1  0.94980589  0.95703763  0.23445096  1
  F  F37  1  0.55019411  0.04296237  0.73445096  1
  F  F38  1  0.20703763  0.30019411  0.98445096  1
  F  F39  1  0.29296237  0.69980589  0.48445096  1
  F  F40  1  0.44980589  0.04296237  0.23445096  1
  F  F41  1  0.05019411  0.95703763  0.73445096  1
  F  F42  1  0.70703763  0.69980589  0.98445096  1
  F  F43  1  0.79296237  0.30019411  0.48445096  1
  F  F44  1  0.05019411  0.04296237  0.76554904  1
  F  F45  1  0.44980589  0.95703763  0.26554904  1
  F  F46  1  0.79296237  0.69980589  0.01554904  1
  F  F47  1  0.70703763  0.30019411  0.51554904  1
  F  F48  1  0.05019411  0.45703763  0.26554904  1
  F  F49  1  0.44980589  0.54296237  0.76554904  1
  F  F50  1  0.79296237  0.80019411  0.51554904  1
  F  F51  1  0.70703763  0.19980589  0.01554904  1
  F  F52  1  0.44980589  0.45703763  0.73445096  1
  F  F53  1  0.05019411  0.54296237  0.23445096  1
  F  F54  1  0.70703763  0.80019411  0.48445096  1
  F  F55  1  0.79296237  0.19980589  0.98445096  1
  F  F56  1  0.94980589  0.54296237  0.73445096  1
  F  F57  1  0.55019411  0.45703763  0.23445096  1
  F  F58  1  0.20703763  0.19980589  0.48445096  1
  F  F59  1  0.29296237  0.80019411  0.98445096  1
  F  F60  1  0.55019411  0.54296237  0.26554904  1
  F  F61  1  0.94980589  0.45703763  0.76554904  1
  F  F62  1  0.29296237  0.19980589  0.51554904  1
  F  F63  1  0.20703763  0.80019411  0.01554904  1
  Li  Li64  1  0.00000000  0.25000000  0.12500000  1
  Li  Li65  1  0.00000000  0.75000000  0.37500000  1
  Li  Li66  1  0.00000000  0.75000000  0.87500000  1
  Li  Li67  1  0.00000000  0.25000000  0.62500000  1
  Li  Li68  1  0.50000000  0.75000000  0.62500000  1
  Li  Li69  1  0.50000000  0.25000000  0.87500000  1
  Li  Li70  1  0.50000000  0.25000000  0.37500000  1
  Li  Li71  1  0.50000000  0.75000000  0.12500000  1
  Li  Li72  1  0.09769234  0.00000000  0.25000000  1
  Li  Li73  1  0.40230766  0.00000000  0.75000000  1
  Li  Li74  1  0.25000000  0.84769234  0.50000000  1
  Li  Li75  1  0.25000000  0.15230766  0.00000000  1
  Li  Li76  1  0.90230766  -0.00000000  0.75000000  1
  Li  Li77  1  0.59769234  0.00000000  0.25000000  1
  Li  Li78  1  0.75000000  0.15230766  0.50000000  1
  Li  Li79  1  0.75000000  0.84769234  0.00000000  1
  Li  Li80  1  0.59769234  0.50000000  0.75000000  1
  Li  Li81  1  0.90230766  0.50000000  0.25000000  1
  Li  Li82  1  0.75000000  0.34769234  0.00000000  1
  Li  Li83  1  0.75000000  0.65230766  0.50000000  1
  Li  Li84  1  0.40230766  0.50000000  0.25000000  1
  Li  Li85  1  0.09769234  0.50000000  0.75000000  1
  Li  Li86  1  0.25000000  0.65230766  0.00000000  1
  Li  Li87  1  0.25000000  0.34769234  0.50000000  1
  Li  Li88  1  0.70880638  0.00000000  0.25000000  1
  Li  Li89  1  0.79119362  0.00000000  0.75000000  1
  Li  Li90  1  0.25000000  0.45880638  0.50000000  1
  Li  Li91  1  0.25000000  0.54119362  0.00000000  1
  Li  Li92  1  0.29119362  0.00000000  0.75000000  1
  Li  Li93  1  0.20880638  0.00000000  0.25000000  1
  Li  Li94  1  0.75000000  0.54119362  0.50000000  1
  Li  Li95  1  0.75000000  0.45880638  0.00000000  1
  Li  Li96  1  0.20880638  0.50000000  0.75000000  1
  Li  Li97  1  0.29119362  0.50000000  0.25000000  1
  Li  Li98  1  0.75000000  0.95880638  0.00000000  1
  Li  Li99  1  0.75000000  0.04119362  0.50000000  1
  Li  Li100  1  0.79119362  0.50000000  0.25000000  1
  Li  Li101  1  0.70880638  0.50000000  0.75000000  1
  Li  Li102  1  0.25000000  0.04119362  0.00000000  1
  Li  Li103  1  0.25000000  0.95880638  0.50000000  1
  Li  Li104  1  0.18967864  0.43967864  0.12500000  1
  Li  Li105  1  0.31032136  0.56032136  0.62500000  1
  Li  Li106  1  0.81032136  0.93967864  0.37500000  1
  Li  Li107  1  0.68967864  0.06032136  0.87500000  1
  Li  Li108  1  0.81032136  0.56032136  0.87500000  1
  Li  Li109  1  0.68967864  0.43967864  0.37500000  1
  Li  Li110  1  0.18967864  0.06032136  0.62500000  1
  Li  Li111  1  0.31032136  0.93967864  0.12500000  1
  Li  Li112  1  0.68967864  0.93967864  0.62500000  1
  Li  Li113  1  0.81032136  0.06032136  0.12500000  1
  Li  Li114  1  0.31032136  0.43967864  0.87500000  1
  Li  Li115  1  0.18967864  0.56032136  0.37500000  1
  Li  Li116  1  0.31032136  0.06032136  0.37500000  1
  Li  Li117  1  0.18967864  0.93967864  0.87500000  1
  Li  Li118  1  0.68967864  0.56032136  0.12500000  1
  Li  Li119  1  0.81032136  0.43967864  0.62500000  1
  Li  Li120  1  0.00000000  0.25000000  0.37500000  1
  Li  Li121  1  0.00000000  0.75000000  0.62500000  1
  Li  Li122  1  0.50000000  0.25000000  0.62500000  1
  Li  Li123  1  0.50000000  0.75000000  0.37500000  1
  Li  Li124  1  0.50000000  0.75000000  0.87500000  1
  Li  Li125  1  0.50000000  0.25000000  0.12500000  1
  Li  Li126  1  0.00000000  0.75000000  0.12500000  1
  Li  Li127  1  0.00000000  0.25000000  0.87500000  1
