# generated using pymatgen
data_LiF
_symmetry_space_group_name_H-M   'P 1'
_cell_length_a   10.68637334
_cell_length_b   6.72046788
_cell_length_c   11.27479515
_cell_angle_alpha   90.00000000
_cell_angle_beta   90.00000000
_cell_angle_gamma   90.00000000
_symmetry_Int_Tables_number   1
_chemical_formula_structural   LiF
_chemical_formula_sum   'Li24 F24'
_cell_volume   809.72679889
_cell_formula_units_Z   24
loop_
 _symmetry_equiv_pos_site_id
 _symmetry_equiv_pos_as_xyz
  1  'x, y, z'
loop_
 _atom_site_type_symbol
 _atom_site_label
 _atom_site_symmetry_multiplicity
 _atom_site_fract_x
 _atom_site_fract_y
 _atom_site_fract_z
 _atom_site_occupancy
  F  F0  1  0.31922255  0.09210172  0.75142743  1
  F  F1  1  0.18077745  0.90789828  0.25142743  1
  F  F2  1  0.68077745  0.59210172  0.24857257  1
  F  F3  1  0.81922255  0.40789828  0.74857257  1
  F  F4  1  0.68077745  0.90789828  0.24857257  1
  F  F5  1  0.81922255  0.09210172  0.74857257  1
  F  F6  1  0.31922255  0.40789828  0.75142743  1
  F  F7  1  0.18077745  0.59210172  0.25142743  1
  F  F8  1  0.25484499  0.44835587  0.25571748  1
  F  F9  1  0.24515501  0.55164413  0.75571748  1
  F  F10  1  0.74515501  0.94835587  0.74428252  1
  F  F11  1  0.75484499  0.05164413  0.24428252  1
  F  F12  1  0.74515501  0.55164413  0.74428252  1
  F  F13  1  0.75484499  0.44835587  0.24428252  1
  F  F14  1  0.25484499  0.05164413  0.25571748  1
  F  F15  1  0.24515501  0.94835587  0.75571748  1
  F  F16  1  0.44645371  0.25000000  0.68716439  1
  F  F17  1  0.05354629  0.75000000  0.18716439  1
  F  F18  1  0.55354629  0.75000000  0.31283561  1
  F  F19  1  0.94645371  0.25000000  0.81283561  1
  F  F20  1  0.82064435  0.25000000  0.28501564  1
  F  F21  1  0.67935565  0.75000000  0.78501564  1
  F  F22  1  0.17935565  0.75000000  0.71498436  1
  F  F23  1  0.32064435  0.25000000  0.21498436  1
  Li  Li24  1  0.00000000  0.00000000  0.00000000  1
  Li  Li25  1  0.50000000  0.00000000  0.50000000  1
  Li  Li26  1  0.00000000  0.50000000  0.00000000  1
  Li  Li27  1  0.50000000  0.50000000  0.50000000  1
  Li  Li28  1  0.23016296  0.85481439  0.37362056  1
  Li  Li29  1  0.26983704  -0.85481439  0.87362056  1
  Li  Li30  1  -0.23016296  1.35481439  -0.37362056  1
  Li  Li31  1  0.73016296  -0.35481439  0.12637944  1
  Li  Li32  1  -0.23016296  -0.85481439  -0.37362056  1
  Li  Li33  1  0.73016296  0.85481439  0.12637944  1
  Li  Li34  1  0.23016296  -0.35481439  0.37362056  1
  Li  Li35  1  0.26983704  1.35481439  0.87362056  1
  Li  Li36  1  0.49054707  0.25000000  0.22381179  1
  Li  Li37  1  0.00945293  0.75000000  0.72381179  1
  Li  Li38  1  0.50945293  0.75000000  0.77618821  1
  Li  Li39  1  0.99054707  0.25000000  0.27618821  1
  Li  Li40  1  0.79117957  0.25000000  0.78727116  1
  Li  Li41  1  0.70882043  0.75000000  0.28727116  1
  Li  Li42  1  0.20882043  0.75000000  0.21272884  1
  Li  Li43  1  0.29117957  0.25000000  0.71272884  1
  Li  Li44  1  0.00000000  0.00000000  0.50000000  1
  Li  Li45  1  0.50000000  0.00000000  0.00000000  1
  Li  Li46  1  0.00000000  0.50000000  0.50000000  1
  Li  Li47  1  0.50000000  0.50000000  -0.00000000  1
