# generated using pymatgen
data_Li3Y2MoP3Se2
_symmetry_space_group_name_H-M   'P 1'
_cell_length_a   6.47984264
_cell_length_b   6.70959381
_cell_length_c   7.67572434
_cell_angle_alpha   92.18138502
_cell_angle_beta   94.75060308
_cell_angle_gamma   98.76175666
_symmetry_Int_Tables_number   1
_chemical_formula_structural   Li3Y2MoP3Se2
_chemical_formula_sum   'Li3 Y2 Mo1 P3 Se2'
_cell_volume   328.25546796
_cell_formula_units_Z   1
loop_
 _symmetry_equiv_pos_site_id
 _symmetry_equiv_pos_as_xyz
  1  'x, y, z'
loop_
 _atom_site_type_symbol
 _atom_site_label
 _atom_site_symmetry_multiplicity
 _atom_site_fract_x
 _atom_site_fract_y
 _atom_site_fract_z
 _atom_site_occupancy
  Se  Se0  1  0.00000000  0.00000000  0.00000000  1
  Se  Se1  1  0.50000000  0.50000000  0.50000000  1
  P  P2  1  0.50000000  0.50000000  0.00000000  1
  P  P3  1  0.50000000  0.00000000  0.50000000  1
  P  P4  1  0.00000000  0.50000000  0.50000000  1
  Mo  Mo5  1  0.04242252  0.92267341  0.09396014  1
  Li  Li6  1  0.49329794  0.10475452  0.60821440  1
  Li  Li7  1  0.64619289  0.34255173  0.46814504  1
  Li  Li8  1  0.77499608  0.00320767  0.81582435  1
  Y  Y9  1  0.56122637  0.91302466  0.26270199  1
  Y  Y10  1  0.38914067  0.89747313  0.65566381  1
