# generated using pymatgen
data_LiF
_symmetry_space_group_name_H-M   'P 1'
_cell_length_a   9.92792798
_cell_length_b   11.54014085
_cell_length_c   7.90976871
_cell_angle_alpha   90.00000000
_cell_angle_beta   90.00000000
_cell_angle_gamma   90.00000000
_symmetry_Int_Tables_number   1
_chemical_formula_structural   LiF
_chemical_formula_sum   'Li24 F24'
_cell_volume   906.21972642
_cell_formula_units_Z   24
loop_
 _symmetry_equiv_pos_site_id
 _symmetry_equiv_pos_as_xyz
  1  'x, y, z'
loop_
 _atom_site_type_symbol
 _atom_site_label
 _atom_site_symmetry_multiplicity
 _atom_site_fract_x
 _atom_site_fract_y
 _atom_site_fract_z
 _atom_site_occupancy
  F  F0  1  0.13409684  0.31137457  0.86693453  1
  F  F1  1  0.36590316  0.68862543  0.36693453  1
  F  F2  1  0.86590316  0.81137457  0.13306547  1
  F  F3  1  0.63409684  0.18862543  0.63306547  1
  F  F4  1  0.86590316  0.68862543  0.13306547  1
  F  F5  1  0.63409684  0.31137457  0.63306547  1
  F  F6  1  0.13409684  0.18862543  0.86693453  1
  F  F7  1  0.36590316  0.81137457  0.36693453  1
  F  F8  1  0.72478506  0.93256237  0.13518348  1
  F  F9  1  0.77521494  0.06743763  0.63518348  1
  F  F10  1  0.27521494  0.43256237  0.86481652  1
  F  F11  1  0.22478506  0.56743763  0.36481652  1
  F  F12  1  0.27521494  0.06743763  0.86481652  1
  F  F13  1  0.22478506  0.93256237  0.36481652  1
  F  F14  1  0.72478506  0.56743763  0.13518348  1
  F  F15  1  0.77521494  0.43256237  0.63518348  1
  F  F16  1  0.21826684  0.25000000  0.57437029  1
  F  F17  1  0.28173316  0.75000000  0.07437029  1
  F  F18  1  0.78173316  0.75000000  0.42562971  1
  F  F19  1  0.71826684  0.25000000  0.92562971  1
  F  F20  1  0.10961713  0.25000000  0.33033198  1
  F  F21  1  0.39038287  0.75000000  0.83033198  1
  F  F22  1  0.89038287  0.75000000  0.66966802  1
  F  F23  1  0.60961713  0.25000000  0.16966802  1
  Li  Li24  1  0.00000000  0.00000000  0.50000000  1
  Li  Li25  1  0.50000000  -0.00000000  0.00000000  1
  Li  Li26  1  0.00000000  0.50000000  0.50000000  1
  Li  Li27  1  0.50000000  0.50000000  0.00000000  1
  Li  Li28  1  0.04215168  0.25000000  0.99696749  1
  Li  Li29  1  0.45784832  0.75000000  0.49696749  1
  Li  Li30  1  0.95784832  0.75000000  0.00303251  1
  Li  Li31  1  0.54215168  0.25000000  0.50303251  1
  Li  Li32  1  0.61027959  0.57354841  0.62176056  1
  Li  Li33  1  -0.11027959  -0.57354841  1.12176056  1
  Li  Li34  1  -0.61027959  1.07354841  -0.62176056  1
  Li  Li35  1  1.11027959  -0.07354841  -0.12176056  1
  Li  Li36  1  -0.61027959  -0.57354841  -0.62176056  1
  Li  Li37  1  1.11027959  0.57354841  -0.12176056  1
  Li  Li38  1  0.61027959  -0.07354841  0.62176056  1
  Li  Li39  1  -0.11027959  1.07354841  1.12176056  1
  Li  Li40  1  0.00000000  0.00000000  0.00000000  1
  Li  Li41  1  0.50000000  -0.00000000  0.50000000  1
  Li  Li42  1  0.00000000  0.50000000  0.00000000  1
  Li  Li43  1  0.50000000  0.50000000  0.50000000  1
  Li  Li44  1  0.80534102  0.25000000  0.60881096  1
  Li  Li45  1  0.69465898  0.75000000  0.10881096  1
  Li  Li46  1  0.19465898  0.75000000  0.39118904  1
  Li  Li47  1  0.30534102  0.25000000  0.89118904  1
