# generated using pymatgen
data_LiF
_symmetry_space_group_name_H-M   'P 1'
_cell_length_a   12.15530529
_cell_length_b   12.15530529
_cell_length_c   10.17578285
_cell_angle_alpha   90.00000000
_cell_angle_beta   90.00000000
_cell_angle_gamma   120.00000000
_symmetry_Int_Tables_number   1
_chemical_formula_structural   LiF
_chemical_formula_sum   'Li36 F36'
_cell_volume   1302.05762257
_cell_formula_units_Z   36
loop_
 _symmetry_equiv_pos_site_id
 _symmetry_equiv_pos_as_xyz
  1  'x, y, z'
loop_
 _atom_site_type_symbol
 _atom_site_label
 _atom_site_symmetry_multiplicity
 _atom_site_fract_x
 _atom_site_fract_y
 _atom_site_fract_z
 _atom_site_occupancy
  F  F0  1  0.00000000  0.00000000  0.25000000  1
  F  F1  1  0.00000000  0.00000000  0.75000000  1
  F  F2  1  0.66666667  0.33333333  0.58333333  1
  F  F3  1  0.66666667  0.33333333  0.08333333  1
  F  F4  1  0.33333333  0.66666667  0.91666667  1
  F  F5  1  0.33333333  0.66666667  0.41666667  1
  F  F6  1  0.50000000  0.00000000  0.00000000  1
  F  F7  1  0.00000000  0.50000000  0.00000000  1
  F  F8  1  0.50000000  0.50000000  0.00000000  1
  F  F9  1  0.00000000  0.50000000  0.50000000  1
  F  F10  1  0.50000000  0.00000000  0.50000000  1
  F  F11  1  0.50000000  0.50000000  0.50000000  1
  F  F12  1  1.16666667  0.33333333  0.33333333  1
  F  F13  1  0.66666667  0.83333333  0.33333333  1
  F  F14  1  1.16666667  0.83333333  0.33333333  1
  F  F15  1  0.66666667  0.83333333  0.83333333  1
  F  F16  1  1.16666667  0.33333333  0.83333333  1
  F  F17  1  1.16666667  0.83333333  0.83333333  1
  F  F18  1  0.83333333  0.66666667  0.66666667  1
  F  F19  1  0.33333333  1.16666667  0.66666667  1
  F  F20  1  0.83333333  1.16666667  0.66666667  1
  F  F21  1  0.33333333  1.16666667  1.16666667  1
  F  F22  1  0.83333333  0.66666667  1.16666667  1
  F  F23  1  0.83333333  1.16666667  1.16666667  1
  F  F24  1  0.00000000  0.00000000  0.84717651  1
  F  F25  1  0.00000000  0.00000000  0.65282349  1
  F  F26  1  0.00000000  0.00000000  0.15282349  1
  F  F27  1  0.00000000  0.00000000  0.34717651  1
  F  F28  1  0.66666667  0.33333333  0.18050985  1
  F  F29  1  0.66666667  0.33333333  0.98615682  1
  F  F30  1  0.66666667  0.33333333  0.48615682  1
  F  F31  1  0.66666667  0.33333333  0.68050985  1
  F  F32  1  0.33333333  0.66666667  0.51384318  1
  F  F33  1  0.33333333  0.66666667  0.31949015  1
  F  F34  1  0.33333333  0.66666667  0.81949015  1
  F  F35  1  0.33333333  0.66666667  0.01384318  1
  Li  Li36  1  0.84489923  0.00000000  0.25000000  1
  Li  Li37  1  0.00000000  0.84489923  0.25000000  1
  Li  Li38  1  0.15510077  0.15510077  0.25000000  1
  Li  Li39  1  0.15510077  0.00000000  0.75000000  1
  Li  Li40  1  0.00000000  0.15510077  0.75000000  1
  Li  Li41  1  0.84489923  0.84489923  0.75000000  1
  Li  Li42  1  0.51156589  0.33333333  0.58333333  1
  Li  Li43  1  0.66666667  0.17823256  0.58333333  1
  Li  Li44  1  0.82176744  0.48843411  0.58333333  1
  Li  Li45  1  0.82176744  0.33333333  0.08333333  1
  Li  Li46  1  0.66666667  0.48843411  0.08333333  1
  Li  Li47  1  0.51156589  0.17823256  0.08333333  1
  Li  Li48  1  0.17823256  0.66666667  0.91666667  1
  Li  Li49  1  0.33333333  0.51156589  0.91666667  1
  Li  Li50  1  0.48843411  0.82176744  0.91666667  1
  Li  Li51  1  0.48843411  0.66666667  0.41666667  1
  Li  Li52  1  0.33333333  0.82176744  0.41666667  1
  Li  Li53  1  0.17823256  0.51156589  0.41666667  1
  Li  Li54  1  0.35196961  0.00000000  0.25000000  1
  Li  Li55  1  0.00000000  0.35196961  0.25000000  1
  Li  Li56  1  0.64803039  0.64803039  0.25000000  1
  Li  Li57  1  0.64803039  0.00000000  0.75000000  1
  Li  Li58  1  0.00000000  0.64803039  0.75000000  1
  Li  Li59  1  0.35196961  0.35196961  0.75000000  1
  Li  Li60  1  0.01863628  0.33333333  0.58333333  1
  Li  Li61  1  0.66666667  0.68530295  0.58333333  1
  Li  Li62  1  0.31469705  0.98136372  0.58333333  1
  Li  Li63  1  0.31469705  0.33333333  0.08333333  1
  Li  Li64  1  0.66666667  0.98136372  0.08333333  1
  Li  Li65  1  0.01863628  0.68530295  0.08333333  1
  Li  Li66  1  0.68530295  0.66666667  0.91666667  1
  Li  Li67  1  0.33333333  0.01863628  0.91666667  1
  Li  Li68  1  0.98136372  0.31469705  0.91666667  1
  Li  Li69  1  0.98136372  0.66666667  0.41666667  1
  Li  Li70  1  0.33333333  0.31469705  0.41666667  1
  Li  Li71  1  0.68530295  0.01863628  0.41666667  1
