# generated using pymatgen
data_Li4SiP4(S3Cl)4
_symmetry_space_group_name_H-M   'P 1'
_cell_length_a   9.08685882
_cell_length_b   14.06966159
_cell_length_c   8.62261168
_cell_angle_alpha   90.00000000
_cell_angle_beta   90.00000000
_cell_angle_gamma   90.00000000
_symmetry_Int_Tables_number   1
_chemical_formula_structural   Li4SiP4(S3Cl)4
_chemical_formula_sum   'Li8 Si2 P8 S24 Cl8'
_cell_volume   1102.39252619
_cell_formula_units_Z   2
loop_
 _symmetry_equiv_pos_site_id
 _symmetry_equiv_pos_as_xyz
  1  'x, y, z'
loop_
 _atom_site_type_symbol
 _atom_site_label
 _atom_site_symmetry_multiplicity
 _atom_site_fract_x
 _atom_site_fract_y
 _atom_site_fract_z
 _atom_site_occupancy
  Cl  Cl0  1  0.00000000  0.00000000  0.00000000  1
  Cl  Cl1  1  0.50000000  0.50000000  0.00000000  1
  Cl  Cl2  1  0.48248268  0.32505745  0.50000000  1
  Cl  Cl3  1  0.51751732  0.67494255  0.50000000  1
  Cl  Cl4  1  0.01751732  0.82505745  0.50000000  1
  Cl  Cl5  1  0.98248268  0.17494255  0.50000000  1
  Cl  Cl6  1  0.00000000  0.50000000  0.00000000  1
  Cl  Cl7  1  0.50000000  0.00000000  0.00000000  1
  Li  Li8  1  0.10464814  0.11307000  0.50000000  1
  Li  Li9  1  0.89535186  0.88693000  0.50000000  1
  Li  Li10  1  0.39535186  0.61307000  0.50000000  1
  Li  Li11  1  0.60464814  0.38693000  0.50000000  1
  Li  Li12  1  0.43635956  0.61016842  0.00000000  1
  Li  Li13  1  0.56364044  0.38983158  0.00000000  1
  Li  Li14  1  0.06364044  0.11016842  0.00000000  1
  Li  Li15  1  0.93635956  0.88983158  0.00000000  1
  P  P16  1  0.50871695  0.25798255  0.66815439  1
  P  P17  1  -0.50871695  -0.25798255  0.66815439  1
  P  P18  1  -0.00871695  0.75798255  -0.66815439  1
  P  P19  1  1.00871695  0.24201745  -0.66815439  1
  P  P20  1  -0.50871695  -0.25798255  -0.66815439  1
  P  P21  1  0.50871695  0.25798255  -0.66815439  1
  P  P22  1  1.00871695  0.24201745  0.66815439  1
  P  P23  1  -0.00871695  0.75798255  0.66815439  1
  S  S24  1  0.68507918  0.12485025  0.39085683  1
  S  S25  1  0.31492082  0.87514975  0.39085683  1
  S  S26  1  0.81492082  0.62485025  0.60914317  1
  S  S27  1  0.18507918  0.37514975  0.60914317  1
  S  S28  1  0.31492082  0.87514975  0.60914317  1
  S  S29  1  0.68507918  0.12485025  0.60914317  1
  S  S30  1  0.18507918  0.37514975  0.39085683  1
  S  S31  1  0.81492082  0.62485025  0.39085683  1
  S  S32  1  0.34750039  0.27965482  0.30239017  1
  S  S33  1  0.65249961  0.72034518  0.30239017  1
  S  S34  1  0.15249961  0.77965482  0.69760983  1
  S  S35  1  0.84750039  0.22034518  0.69760983  1
  S  S36  1  0.65249961  0.72034518  0.69760983  1
  S  S37  1  0.34750039  0.27965482  0.69760983  1
  S  S38  1  0.84750039  0.22034518  0.30239017  1
  S  S39  1  0.15249961  0.77965482  0.30239017  1
  S  S40  1  0.00000000  0.00000000  0.30870797  1
  S  S41  1  0.50000000  0.50000000  0.69129203  1
  S  S42  1  0.00000000  0.00000000  0.69129203  1
  S  S43  1  0.50000000  0.50000000  0.30870797  1
  S  S44  1  0.35441157  0.41461565  0.50000000  1
  S  S45  1  0.64558843  0.58538435  0.50000000  1
  S  S46  1  0.14558843  0.91461565  0.50000000  1
  S  S47  1  0.85441157  0.08538435  0.50000000  1
  Si  Si48  1  0.00000000  0.50000000  0.50000000  1
  Si  Si49  1  0.50000000  0.00000000  0.50000000  1
