# generated using pymatgen
data_LiF
_symmetry_space_group_name_H-M   'P 1'
_cell_length_a   14.73120106
_cell_length_b   14.73120106
_cell_length_c   12.19958844
_cell_angle_alpha   90.00000000
_cell_angle_beta   90.00000000
_cell_angle_gamma   120.00000000
_symmetry_Int_Tables_number   1
_chemical_formula_structural   LiF
_chemical_formula_sum   'Li108 F108'
_cell_volume   2292.72583915
_cell_formula_units_Z   108
loop_
 _symmetry_equiv_pos_site_id
 _symmetry_equiv_pos_as_xyz
  1  'x, y, z'
loop_
 _atom_site_type_symbol
 _atom_site_label
 _atom_site_symmetry_multiplicity
 _atom_site_fract_x
 _atom_site_fract_y
 _atom_site_fract_z
 _atom_site_occupancy
  F  F0  1  0.50000000  -0.00000000  0.00000000  1
  F  F1  1  0.00000000  0.50000000  0.00000000  1
  F  F2  1  0.50000000  0.50000000  0.00000000  1
  F  F3  1  0.00000000  0.50000000  0.50000000  1
  F  F4  1  0.50000000  -0.00000000  0.50000000  1
  F  F5  1  0.50000000  0.50000000  0.50000000  1
  F  F6  1  0.16666667  0.33333333  0.33333333  1
  F  F7  1  0.66666667  0.83333333  0.33333333  1
  F  F8  1  0.16666667  0.83333333  0.33333333  1
  F  F9  1  0.66666667  0.83333333  0.83333333  1
  F  F10  1  0.16666667  0.33333333  0.83333333  1
  F  F11  1  0.16666667  0.83333333  0.83333333  1
  F  F12  1  0.83333333  0.66666667  0.66666667  1
  F  F13  1  0.33333333  0.16666667  0.66666667  1
  F  F14  1  0.83333333  0.16666667  0.66666667  1
  F  F15  1  0.33333333  0.16666667  0.16666667  1
  F  F16  1  0.83333333  0.66666667  0.16666667  1
  F  F17  1  0.83333333  0.16666667  0.16666667  1
  F  F18  1  0.25613422  0.55302907  0.97140316  1
  F  F19  1  -0.55302907  -0.29689485  0.97140316  1
  F  F20  1  0.29689485  -0.25613422  0.97140316  1
  F  F21  1  0.55302907  0.25613422  -0.47140316  1
  F  F22  1  -0.29689485  -0.55302907  -0.47140316  1
  F  F23  1  -0.25613422  0.29689485  -0.47140316  1
  F  F24  1  -0.25613422  -0.55302907  -0.97140316  1
  F  F25  1  0.55302907  0.29689485  -0.97140316  1
  F  F26  1  -0.29689485  0.25613422  -0.97140316  1
  F  F27  1  -0.55302907  -0.25613422  1.47140316  1
  F  F28  1  0.29689485  0.55302907  1.47140316  1
  F  F29  1  0.25613422  -0.29689485  1.47140316  1
  F  F30  1  0.92280089  0.88636240  1.30473649  1
  F  F31  1  0.11363760  0.03643849  1.30473649  1
  F  F32  1  0.96356151  0.07719911  1.30473649  1
  F  F33  1  1.21969574  0.58946756  -0.13806983  1
  F  F34  1  0.36977182  -0.21969574  -0.13806983  1
  F  F35  1  0.41053244  0.63022818  -0.13806983  1
  F  F36  1  0.41053244  -0.21969574  -0.63806983  1
  F  F37  1  1.21969574  0.63022818  -0.63806983  1
  F  F38  1  0.36977182  0.58946756  -0.63806983  1
  F  F39  1  0.11363760  0.07719911  1.80473649  1
  F  F40  1  0.96356151  0.88636240  1.80473649  1
  F  F41  1  0.92280089  0.03643849  1.80473649  1
  F  F42  1  0.58946756  1.21969574  1.63806983  1
  F  F43  1  -0.21969574  0.36977182  1.63806983  1
  F  F44  1  0.63022818  0.41053244  1.63806983  1
  F  F45  1  0.88636240  0.92280089  0.19526351  1
  F  F46  1  0.03643849  0.11363760  0.19526351  1
  F  F47  1  0.07719911  0.96356151  0.19526351  1
  F  F48  1  0.07719911  0.11363760  -0.30473649  1
  F  F49  1  0.88636240  0.96356151  -0.30473649  1
  F  F50  1  0.03643849  0.92280089  -0.30473649  1
  F  F51  1  -0.21969574  0.41053244  2.13806983  1
  F  F52  1  0.63022818  1.21969574  2.13806983  1
  F  F53  1  0.58946756  0.36977182  2.13806983  1
  F  F54  1  0.85271057  0.80036362  0.01772233  1
  F  F55  1  0.19963638  0.05234695  0.01772233  1
  F  F56  1  0.94765305  0.14728943  0.01772233  1
  F  F57  1  0.80036362  0.85271057  0.48227767  1
  F  F58  1  0.05234695  0.19963638  0.48227767  1
  F  F59  1  0.14728943  0.94765305  0.48227767  1
  F  F60  1  0.14728943  0.19963638  0.98227767  1
  F  F61  1  0.80036362  0.94765305  0.98227767  1
  F  F62  1  0.05234695  0.85271057  0.98227767  1
  F  F63  1  0.19963638  0.14728943  0.51772233  1
  F  F64  1  0.94765305  0.80036362  0.51772233  1
  F  F65  1  0.85271057  0.05234695  0.51772233  1
  F  F66  1  0.51937724  0.13369695  0.35105566  1
  F  F67  1  0.86630305  0.38568028  0.35105566  1
  F  F68  1  0.61431972  0.48062276  0.35105566  1
  F  F69  1  0.46703029  0.18604390  0.81561100  1
  F  F70  1  0.71901362  0.53296971  0.81561100  1
  F  F71  1  0.81395610  0.28098638  0.81561100  1
  F  F72  1  0.81395610  0.53296971  0.31561100  1
  F  F73  1  0.46703029  0.28098638  0.31561100  1
  F  F74  1  0.71901362  0.18604390  0.31561100  1
  F  F75  1  0.86630305  0.48062276  0.85105566  1
  F  F76  1  0.61431972  0.13369695  0.85105566  1
  F  F77  1  0.51937724  0.38568028  0.85105566  1
  F  F78  1  0.18604390  0.46703029  0.68438900  1
  F  F79  1  0.53296971  0.71901362  0.68438900  1
  F  F80  1  0.28098638  0.81395610  0.68438900  1
  F  F81  1  0.13369695  0.51937724  0.14894434  1
  F  F82  1  0.38568028  0.86630305  0.14894434  1
  F  F83  1  0.48062276  0.61431972  0.14894434  1
  F  F84  1  0.48062276  0.86630305  0.64894434  1
  F  F85  1  0.13369695  0.61431972  0.64894434  1
  F  F86  1  0.38568028  0.51937724  0.64894434  1
  F  F87  1  0.53296971  0.81395610  0.18438900  1
  F  F88  1  0.28098638  0.46703029  0.18438900  1
  F  F89  1  0.18604390  0.71901362  0.18438900  1
  F  F90  1  0.00000000  0.00000000  0.22084122  1
  F  F91  1  0.00000000  0.00000000  0.27915878  1
  F  F92  1  0.00000000  0.00000000  0.77915878  1
  F  F93  1  0.00000000  0.00000000  0.72084122  1
  F  F94  1  0.66666667  0.33333333  0.55417455  1
  F  F95  1  0.66666667  0.33333333  0.61249212  1
  F  F96  1  0.66666667  0.33333333  0.11249212  1
  F  F97  1  0.66666667  0.33333333  0.05417455  1
  F  F98  1  0.33333333  0.66666667  0.88750788  1
  F  F99  1  0.33333333  0.66666667  0.94582545  1
  F  F100  1  0.33333333  0.66666667  0.44582545  1
  F  F101  1  0.33333333  0.66666667  0.38750788  1
  F  F102  1  0.00000000  0.00000000  0.00000000  1
  F  F103  1  0.00000000  0.00000000  0.50000000  1
  F  F104  1  0.66666667  0.33333333  0.33333333  1
  F  F105  1  0.66666667  0.33333333  0.83333333  1
  F  F106  1  0.33333333  0.66666667  0.66666667  1
  F  F107  1  0.33333333  0.66666667  0.16666667  1
  Li  Li108  1  0.78055671  0.11294305  0.85402408  1
  Li  Li109  1  0.88705695  0.66761366  0.85402408  1
  Li  Li110  1  0.33238634  0.21944329  0.85402408  1
  Li  Li111  1  0.11294305  0.78055671  0.64597592  1
  Li  Li112  1  0.66761366  0.88705695  0.64597592  1
  Li  Li113  1  0.21944329  0.33238634  0.64597592  1
  Li  Li114  1  0.21944329  0.88705695  0.14597592  1
  Li  Li115  1  0.11294305  0.33238634  0.14597592  1
  Li  Li116  1  0.66761366  0.78055671  0.14597592  1
  Li  Li117  1  0.88705695  0.21944329  0.35402408  1
  Li  Li118  1  0.33238634  0.11294305  0.35402408  1
  Li  Li119  1  0.78055671  0.66761366  0.35402408  1
  Li  Li120  1  0.44722338  0.44627639  0.18735741  1
  Li  Li121  1  0.55372361  0.00094699  0.18735741  1
  Li  Li122  1  0.99905301  0.55277662  0.18735741  1
  Li  Li123  1  0.77960972  0.11389005  0.97930926  1
  Li  Li124  1  0.33428033  0.22039028  0.97930926  1
  Li  Li125  1  0.88610995  0.66571967  0.97930926  1
  Li  Li126  1  0.88610995  0.22039028  0.47930926  1
  Li  Li127  1  0.77960972  0.66571967  0.47930926  1
  Li  Li128  1  0.33428033  0.11389005  0.47930926  1
  Li  Li129  1  0.55372361  0.55277662  0.68735741  1
  Li  Li130  1  0.99905301  0.44627639  0.68735741  1
  Li  Li131  1  0.44722338  0.00094699  0.68735741  1
  Li  Li132  1  0.11389005  0.77960972  0.52069074  1
  Li  Li133  1  0.22039028  0.33428033  0.52069074  1
  Li  Li134  1  0.66571967  0.88610995  0.52069074  1
  Li  Li135  1  0.44627639  0.44722338  0.31264259  1
  Li  Li136  1  0.00094699  0.55372361  0.31264259  1
  Li  Li137  1  0.55277662  0.99905301  0.31264259  1
  Li  Li138  1  0.55277662  0.55372361  0.81264259  1
  Li  Li139  1  0.44627639  0.99905301  0.81264259  1
  Li  Li140  1  0.00094699  0.44722338  0.81264259  1
  Li  Li141  1  0.22039028  0.88610995  0.02069074  1
  Li  Li142  1  0.66571967  0.77960972  0.02069074  1
  Li  Li143  1  0.11389005  0.33428033  0.02069074  1
  Li  Li144  1  0.48635071  0.48938488  0.59191542  1
  Li  Li145  1  0.51061512  0.99696582  0.59191542  1
  Li  Li146  1  0.00303418  0.51364929  0.59191542  1
  Li  Li147  1  0.48938488  0.48635071  0.90808458  1
  Li  Li148  1  0.99696582  0.51061512  0.90808458  1
  Li  Li149  1  0.51364929  0.00303418  0.90808458  1
  Li  Li150  1  0.51364929  0.51061512  0.40808458  1
  Li  Li151  1  0.48938488  0.00303418  0.40808458  1
  Li  Li152  1  0.99696582  0.48635071  0.40808458  1
  Li  Li153  1  0.51061512  0.51364929  0.09191542  1
  Li  Li154  1  0.00303418  0.48938488  0.09191542  1
  Li  Li155  1  0.48635071  0.99696582  0.09191542  1
  Li  Li156  1  0.15301737  0.82271822  0.92524875  1
  Li  Li157  1  0.17728178  0.33029916  0.92524875  1
  Li  Li158  1  0.66970084  0.84698263  0.92524875  1
  Li  Li159  1  0.15605155  0.81968404  0.24141792  1
  Li  Li160  1  0.66363249  0.84394845  0.24141792  1
  Li  Li161  1  0.18031596  0.33636751  0.24141792  1
  Li  Li162  1  0.18031596  0.84394845  0.74141792  1
  Li  Li163  1  0.15605155  0.33636751  0.74141792  1
  Li  Li164  1  0.66363249  0.81968404  0.74141792  1
  Li  Li165  1  0.17728178  0.84698263  0.42524875  1
  Li  Li166  1  0.66970084  0.82271822  0.42524875  1
  Li  Li167  1  0.15301737  0.33029916  0.42524875  1
  Li  Li168  1  0.81968404  0.15605155  0.25858208  1
  Li  Li169  1  0.84394845  0.66363249  0.25858208  1
  Li  Li170  1  0.33636751  0.18031596  0.25858208  1
  Li  Li171  1  0.82271822  0.15301737  0.57475125  1
  Li  Li172  1  0.33029916  0.17728178  0.57475125  1
  Li  Li173  1  0.84698263  0.66970084  0.57475125  1
  Li  Li174  1  0.84698263  0.17728178  0.07475125  1
  Li  Li175  1  0.82271822  0.66970084  0.07475125  1
  Li  Li176  1  0.33029916  0.15301737  0.07475125  1
  Li  Li177  1  0.84394845  0.18031596  0.75858208  1
  Li  Li178  1  0.33636751  0.15605155  0.75858208  1
  Li  Li179  1  0.81968404  0.66363249  0.75858208  1
  Li  Li180  1  0.56803496  0.46664424  0.28785018  1
  Li  Li181  1  0.53335576  0.10139072  0.28785018  1
  Li  Li182  1  0.89860928  0.43196504  0.28785018  1
  Li  Li183  1  0.46664424  0.56803496  0.21214982  1
  Li  Li184  1  0.10139072  0.53335576  0.21214982  1
  Li  Li185  1  0.43196504  0.89860928  0.21214982  1
  Li  Li186  1  0.43196504  0.53335576  0.71214982  1
  Li  Li187  1  0.46664424  0.89860928  0.71214982  1
  Li  Li188  1  0.10139072  0.56803496  0.71214982  1
  Li  Li189  1  0.53335576  0.43196504  0.78785018  1
  Li  Li190  1  0.89860928  0.46664424  0.78785018  1
  Li  Li191  1  0.56803496  0.10139072  0.78785018  1
  Li  Li192  1  0.23470162  0.79997757  0.62118351  1
  Li  Li193  1  0.20002243  0.43472405  0.62118351  1
  Li  Li194  1  0.56527595  0.76529838  0.62118351  1
  Li  Li195  1  0.13331091  0.90136829  0.54548316  1
  Li  Li196  1  0.76805738  0.86668909  0.54548316  1
  Li  Li197  1  0.09863171  0.23194262  0.54548316  1
  Li  Li198  1  0.09863171  0.86668909  0.04548316  1
  Li  Li199  1  0.13331091  0.23194262  0.04548316  1
  Li  Li200  1  0.76805738  0.90136829  0.04548316  1
  Li  Li201  1  0.20002243  0.76529838  0.12118351  1
  Li  Li202  1  0.56527595  0.79997757  0.12118351  1
  Li  Li203  1  0.23470162  0.43472405  0.12118351  1
  Li  Li204  1  0.90136829  0.13331091  0.95451684  1
  Li  Li205  1  0.86668909  0.76805738  0.95451684  1
  Li  Li206  1  0.23194262  0.09863171  0.95451684  1
  Li  Li207  1  0.79997757  0.23470162  0.87881649  1
  Li  Li208  1  0.43472405  0.20002243  0.87881649  1
  Li  Li209  1  0.76529838  0.56527595  0.87881649  1
  Li  Li210  1  0.76529838  0.20002243  0.37881649  1
  Li  Li211  1  0.79997757  0.56527595  0.37881649  1
  Li  Li212  1  0.43472405  0.23470162  0.37881649  1
  Li  Li213  1  0.86668909  0.09863171  0.45451684  1
  Li  Li214  1  0.23194262  0.13331091  0.45451684  1
  Li  Li215  1  0.90136829  0.76805738  0.45451684  1
