# generated using pymatgen
data_Li2Y2P3Se2
_symmetry_space_group_name_H-M   'P 1'
_cell_length_a   5.34898978
_cell_length_b   5.36918749
_cell_length_c   6.99766041
_cell_angle_alpha   94.07084432
_cell_angle_beta   98.86545262
_cell_angle_gamma   106.35096371
_symmetry_Int_Tables_number   1
_chemical_formula_structural   Li2Y2P3Se2
_chemical_formula_sum   'Li2 Y2 P3 Se2'
_cell_volume   189.14720015
_cell_formula_units_Z   1
loop_
 _symmetry_equiv_pos_site_id
 _symmetry_equiv_pos_as_xyz
  1  'x, y, z'
loop_
 _atom_site_type_symbol
 _atom_site_label
 _atom_site_symmetry_multiplicity
 _atom_site_fract_x
 _atom_site_fract_y
 _atom_site_fract_z
 _atom_site_occupancy
  Se  Se0  1  0.00000000  0.00000000  0.00000000  1
  Se  Se1  1  0.33300000  0.66700000  0.25000000  1
  P  P2  1  0.66700000  0.33300000  0.50000000  1
  P  P3  1  0.00000000  0.00000000  0.75000000  1
  P  P4  1  0.84752805  0.69753994  0.83733407  1
  Li  Li5  1  0.31318890  0.49400275  0.81399559  1
  Li  Li6  1  0.10688162  0.76285910  0.52012151  1
  Y  Y7  1  0.55003509  0.84875468  0.74134655  1
  Y  Y8  1  0.54823622  0.17889201  0.31280308  1
