# generated using pymatgen
data_LiAl2As2SeO5
_symmetry_space_group_name_H-M   'P 1'
_cell_length_a   6.65126333
_cell_length_b   5.77108809
_cell_length_c   7.46345123
_cell_angle_alpha   89.97832066
_cell_angle_beta   90.00586877
_cell_angle_gamma   89.26497851
_symmetry_Int_Tables_number   1
_chemical_formula_structural   LiAl2As2SeO5
_chemical_formula_sum   'Li1 Al2 As2 Se1 O5'
_cell_volume   286.46117835
_cell_formula_units_Z   1
loop_
 _symmetry_equiv_pos_site_id
 _symmetry_equiv_pos_as_xyz
  1  'x, y, z'
loop_
 _atom_site_type_symbol
 _atom_site_label
 _atom_site_symmetry_multiplicity
 _atom_site_fract_x
 _atom_site_fract_y
 _atom_site_fract_z
 _atom_site_occupancy
  Al  Al0  1  0.00000000  0.00000000  0.00000000  1
  Al  Al1  1  0.50000000  0.50000000  0.50000000  1
  Se  Se2  1  0.50000000  0.50000000  0.00000000  1
  As  As3  1  0.50000000  0.00000000  0.50000000  1
  As  As4  1  0.00000000  0.50000000  0.50000000  1
  O  O5  1  0.37955986  0.35390860  0.01813420  1
  O  O6  1  0.73841371  0.26222707  0.61310226  1
  O  O7  1  0.94699381  0.56081655  0.49042943  1
  O  O8  1  0.49516856  0.64081817  0.73229218  1
  O  O9  1  0.61036415  0.01179753  0.32864063  1
  Li  Li10  1  0.35857111  0.42691481  0.86716230  1
