# generated using pymatgen
data_Li2Si4Te3F12
_symmetry_space_group_name_H-M   'P 1'
_cell_length_a   10.93895406
_cell_length_b   8.61912658
_cell_length_c   9.04577393
_cell_angle_alpha   90.00000000
_cell_angle_beta   90.00000000
_cell_angle_gamma   90.00000000
_symmetry_Int_Tables_number   1
_chemical_formula_structural   Li2Si4Te3F12
_chemical_formula_sum   'Li8 Si16 Te12 F48'
_cell_volume   852.87382758
_cell_formula_units_Z   4
loop_
 _symmetry_equiv_pos_site_id
 _symmetry_equiv_pos_as_xyz
  1  'x, y, z'
loop_
 _atom_site_type_symbol
 _atom_site_label
 _atom_site_symmetry_multiplicity
 _atom_site_fract_x
 _atom_site_fract_y
 _atom_site_fract_z
 _atom_site_occupancy
  F  F0  1  0.59504261  0.38774400  -0.00000000  1
  F  F1  1  0.40495739  0.61225600  0.00000000  1
  F  F2  1  0.90495739  0.88774400  0.00000000  1
  F  F3  1  0.09504261  0.11225600  -0.00000000  1
  F  F4  1  0.00000000  0.50000000  0.00000000  1
  F  F5  1  0.50000000  0.00000000  0.00000000  1
  F  F6  1  0.92439234  0.21217801  0.91735636  1
  F  F7  1  -0.92439234  -0.21217801  0.91735636  1
  F  F8  1  -0.42439234  0.71217801  -0.91735636  1
  F  F9  1  1.42439234  0.28782199  -0.91735636  1
  F  F10  1  -0.92439234  -0.21217801  -0.91735636  1
  F  F11  1  0.92439234  0.21217801  -0.91735636  1
  F  F12  1  1.42439234  0.28782199  0.91735636  1
  F  F13  1  -0.42439234  0.71217801  0.91735636  1
  F  F14  1  0.55849817  0.15587914  0.30978047  1
  F  F15  1  0.44150183  0.84412086  0.30978047  1
  F  F16  1  0.94150183  0.65587914  0.69021953  1
  F  F17  1  0.05849817  0.34412086  0.69021953  1
  F  F18  1  0.44150183  0.84412086  0.69021953  1
  F  F19  1  0.55849817  0.15587914  0.69021953  1
  F  F20  1  0.05849817  0.34412086  0.30978047  1
  F  F21  1  0.94150183  0.65587914  0.30978047  1
  F  F22  1  0.71637037  0.90990918  0.27398213  1
  F  F23  1  0.28362963  0.09009082  0.27398213  1
  F  F24  1  0.78362963  0.40990918  0.72601787  1
  F  F25  1  0.21637037  0.59009082  0.72601787  1
  F  F26  1  0.28362963  0.09009082  0.72601787  1
  F  F27  1  0.71637037  0.90990918  0.72601787  1
  F  F28  1  0.21637037  0.59009082  0.27398213  1
  F  F29  1  0.78362963  0.40990918  0.27398213  1
  F  F30  1  0.88821180  0.42348611  0.62344398  1
  F  F31  1  0.11178820  0.57651389  0.62344398  1
  F  F32  1  0.61178820  0.92348611  0.37655602  1
  F  F33  1  0.38821180  0.07651389  0.37655602  1
  F  F34  1  0.11178820  0.57651389  0.37655602  1
  F  F35  1  0.88821180  0.42348611  0.37655602  1
  F  F36  1  0.38821180  0.07651389  0.62344398  1
  F  F37  1  0.61178820  0.92348611  0.62344398  1
  F  F38  1  0.73895298  0.87334921  0.07926209  1
  F  F39  1  0.26104702  0.12665079  0.07926209  1
  F  F40  1  0.76104702  0.37334921  0.92073791  1
  F  F41  1  0.23895298  0.62665079  0.92073791  1
  F  F42  1  0.26104702  0.12665079  0.92073791  1
  F  F43  1  0.73895298  0.87334921  0.92073791  1
  F  F44  1  0.23895298  0.62665079  0.07926209  1
  F  F45  1  0.76104702  0.37334921  0.07926209  1
  F  F46  1  0.00000000  0.00000000  0.00000000  1
  F  F47  1  0.50000000  0.50000000  0.00000000  1
  Li  Li48  1  0.66592817  0.33338388  0.22508669  1
  Li  Li49  1  0.33407183  0.66661612  0.22508669  1
  Li  Li50  1  0.83407183  0.83338388  0.77491331  1
  Li  Li51  1  0.16592817  0.16661612  0.77491331  1
  Li  Li52  1  0.33407183  0.66661612  0.77491331  1
  Li  Li53  1  0.66592817  0.33338388  0.77491331  1
  Li  Li54  1  0.16592817  0.16661612  0.22508669  1
  Li  Li55  1  0.83407183  0.83338388  0.22508669  1
  Si  Si56  1  0.52652361  0.34217019  0.50000000  1
  Si  Si57  1  0.47347639  0.65782981  0.50000000  1
  Si  Si58  1  0.97347639  0.84217019  0.50000000  1
  Si  Si59  1  0.02652361  0.15782981  0.50000000  1
  Si  Si60  1  0.88246543  0.69194755  0.50000000  1
  Si  Si61  1  0.11753457  0.30805245  0.50000000  1
  Si  Si62  1  0.61753457  0.19194755  0.50000000  1
  Si  Si63  1  0.38246543  0.80805245  0.50000000  1
  Si  Si64  1  0.32461218  0.40668695  0.50000000  1
  Si  Si65  1  0.67538782  0.59331305  0.50000000  1
  Si  Si66  1  0.17538782  0.90668695  0.50000000  1
  Si  Si67  1  0.82461218  0.09331305  0.50000000  1
  Si  Si68  1  0.00000000  0.50000000  0.50000000  1
  Si  Si69  1  0.50000000  0.00000000  0.50000000  1
  Si  Si70  1  0.00000000  0.00000000  0.50000000  1
  Si  Si71  1  0.50000000  0.50000000  0.50000000  1
  Te  Te72  1  0.58438930  0.73910985  0.25758260  1
  Te  Te73  1  0.41561070  0.26089015  0.25758260  1
  Te  Te74  1  0.91561070  0.23910985  0.74241740  1
  Te  Te75  1  0.08438930  0.76089015  0.74241740  1
  Te  Te76  1  0.41561070  0.26089015  0.74241740  1
  Te  Te77  1  0.58438930  0.73910985  0.74241740  1
  Te  Te78  1  0.08438930  0.76089015  0.25758260  1
  Te  Te79  1  0.91561070  0.23910985  0.25758260  1
  Te  Te80  1  0.77163874  0.37392541  0.50000000  1
  Te  Te81  1  0.22836126  0.62607459  0.50000000  1
  Te  Te82  1  0.72836126  0.87392541  0.50000000  1
  Te  Te83  1  0.27163874  0.12607459  0.50000000  1
