# generated using pymatgen
data_LiF
_symmetry_space_group_name_H-M   'P 1'
_cell_length_a   9.13257147
_cell_length_b   9.13257147
_cell_length_c   10.52579107
_cell_angle_alpha   90.00000000
_cell_angle_beta   90.00000000
_cell_angle_gamma   90.00000000
_symmetry_Int_Tables_number   1
_chemical_formula_structural   LiF
_chemical_formula_sum   'Li36 F36'
_cell_volume   877.89162269
_cell_formula_units_Z   36
loop_
 _symmetry_equiv_pos_site_id
 _symmetry_equiv_pos_as_xyz
  1  'x, y, z'
loop_
 _atom_site_type_symbol
 _atom_site_label
 _atom_site_symmetry_multiplicity
 _atom_site_fract_x
 _atom_site_fract_y
 _atom_site_fract_z
 _atom_site_occupancy
  F  F0  1  0.77055578  0.52243371  0.41302637  1
  F  F1  1  -0.27055578  -0.52243371  0.91302637  1
  F  F2  1  -0.27243371  1.52055578  0.66302637  1
  F  F3  1  0.77243371  -0.52055578  1.16302637  1
  F  F4  1  -0.27055578  0.52243371  0.08697363  1
  F  F5  1  0.77055578  -0.52243371  -0.41302637  1
  F  F6  1  0.77243371  1.52055578  -0.16302637  1
  F  F7  1  -0.27243371  -0.52055578  0.33697363  1
  F  F8  1  -0.77055578  -0.52243371  -0.41302637  1
  F  F9  1  1.27055578  0.52243371  0.08697363  1
  F  F10  1  1.27243371  -0.52055578  0.33697363  1
  F  F11  1  0.22756629  1.52055578  -0.16302637  1
  F  F12  1  1.27055578  -0.52243371  0.91302637  1
  F  F13  1  -0.77055578  0.52243371  0.41302637  1
  F  F14  1  0.22756629  -0.52055578  1.16302637  1
  F  F15  1  1.27243371  1.52055578  0.66302637  1
  F  F16  1  1.27055578  1.02243371  0.91302637  1
  F  F17  1  0.22944422  -0.02243371  1.41302637  1
  F  F18  1  0.22756629  2.02055578  1.16302637  1
  F  F19  1  1.27243371  -0.02055578  1.66302637  1
  F  F20  1  0.22944422  1.02243371  0.58697363  1
  F  F21  1  1.27055578  -0.02243371  0.08697363  1
  F  F22  1  1.27243371  2.02055578  0.33697363  1
  F  F23  1  0.22756629  -0.02055578  0.83697363  1
  F  F24  1  -0.27055578  -0.02243371  0.08697363  1
  F  F25  1  1.77055578  1.02243371  0.58697363  1
  F  F26  1  1.77243371  -0.02055578  0.83697363  1
  F  F27  1  0.72756629  2.02055578  0.33697363  1
  F  F28  1  1.77055578  -0.02243371  1.41302637  1
  F  F29  1  -0.27055578  1.02243371  0.91302637  1
  F  F30  1  0.72756629  -0.02055578  1.66302637  1
  F  F31  1  1.77243371  2.02055578  1.16302637  1
  F  F32  1  0.00000000  0.75000000  0.12500000  1
  F  F33  1  0.50000000  0.75000000  0.37500000  1
  F  F34  1  0.50000000  0.25000000  0.62500000  1
  F  F35  1  0.00000000  0.25000000  0.87500000  1
  Li  Li36  1  0.00000000  0.25000000  0.37500000  1
  Li  Li37  1  0.00000000  0.75000000  0.62500000  1
  Li  Li38  1  0.50000000  0.75000000  0.87500000  1
  Li  Li39  1  0.50000000  0.25000000  0.12500000  1
  Li  Li40  1  0.39515519  0.01548841  0.74596173  1
  Li  Li41  1  0.10484481  0.98451159  0.24596173  1
  Li  Li42  1  0.23451159  0.14515519  0.99596173  1
  Li  Li43  1  0.26548841  0.85484481  0.49596173  1
  Li  Li44  1  0.10484481  0.01548841  0.75403827  1
  Li  Li45  1  0.39515519  0.98451159  0.25403827  1
  Li  Li46  1  0.26548841  0.14515519  0.50403827  1
  Li  Li47  1  0.23451159  0.85484481  0.00403827  1
  Li  Li48  1  0.60484481  0.98451159  0.25403827  1
  Li  Li49  1  0.89515519  0.01548841  0.75403827  1
  Li  Li50  1  0.76548841  0.85484481  0.00403827  1
  Li  Li51  1  0.73451159  0.14515519  0.50403827  1
  Li  Li52  1  0.89515519  0.98451159  0.24596173  1
  Li  Li53  1  0.60484481  0.01548841  0.74596173  1
  Li  Li54  1  0.73451159  0.85484481  0.49596173  1
  Li  Li55  1  0.76548841  0.14515519  0.99596173  1
  Li  Li56  1  0.89515519  0.51548841  0.24596173  1
  Li  Li57  1  0.60484481  0.48451159  0.74596173  1
  Li  Li58  1  0.73451159  0.64515519  0.49596173  1
  Li  Li59  1  0.76548841  0.35484481  0.99596173  1
  Li  Li60  1  0.60484481  0.51548841  0.25403827  1
  Li  Li61  1  0.89515519  0.48451159  0.75403827  1
  Li  Li62  1  0.76548841  0.64515519  0.00403827  1
  Li  Li63  1  0.73451159  0.35484481  0.50403827  1
  Li  Li64  1  0.10484481  0.48451159  0.75403827  1
  Li  Li65  1  0.39515519  0.51548841  0.25403827  1
  Li  Li66  1  0.26548841  0.35484481  0.50403827  1
  Li  Li67  1  0.23451159  0.64515519  0.00403827  1
  Li  Li68  1  0.39515519  0.48451159  0.74596173  1
  Li  Li69  1  0.10484481  0.51548841  0.24596173  1
  Li  Li70  1  0.23451159  0.35484481  0.99596173  1
  Li  Li71  1  0.26548841  0.64515519  0.49596173  1
