# generated using pymatgen
data_LiF
_symmetry_space_group_name_H-M   'P 1'
_cell_length_a   12.45102838
_cell_length_b   12.45102838
_cell_length_c   5.57260719
_cell_angle_alpha   90.00000000
_cell_angle_beta   90.00000000
_cell_angle_gamma   120.00000000
_symmetry_Int_Tables_number   1
_chemical_formula_structural   LiF
_chemical_formula_sum   'Li24 F24'
_cell_volume   748.16865434
_cell_formula_units_Z   24
loop_
 _symmetry_equiv_pos_site_id
 _symmetry_equiv_pos_as_xyz
  1  'x, y, z'
loop_
 _atom_site_type_symbol
 _atom_site_label
 _atom_site_symmetry_multiplicity
 _atom_site_fract_x
 _atom_site_fract_y
 _atom_site_fract_z
 _atom_site_occupancy
  F  F0  1  0.66666667  0.33333333  -0.00000000  1
  F  F1  1  0.33333333  0.66666667  0.50000000  1
  F  F2  1  0.39311032  0.95694302  0.53674238  1
  F  F3  1  0.04305698  0.43616730  0.53674238  1
  F  F4  1  0.56383270  0.60688968  0.53674238  1
  F  F5  1  0.04305698  0.60688968  0.46325762  1
  F  F6  1  0.56383270  0.95694302  0.46325762  1
  F  F7  1  0.39311032  0.43616730  0.46325762  1
  F  F8  1  0.72213007  0.90707176  0.31408667  1
  F  F9  1  0.09292824  0.81505831  0.31408667  1
  F  F10  1  0.18494169  0.27786993  0.31408667  1
  F  F11  1  0.09292824  0.27786993  0.68591333  1
  F  F12  1  0.18494169  0.90707176  0.68591333  1
  F  F13  1  0.72213007  0.81505831  0.68591333  1
  F  F14  1  0.06055070  0.97924313  0.93376904  1
  F  F15  1  0.02075687  0.08130757  0.93376904  1
  F  F16  1  0.91869243  0.93944930  0.93376904  1
  F  F17  1  0.02075687  0.93944930  0.06623096  1
  F  F18  1  0.91869243  0.97924313  0.06623096  1
  F  F19  1  0.06055070  0.08130757  0.06623096  1
  F  F20  1  0.11366293  0.88633707  0.00000000  1
  F  F21  1  0.11366293  0.22732586  0.00000000  1
  F  F22  1  0.77267414  0.88633707  0.00000000  1
  F  F23  1  0.66666667  0.33333333  0.50000000  1
  Li  Li24  1  0.65345808  0.79312171  0.13665571  1
  Li  Li25  1  -0.79312171  -0.13966363  0.13665571  1
  Li  Li26  1  0.13966363  -0.65345808  0.13665571  1
  Li  Li27  1  -0.79312171  -0.65345808  -0.13665571  1
  Li  Li28  1  0.13966363  0.79312171  -0.13665571  1
  Li  Li29  1  0.65345808  -0.13966363  -0.13665571  1
  Li  Li30  1  0.42351879  0.28170378  0.16674953  1
  Li  Li31  1  0.71829622  0.14181501  0.16674953  1
  Li  Li32  1  0.85818499  0.57648121  0.16674953  1
  Li  Li33  1  0.71829622  0.57648121  0.83325047  1
  Li  Li34  1  0.85818499  0.28170378  0.83325047  1
  Li  Li35  1  0.42351879  0.14181501  0.83325047  1
  Li  Li36  1  0.00000000  0.00000000  0.50000000  1
  Li  Li37  1  0.45018152  0.10627780  0.58093635  1
  Li  Li38  1  0.89372220  0.34390372  0.58093635  1
  Li  Li39  1  0.65609628  0.54981848  0.58093635  1
  Li  Li40  1  0.89372220  0.54981848  0.41906365  1
  Li  Li41  1  0.65609628  0.10627780  0.41906365  1
  Li  Li42  1  0.45018152  0.34390372  0.41906365  1
  Li  Li43  1  0.00000000  0.00000000  0.00000000  1
  Li  Li44  1  0.42806745  0.57193255  0.50000000  1
  Li  Li45  1  0.42806745  0.85613489  0.50000000  1
  Li  Li46  1  0.14386511  0.57193255  0.50000000  1
  Li  Li47  1  0.33333333  0.66666667  0.00000000  1
