# generated using pymatgen
data_Li2Si4Te3F12
_symmetry_space_group_name_H-M   'P 1'
_cell_length_a   15.15350324
_cell_length_b   7.07371264
_cell_length_c   11.15133846
_cell_angle_alpha   90.00000000
_cell_angle_beta   90.00000000
_cell_angle_gamma   90.00000000
_symmetry_Int_Tables_number   1
_chemical_formula_structural   Li2Si4Te3F12
_chemical_formula_sum   'Li8 Si16 Te12 F48'
_cell_volume   1195.32900197
_cell_formula_units_Z   4
loop_
 _symmetry_equiv_pos_site_id
 _symmetry_equiv_pos_as_xyz
  1  'x, y, z'
loop_
 _atom_site_type_symbol
 _atom_site_label
 _atom_site_symmetry_multiplicity
 _atom_site_fract_x
 _atom_site_fract_y
 _atom_site_fract_z
 _atom_site_occupancy
  F  F0  1  0.00000000  0.00000000  0.84693261  1
  F  F1  1  0.50000000  0.50000000  0.65306739  1
  F  F2  1  0.00000000  0.00000000  0.15306739  1
  F  F3  1  0.50000000  0.50000000  0.34693261  1
  F  F4  1  0.20186851  0.62559918  0.77655435  1
  F  F5  1  0.79813149  0.37440082  0.77655435  1
  F  F6  1  0.29813149  0.12559918  0.72344565  1
  F  F7  1  0.70186851  0.87440082  0.72344565  1
  F  F8  1  0.79813149  0.37440082  0.22344565  1
  F  F9  1  0.20186851  0.62559918  0.22344565  1
  F  F10  1  0.70186851  0.87440082  0.27655435  1
  F  F11  1  0.29813149  0.12559918  0.27655435  1
  F  F12  1  0.25887470  0.85450879  0.29225322  1
  F  F13  1  0.74112530  0.14549121  0.29225322  1
  F  F14  1  0.24112530  0.35450879  0.20774678  1
  F  F15  1  0.75887470  0.64549121  0.20774678  1
  F  F16  1  0.74112530  0.14549121  0.70774678  1
  F  F17  1  0.25887470  0.85450879  0.70774678  1
  F  F18  1  0.75887470  0.64549121  0.79225322  1
  F  F19  1  0.24112530  0.35450879  0.79225322  1
  F  F20  1  0.35991753  0.55545988  0.86641976  1
  F  F21  1  0.64008247  0.44454012  0.86641976  1
  F  F22  1  0.14008247  0.05545988  0.63358024  1
  F  F23  1  0.85991753  0.94454012  0.63358024  1
  F  F24  1  0.64008247  0.44454012  0.13358024  1
  F  F25  1  0.35991753  0.55545988  0.13358024  1
  F  F26  1  0.85991753  0.94454012  0.36641976  1
  F  F27  1  0.14008247  0.05545988  0.36641976  1
  F  F28  1  0.76307988  0.06371966  0.10603349  1
  F  F29  1  0.23692012  0.93628034  0.10603349  1
  F  F30  1  0.73692012  0.56371966  0.39396651  1
  F  F31  1  0.26307988  0.43628034  0.39396651  1
  F  F32  1  0.23692012  0.93628034  0.89396651  1
  F  F33  1  0.76307988  0.06371966  0.89396651  1
  F  F34  1  0.26307988  0.43628034  0.60603349  1
  F  F35  1  0.73692012  0.56371966  0.60603349  1
  F  F36  1  0.43985005  0.29999251  0.79135440  1
  F  F37  1  0.56014995  0.70000749  0.79135440  1
  F  F38  1  0.06014995  0.79999251  0.70864560  1
  F  F39  1  0.93985005  0.20000749  0.70864560  1
  F  F40  1  0.56014995  0.70000749  0.20864560  1
  F  F41  1  0.43985005  0.29999251  0.20864560  1
  F  F42  1  0.93985005  0.20000749  0.29135440  1
  F  F43  1  0.06014995  0.79999251  0.29135440  1
  F  F44  1  0.22388165  0.46960492  0.00000000  1
  F  F45  1  0.77611835  0.53039508  0.00000000  1
  F  F46  1  0.27611835  0.96960492  0.50000000  1
  F  F47  1  0.72388165  0.03039508  0.50000000  1
  Li  Li48  1  0.00000000  0.50000000  0.50000000  1
  Li  Li49  1  0.50000000  0.00000000  0.00000000  1
  Li  Li50  1  0.00000000  0.50000000  0.00000000  1
  Li  Li51  1  0.50000000  0.00000000  0.50000000  1
  Li  Li52  1  0.00000000  0.00000000  0.71060087  1
  Li  Li53  1  0.50000000  0.50000000  0.78939913  1
  Li  Li54  1  0.00000000  0.00000000  0.28939913  1
  Li  Li55  1  0.50000000  0.50000000  0.21060087  1
  Si  Si56  1  0.49709015  0.65157233  0.28595005  1
  Si  Si57  1  0.50290985  0.34842767  0.28595005  1
  Si  Si58  1  0.00290985  0.15157233  0.21404995  1
  Si  Si59  1  0.99709015  0.84842767  0.21404995  1
  Si  Si60  1  0.50290985  0.34842767  0.71404995  1
  Si  Si61  1  0.49709015  0.65157233  0.71404995  1
  Si  Si62  1  0.99709015  0.84842767  0.78595005  1
  Si  Si63  1  0.00290985  0.15157233  0.78595005  1
  Si  Si64  1  0.35021502  0.62297645  0.70895483  1
  Si  Si65  1  0.64978498  0.37702355  0.70895483  1
  Si  Si66  1  0.14978498  0.12297645  0.79104517  1
  Si  Si67  1  0.85021502  0.87702355  0.79104517  1
  Si  Si68  1  0.64978498  0.37702355  0.29104517  1
  Si  Si69  1  0.35021502  0.62297645  0.29104517  1
  Si  Si70  1  0.85021502  0.87702355  0.20895483  1
  Si  Si71  1  0.14978498  0.12297645  0.20895483  1
  Te  Te72  1  0.85345275  0.31866913  0.06392424  1
  Te  Te73  1  -0.85345275  -0.31866913  0.06392424  1
  Te  Te74  1  -0.35345275  0.81866913  0.43607576  1
  Te  Te75  1  1.35345275  0.18133087  0.43607576  1
  Te  Te76  1  -0.85345275  -0.31866913  -0.06392424  1
  Te  Te77  1  0.85345275  0.31866913  -0.06392424  1
  Te  Te78  1  1.35345275  0.18133087  0.56392424  1
  Te  Te79  1  -0.35345275  0.81866913  0.56392424  1
  Te  Te80  1  0.00000000  0.00000000  0.00000000  1
  Te  Te81  1  0.50000000  0.50000000  0.50000000  1
  Te  Te82  1  0.00000000  0.00000000  0.50000000  1
  Te  Te83  1  0.50000000  0.50000000  0.00000000  1
