# generated using pymatgen
data_LiCa4Si3TeCl6F13
_symmetry_space_group_name_H-M   'P 1'
_cell_length_a   10.32320379
_cell_length_b   10.32320379
_cell_length_c   6.63289020
_cell_angle_alpha   90.00000000
_cell_angle_beta   90.00000000
_cell_angle_gamma   120.00000000
_symmetry_Int_Tables_number   1
_chemical_formula_structural   LiCa4Si3TeCl6F13
_chemical_formula_sum   'Li1 Ca4 Si3 Te1 Cl6 F13'
_cell_volume   612.15646629
_cell_formula_units_Z   1
loop_
 _symmetry_equiv_pos_site_id
 _symmetry_equiv_pos_as_xyz
  1  'x, y, z'
loop_
 _atom_site_type_symbol
 _atom_site_label
 _atom_site_symmetry_multiplicity
 _atom_site_fract_x
 _atom_site_fract_y
 _atom_site_fract_z
 _atom_site_occupancy
  Ca  Ca0  1  0.33333333  0.66666667  0.67171869  1
  Ca  Ca1  1  0.33333333  0.66666667  0.32828131  1
  Ca  Ca2  1  0.66666667  0.33333333  0.32828131  1
  Ca  Ca3  1  0.66666667  0.33333333  0.67171869  1
  Cl  Cl4  1  0.44897731  0.56427878  0.00000000  1
  Cl  Cl5  1  -0.56427878  -0.11530146  -0.00000000  1
  Cl  Cl6  1  0.11530146  -0.44897731  0.00000000  1
  Cl  Cl7  1  0.56427878  0.44897731  0.00000000  1
  Cl  Cl8  1  -0.11530146  -0.56427878  0.00000000  1
  Cl  Cl9  1  -0.44897731  0.11530146  -0.00000000  1
  F  F10  1  0.28480122  0.86494345  0.50000000  1
  F  F11  1  0.13505655  0.41985777  0.50000000  1
  F  F12  1  0.58014223  0.71519878  0.50000000  1
  F  F13  1  0.86494345  0.28480122  0.50000000  1
  F  F14  1  0.41985777  0.13505655  0.50000000  1
  F  F15  1  0.71519878  0.58014223  0.50000000  1
  F  F16  1  0.84004284  0.00000000  0.50000000  1
  F  F17  1  0.00000000  0.84004284  0.50000000  1
  F  F18  1  0.15995716  0.15995716  0.50000000  1
  F  F19  1  0.33333333  0.66666667  0.06681910  1
  F  F20  1  0.33333333  0.66666667  0.93318090  1
  F  F21  1  0.66666667  0.33333333  0.93318090  1
  F  F22  1  0.66666667  0.33333333  0.06681910  1
  Li  Li23  1  0.00000000  0.00000000  0.00000000  1
  Si  Si24  1  0.41207470  0.00000000  0.50000000  1
  Si  Si25  1  0.00000000  0.41207470  0.50000000  1
  Si  Si26  1  0.58792530  0.58792530  0.50000000  1
  Te  Te27  1  0.00000000  0.00000000  0.50000000  1
