# generated using pymatgen
data_LiF
_symmetry_space_group_name_H-M   'P 1'
_cell_length_a   7.72115864
_cell_length_b   7.72115864
_cell_length_c   9.27918560
_cell_angle_alpha   90.00000000
_cell_angle_beta   90.00000000
_cell_angle_gamma   90.00000000
_symmetry_Int_Tables_number   1
_chemical_formula_structural   LiF
_chemical_formula_sum   'Li22 F22'
_cell_volume   553.19062620
_cell_formula_units_Z   22
loop_
 _symmetry_equiv_pos_site_id
 _symmetry_equiv_pos_as_xyz
  1  'x, y, z'
loop_
 _atom_site_type_symbol
 _atom_site_label
 _atom_site_symmetry_multiplicity
 _atom_site_fract_x
 _atom_site_fract_y
 _atom_site_fract_z
 _atom_site_occupancy
  F  F0  1  0.88248712  0.50000000  0.57401383  1
  F  F1  1  0.11751288  0.50000000  0.57401383  1
  F  F2  1  0.50000000  0.88248712  0.57401383  1
  F  F3  1  0.50000000  0.11751288  0.57401383  1
  F  F4  1  0.11751288  0.50000000  0.42598617  1
  F  F5  1  0.88248712  0.50000000  0.42598617  1
  F  F6  1  0.50000000  0.88248712  0.42598617  1
  F  F7  1  0.50000000  0.11751288  0.42598617  1
  F  F8  1  0.83476876  -0.00000000  0.89743611  1
  F  F9  1  0.16523124  -0.00000000  0.89743611  1
  F  F10  1  0.00000000  0.83476876  0.89743611  1
  F  F11  1  0.00000000  0.16523124  0.89743611  1
  F  F12  1  0.16523124  -0.00000000  0.10256389  1
  F  F13  1  0.83476876  -0.00000000  0.10256389  1
  F  F14  1  0.00000000  0.83476876  0.10256389  1
  F  F15  1  0.00000000  0.16523124  0.10256389  1
  F  F16  1  0.60706662  0.60706662  0.00000000  1
  F  F17  1  0.39293338  0.39293338  0.00000000  1
  F  F18  1  0.39293338  0.60706662  0.00000000  1
  F  F19  1  0.60706662  0.39293338  0.00000000  1
  F  F20  1  0.00000000  0.00000000  0.21475028  1
  F  F21  1  0.00000000  0.00000000  0.78524972  1
  Li  Li22  1  0.50000000  0.50000000  0.00000000  1
  Li  Li23  1  0.00000000  0.00000000  0.00000000  1
  Li  Li24  1  0.69901095  0.50000000  0.50000000  1
  Li  Li25  1  0.30098905  0.50000000  0.50000000  1
  Li  Li26  1  0.50000000  0.69901095  0.50000000  1
  Li  Li27  1  0.50000000  0.30098905  0.50000000  1
  Li  Li28  1  0.66018506  0.66018506  0.10391838  1
  Li  Li29  1  -0.66018506  -0.66018506  0.10391838  1
  Li  Li30  1  -0.66018506  0.66018506  0.10391838  1
  Li  Li31  1  0.66018506  -0.66018506  0.10391838  1
  Li  Li32  1  -0.66018506  0.66018506  -0.10391838  1
  Li  Li33  1  0.66018506  -0.66018506  -0.10391838  1
  Li  Li34  1  0.66018506  0.66018506  -0.10391838  1
  Li  Li35  1  -0.66018506  -0.66018506  -0.10391838  1
  Li  Li36  1  0.00000000  0.50000000  0.50000000  1
  Li  Li37  1  0.50000000  0.00000000  0.50000000  1
  Li  Li38  1  0.00000000  0.00000000  0.50000000  1
  Li  Li39  1  0.50000000  0.50000000  0.50000000  1
  Li  Li40  1  0.35068890  -0.00000000  0.00000000  1
  Li  Li41  1  0.64931110  -0.00000000  0.00000000  1
  Li  Li42  1  0.00000000  0.35068890  -0.00000000  1
  Li  Li43  1  0.00000000  0.64931110  0.00000000  1
