# generated using pymatgen
data_LiYSbP
_symmetry_space_group_name_H-M   'P 1'
_cell_length_a   4.94393614
_cell_length_b   4.95634667
_cell_length_c   7.15696082
_cell_angle_alpha   94.86930362
_cell_angle_beta   100.60433097
_cell_angle_gamma   109.55805736
_symmetry_Int_Tables_number   1
_chemical_formula_structural   LiYSbP
_chemical_formula_sum   'Li2 Y2 Sb2 P2'
_cell_volume   160.38790292
_cell_formula_units_Z   2
loop_
 _symmetry_equiv_pos_site_id
 _symmetry_equiv_pos_as_xyz
  1  'x, y, z'
loop_
 _atom_site_type_symbol
 _atom_site_label
 _atom_site_symmetry_multiplicity
 _atom_site_fract_x
 _atom_site_fract_y
 _atom_site_fract_z
 _atom_site_occupancy
  Y  Y0  1  0.12500000  0.12500000  0.12500000  1
  Y  Y1  1  0.50000000  0.50000000  0.50000000  1
  P  P2  1  0.25000000  0.25000000  0.25000000  1
  P  P3  1  0.75000000  0.75000000  0.75000000  1
  Li  Li4  1  0.58974200  0.90629628  0.20321022  1
  Li  Li5  1  0.50942608  0.68637900  0.05839655  1
  Sb  Sb6  1  0.84020075  0.99200228  0.00975141  1
  Sb  Sb7  1  0.18098853  0.64430752  0.94256231  1
