# generated using pymatgen
data_LiF
_symmetry_space_group_name_H-M   'P 1'
_cell_length_a   15.05958368
_cell_length_b   15.05958368
_cell_length_c   6.32690397
_cell_angle_alpha   90.00000000
_cell_angle_beta   90.00000000
_cell_angle_gamma   120.00000000
_symmetry_Int_Tables_number   1
_chemical_formula_structural   LiF
_chemical_formula_sum   'Li49 F49'
_cell_volume   1242.64708903
_cell_formula_units_Z   49
loop_
 _symmetry_equiv_pos_site_id
 _symmetry_equiv_pos_as_xyz
  1  'x, y, z'
loop_
 _atom_site_type_symbol
 _atom_site_label
 _atom_site_symmetry_multiplicity
 _atom_site_fract_x
 _atom_site_fract_y
 _atom_site_fract_z
 _atom_site_occupancy
  F  F0  1  0.17419490  0.16403888  0.80682546  1
  F  F1  1  0.83596112  0.01015602  0.80682546  1
  F  F2  1  0.98984398  0.82580510  0.80682546  1
  F  F3  1  0.83596112  0.82580510  0.19317454  1
  F  F4  1  0.98984398  0.16403888  0.19317454  1
  F  F5  1  0.17419490  0.01015602  0.19317454  1
  F  F6  1  0.84282105  0.88417547  0.97210896  1
  F  F7  1  0.11582453  0.95864559  0.97210896  1
  F  F8  1  0.04135441  0.15717895  0.97210896  1
  F  F9  1  0.11582453  0.15717895  0.02789104  1
  F  F10  1  0.04135441  0.88417547  0.02789104  1
  F  F11  1  0.84282105  0.95864559  0.02789104  1
  F  F12  1  0.24462149  0.10526628  0.14590456  1
  F  F13  1  0.89473372  0.13935521  0.14590456  1
  F  F14  1  0.86064479  0.75537851  0.14590456  1
  F  F15  1  0.89473372  0.75537851  0.85409544  1
  F  F16  1  0.86064479  0.10526628  0.85409544  1
  F  F17  1  0.24462149  0.13935521  0.85409544  1
  F  F18  1  0.33333333  0.66666667  0.00000000  1
  F  F19  1  0.36660442  0.37497507  0.38036112  1
  F  F20  1  0.62502493  0.99162935  0.38036112  1
  F  F21  1  0.00837065  0.63339558  0.38036112  1
  F  F22  1  0.62502493  0.63339558  0.61963888  1
  F  F23  1  0.00837065  0.37497507  0.61963888  1
  F  F24  1  0.36660442  0.99162935  0.61963888  1
  F  F25  1  0.90077861  0.47468198  0.08723479  1
  F  F26  1  0.52531802  0.42609663  0.08723479  1
  F  F27  1  0.57390337  0.09922139  0.08723479  1
  F  F28  1  0.52531802  0.09922139  0.91276521  1
  F  F29  1  0.57390337  0.47468198  0.91276521  1
  F  F30  1  0.90077861  0.42609663  0.91276521  1
  F  F31  1  0.60772761  0.05950212  0.91778655  1
  F  F32  1  0.94049788  0.54822548  0.91778655  1
  F  F33  1  0.45177452  0.39227239  0.91778655  1
  F  F34  1  0.94049788  0.39227239  0.08221345  1
  F  F35  1  0.45177452  0.05950212  0.08221345  1
  F  F36  1  0.60772761  0.54822548  0.08221345  1
  F  F37  1  0.35642301  0.44717243  0.60077767  1
  F  F38  1  0.55282757  0.90925058  0.60077767  1
  F  F39  1  0.09074942  0.64357699  0.60077767  1
  F  F40  1  0.55282757  0.64357699  0.39922233  1
  F  F41  1  0.09074942  0.44717243  0.39922233  1
  F  F42  1  0.35642301  0.90925058  0.39922233  1
  F  F43  1  0.71214527  0.28785473  0.50000000  1
  F  F44  1  0.71214527  0.42429053  0.50000000  1
  F  F45  1  0.57570947  0.28785473  0.50000000  1
  F  F46  1  0.62823973  0.37176027  -0.00000000  1
  F  F47  1  0.62823973  0.25647946  -0.00000000  1
  F  F48  1  0.74352054  0.37176027  -0.00000000  1
  Li  Li49  1  0.00000000  0.00000000  0.36044579  1
  Li  Li50  1  0.00000000  0.00000000  0.63955421  1
  Li  Li51  1  0.66666667  0.33333333  0.00000000  1
  Li  Li52  1  0.66666667  0.33333333  0.50000000  1
  Li  Li53  1  0.39406637  0.60593363  0.50000000  1
  Li  Li54  1  0.39406637  0.78813275  0.50000000  1
  Li  Li55  1  0.21186725  0.60593363  0.50000000  1
  Li  Li56  1  0.66666667  0.33333333  0.21237452  1
  Li  Li57  1  0.66666667  0.33333333  0.78762548  1
  Li  Li58  1  0.93940096  0.26109957  0.38100812  1
  Li  Li59  1  -0.26109957  0.67830139  0.38100812  1
  Li  Li60  1  -0.67830139  -0.93940096  0.38100812  1
  Li  Li61  1  -0.26109957  -0.93940096  -0.38100812  1
  Li  Li62  1  -0.67830139  0.26109957  -0.38100812  1
  Li  Li63  1  0.93940096  0.67830139  -0.38100812  1
  Li  Li64  1  0.76504130  0.38874355  0.18981969  1
  Li  Li65  1  0.61125645  0.37629775  0.18981969  1
  Li  Li66  1  0.62370225  0.23495870  0.18981969  1
  Li  Li67  1  0.61125645  0.23495870  0.81018031  1
  Li  Li68  1  0.62370225  0.38874355  0.81018031  1
  Li  Li69  1  0.76504130  0.37629775  0.81018031  1
  Li  Li70  1  0.57506452  0.82396184  0.75507570  1
  Li  Li71  1  0.17603816  0.75110268  0.75507570  1
  Li  Li72  1  0.24889732  0.42493548  0.75507570  1
  Li  Li73  1  0.17603816  0.42493548  0.24492430  1
  Li  Li74  1  0.24889732  0.82396184  0.24492430  1
  Li  Li75  1  0.57506452  0.75110268  0.24492430  1
  Li  Li76  1  0.50978488  0.02381389  0.71579247  1
  Li  Li77  1  0.97618611  0.48597098  0.71579247  1
  Li  Li78  1  0.51402902  0.49021512  0.71579247  1
  Li  Li79  1  0.97618611  0.49021512  0.28420753  1
  Li  Li80  1  0.51402902  0.02381389  0.28420753  1
  Li  Li81  1  0.50978488  0.48597098  0.28420753  1
  Li  Li82  1  0.22098741  0.09330047  0.64733034  1
  Li  Li83  1  0.90669953  0.12768694  0.64733034  1
  Li  Li84  1  0.87231306  0.77901259  0.64733034  1
  Li  Li85  1  0.90669953  0.77901259  0.35266966  1
  Li  Li86  1  0.87231306  0.09330047  0.35266966  1
  Li  Li87  1  0.22098741  0.12768694  0.35266966  1
  Li  Li88  1  0.03446287  0.74203737  0.00816100  1
  Li  Li89  1  0.25796263  0.29242550  0.00816100  1
  Li  Li90  1  0.70757450  0.96553713  0.00816100  1
  Li  Li91  1  0.25796263  0.96553713  0.99183900  1
  Li  Li92  1  0.70757450  0.74203737  0.99183900  1
  Li  Li93  1  0.03446287  0.29242550  0.99183900  1
  Li  Li94  1  0.29969127  0.70030873  0.50000000  1
  Li  Li95  1  0.29969127  0.59938254  0.50000000  1
  Li  Li96  1  0.40061746  0.70030873  0.50000000  1
  Li  Li97  1  0.00000000  0.00000000  0.00000000  1
