# generated using pymatgen
data_Li4TeF2
_symmetry_space_group_name_H-M   'P 1'
_cell_length_a   13.62185922
_cell_length_b   13.62185922
_cell_length_c   18.11644510
_cell_angle_alpha   90.00000000
_cell_angle_beta   90.00000000
_cell_angle_gamma   90.00000000
_symmetry_Int_Tables_number   1
_chemical_formula_structural   Li4TeF2
_chemical_formula_sum   'Li96 Te24 F48'
_cell_volume   3361.59785228
_cell_formula_units_Z   24
loop_
 _symmetry_equiv_pos_site_id
 _symmetry_equiv_pos_as_xyz
  1  'x, y, z'
loop_
 _atom_site_type_symbol
 _atom_site_label
 _atom_site_symmetry_multiplicity
 _atom_site_fract_x
 _atom_site_fract_y
 _atom_site_fract_z
 _atom_site_occupancy
  F  F0  1  0.25372714  0.00000000  0.34557745  1
  F  F1  1  0.74627286  0.00000000  0.34557745  1
  F  F2  1  0.00000000  0.25372714  0.34557745  1
  F  F3  1  0.00000000  0.74627286  0.34557745  1
  F  F4  1  0.74627286  0.00000000  0.65442255  1
  F  F5  1  0.25372714  0.00000000  0.65442255  1
  F  F6  1  0.00000000  0.25372714  0.65442255  1
  F  F7  1  0.00000000  0.74627286  0.65442255  1
  F  F8  1  0.83620411  0.00000000  0.02255033  1
  F  F9  1  0.16379589  0.00000000  0.02255033  1
  F  F10  1  0.00000000  0.83620411  0.02255033  1
  F  F11  1  0.00000000  0.16379589  0.02255033  1
  F  F12  1  0.16379589  0.00000000  0.97744967  1
  F  F13  1  0.83620411  0.00000000  0.97744967  1
  F  F14  1  0.00000000  0.83620411  0.97744967  1
  F  F15  1  0.00000000  0.16379589  0.97744967  1
  F  F16  1  0.41239034  0.06280185  0.58329742  1
  F  F17  1  -0.41239034  -0.06280185  0.58329742  1
  F  F18  1  -0.06280185  0.41239034  0.58329742  1
  F  F19  1  0.06280185  -0.41239034  0.58329742  1
  F  F20  1  -0.41239034  0.06280185  -0.58329742  1
  F  F21  1  0.41239034  -0.06280185  -0.58329742  1
  F  F22  1  0.06280185  0.41239034  -0.58329742  1
  F  F23  1  -0.06280185  -0.41239034  -0.58329742  1
  F  F24  1  -0.41239034  -0.06280185  -0.58329742  1
  F  F25  1  0.41239034  0.06280185  -0.58329742  1
  F  F26  1  0.06280185  -0.41239034  -0.58329742  1
  F  F27  1  -0.06280185  0.41239034  -0.58329742  1
  F  F28  1  0.41239034  -0.06280185  0.58329742  1
  F  F29  1  -0.41239034  0.06280185  0.58329742  1
  F  F30  1  -0.06280185  -0.41239034  0.58329742  1
  F  F31  1  0.06280185  0.41239034  0.58329742  1
  F  F32  1  0.36111837  0.00000000  0.29765993  1
  F  F33  1  0.63888163  0.00000000  0.29765993  1
  F  F34  1  0.00000000  0.36111837  0.29765993  1
  F  F35  1  0.00000000  0.63888163  0.29765993  1
  F  F36  1  0.63888163  0.00000000  0.70234007  1
  F  F37  1  0.36111837  0.00000000  0.70234007  1
  F  F38  1  0.00000000  0.36111837  0.70234007  1
  F  F39  1  0.00000000  0.63888163  0.70234007  1
  F  F40  1  0.84825624  0.80697140  0.00000000  1
  F  F41  1  0.15174376  0.19302860  0.00000000  1
  F  F42  1  0.19302860  0.84825624  0.00000000  1
  F  F43  1  0.80697140  0.15174376  0.00000000  1
  F  F44  1  0.15174376  0.80697140  0.00000000  1
  F  F45  1  0.84825624  0.19302860  0.00000000  1
  F  F46  1  0.80697140  0.84825624  0.00000000  1
  F  F47  1  0.19302860  0.15174376  0.00000000  1
  Li  Li48  1  0.41097711  0.67151380  0.87155269  1
  Li  Li49  1  0.58902289  0.32848620  0.87155269  1
  Li  Li50  1  0.32848620  0.41097711  0.87155269  1
  Li  Li51  1  0.67151380  0.58902289  0.87155269  1
  Li  Li52  1  0.58902289  0.67151380  0.12844731  1
  Li  Li53  1  0.41097711  0.32848620  0.12844731  1
  Li  Li54  1  0.67151380  0.41097711  0.12844731  1
  Li  Li55  1  0.32848620  0.58902289  0.12844731  1
  Li  Li56  1  0.58902289  0.32848620  0.12844731  1
  Li  Li57  1  0.41097711  0.67151380  0.12844731  1
  Li  Li58  1  0.67151380  0.58902289  0.12844731  1
  Li  Li59  1  0.32848620  0.41097711  0.12844731  1
  Li  Li60  1  0.41097711  0.32848620  0.87155269  1
  Li  Li61  1  0.58902289  0.67151380  0.87155269  1
  Li  Li62  1  0.32848620  0.58902289  0.87155269  1
  Li  Li63  1  0.67151380  0.41097711  0.87155269  1
  Li  Li64  1  0.28904672  0.05685991  0.08631584  1
  Li  Li65  1  0.71095328  0.94314009  0.08631584  1
  Li  Li66  1  0.94314009  0.28904672  0.08631584  1
  Li  Li67  1  0.05685991  0.71095328  0.08631584  1
  Li  Li68  1  0.71095328  0.05685991  0.91368416  1
  Li  Li69  1  0.28904672  0.94314009  0.91368416  1
  Li  Li70  1  0.05685991  0.28904672  0.91368416  1
  Li  Li71  1  0.94314009  0.71095328  0.91368416  1
  Li  Li72  1  0.71095328  0.94314009  0.91368416  1
  Li  Li73  1  0.28904672  0.05685991  0.91368416  1
  Li  Li74  1  0.05685991  0.71095328  0.91368416  1
  Li  Li75  1  0.94314009  0.28904672  0.91368416  1
  Li  Li76  1  0.28904672  0.94314009  0.08631584  1
  Li  Li77  1  0.71095328  0.05685991  0.08631584  1
  Li  Li78  1  0.94314009  0.71095328  0.08631584  1
  Li  Li79  1  0.05685991  0.28904672  0.08631584  1
  Li  Li80  1  0.32829213  0.84796634  0.03861566  1
  Li  Li81  1  0.67170787  0.15203366  0.03861566  1
  Li  Li82  1  0.15203366  0.32829213  0.03861566  1
  Li  Li83  1  0.84796634  0.67170787  0.03861566  1
  Li  Li84  1  0.67170787  0.84796634  0.96138434  1
  Li  Li85  1  0.32829213  0.15203366  0.96138434  1
  Li  Li86  1  0.84796634  0.32829213  0.96138434  1
  Li  Li87  1  0.15203366  0.67170787  0.96138434  1
  Li  Li88  1  0.67170787  0.15203366  0.96138434  1
  Li  Li89  1  0.32829213  0.84796634  0.96138434  1
  Li  Li90  1  0.84796634  0.67170787  0.96138434  1
  Li  Li91  1  0.15203366  0.32829213  0.96138434  1
  Li  Li92  1  0.32829213  0.15203366  0.03861566  1
  Li  Li93  1  0.67170787  0.84796634  0.03861566  1
  Li  Li94  1  0.15203366  0.67170787  0.03861566  1
  Li  Li95  1  0.84796634  0.32829213  0.03861566  1
  Li  Li96  1  0.05675552  0.50000000  0.63149250  1
  Li  Li97  1  0.94324448  0.50000000  0.63149250  1
  Li  Li98  1  0.50000000  0.05675552  0.63149250  1
  Li  Li99  1  0.50000000  0.94324448  0.63149250  1
  Li  Li100  1  0.94324448  0.50000000  0.36850750  1
  Li  Li101  1  0.05675552  0.50000000  0.36850750  1
  Li  Li102  1  0.50000000  0.05675552  0.36850750  1
  Li  Li103  1  0.50000000  0.94324448  0.36850750  1
  Li  Li104  1  0.17740967  0.25332715  0.83243755  1
  Li  Li105  1  0.82259033  0.74667285  0.83243755  1
  Li  Li106  1  0.74667285  0.17740967  0.83243755  1
  Li  Li107  1  0.25332715  0.82259033  0.83243755  1
  Li  Li108  1  0.82259033  0.25332715  0.16756245  1
  Li  Li109  1  0.17740967  0.74667285  0.16756245  1
  Li  Li110  1  0.25332715  0.17740967  0.16756245  1
  Li  Li111  1  0.74667285  0.82259033  0.16756245  1
  Li  Li112  1  0.82259033  0.74667285  0.16756245  1
  Li  Li113  1  0.17740967  0.25332715  0.16756245  1
  Li  Li114  1  0.25332715  0.82259033  0.16756245  1
  Li  Li115  1  0.74667285  0.17740967  0.16756245  1
  Li  Li116  1  0.17740967  0.74667285  0.83243755  1
  Li  Li117  1  0.82259033  0.25332715  0.83243755  1
  Li  Li118  1  0.74667285  0.82259033  0.83243755  1
  Li  Li119  1  0.25332715  0.17740967  0.83243755  1
  Li  Li120  1  0.82077369  0.30578768  0.50000000  1
  Li  Li121  1  0.17922631  0.69421232  0.50000000  1
  Li  Li122  1  0.69421232  0.82077369  0.50000000  1
  Li  Li123  1  0.30578768  0.17922631  0.50000000  1
  Li  Li124  1  0.17922631  0.30578768  0.50000000  1
  Li  Li125  1  0.82077369  0.69421232  0.50000000  1
  Li  Li126  1  0.30578768  0.82077369  0.50000000  1
  Li  Li127  1  0.69421232  0.17922631  0.50000000  1
  Li  Li128  1  0.93262269  0.50000000  0.00000000  1
  Li  Li129  1  0.06737731  0.50000000  0.00000000  1
  Li  Li130  1  0.50000000  0.93262269  0.00000000  1
  Li  Li131  1  0.50000000  0.06737731  0.00000000  1
  Li  Li132  1  0.50000000  0.50000000  0.62167247  1
  Li  Li133  1  0.50000000  0.50000000  0.37832753  1
  Li  Li134  1  0.36135530  0.00000000  0.79614293  1
  Li  Li135  1  0.63864470  0.00000000  0.79614293  1
  Li  Li136  1  0.00000000  0.36135530  0.79614293  1
  Li  Li137  1  0.00000000  0.63864470  0.79614293  1
  Li  Li138  1  0.63864470  0.00000000  0.20385707  1
  Li  Li139  1  0.36135530  0.00000000  0.20385707  1
  Li  Li140  1  0.00000000  0.36135530  0.20385707  1
  Li  Li141  1  0.00000000  0.63864470  0.20385707  1
  Li  Li142  1  0.50000000  0.50000000  0.84507109  1
  Li  Li143  1  0.50000000  0.50000000  0.15492891  1
  Te  Te144  1  0.50000000  0.50000000  0.50000000  1
  Te  Te145  1  0.00000000  0.00000000  0.70024518  1
  Te  Te146  1  0.00000000  0.00000000  0.29975482  1
  Te  Te147  1  0.91884466  0.65987453  0.56155635  1
  Te  Te148  1  0.08115534  0.34012547  0.56155635  1
  Te  Te149  1  0.34012547  0.91884466  0.56155635  1
  Te  Te150  1  0.65987453  0.08115534  0.56155635  1
  Te  Te151  1  0.08115534  0.65987453  0.43844365  1
  Te  Te152  1  0.91884466  0.34012547  0.43844365  1
  Te  Te153  1  0.65987453  0.91884466  0.43844365  1
  Te  Te154  1  0.34012547  0.08115534  0.43844365  1
  Te  Te155  1  0.08115534  0.34012547  0.43844365  1
  Te  Te156  1  0.91884466  0.65987453  0.43844365  1
  Te  Te157  1  0.65987453  0.08115534  0.43844365  1
  Te  Te158  1  0.34012547  0.91884466  0.43844365  1
  Te  Te159  1  0.91884466  0.34012547  0.56155635  1
  Te  Te160  1  0.08115534  0.65987453  0.56155635  1
  Te  Te161  1  0.34012547  0.08115534  0.56155635  1
  Te  Te162  1  0.65987453  0.91884466  0.56155635  1
  Te  Te163  1  0.74857085  -0.00000000  0.00000000  1
  Te  Te164  1  0.25142915  0.00000000  0.00000000  1
  Te  Te165  1  0.00000000  0.74857085  0.00000000  1
  Te  Te166  1  0.00000000  0.25142915  0.00000000  1
  Te  Te167  1  0.00000000  0.00000000  0.00000000  1
