# generated using pymatgen
data_LiCu3P2Se
_symmetry_space_group_name_H-M   'P 1'
_cell_length_a   4.22398975
_cell_length_b   4.50501853
_cell_length_c   6.14750224
_cell_angle_alpha   95.84206046
_cell_angle_beta   100.01717701
_cell_angle_gamma   107.58351343
_symmetry_Int_Tables_number   1
_chemical_formula_structural   LiCu3P2Se
_chemical_formula_sum   'Li1 Cu3 P2 Se1'
_cell_volume   108.32183014
_cell_formula_units_Z   1
loop_
 _symmetry_equiv_pos_site_id
 _symmetry_equiv_pos_as_xyz
  1  'x, y, z'
loop_
 _atom_site_type_symbol
 _atom_site_label
 _atom_site_symmetry_multiplicity
 _atom_site_fract_x
 _atom_site_fract_y
 _atom_site_fract_z
 _atom_site_occupancy
  P  P0  1  0.12500000  0.00000000  0.25000000  1
  P  P1  1  0.00000000  0.00000000  0.00000000  1
  Se  Se2  1  0.37500000  0.00000000  0.25000000  1
  Li  Li3  1  0.25000000  0.25000000  0.25000000  1
  Cu  Cu4  1  0.00000000  0.25000000  0.12500000  1
  Cu  Cu5  1  0.10257402  0.11311323  0.62238077  1
  Cu  Cu6  1  0.98771312  0.64303699  0.78134255  1
