# generated using pymatgen
data_LiF
_symmetry_space_group_name_H-M   'P 1'
_cell_length_a   14.19124305
_cell_length_b   14.19124305
_cell_length_c   11.45243747
_cell_angle_alpha   90.00000000
_cell_angle_beta   90.00000000
_cell_angle_gamma   120.00000000
_symmetry_Int_Tables_number   1
_chemical_formula_structural   LiF
_chemical_formula_sum   'Li59 F59'
_cell_volume   1997.42019856
_cell_formula_units_Z   59
loop_
 _symmetry_equiv_pos_site_id
 _symmetry_equiv_pos_as_xyz
  1  'x, y, z'
loop_
 _atom_site_type_symbol
 _atom_site_label
 _atom_site_symmetry_multiplicity
 _atom_site_fract_x
 _atom_site_fract_y
 _atom_site_fract_z
 _atom_site_occupancy
  F  F0  1  0.66666667  0.33333333  0.00000000  1
  F  F1  1  0.66666667  0.33333333  0.62467320  1
  F  F2  1  0.66666667  0.33333333  0.37532680  1
  F  F3  1  0.33333333  0.66666667  0.00000000  1
  F  F4  1  0.00220964  0.45190335  0.77704223  1
  F  F5  1  0.54809665  0.55030629  0.77704223  1
  F  F6  1  0.44969371  0.99779036  0.77704223  1
  F  F7  1  0.54809665  0.99779036  0.22295777  1
  F  F8  1  0.44969371  0.45190335  0.22295777  1
  F  F9  1  0.00220964  0.55030629  0.22295777  1
  F  F10  1  0.46807713  0.74346260  0.10632277  1
  F  F11  1  0.25653740  0.72461453  0.10632277  1
  F  F12  1  0.27538547  0.53192287  0.10632277  1
  F  F13  1  0.25653740  0.53192287  0.89367723  1
  F  F14  1  0.27538547  0.74346260  0.89367723  1
  F  F15  1  0.46807713  0.72461453  0.89367723  1
  F  F16  1  0.56742724  0.38028744  0.43305905  1
  F  F17  1  0.61971256  0.18713980  0.43305905  1
  F  F18  1  0.81286020  0.43257276  0.43305905  1
  F  F19  1  0.61971256  0.43257276  0.56694095  1
  F  F20  1  0.81286020  0.38028744  0.56694095  1
  F  F21  1  0.56742724  0.18713980  0.56694095  1
  F  F22  1  0.51800342  0.01938583  0.29606369  1
  F  F23  1  0.98061417  0.49861759  0.29606369  1
  F  F24  1  0.50138241  0.48199658  0.29606369  1
  F  F25  1  0.98061417  0.48199658  0.70393631  1
  F  F26  1  0.50138241  0.01938583  0.70393631  1
  F  F27  1  0.51800342  0.49861759  0.70393631  1
  F  F28  1  0.86418775  0.29633160  0.83900590  1
  F  F29  1  0.70366840  0.56785614  0.83900590  1
  F  F30  1  0.43214386  0.13581225  0.83900590  1
  F  F31  1  0.70366840  0.13581225  0.16099410  1
  F  F32  1  0.43214386  0.29633160  0.16099410  1
  F  F33  1  0.86418775  0.56785614  0.16099410  1
  F  F34  1  0.37827259  0.46360501  0.97927512  1
  F  F35  1  0.53639499  0.91466758  0.97927512  1
  F  F36  1  0.08533242  0.62172741  0.97927512  1
  F  F37  1  0.53639499  0.62172741  0.02072488  1
  F  F38  1  0.08533242  0.46360501  0.02072488  1
  F  F39  1  0.37827259  0.91466758  0.02072488  1
  F  F40  1  0.33333333  0.66666667  0.50000000  1
  F  F41  1  0.17485170  0.23268787  0.74686379  1
  F  F42  1  0.76731213  0.94216383  0.74686379  1
  F  F43  1  0.05783617  0.82514830  0.74686379  1
  F  F44  1  0.76731213  0.82514830  0.25313621  1
  F  F45  1  0.05783617  0.23268787  0.25313621  1
  F  F46  1  0.17485170  0.94216383  0.25313621  1
  F  F47  1  0.87187483  0.23460590  0.16621229  1
  F  F48  1  0.76539410  0.63726893  0.16621229  1
  F  F49  1  0.36273107  0.12812517  0.16621229  1
  F  F50  1  0.76539410  0.12812517  0.83378771  1
  F  F51  1  0.36273107  0.23460590  0.83378771  1
  F  F52  1  0.87187483  0.63726893  0.83378771  1
  F  F53  1  0.64783559  0.35216441  0.50000000  1
  F  F54  1  0.64783559  0.29567118  0.50000000  1
  F  F55  1  0.70432882  0.35216441  0.50000000  1
  F  F56  1  0.70813973  0.29186027  0.00000000  1
  F  F57  1  0.70813973  0.41627947  0.00000000  1
  F  F58  1  0.58372053  0.29186027  0.00000000  1
  Li  Li59  1  0.95883392  0.81177599  0.28840607  1
  Li  Li60  1  -0.81177599  0.14705792  0.28840607  1
  Li  Li61  1  -0.14705792  -0.95883392  0.28840607  1
  Li  Li62  1  -0.81177599  -0.95883392  -0.28840607  1
  Li  Li63  1  -0.14705792  0.81177599  -0.28840607  1
  Li  Li64  1  0.95883392  0.14705792  -0.28840607  1
  Li  Li65  1  0.66886243  0.75887864  0.33359925  1
  Li  Li66  1  0.24112136  0.90998379  0.33359925  1
  Li  Li67  1  0.09001621  0.33113757  0.33359925  1
  Li  Li68  1  0.24112136  0.33113757  0.66640075  1
  Li  Li69  1  0.09001621  0.75887864  0.66640075  1
  Li  Li70  1  0.66886243  0.90998379  0.66640075  1
  Li  Li71  1  0.22658783  0.48262892  0.44321363  1
  Li  Li72  1  0.51737108  0.74395891  0.44321363  1
  Li  Li73  1  0.25604109  0.77341217  0.44321363  1
  Li  Li74  1  0.51737108  0.77341217  0.55678637  1
  Li  Li75  1  0.25604109  0.48262892  0.55678637  1
  Li  Li76  1  0.22658783  0.74395891  0.55678637  1
  Li  Li77  1  0.11567454  0.02964852  0.09199580  1
  Li  Li78  1  0.97035148  0.08602601  0.09199580  1
  Li  Li79  1  0.91397399  0.88432546  0.09199580  1
  Li  Li80  1  0.97035148  0.88432546  0.90800420  1
  Li  Li81  1  0.91397399  0.02964852  0.90800420  1
  Li  Li82  1  0.11567454  0.08602601  0.90800420  1
  Li  Li83  1  0.45287200  0.54712800  0.00000000  1
  Li  Li84  1  0.45287200  0.90574401  0.00000000  1
  Li  Li85  1  0.09425599  0.54712800  0.00000000  1
  Li  Li86  1  0.70728293  0.92777493  0.52111074  1
  Li  Li87  1  0.07222507  0.77950800  0.52111074  1
  Li  Li88  1  0.22049200  0.29271707  0.52111074  1
  Li  Li89  1  0.07222507  0.29271707  0.47888926  1
  Li  Li90  1  0.22049200  0.92777493  0.47888926  1
  Li  Li91  1  0.70728293  0.77950800  0.47888926  1
  Li  Li92  1  0.33333333  0.66666667  0.09580776  1
  Li  Li93  1  0.33333333  0.66666667  0.90419224  1
  Li  Li94  1  0.23646264  0.26011803  0.22228274  1
  Li  Li95  1  0.73988197  0.97634461  0.22228274  1
  Li  Li96  1  0.02365539  0.76353736  0.22228274  1
  Li  Li97  1  0.73988197  0.76353736  0.77771726  1
  Li  Li98  1  0.02365539  0.26011803  0.77771726  1
  Li  Li99  1  0.23646264  0.97634461  0.77771726  1
  Li  Li100  1  0.19236230  0.22062390  0.65883637  1
  Li  Li101  1  0.77937610  0.97173840  0.65883637  1
  Li  Li102  1  0.02826160  0.80763770  0.65883637  1
  Li  Li103  1  0.77937610  0.80763770  0.34116363  1
  Li  Li104  1  0.02826160  0.22062390  0.34116363  1
  Li  Li105  1  0.19236230  0.97173840  0.34116363  1
  Li  Li106  1  0.07262442  0.92737558  0.50000000  1
  Li  Li107  1  0.07262442  0.14524885  0.50000000  1
  Li  Li108  1  0.85475115  0.92737558  0.50000000  1
  Li  Li109  1  0.60057366  0.31881337  0.84677172  1
  Li  Li110  1  0.68118663  0.28176030  0.84677172  1
  Li  Li111  1  0.71823970  0.39942634  0.84677172  1
  Li  Li112  1  0.68118663  0.39942634  0.15322828  1
  Li  Li113  1  0.71823970  0.31881337  0.15322828  1
  Li  Li114  1  0.60057366  0.28176030  0.15322828  1
  Li  Li115  1  0.00000000  0.00000000  0.50000000  1
  Li  Li116  1  0.00000000  0.00000000  0.18664100  1
  Li  Li117  1  0.00000000  0.00000000  0.81335900  1
