# generated using pymatgen
data_LiF
_symmetry_space_group_name_H-M   'P 1'
_cell_length_a   10.65434468
_cell_length_b   10.65434468
_cell_length_c   9.23327704
_cell_angle_alpha   90.00000000
_cell_angle_beta   90.00000000
_cell_angle_gamma   90.00000000
_symmetry_Int_Tables_number   1
_chemical_formula_structural   LiF
_chemical_formula_sum   'Li64 F64'
_cell_volume   1048.11600193
_cell_formula_units_Z   64
loop_
 _symmetry_equiv_pos_site_id
 _symmetry_equiv_pos_as_xyz
  1  'x, y, z'
loop_
 _atom_site_type_symbol
 _atom_site_label
 _atom_site_symmetry_multiplicity
 _atom_site_fract_x
 _atom_site_fract_y
 _atom_site_fract_z
 _atom_site_occupancy
  F  F0  1  0.09442366  0.25624937  0.88763077  1
  F  F1  1  0.40557634  0.74375063  0.38763077  1
  F  F2  1  0.99375063  0.84442366  0.13763077  1
  F  F3  1  0.50624937  0.15557634  0.63763077  1
  F  F4  1  0.40557634  0.25624937  0.11236923  1
  F  F5  1  0.09442366  0.74375063  0.61236923  1
  F  F6  1  0.50624937  0.84442366  0.86236923  1
  F  F7  1  0.99375063  0.15557634  0.36236923  1
  F  F8  1  0.90557634  0.74375063  0.11236923  1
  F  F9  1  0.59442366  0.25624937  0.61236923  1
  F  F10  1  0.00624937  0.15557634  0.86236923  1
  F  F11  1  0.49375063  0.84442366  0.36236923  1
  F  F12  1  0.59442366  0.74375063  0.88763077  1
  F  F13  1  0.90557634  0.25624937  0.38763077  1
  F  F14  1  0.49375063  0.15557634  0.13763077  1
  F  F15  1  0.00624937  0.84442366  0.63763077  1
  F  F16  1  0.59442366  0.75624937  0.38763077  1
  F  F17  1  0.90557634  0.24375063  0.88763077  1
  F  F18  1  0.49375063  0.34442366  0.63763077  1
  F  F19  1  0.00624937  0.65557634  0.13763077  1
  F  F20  1  0.90557634  0.75624937  0.61236923  1
  F  F21  1  0.59442366  0.24375063  0.11236923  1
  F  F22  1  0.00624937  0.34442366  0.36236923  1
  F  F23  1  0.49375063  0.65557634  0.86236923  1
  F  F24  1  0.40557634  0.24375063  0.61236923  1
  F  F25  1  0.09442366  0.75624937  0.11236923  1
  F  F26  1  0.50624937  0.65557634  0.36236923  1
  F  F27  1  0.99375063  0.34442366  0.86236923  1
  F  F28  1  0.09442366  0.24375063  0.38763077  1
  F  F29  1  0.40557634  0.75624937  0.88763077  1
  F  F30  1  0.99375063  0.65557634  0.63763077  1
  F  F31  1  0.50624937  0.34442366  0.13763077  1
  F  F32  1  0.95840799  0.12834775  0.23774003  1
  F  F33  1  0.54159201  0.87165225  0.73774003  1
  F  F34  1  0.12165225  0.70840799  0.48774003  1
  F  F35  1  0.37834775  0.29159201  0.98774003  1
  F  F36  1  0.54159201  0.12834775  0.76225997  1
  F  F37  1  0.95840799  0.87165225  0.26225997  1
  F  F38  1  0.37834775  0.70840799  0.51225997  1
  F  F39  1  0.12165225  0.29159201  0.01225997  1
  F  F40  1  0.04159201  0.87165225  0.76225997  1
  F  F41  1  0.45840799  0.12834775  0.26225997  1
  F  F42  1  0.87834775  0.29159201  0.51225997  1
  F  F43  1  0.62165225  0.70840799  0.01225997  1
  F  F44  1  0.45840799  0.87165225  0.23774003  1
  F  F45  1  0.04159201  0.12834775  0.73774003  1
  F  F46  1  0.62165225  0.29159201  0.48774003  1
  F  F47  1  0.87834775  0.70840799  0.98774003  1
  F  F48  1  0.45840799  0.62834775  0.73774003  1
  F  F49  1  0.04159201  0.37165225  0.23774003  1
  F  F50  1  0.62165225  0.20840799  0.98774003  1
  F  F51  1  0.87834775  0.79159201  0.48774003  1
  F  F52  1  0.04159201  0.62834775  0.26225997  1
  F  F53  1  0.45840799  0.37165225  0.76225997  1
  F  F54  1  0.87834775  0.20840799  0.01225997  1
  F  F55  1  0.62165225  0.79159201  0.51225997  1
  F  F56  1  0.54159201  0.37165225  0.26225997  1
  F  F57  1  0.95840799  0.62834775  0.76225997  1
  F  F58  1  0.37834775  0.79159201  0.01225997  1
  F  F59  1  0.12165225  0.20840799  0.51225997  1
  F  F60  1  0.95840799  0.37165225  0.73774003  1
  F  F61  1  0.54159201  0.62834775  0.23774003  1
  F  F62  1  0.12165225  0.79159201  0.98774003  1
  F  F63  1  0.37834775  0.20840799  0.48774003  1
  Li  Li64  1  0.07845919  0.39218653  0.87687955  1
  Li  Li65  1  0.42154081  -0.39218653  1.37687955  1
  Li  Li66  1  -0.14218653  0.82845919  1.12687955  1
  Li  Li67  1  0.64218653  0.17154081  1.62687955  1
  Li  Li68  1  0.42154081  0.39218653  -0.87687955  1
  Li  Li69  1  0.07845919  -0.39218653  -0.37687955  1
  Li  Li70  1  0.64218653  0.82845919  -0.12687955  1
  Li  Li71  1  -0.14218653  0.17154081  -0.62687955  1
  Li  Li72  1  -0.07845919  -0.39218653  -0.87687955  1
  Li  Li73  1  0.57845919  0.39218653  -0.37687955  1
  Li  Li74  1  1.14218653  0.17154081  -0.12687955  1
  Li  Li75  1  0.35781347  0.82845919  -0.62687955  1
  Li  Li76  1  0.57845919  -0.39218653  0.87687955  1
  Li  Li77  1  -0.07845919  0.39218653  1.37687955  1
  Li  Li78  1  0.35781347  0.17154081  1.12687955  1
  Li  Li79  1  1.14218653  0.82845919  1.62687955  1
  Li  Li80  1  0.57845919  0.89218653  1.37687955  1
  Li  Li81  1  0.92154081  0.10781347  1.87687955  1
  Li  Li82  1  0.35781347  1.32845919  1.62687955  1
  Li  Li83  1  1.14218653  0.67154081  2.12687955  1
  Li  Li84  1  0.92154081  0.89218653  -0.37687955  1
  Li  Li85  1  0.57845919  0.10781347  0.12312045  1
  Li  Li86  1  1.14218653  1.32845919  0.37312045  1
  Li  Li87  1  0.35781347  0.67154081  -0.12687955  1
  Li  Li88  1  0.42154081  0.10781347  -0.37687955  1
  Li  Li89  1  1.07845919  0.89218653  0.12312045  1
  Li  Li90  1  1.64218653  0.67154081  0.37312045  1
  Li  Li91  1  0.85781347  1.32845919  -0.12687955  1
  Li  Li92  1  1.07845919  0.10781347  1.37687955  1
  Li  Li93  1  0.42154081  0.89218653  1.87687955  1
  Li  Li94  1  0.85781347  0.67154081  1.62687955  1
  Li  Li95  1  1.64218653  1.32845919  2.12687955  1
  Li  Li96  1  0.21552123  0.46552123  0.12500000  1
  Li  Li97  1  0.28447877  0.53447877  0.62500000  1
  Li  Li98  1  0.78447877  0.96552123  0.37500000  1
  Li  Li99  1  0.71552123  0.03447877  0.87500000  1
  Li  Li100  1  0.78447877  0.53447877  0.87500000  1
  Li  Li101  1  0.71552123  0.46552123  0.37500000  1
  Li  Li102  1  0.21552123  0.03447877  0.62500000  1
  Li  Li103  1  0.28447877  0.96552123  0.12500000  1
  Li  Li104  1  0.71552123  0.96552123  0.62500000  1
  Li  Li105  1  0.78447877  0.03447877  0.12500000  1
  Li  Li106  1  0.28447877  0.46552123  0.87500000  1
  Li  Li107  1  0.21552123  0.53447877  0.37500000  1
  Li  Li108  1  0.28447877  0.03447877  0.37500000  1
  Li  Li109  1  0.21552123  0.96552123  0.87500000  1
  Li  Li110  1  0.71552123  0.53447877  0.12500000  1
  Li  Li111  1  0.78447877  0.46552123  0.62500000  1
  Li  Li112  1  0.00000000  0.25000000  0.12500000  1
  Li  Li113  1  0.00000000  0.75000000  0.37500000  1
  Li  Li114  1  0.00000000  0.75000000  0.87500000  1
  Li  Li115  1  0.00000000  0.25000000  0.62500000  1
  Li  Li116  1  0.50000000  0.75000000  0.62500000  1
  Li  Li117  1  0.50000000  0.25000000  0.87500000  1
  Li  Li118  1  0.50000000  0.25000000  0.37500000  1
  Li  Li119  1  0.50000000  0.75000000  0.12500000  1
  Li  Li120  1  0.00000000  0.25000000  0.37500000  1
  Li  Li121  1  0.00000000  0.75000000  0.62500000  1
  Li  Li122  1  0.50000000  0.25000000  0.62500000  1
  Li  Li123  1  0.50000000  0.75000000  0.37500000  1
  Li  Li124  1  0.50000000  0.75000000  0.87500000  1
  Li  Li125  1  0.50000000  0.25000000  0.12500000  1
  Li  Li126  1  0.00000000  0.75000000  0.12500000  1
  Li  Li127  1  0.00000000  0.25000000  0.87500000  1
