# generated using pymatgen
data_Li2Y2As2P3Se
_symmetry_space_group_name_H-M   'P 1'
_cell_length_a   4.04049609
_cell_length_b   4.30992274
_cell_length_c   6.50255041
_cell_angle_alpha   96.08845403
_cell_angle_beta   102.57521967
_cell_angle_gamma   112.27205413
_symmetry_Int_Tables_number   1
_chemical_formula_structural   Li2Y2As2P3Se
_chemical_formula_sum   'Li2 Y2 As2 P3 Se1'
_cell_volume   100.02087153
_cell_formula_units_Z   1
loop_
 _symmetry_equiv_pos_site_id
 _symmetry_equiv_pos_as_xyz
  1  'x, y, z'
loop_
 _atom_site_type_symbol
 _atom_site_label
 _atom_site_symmetry_multiplicity
 _atom_site_fract_x
 _atom_site_fract_y
 _atom_site_fract_z
 _atom_site_occupancy
  Y  Y0  1  0.12500000  0.00000000  0.25000000  1
  Y  Y1  1  0.00000000  0.00000000  0.00000000  1
  P  P2  1  0.37500000  0.00000000  0.25000000  1
  P  P3  1  0.25000000  0.25000000  0.25000000  1
  P  P4  1  0.00000000  0.25000000  0.12500000  1
  Se  Se5  1  0.30494300  0.67648724  0.52279919  1
  As  As6  1  0.47653833  0.06494585  0.79850383  1
  As  As7  1  0.19201337  0.75831727  0.13316351  1
  Li  Li8  1  0.08458405  0.03359887  0.03052543  1
  Li  Li9  1  0.61590331  0.22218203  0.95726131  1
