# generated using pymatgen
data_LiF
_symmetry_space_group_name_H-M   'P 1'
_cell_length_a   7.74095394
_cell_length_b   5.36224839
_cell_length_c   12.27403606
_cell_angle_alpha   90.00000000
_cell_angle_beta   90.00000000
_cell_angle_gamma   90.00000000
_symmetry_Int_Tables_number   1
_chemical_formula_structural   LiF
_chemical_formula_sum   'Li24 F24'
_cell_volume   509.48195388
_cell_formula_units_Z   24
loop_
 _symmetry_equiv_pos_site_id
 _symmetry_equiv_pos_as_xyz
  1  'x, y, z'
loop_
 _atom_site_type_symbol
 _atom_site_label
 _atom_site_symmetry_multiplicity
 _atom_site_fract_x
 _atom_site_fract_y
 _atom_site_fract_z
 _atom_site_occupancy
  F  F0  1  0.85012184  0.49053941  0.70903471  1
  F  F1  1  0.64987816  0.50946059  0.20903471  1
  F  F2  1  0.14987816  0.99053941  0.29096529  1
  F  F3  1  0.35012184  0.00946059  0.79096529  1
  F  F4  1  0.14987816  0.50946059  0.29096529  1
  F  F5  1  0.35012184  0.49053941  0.79096529  1
  F  F6  1  0.85012184  0.00946059  0.70903471  1
  F  F7  1  0.64987816  0.99053941  0.20903471  1
  F  F8  1  0.48739611  0.14169892  0.64030297  1
  F  F9  1  0.01260389  0.85830108  0.14030297  1
  F  F10  1  0.51260389  0.64169892  0.35969703  1
  F  F11  1  0.98739611  0.35830108  0.85969703  1
  F  F12  1  0.51260389  0.85830108  0.35969703  1
  F  F13  1  0.98739611  0.14169892  0.85969703  1
  F  F14  1  0.48739611  0.35830108  0.64030297  1
  F  F15  1  0.01260389  0.64169892  0.14030297  1
  F  F16  1  0.00000000  0.00000000  0.00000000  1
  F  F17  1  0.50000000  0.00000000  0.50000000  1
  F  F18  1  0.00000000  0.50000000  0.00000000  1
  F  F19  1  0.50000000  0.50000000  0.50000000  1
  F  F20  1  0.82212604  0.25000000  0.32266798  1
  F  F21  1  0.67787396  0.75000000  0.82266798  1
  F  F22  1  0.17787396  0.75000000  0.67733202  1
  F  F23  1  0.32212604  0.25000000  0.17733202  1
  Li  Li24  1  0.11907677  0.10237314  0.93582534  1
  Li  Li25  1  0.38092323  -0.10237314  1.43582534  1
  Li  Li26  1  -0.11907677  0.60237314  -0.93582534  1
  Li  Li27  1  0.61907677  0.39762686  -0.43582534  1
  Li  Li28  1  -0.11907677  -0.10237314  -0.93582534  1
  Li  Li29  1  0.61907677  0.10237314  -0.43582534  1
  Li  Li30  1  0.11907677  0.39762686  0.93582534  1
  Li  Li31  1  0.38092323  0.60237314  1.43582534  1
  Li  Li32  1  0.27918073  0.09021172  0.60344382  1
  Li  Li33  1  0.22081927  0.90978828  0.10344382  1
  Li  Li34  1  0.72081927  0.59021172  0.39655618  1
  Li  Li35  1  0.77918073  0.40978828  0.89655618  1
  Li  Li36  1  0.72081927  0.90978828  0.39655618  1
  Li  Li37  1  0.77918073  0.09021172  0.89655618  1
  Li  Li38  1  0.27918073  0.40978828  0.60344382  1
  Li  Li39  1  0.22081927  0.59021172  0.10344382  1
  Li  Li40  1  0.52021144  0.25000000  0.90483661  1
  Li  Li41  1  0.97978856  0.75000000  0.40483661  1
  Li  Li42  1  0.47978856  0.75000000  0.09516339  1
  Li  Li43  1  0.02021144  0.25000000  0.59516339  1
  Li  Li44  1  0.00000000  0.00000000  0.50000000  1
  Li  Li45  1  0.50000000  0.00000000  0.00000000  1
  Li  Li46  1  0.00000000  0.50000000  0.50000000  1
  Li  Li47  1  0.50000000  0.50000000  0.00000000  1
