# generated using pymatgen
data_LiF
_symmetry_space_group_name_H-M   'P 1'
_cell_length_a   8.46831535
_cell_length_b   12.03738185
_cell_length_c   7.51005556
_cell_angle_alpha   90.00000000
_cell_angle_beta   90.00000000
_cell_angle_gamma   90.00000000
_symmetry_Int_Tables_number   1
_chemical_formula_structural   LiF
_chemical_formula_sum   'Li24 F24'
_cell_volume   765.54761790
_cell_formula_units_Z   24
loop_
 _symmetry_equiv_pos_site_id
 _symmetry_equiv_pos_as_xyz
  1  'x, y, z'
loop_
 _atom_site_type_symbol
 _atom_site_label
 _atom_site_symmetry_multiplicity
 _atom_site_fract_x
 _atom_site_fract_y
 _atom_site_fract_z
 _atom_site_occupancy
  F  F0  1  0.25681985  0.25000000  0.46820039  1
  F  F1  1  0.24318015  0.75000000  0.96820039  1
  F  F2  1  0.74318015  0.75000000  0.53179961  1
  F  F3  1  0.75681985  0.25000000  0.03179961  1
  F  F4  1  0.85378737  0.79869271  0.95279746  1
  F  F5  1  0.64621263  0.20130729  0.45279746  1
  F  F6  1  0.14621263  0.29869271  0.04720254  1
  F  F7  1  0.35378737  0.70130729  0.54720254  1
  F  F8  1  0.14621263  0.20130729  0.04720254  1
  F  F9  1  0.35378737  0.79869271  0.54720254  1
  F  F10  1  0.85378737  0.70130729  0.95279746  1
  F  F11  1  0.64621263  0.29869271  0.45279746  1
  F  F12  1  0.00000000  0.00000000  0.50000000  1
  F  F13  1  0.50000000  0.00000000  0.00000000  1
  F  F14  1  0.00000000  0.50000000  0.50000000  1
  F  F15  1  0.50000000  0.50000000  0.00000000  1
  F  F16  1  0.41945265  0.53836280  0.06544920  1
  F  F17  1  0.08054735  0.46163720  0.56544920  1
  F  F18  1  0.58054735  0.03836280  0.93455080  1
  F  F19  1  0.91945265  0.96163720  0.43455080  1
  F  F20  1  0.58054735  0.46163720  0.93455080  1
  F  F21  1  0.91945265  0.53836280  0.43455080  1
  F  F22  1  0.41945265  0.96163720  0.06544920  1
  F  F23  1  0.08054735  0.03836280  0.56544920  1
  Li  Li24  1  0.76850448  0.25000000  0.88738328  1
  Li  Li25  1  0.73149552  0.75000000  0.38738328  1
  Li  Li26  1  0.23149552  0.75000000  0.11261672  1
  Li  Li27  1  0.26850448  0.25000000  0.61261672  1
  Li  Li28  1  0.00000000  0.00000000  0.00000000  1
  Li  Li29  1  0.50000000  0.00000000  0.50000000  1
  Li  Li30  1  0.00000000  0.50000000  0.00000000  1
  Li  Li31  1  0.50000000  0.50000000  0.50000000  1
  Li  Li32  1  0.39843609  0.63939595  0.80276858  1
  Li  Li33  1  0.10156391  -0.63939595  1.30276858  1
  Li  Li34  1  -0.39843609  1.13939595  -0.80276858  1
  Li  Li35  1  0.89843609  -0.13939595  -0.30276858  1
  Li  Li36  1  -0.39843609  -0.63939595  -0.80276858  1
  Li  Li37  1  0.89843609  0.63939595  -0.30276858  1
  Li  Li38  1  0.39843609  -0.13939595  0.80276858  1
  Li  Li39  1  0.10156391  1.13939595  1.30276858  1
  Li  Li40  1  0.52112163  0.25000000  0.93671980  1
  Li  Li41  1  0.97887837  0.75000000  0.43671980  1
  Li  Li42  1  0.47887837  0.75000000  0.06328020  1
  Li  Li43  1  0.02112163  0.25000000  0.56328020  1
  Li  Li44  1  0.33752043  0.25000000  0.14346557  1
  Li  Li45  1  0.16247957  0.75000000  0.64346557  1
  Li  Li46  1  0.66247957  0.75000000  0.85653443  1
  Li  Li47  1  0.83752043  0.25000000  0.35653443  1
