# generated using pymatgen
data_LiY2MoP3
_symmetry_space_group_name_H-M   'P 1'
_cell_length_a   4.86223533
_cell_length_b   5.00578420
_cell_length_c   7.03880803
_cell_angle_alpha   95.05481684
_cell_angle_beta   101.00834020
_cell_angle_gamma   110.30319025
_symmetry_Int_Tables_number   1
_chemical_formula_structural   LiY2MoP3
_chemical_formula_sum   'Li1 Y2 Mo1 P3'
_cell_volume   155.48595813
_cell_formula_units_Z   1
loop_
 _symmetry_equiv_pos_site_id
 _symmetry_equiv_pos_as_xyz
  1  'x, y, z'
loop_
 _atom_site_type_symbol
 _atom_site_label
 _atom_site_symmetry_multiplicity
 _atom_site_fract_x
 _atom_site_fract_y
 _atom_site_fract_z
 _atom_site_occupancy
  P  P0  1  0.12500000  0.00000000  0.25000000  1
  P  P1  1  0.00000000  0.00000000  0.00000000  1
  P  P2  1  0.37500000  0.00000000  0.25000000  1
  Mo  Mo3  1  0.25000000  0.25000000  0.25000000  1
  Li  Li4  1  0.00000000  0.25000000  0.12500000  1
  Y  Y5  1  0.47633436  0.21075857  0.77559031  1
  Y  Y6  1  0.34959375  0.08670919  0.20166417  1
