# generated using pymatgen
data_Li3ScO
_symmetry_space_group_name_H-M   'P 1'
_cell_length_a   3.42628721
_cell_length_b   3.34154102
_cell_length_c   5.74839311
_cell_angle_alpha   108.60696056
_cell_angle_beta   104.65763231
_cell_angle_gamma   105.44969994
_symmetry_Int_Tables_number   1
_chemical_formula_structural   Li3ScO
_chemical_formula_sum   'Li3 Sc1 O1'
_cell_volume   55.85182284
_cell_formula_units_Z   1
loop_
 _symmetry_equiv_pos_site_id
 _symmetry_equiv_pos_as_xyz
  1  'x, y, z'
loop_
 _atom_site_type_symbol
 _atom_site_label
 _atom_site_symmetry_multiplicity
 _atom_site_fract_x
 _atom_site_fract_y
 _atom_site_fract_z
 _atom_site_occupancy
  Li  Li0  1  0.00000000  0.00000000  0.00000000  1
  Li  Li1  1  0.50000000  0.50000000  0.50000000  1
  Li  Li2  1  0.50000000  0.50000000  0.00000000  1
  O  O3  1  0.50000000  0.00000000  0.50000000  1
  Sc  Sc4  1  0.00000000  0.50000000  0.50000000  1
