# generated using pymatgen
data_LiF
_symmetry_space_group_name_H-M   'P 1'
_cell_length_a   5.73843752
_cell_length_b   7.89006251
_cell_length_c   12.58700362
_cell_angle_alpha   90.00000000
_cell_angle_beta   90.00000000
_cell_angle_gamma   90.00000000
_symmetry_Int_Tables_number   1
_chemical_formula_structural   LiF
_chemical_formula_sum   'Li24 F24'
_cell_volume   569.89711565
_cell_formula_units_Z   24
loop_
 _symmetry_equiv_pos_site_id
 _symmetry_equiv_pos_as_xyz
  1  'x, y, z'
loop_
 _atom_site_type_symbol
 _atom_site_label
 _atom_site_symmetry_multiplicity
 _atom_site_fract_x
 _atom_site_fract_y
 _atom_site_fract_z
 _atom_site_occupancy
  F  F0  1  0.55648638  0.25000000  0.24618705  1
  F  F1  1  0.94351362  0.75000000  0.74618705  1
  F  F2  1  0.44351362  0.75000000  0.75381295  1
  F  F3  1  0.05648638  0.25000000  0.25381295  1
  F  F4  1  0.92709388  0.63470908  0.08858097  1
  F  F5  1  0.57290612  0.36529092  0.58858097  1
  F  F6  1  0.07290612  0.13470908  0.91141903  1
  F  F7  1  0.42709388  0.86529092  0.41141903  1
  F  F8  1  0.07290612  0.36529092  0.91141903  1
  F  F9  1  0.42709388  0.63470908  0.41141903  1
  F  F10  1  0.92709388  0.86529092  0.08858097  1
  F  F11  1  0.57290612  0.13470908  0.58858097  1
  F  F12  1  0.67529416  0.25000000  0.87025243  1
  F  F13  1  0.82470584  0.75000000  0.37025243  1
  F  F14  1  0.32470584  0.75000000  0.12974757  1
  F  F15  1  0.17529416  0.25000000  0.62974757  1
  F  F16  1  0.53746663  0.32939575  0.93338747  1
  F  F17  1  0.96253337  0.67060425  0.43338747  1
  F  F18  1  0.46253337  0.82939575  0.06661253  1
  F  F19  1  0.03746663  0.17060425  0.56661253  1
  F  F20  1  0.46253337  0.67060425  0.06661253  1
  F  F21  1  0.03746663  0.32939575  0.56661253  1
  F  F22  1  0.53746663  0.17060425  0.93338747  1
  F  F23  1  0.96253337  0.82939575  0.43338747  1
  Li  Li24  1  0.00000000  0.00000000  0.50000000  1
  Li  Li25  1  0.50000000  -0.00000000  0.00000000  1
  Li  Li26  1  0.00000000  0.50000000  0.50000000  1
  Li  Li27  1  0.50000000  0.50000000  -0.00000000  1
  Li  Li28  1  0.20815733  0.25000000  0.89629831  1
  Li  Li29  1  0.29184267  0.75000000  0.39629831  1
  Li  Li30  1  0.79184267  0.75000000  0.10370169  1
  Li  Li31  1  0.70815733  0.25000000  0.60370169  1
  Li  Li32  1  0.00000000  0.00000000  0.00000000  1
  Li  Li33  1  0.50000000  -0.00000000  0.50000000  1
  Li  Li34  1  0.00000000  0.50000000  -0.00000000  1
  Li  Li35  1  0.50000000  0.50000000  0.50000000  1
  Li  Li36  1  0.82732095  0.34484694  0.50388586  1
  Li  Li37  1  -0.32732095  -0.34484694  1.00388586  1
  Li  Li38  1  -0.82732095  0.84484694  -0.50388586  1
  Li  Li39  1  1.32732095  0.15515306  -0.00388586  1
  Li  Li40  1  -0.82732095  -0.34484694  -0.50388586  1
  Li  Li41  1  1.32732095  0.34484694  -0.00388586  1
  Li  Li42  1  0.82732095  0.15515306  0.50388586  1
  Li  Li43  1  -0.32732095  0.84484694  1.00388586  1
  Li  Li44  1  0.98975800  0.25000000  0.36076073  1
  Li  Li45  1  0.51024200  0.75000000  0.86076073  1
  Li  Li46  1  0.01024200  0.75000000  0.63923927  1
  Li  Li47  1  0.48975800  0.25000000  0.13923927  1
