# generated using pymatgen
data_LiF
_symmetry_space_group_name_H-M   'P 1'
_cell_length_a   10.65560506
_cell_length_b   10.65560506
_cell_length_c   7.83818776
_cell_angle_alpha   90.00000000
_cell_angle_beta   90.00000000
_cell_angle_gamma   90.00000000
_symmetry_Int_Tables_number   1
_chemical_formula_structural   LiF
_chemical_formula_sum   'Li28 F28'
_cell_volume   889.96288101
_cell_formula_units_Z   28
loop_
 _symmetry_equiv_pos_site_id
 _symmetry_equiv_pos_as_xyz
  1  'x, y, z'
loop_
 _atom_site_type_symbol
 _atom_site_label
 _atom_site_symmetry_multiplicity
 _atom_site_fract_x
 _atom_site_fract_y
 _atom_site_fract_z
 _atom_site_occupancy
  F  F0  1  0.39336944  0.10032711  0.27567283  1
  F  F1  1  -0.39336944  -0.10032711  0.27567283  1
  F  F2  1  -0.10032711  0.39336944  0.27567283  1
  F  F3  1  0.10032711  -0.39336944  0.27567283  1
  F  F4  1  -0.39336944  0.10032711  -0.27567283  1
  F  F5  1  0.39336944  -0.10032711  -0.27567283  1
  F  F6  1  0.10032711  0.39336944  -0.27567283  1
  F  F7  1  -0.10032711  -0.39336944  -0.27567283  1
  F  F8  1  -0.39336944  -0.10032711  -0.27567283  1
  F  F9  1  0.39336944  0.10032711  -0.27567283  1
  F  F10  1  0.10032711  -0.39336944  -0.27567283  1
  F  F11  1  -0.10032711  0.39336944  -0.27567283  1
  F  F12  1  0.39336944  -0.10032711  0.27567283  1
  F  F13  1  -0.39336944  0.10032711  0.27567283  1
  F  F14  1  -0.10032711  -0.39336944  0.27567283  1
  F  F15  1  0.10032711  0.39336944  0.27567283  1
  F  F16  1  0.06337618  0.50000000  0.00000000  1
  F  F17  1  0.93662382  0.50000000  -0.00000000  1
  F  F18  1  0.50000000  0.06337618  0.00000000  1
  F  F19  1  0.50000000  0.93662382  0.00000000  1
  F  F20  1  0.00000000  0.50000000  0.00000000  1
  F  F21  1  0.50000000  0.00000000  0.00000000  1
  F  F22  1  0.00000000  0.50000000  0.11485502  1
  F  F23  1  0.50000000  0.00000000  0.11485502  1
  F  F24  1  0.00000000  0.50000000  0.88514498  1
  F  F25  1  0.50000000  0.00000000  0.88514498  1
  F  F26  1  0.00000000  0.00000000  0.37267884  1
  F  F27  1  0.00000000  0.00000000  0.62732116  1
  Li  Li28  1  0.21244899  0.21244899  0.00000000  1
  Li  Li29  1  0.78755101  0.78755101  0.00000000  1
  Li  Li30  1  0.78755101  0.21244899  0.00000000  1
  Li  Li31  1  0.21244899  0.78755101  0.00000000  1
  Li  Li32  1  0.67700487  0.67700487  0.77883402  1
  Li  Li33  1  0.32299513  0.32299513  0.77883402  1
  Li  Li34  1  0.32299513  0.67700487  0.77883402  1
  Li  Li35  1  0.67700487  0.32299513  0.77883402  1
  Li  Li36  1  0.32299513  0.67700487  0.22116598  1
  Li  Li37  1  0.67700487  0.32299513  0.22116598  1
  Li  Li38  1  0.67700487  0.67700487  0.22116598  1
  Li  Li39  1  0.32299513  0.32299513  0.22116598  1
  Li  Li40  1  0.06322522  0.06322522  0.50000000  1
  Li  Li41  1  0.93677478  0.93677478  0.50000000  1
  Li  Li42  1  0.93677478  0.06322522  0.50000000  1
  Li  Li43  1  0.06322522  0.93677478  0.50000000  1
  Li  Li44  1  0.59972978  0.18842858  0.50000000  1
  Li  Li45  1  0.40027022  0.81157142  0.50000000  1
  Li  Li46  1  0.81157142  0.59972978  0.50000000  1
  Li  Li47  1  0.18842858  0.40027022  0.50000000  1
  Li  Li48  1  0.40027022  0.18842858  0.50000000  1
  Li  Li49  1  0.59972978  0.81157142  0.50000000  1
  Li  Li50  1  0.18842858  0.59972978  0.50000000  1
  Li  Li51  1  0.81157142  0.40027022  0.50000000  1
  Li  Li52  1  0.50000000  0.50000000  0.50000000  1
  Li  Li53  1  0.00000000  0.00000000  0.00000000  1
  Li  Li54  1  0.50000000  0.50000000  0.77681986  1
  Li  Li55  1  0.50000000  0.50000000  0.22318014  1
