# generated using pymatgen
data_Li2Y2As3P3Se
_symmetry_space_group_name_H-M   'P 1'
_cell_length_a   5.46043417
_cell_length_b   5.69872014
_cell_length_c   7.34428442
_cell_angle_alpha   93.90544307
_cell_angle_beta   98.50524307
_cell_angle_gamma   105.68661260
_symmetry_Int_Tables_number   1
_chemical_formula_structural   Li2Y2As3P3Se
_chemical_formula_sum   'Li2 Y2 As3 P3 Se1'
_cell_volume   216.19721695
_cell_formula_units_Z   1
loop_
 _symmetry_equiv_pos_site_id
 _symmetry_equiv_pos_as_xyz
  1  'x, y, z'
loop_
 _atom_site_type_symbol
 _atom_site_label
 _atom_site_symmetry_multiplicity
 _atom_site_fract_x
 _atom_site_fract_y
 _atom_site_fract_z
 _atom_site_occupancy
  Se  Se0  1  0.00000000  0.00000000  0.00000000  1
  P  P1  1  0.50000000  0.50000000  0.50000000  1
  P  P2  1  0.50000000  0.50000000  0.00000000  1
  P  P3  1  0.50000000  0.00000000  0.50000000  1
  As  As4  1  0.00000000  0.50000000  0.50000000  1
  As  As5  1  0.05864761  0.77306604  0.64025299  1
  As  As6  1  0.74496459  0.74601107  0.39806796  1
  Li  Li7  1  0.95954189  0.03982671  0.49461542  1
  Li  Li8  1  0.81557515  0.91435656  0.99215152  1
  Y  Y9  1  0.56354131  0.50084180  0.40235646  1
  Y  Y10  1  0.73745742  0.36705904  0.13229586  1
