# generated using pymatgen
data_LiF
_symmetry_space_group_name_H-M   'P 1'
_cell_length_a   13.51772780
_cell_length_b   7.03244569
_cell_length_c   10.04129533
_cell_angle_alpha   90.00000000
_cell_angle_beta   90.00000000
_cell_angle_gamma   90.00000000
_symmetry_Int_Tables_number   1
_chemical_formula_structural   LiF
_chemical_formula_sum   'Li28 F28'
_cell_volume   954.55251095
_cell_formula_units_Z   28
loop_
 _symmetry_equiv_pos_site_id
 _symmetry_equiv_pos_as_xyz
  1  'x, y, z'
loop_
 _atom_site_type_symbol
 _atom_site_label
 _atom_site_symmetry_multiplicity
 _atom_site_fract_x
 _atom_site_fract_y
 _atom_site_fract_z
 _atom_site_occupancy
  F  F0  1  0.97964726  0.09742960  0.94280045  1
  F  F1  1  -0.97964726  -0.09742960  0.94280045  1
  F  F2  1  -0.47964726  0.59742960  -0.44280045  1
  F  F3  1  1.47964726  0.40257040  -0.44280045  1
  F  F4  1  -0.97964726  -0.09742960  -0.94280045  1
  F  F5  1  0.97964726  0.09742960  -0.94280045  1
  F  F6  1  1.47964726  0.40257040  1.44280045  1
  F  F7  1  -0.47964726  0.59742960  1.44280045  1
  F  F8  1  0.00000000  0.00000000  0.23924646  1
  F  F9  1  0.50000000  0.50000000  0.26075354  1
  F  F10  1  0.00000000  0.00000000  0.76075354  1
  F  F11  1  0.50000000  0.50000000  0.73924646  1
  F  F12  1  0.45004217  0.07850860  0.71314481  1
  F  F13  1  0.54995783  0.92149140  0.71314481  1
  F  F14  1  0.04995783  0.57850860  0.78685519  1
  F  F15  1  0.95004217  0.42149140  0.78685519  1
  F  F16  1  0.54995783  0.92149140  0.28685519  1
  F  F17  1  0.45004217  0.07850860  0.28685519  1
  F  F18  1  0.95004217  0.42149140  0.21314481  1
  F  F19  1  0.04995783  0.57850860  0.21314481  1
  F  F20  1  0.00000000  0.00000000  0.46244459  1
  F  F21  1  0.50000000  0.50000000  0.03755541  1
  F  F22  1  0.00000000  0.00000000  0.53755541  1
  F  F23  1  0.50000000  0.50000000  0.96244459  1
  F  F24  1  0.00000000  0.50000000  0.89609140  1
  F  F25  1  0.50000000  0.00000000  0.60390860  1
  F  F26  1  0.00000000  0.50000000  0.10390860  1
  F  F27  1  0.50000000  0.00000000  0.39609140  1
  Li  Li28  1  0.28493113  0.13973268  0.70801252  1
  Li  Li29  1  0.71506887  0.86026732  0.70801252  1
  Li  Li30  1  0.21506887  0.63973268  0.79198748  1
  Li  Li31  1  0.78493113  0.36026732  0.79198748  1
  Li  Li32  1  0.71506887  0.86026732  0.29198748  1
  Li  Li33  1  0.28493113  0.13973268  0.29198748  1
  Li  Li34  1  0.78493113  0.36026732  0.20801252  1
  Li  Li35  1  0.21506887  0.63973268  0.20801252  1
  Li  Li36  1  0.00000000  0.50000000  0.50000000  1
  Li  Li37  1  0.50000000  0.00000000  0.00000000  1
  Li  Li38  1  0.16813616  0.05627726  0.13456616  1
  Li  Li39  1  0.83186384  0.94372274  0.13456616  1
  Li  Li40  1  0.33186384  0.55627726  0.36543384  1
  Li  Li41  1  0.66813616  0.44372274  0.36543384  1
  Li  Li42  1  0.83186384  0.94372274  0.86543384  1
  Li  Li43  1  0.16813616  0.05627726  0.86543384  1
  Li  Li44  1  0.66813616  0.44372274  0.63456616  1
  Li  Li45  1  0.33186384  0.55627726  0.63456616  1
  Li  Li46  1  0.04879106  0.60584119  0.09035990  1
  Li  Li47  1  0.95120894  0.39415881  0.09035990  1
  Li  Li48  1  0.45120894  0.10584119  0.40964010  1
  Li  Li49  1  0.54879106  0.89415881  0.40964010  1
  Li  Li50  1  0.95120894  0.39415881  0.90964010  1
  Li  Li51  1  0.04879106  0.60584119  0.90964010  1
  Li  Li52  1  0.54879106  0.89415881  0.59035990  1
  Li  Li53  1  0.45120894  0.10584119  0.59035990  1
  Li  Li54  1  0.00000000  0.50000000  0.00000000  1
  Li  Li55  1  0.50000000  0.00000000  0.50000000  1
