# generated using pymatgen
data_LiF
_symmetry_space_group_name_H-M   'P 1'
_cell_length_a   8.94906969
_cell_length_b   5.99426783
_cell_length_c   11.07322127
_cell_angle_alpha   90.00000000
_cell_angle_beta   90.00000000
_cell_angle_gamma   90.00000000
_symmetry_Int_Tables_number   1
_chemical_formula_structural   LiF
_chemical_formula_sum   'Li24 F24'
_cell_volume   594.00214361
_cell_formula_units_Z   24
loop_
 _symmetry_equiv_pos_site_id
 _symmetry_equiv_pos_as_xyz
  1  'x, y, z'
loop_
 _atom_site_type_symbol
 _atom_site_label
 _atom_site_symmetry_multiplicity
 _atom_site_fract_x
 _atom_site_fract_y
 _atom_site_fract_z
 _atom_site_occupancy
  F  F0  1  0.04470157  0.25000000  0.32516753  1
  F  F1  1  0.45529843  0.75000000  0.82516753  1
  F  F2  1  0.95529843  0.75000000  0.67483247  1
  F  F3  1  0.54470157  0.25000000  0.17483247  1
  F  F4  1  0.30416975  0.94833421  0.93420367  1
  F  F5  1  0.19583025  0.05166579  0.43420367  1
  F  F6  1  0.69583025  0.44833421  0.06579633  1
  F  F7  1  0.80416975  0.55166579  0.56579633  1
  F  F8  1  0.69583025  0.05166579  0.06579633  1
  F  F9  1  0.80416975  0.94833421  0.56579633  1
  F  F10  1  0.30416975  0.55166579  0.93420367  1
  F  F11  1  0.19583025  0.44833421  0.43420367  1
  F  F12  1  0.63944420  0.25000000  0.67160885  1
  F  F13  1  0.86055580  0.75000000  0.17160885  1
  F  F14  1  0.36055580  0.75000000  0.32839115  1
  F  F15  1  0.13944420  0.25000000  0.82839115  1
  F  F16  1  0.60380162  0.96897845  0.76529099  1
  F  F17  1  0.89619838  0.03102155  0.26529099  1
  F  F18  1  0.39619838  0.46897845  0.23470901  1
  F  F19  1  0.10380162  0.53102155  0.73470901  1
  F  F20  1  0.39619838  0.03102155  0.23470901  1
  F  F21  1  0.10380162  0.96897845  0.73470901  1
  F  F22  1  0.60380162  0.53102155  0.76529099  1
  F  F23  1  0.89619838  0.46897845  0.26529099  1
  Li  Li24  1  0.00000000  0.00000000  0.50000000  1
  Li  Li25  1  0.50000000  0.00000000  0.00000000  1
  Li  Li26  1  0.00000000  0.50000000  0.50000000  1
  Li  Li27  1  0.50000000  0.50000000  0.00000000  1
  Li  Li28  1  0.55134475  0.03489973  0.28331121  1
  Li  Li29  1  -0.05134475  -0.03489973  0.78331121  1
  Li  Li30  1  -0.55134475  0.53489973  -0.28331121  1
  Li  Li31  1  1.05134475  0.46510027  0.21668879  1
  Li  Li32  1  -0.55134475  -0.03489973  -0.28331121  1
  Li  Li33  1  1.05134475  0.03489973  0.21668879  1
  Li  Li34  1  0.55134475  0.46510027  0.28331121  1
  Li  Li35  1  -0.05134475  0.53489973  0.78331121  1
  Li  Li36  1  0.00000000  0.00000000  0.00000000  1
  Li  Li37  1  0.50000000  0.00000000  0.50000000  1
  Li  Li38  1  0.00000000  0.50000000  0.00000000  1
  Li  Li39  1  0.50000000  0.50000000  0.50000000  1
  Li  Li40  1  0.15732400  0.14092065  0.68931343  1
  Li  Li41  1  0.34267600  0.85907935  0.18931343  1
  Li  Li42  1  0.84267600  0.64092065  0.31068657  1
  Li  Li43  1  0.65732400  0.35907935  0.81068657  1
  Li  Li44  1  0.84267600  0.85907935  0.31068657  1
  Li  Li45  1  0.65732400  0.14092065  0.81068657  1
  Li  Li46  1  0.15732400  0.35907935  0.68931343  1
  Li  Li47  1  0.34267600  0.64092065  0.18931343  1
