# generated using pymatgen
data_LiYP2Se
_symmetry_space_group_name_H-M   'P 1'
_cell_length_a   4.21655859
_cell_length_b   4.50800556
_cell_length_c   6.87974963
_cell_angle_alpha   96.11692810
_cell_angle_beta   103.32139771
_cell_angle_gamma   114.56926904
_symmetry_Int_Tables_number   1
_chemical_formula_structural   LiYP2Se
_chemical_formula_sum   'Li2 Y2 P4 Se2'
_cell_volume   112.66563681
_cell_formula_units_Z   2
loop_
 _symmetry_equiv_pos_site_id
 _symmetry_equiv_pos_as_xyz
  1  'x, y, z'
loop_
 _atom_site_type_symbol
 _atom_site_label
 _atom_site_symmetry_multiplicity
 _atom_site_fract_x
 _atom_site_fract_y
 _atom_site_fract_z
 _atom_site_occupancy
  Se  Se0  1  0.00000000  0.00000000  0.00000000  1
  Se  Se1  1  0.50000000  0.50000000  0.50000000  1
  Y  Y2  1  0.50000000  0.50000000  0.00000000  1
  Y  Y3  1  0.50000000  0.00000000  0.50000000  1
  P  P4  1  0.00000000  0.50000000  0.50000000  1
  P  P5  1  0.93442596  0.00608154  0.35559355  1
  P  P6  1  0.54760096  0.89316210  0.87687964  1
  P  P7  1  0.80610423  0.54234616  0.53225616  1
  Li  Li8  1  0.52155835  0.18273648  0.95842253  1
  Li  Li9  1  0.90390831  0.98937756  0.59733609  1
