# generated using pymatgen
data_Li2Y2Cu3(As2P)2
_symmetry_space_group_name_H-M   'P 1'
_cell_length_a   5.35344837
_cell_length_b   5.51082798
_cell_length_c   6.71063358
_cell_angle_alpha   93.17622266
_cell_angle_beta   96.55084734
_cell_angle_gamma   102.04071320
_symmetry_Int_Tables_number   1
_chemical_formula_structural   Li2Y2Cu3(As2P)2
_chemical_formula_sum   'Li2 Y2 Cu3 As4 P2'
_cell_volume   191.71672689
_cell_formula_units_Z   1
loop_
 _symmetry_equiv_pos_site_id
 _symmetry_equiv_pos_as_xyz
  1  'x, y, z'
loop_
 _atom_site_type_symbol
 _atom_site_label
 _atom_site_symmetry_multiplicity
 _atom_site_fract_x
 _atom_site_fract_y
 _atom_site_fract_z
 _atom_site_occupancy
  Cu  Cu0  1  0.00000000  0.00000000  0.00000000  1
  Cu  Cu1  1  0.50000000  0.50000000  0.50000000  1
  Cu  Cu2  1  0.50000000  0.50000000  0.00000000  1
  Y  Y3  1  0.50000000  0.00000000  0.50000000  1
  Y  Y4  1  0.00000000  0.50000000  0.50000000  1
  P  P5  1  0.80425312  0.63310579  0.43649937  1
  P  P6  1  0.70584953  0.98007835  0.24662804  1
  As  As7  1  0.36113433  0.62965184  0.65297672  1
  As  As8  1  0.99266701  0.81799665  0.71186233  1
  As  As9  1  0.71040781  0.94871850  0.40578640  1
  As  As10  1  0.33544987  0.61409490  0.40918887  1
  Li  Li11  1  0.13295024  0.49562121  0.67339910  1
  Li  Li12  1  0.82734498  0.97582776  0.31958096  1
