# generated using pymatgen
data_LiF
_symmetry_space_group_name_H-M   'P 1'
_cell_length_a   12.62919661
_cell_length_b   12.62919661
_cell_length_c   9.98187444
_cell_angle_alpha   90.00000000
_cell_angle_beta   90.00000000
_cell_angle_gamma   120.00000000
_symmetry_Int_Tables_number   1
_chemical_formula_structural   LiF
_chemical_formula_sum   'Li46 F46'
_cell_volume   1378.77748626
_cell_formula_units_Z   46
loop_
 _symmetry_equiv_pos_site_id
 _symmetry_equiv_pos_as_xyz
  1  'x, y, z'
loop_
 _atom_site_type_symbol
 _atom_site_label
 _atom_site_symmetry_multiplicity
 _atom_site_fract_x
 _atom_site_fract_y
 _atom_site_fract_z
 _atom_site_occupancy
  F  F0  1  0.51220002  0.46863343  0.25000000  1
  F  F1  1  0.53136657  0.04356658  0.25000000  1
  F  F2  1  0.95643342  0.48779998  0.25000000  1
  F  F3  1  0.48779998  0.53136657  0.75000000  1
  F  F4  1  0.46863343  0.95643342  0.75000000  1
  F  F5  1  0.04356658  0.51220002  0.75000000  1
  F  F6  1  0.03467595  0.68638559  0.30751556  1
  F  F7  1  0.31361441  0.34829036  0.30751556  1
  F  F8  1  0.65170964  0.96532405  0.30751556  1
  F  F9  1  0.96532405  0.31361441  0.80751556  1
  F  F10  1  0.68638559  0.65170964  0.80751556  1
  F  F11  1  0.34829036  0.03467595  0.80751556  1
  F  F12  1  0.96532405  0.31361441  0.69248444  1
  F  F13  1  0.68638559  0.65170964  0.69248444  1
  F  F14  1  0.34829036  0.03467595  0.69248444  1
  F  F15  1  0.03467595  0.68638559  0.19248444  1
  F  F16  1  0.31361441  0.34829036  0.19248444  1
  F  F17  1  0.65170964  0.96532405  0.19248444  1
  F  F18  1  0.26710287  0.83975525  0.47785343  1
  F  F19  1  0.16024475  0.42734762  0.47785343  1
  F  F20  1  0.57265238  0.73289713  0.47785343  1
  F  F21  1  0.73289713  0.16024475  0.97785343  1
  F  F22  1  0.83975525  0.57265238  0.97785343  1
  F  F23  1  0.42734762  0.26710287  0.97785343  1
  F  F24  1  0.73289713  0.16024475  0.52214657  1
  F  F25  1  0.83975525  0.57265238  0.52214657  1
  F  F26  1  0.42734762  0.26710287  0.52214657  1
  F  F27  1  0.26710287  0.83975525  0.02214657  1
  F  F28  1  0.16024475  0.42734762  0.02214657  1
  F  F29  1  0.57265238  0.73289713  0.02214657  1
  F  F30  1  0.00000000  0.00000000  0.70719653  1
  F  F31  1  0.00000000  0.00000000  0.20719653  1
  F  F32  1  0.00000000  0.00000000  0.29280347  1
  F  F33  1  0.00000000  0.00000000  0.79280347  1
  F  F34  1  0.64090538  0.67332209  0.13505163  1
  F  F35  1  0.32667791  0.96758329  0.13505163  1
  F  F36  1  0.03241671  0.35909462  0.13505163  1
  F  F37  1  0.35909462  0.32667791  0.63505163  1
  F  F38  1  0.67332209  0.03241671  0.63505163  1
  F  F39  1  0.96758329  0.64090538  0.63505163  1
  F  F40  1  0.35909462  0.32667791  0.86494837  1
  F  F41  1  0.67332209  0.03241671  0.86494837  1
  F  F42  1  0.96758329  0.64090538  0.86494837  1
  F  F43  1  0.64090538  0.67332209  0.36494837  1
  F  F44  1  0.32667791  0.96758329  0.36494837  1
  F  F45  1  0.03241671  0.35909462  0.36494837  1
  Li  Li46  1  0.33333333  0.66666667  0.25000000  1
  Li  Li47  1  0.66666667  0.33333333  0.75000000  1
  Li  Li48  1  0.66666667  0.33333333  0.25000000  1
  Li  Li49  1  0.33333333  0.66666667  0.75000000  1
  Li  Li50  1  0.68096943  0.77302394  0.39904407  1
  Li  Li51  1  -0.77302394  -0.09205451  0.39904407  1
  Li  Li52  1  0.09205451  -0.68096943  0.39904407  1
  Li  Li53  1  -0.68096943  -0.77302394  0.89904407  1
  Li  Li54  1  0.77302394  0.09205451  0.89904407  1
  Li  Li55  1  -0.09205451  0.68096943  0.89904407  1
  Li  Li56  1  -0.68096943  -0.77302394  -0.39904407  1
  Li  Li57  1  0.77302394  0.09205451  -0.39904407  1
  Li  Li58  1  -0.09205451  0.68096943  -0.39904407  1
  Li  Li59  1  0.68096943  0.77302394  0.10095593  1
  Li  Li60  1  -0.77302394  -0.09205451  0.10095593  1
  Li  Li61  1  0.09205451  -0.68096943  0.10095593  1
  Li  Li62  1  0.87236925  0.47417370  0.25000000  1
  Li  Li63  1  0.52582630  0.39819555  0.25000000  1
  Li  Li64  1  0.60180445  0.12763075  0.25000000  1
  Li  Li65  1  0.12763075  0.52582630  0.75000000  1
  Li  Li66  1  0.47417370  0.60180445  0.75000000  1
  Li  Li67  1  0.39819555  0.87236925  0.75000000  1
  Li  Li68  1  0.43082188  0.70042935  0.06413732  1
  Li  Li69  1  0.29957065  0.73039253  0.06413732  1
  Li  Li70  1  0.26960747  0.56917812  0.06413732  1
  Li  Li71  1  0.56917812  0.29957065  0.56413732  1
  Li  Li72  1  0.70042935  0.26960747  0.56413732  1
  Li  Li73  1  0.73039253  0.43082188  0.56413732  1
  Li  Li74  1  0.56917812  0.29957065  0.93586268  1
  Li  Li75  1  0.70042935  0.26960747  0.93586268  1
  Li  Li76  1  0.73039253  0.43082188  0.93586268  1
  Li  Li77  1  0.43082188  0.70042935  0.43586268  1
  Li  Li78  1  0.29957065  0.73039253  0.43586268  1
  Li  Li79  1  0.26960747  0.56917812  0.43586268  1
  Li  Li80  1  0.77620483  0.25018780  0.25000000  1
  Li  Li81  1  0.74981220  0.52601703  0.25000000  1
  Li  Li82  1  0.47398297  0.22379517  0.25000000  1
  Li  Li83  1  0.22379517  0.74981220  0.75000000  1
  Li  Li84  1  0.25018780  0.47398297  0.75000000  1
  Li  Li85  1  0.52601703  0.77620483  0.75000000  1
  Li  Li86  1  0.61505209  0.51117808  0.25000000  1
  Li  Li87  1  0.48882192  0.10387401  0.25000000  1
  Li  Li88  1  0.89612599  0.38494791  0.25000000  1
  Li  Li89  1  0.38494791  0.48882192  0.75000000  1
  Li  Li90  1  0.51117808  0.89612599  0.75000000  1
  Li  Li91  1  0.10387401  0.61505209  0.75000000  1
