# generated using pymatgen
data_Li4TeF2
_symmetry_space_group_name_H-M   'P 1'
_cell_length_a   16.08502457
_cell_length_b   16.08502457
_cell_length_c   13.70690263
_cell_angle_alpha   90.00000000
_cell_angle_beta   90.00000000
_cell_angle_gamma   90.00000000
_symmetry_Int_Tables_number   1
_chemical_formula_structural   Li4TeF2
_chemical_formula_sum   'Li96 Te24 F48'
_cell_volume   3546.35971513
_cell_formula_units_Z   24
loop_
 _symmetry_equiv_pos_site_id
 _symmetry_equiv_pos_as_xyz
  1  'x, y, z'
loop_
 _atom_site_type_symbol
 _atom_site_label
 _atom_site_symmetry_multiplicity
 _atom_site_fract_x
 _atom_site_fract_y
 _atom_site_fract_z
 _atom_site_occupancy
  F  F0  1  0.93273987  0.80173284  0.07479319  1
  F  F1  1  -0.93273987  -0.80173284  0.07479319  1
  F  F2  1  -0.80173284  0.93273987  0.07479319  1
  F  F3  1  0.80173284  -0.93273987  0.07479319  1
  F  F4  1  -0.93273987  0.80173284  -0.07479319  1
  F  F5  1  0.93273987  -0.80173284  -0.07479319  1
  F  F6  1  0.80173284  0.93273987  -0.07479319  1
  F  F7  1  -0.80173284  -0.93273987  -0.07479319  1
  F  F8  1  -0.93273987  -0.80173284  -0.07479319  1
  F  F9  1  0.93273987  0.80173284  -0.07479319  1
  F  F10  1  0.80173284  -0.93273987  -0.07479319  1
  F  F11  1  -0.80173284  0.93273987  -0.07479319  1
  F  F12  1  0.93273987  -0.80173284  0.07479319  1
  F  F13  1  -0.93273987  0.80173284  0.07479319  1
  F  F14  1  -0.80173284  -0.93273987  0.07479319  1
  F  F15  1  0.80173284  0.93273987  0.07479319  1
  F  F16  1  0.68605665  0.63570689  0.00000000  1
  F  F17  1  0.31394335  0.36429311  0.00000000  1
  F  F18  1  0.36429311  0.68605665  0.00000000  1
  F  F19  1  0.63570689  0.31394335  0.00000000  1
  F  F20  1  0.31394335  0.63570689  0.00000000  1
  F  F21  1  0.68605665  0.36429311  0.00000000  1
  F  F22  1  0.63570689  0.68605665  0.00000000  1
  F  F23  1  0.36429311  0.31394335  0.00000000  1
  F  F24  1  0.00000000  0.50000000  0.50000000  1
  F  F25  1  0.50000000  0.00000000  0.50000000  1
  F  F26  1  0.17274877  0.00000000  0.91592075  1
  F  F27  1  0.82725123  0.00000000  0.91592075  1
  F  F28  1  0.00000000  0.17274877  0.91592075  1
  F  F29  1  0.00000000  0.82725123  0.91592075  1
  F  F30  1  0.82725123  0.00000000  0.08407925  1
  F  F31  1  0.17274877  0.00000000  0.08407925  1
  F  F32  1  0.00000000  0.17274877  0.08407925  1
  F  F33  1  0.00000000  0.82725123  0.08407925  1
  F  F34  1  0.50000000  0.50000000  0.29331562  1
  F  F35  1  0.50000000  0.50000000  0.70668438  1
  F  F36  1  0.40833969  0.19545227  0.00000000  1
  F  F37  1  0.59166031  0.80454773  0.00000000  1
  F  F38  1  0.80454773  0.40833969  0.00000000  1
  F  F39  1  0.19545227  0.59166031  0.00000000  1
  F  F40  1  0.59166031  0.19545227  0.00000000  1
  F  F41  1  0.40833969  0.80454773  0.00000000  1
  F  F42  1  0.19545227  0.40833969  0.00000000  1
  F  F43  1  0.80454773  0.59166031  0.00000000  1
  F  F44  1  0.61941991  0.61941991  0.00000000  1
  F  F45  1  0.38058009  0.38058009  0.00000000  1
  F  F46  1  0.38058009  0.61941991  0.00000000  1
  F  F47  1  0.61941991  0.38058009  0.00000000  1
  Li  Li48  1  0.50000000  0.50000000  0.60270943  1
  Li  Li49  1  0.50000000  0.50000000  0.39729057  1
  Li  Li50  1  0.11207868  0.70406557  0.80480326  1
  Li  Li51  1  0.88792132  0.29593443  0.80480326  1
  Li  Li52  1  0.29593443  0.11207868  0.80480326  1
  Li  Li53  1  0.70406557  0.88792132  0.80480326  1
  Li  Li54  1  0.88792132  0.70406557  0.19519674  1
  Li  Li55  1  0.11207868  0.29593443  0.19519674  1
  Li  Li56  1  0.70406557  0.11207868  0.19519674  1
  Li  Li57  1  0.29593443  0.88792132  0.19519674  1
  Li  Li58  1  0.88792132  0.29593443  0.19519674  1
  Li  Li59  1  0.11207868  0.70406557  0.19519674  1
  Li  Li60  1  0.70406557  0.88792132  0.19519674  1
  Li  Li61  1  0.29593443  0.11207868  0.19519674  1
  Li  Li62  1  0.11207868  0.29593443  0.80480326  1
  Li  Li63  1  0.88792132  0.70406557  0.80480326  1
  Li  Li64  1  0.29593443  0.88792132  0.80480326  1
  Li  Li65  1  0.70406557  0.11207868  0.80480326  1
  Li  Li66  1  0.90473405  0.38889410  0.67590634  1
  Li  Li67  1  0.09526595  0.61110590  0.67590634  1
  Li  Li68  1  0.61110590  0.90473405  0.67590634  1
  Li  Li69  1  0.38889410  0.09526595  0.67590634  1
  Li  Li70  1  0.09526595  0.38889410  0.32409366  1
  Li  Li71  1  0.90473405  0.61110590  0.32409366  1
  Li  Li72  1  0.38889410  0.90473405  0.32409366  1
  Li  Li73  1  0.61110590  0.09526595  0.32409366  1
  Li  Li74  1  0.09526595  0.61110590  0.32409366  1
  Li  Li75  1  0.90473405  0.38889410  0.32409366  1
  Li  Li76  1  0.38889410  0.09526595  0.32409366  1
  Li  Li77  1  0.61110590  0.90473405  0.32409366  1
  Li  Li78  1  0.90473405  0.61110590  0.67590634  1
  Li  Li79  1  0.09526595  0.38889410  0.67590634  1
  Li  Li80  1  0.61110590  0.09526595  0.67590634  1
  Li  Li81  1  0.38889410  0.90473405  0.67590634  1
  Li  Li82  1  0.74347211  0.13556992  0.61849290  1
  Li  Li83  1  0.25652789  0.86443008  0.61849290  1
  Li  Li84  1  0.86443008  0.74347211  0.61849290  1
  Li  Li85  1  0.13556992  0.25652789  0.61849290  1
  Li  Li86  1  0.25652789  0.13556992  0.38150710  1
  Li  Li87  1  0.74347211  0.86443008  0.38150710  1
  Li  Li88  1  0.13556992  0.74347211  0.38150710  1
  Li  Li89  1  0.86443008  0.25652789  0.38150710  1
  Li  Li90  1  0.25652789  0.86443008  0.38150710  1
  Li  Li91  1  0.74347211  0.13556992  0.38150710  1
  Li  Li92  1  0.13556992  0.25652789  0.38150710  1
  Li  Li93  1  0.86443008  0.74347211  0.38150710  1
  Li  Li94  1  0.74347211  0.86443008  0.61849290  1
  Li  Li95  1  0.25652789  0.13556992  0.61849290  1
  Li  Li96  1  0.86443008  0.25652789  0.61849290  1
  Li  Li97  1  0.13556992  0.74347211  0.61849290  1
  Li  Li98  1  0.33394656  0.33394656  0.93794193  1
  Li  Li99  1  0.66605344  0.66605344  0.93794193  1
  Li  Li100  1  0.66605344  0.33394656  0.93794193  1
  Li  Li101  1  0.33394656  0.66605344  0.93794193  1
  Li  Li102  1  0.66605344  0.33394656  0.06205807  1
  Li  Li103  1  0.33394656  0.66605344  0.06205807  1
  Li  Li104  1  0.33394656  0.33394656  0.06205807  1
  Li  Li105  1  0.66605344  0.66605344  0.06205807  1
  Li  Li106  1  0.77958191  0.50000000  0.37553115  1
  Li  Li107  1  0.22041809  0.50000000  0.37553115  1
  Li  Li108  1  0.50000000  0.77958191  0.37553115  1
  Li  Li109  1  0.50000000  0.22041809  0.37553115  1
  Li  Li110  1  0.22041809  0.50000000  0.62446885  1
  Li  Li111  1  0.77958191  0.50000000  0.62446885  1
  Li  Li112  1  0.50000000  0.77958191  0.62446885  1
  Li  Li113  1  0.50000000  0.22041809  0.62446885  1
  Li  Li114  1  0.20263228  0.31656345  0.95116379  1
  Li  Li115  1  0.79736772  0.68343655  0.95116379  1
  Li  Li116  1  0.68343655  0.20263228  0.95116379  1
  Li  Li117  1  0.31656345  0.79736772  0.95116379  1
  Li  Li118  1  0.79736772  0.31656345  0.04883621  1
  Li  Li119  1  0.20263228  0.68343655  0.04883621  1
  Li  Li120  1  0.31656345  0.20263228  0.04883621  1
  Li  Li121  1  0.68343655  0.79736772  0.04883621  1
  Li  Li122  1  0.79736772  0.68343655  0.04883621  1
  Li  Li123  1  0.20263228  0.31656345  0.04883621  1
  Li  Li124  1  0.31656345  0.79736772  0.04883621  1
  Li  Li125  1  0.68343655  0.20263228  0.04883621  1
  Li  Li126  1  0.20263228  0.68343655  0.95116379  1
  Li  Li127  1  0.79736772  0.31656345  0.95116379  1
  Li  Li128  1  0.68343655  0.79736772  0.95116379  1
  Li  Li129  1  0.31656345  0.20263228  0.95116379  1
  Li  Li130  1  0.37969880  0.50000000  0.00000000  1
  Li  Li131  1  0.62030120  0.50000000  0.00000000  1
  Li  Li132  1  0.50000000  0.37969880  0.00000000  1
  Li  Li133  1  0.50000000  0.62030120  0.00000000  1
  Li  Li134  1  0.33538197  0.00000000  0.00000000  1
  Li  Li135  1  0.66461803  0.00000000  0.00000000  1
  Li  Li136  1  0.00000000  0.33538197  0.00000000  1
  Li  Li137  1  0.00000000  0.66461803  0.00000000  1
  Li  Li138  1  0.50000000  0.50000000  0.80291872  1
  Li  Li139  1  0.50000000  0.50000000  0.19708128  1
  Li  Li140  1  0.59036774  0.00000000  0.50000000  1
  Li  Li141  1  0.40963226  0.00000000  0.50000000  1
  Li  Li142  1  0.00000000  0.59036774  0.50000000  1
  Li  Li143  1  0.00000000  0.40963226  0.50000000  1
  Te  Te144  1  0.55604427  0.12337799  0.55181324  1
  Te  Te145  1  0.44395573  0.87662201  0.55181324  1
  Te  Te146  1  0.87662201  0.55604427  0.55181324  1
  Te  Te147  1  0.12337799  0.44395573  0.55181324  1
  Te  Te148  1  0.44395573  0.12337799  0.44818676  1
  Te  Te149  1  0.55604427  0.87662201  0.44818676  1
  Te  Te150  1  0.12337799  0.55604427  0.44818676  1
  Te  Te151  1  0.87662201  0.44395573  0.44818676  1
  Te  Te152  1  0.44395573  0.87662201  0.44818676  1
  Te  Te153  1  0.55604427  0.12337799  0.44818676  1
  Te  Te154  1  0.12337799  0.44395573  0.44818676  1
  Te  Te155  1  0.87662201  0.55604427  0.44818676  1
  Te  Te156  1  0.55604427  0.87662201  0.55181324  1
  Te  Te157  1  0.44395573  0.12337799  0.55181324  1
  Te  Te158  1  0.87662201  0.44395573  0.55181324  1
  Te  Te159  1  0.12337799  0.55604427  0.55181324  1
  Te  Te160  1  0.24560326  0.24560326  0.07040428  1
  Te  Te161  1  0.75439674  0.75439674  0.07040428  1
  Te  Te162  1  0.75439674  0.24560326  0.07040428  1
  Te  Te163  1  0.24560326  0.75439674  0.07040428  1
  Te  Te164  1  0.75439674  0.24560326  0.92959572  1
  Te  Te165  1  0.24560326  0.75439674  0.92959572  1
  Te  Te166  1  0.24560326  0.24560326  0.92959572  1
  Te  Te167  1  0.75439674  0.75439674  0.92959572  1
