# generated using pymatgen
data_Li2YAs(P2Pb)2
_symmetry_space_group_name_H-M   'P 1'
_cell_length_a   4.75436148
_cell_length_b   4.92528017
_cell_length_c   7.13694109
_cell_angle_alpha   95.94731341
_cell_angle_beta   102.46931061
_cell_angle_gamma   111.54222105
_symmetry_Int_Tables_number   1
_chemical_formula_structural   Li2YAs(P2Pb)2
_chemical_formula_sum   'Li2 Y1 As1 P4 Pb2'
_cell_volume   148.67233606
_cell_formula_units_Z   1
loop_
 _symmetry_equiv_pos_site_id
 _symmetry_equiv_pos_as_xyz
  1  'x, y, z'
loop_
 _atom_site_type_symbol
 _atom_site_label
 _atom_site_symmetry_multiplicity
 _atom_site_fract_x
 _atom_site_fract_y
 _atom_site_fract_z
 _atom_site_occupancy
  P  P0  1  0.12500000  0.00000000  0.25000000  1
  P  P1  1  0.00000000  0.00000000  0.00000000  1
  P  P2  1  0.37500000  0.00000000  0.25000000  1
  P  P3  1  0.25000000  0.25000000  0.25000000  1
  Pb  Pb4  1  0.00000000  0.25000000  0.12500000  1
  Pb  Pb5  1  0.08706384  0.71809599  0.14933704  1
  As  As6  1  0.80172966  0.43529117  0.70357205  1
  Li  Li7  1  0.14648660  0.67148420  0.61707139  1
  Li  Li8  1  0.93248717  0.08395995  0.02115192  1
  Y  Y9  1  0.59971017  0.74481520  0.65131595  1
