# generated using pymatgen
data_Li4Ti(SF)2
_symmetry_space_group_name_H-M   'P 1'
_cell_length_a   5.35516996
_cell_length_b   5.28600324
_cell_length_c   7.36436749
_cell_angle_alpha   107.47781691
_cell_angle_beta   91.36441367
_cell_angle_gamma   96.27944983
_symmetry_Int_Tables_number   1
_chemical_formula_structural   Li4Ti(SF)2
_chemical_formula_sum   'Li4 Ti1 S2 F2'
_cell_volume   197.29595027
_cell_formula_units_Z   1
loop_
 _symmetry_equiv_pos_site_id
 _symmetry_equiv_pos_as_xyz
  1  'x, y, z'
loop_
 _atom_site_type_symbol
 _atom_site_label
 _atom_site_symmetry_multiplicity
 _atom_site_fract_x
 _atom_site_fract_y
 _atom_site_fract_z
 _atom_site_occupancy
  S  S0  1  0.12500000  0.12500000  0.12500000  1
  S  S1  1  0.50000000  0.50000000  0.50000000  1
  Ti  Ti2  1  0.25000000  0.25000000  0.25000000  1
  F  F3  1  0.75000000  0.75000000  0.75000000  1
  F  F4  1  0.91799121  0.00595116  0.21696293  1
  Li  Li5  1  0.47059340  0.29305287  0.26134230  1
  Li  Li6  1  0.88276079  0.23647756  0.41380640  1
  Li  Li7  1  0.04385415  0.35960261  0.70475958  1
  Li  Li8  1  0.02422485  0.30565624  0.87196776  1
