# generated using pymatgen
data_LiF
_symmetry_space_group_name_H-M   'P 1'
_cell_length_a   7.26016012
_cell_length_b   7.26016012
_cell_length_c   7.48127092
_cell_angle_alpha   90.00000000
_cell_angle_beta   90.00000000
_cell_angle_gamma   120.00000000
_symmetry_Int_Tables_number   1
_chemical_formula_structural   LiF
_chemical_formula_sum   'Li20 F20'
_cell_volume   341.50605802
_cell_formula_units_Z   20
loop_
 _symmetry_equiv_pos_site_id
 _symmetry_equiv_pos_as_xyz
  1  'x, y, z'
loop_
 _atom_site_type_symbol
 _atom_site_label
 _atom_site_symmetry_multiplicity
 _atom_site_fract_x
 _atom_site_fract_y
 _atom_site_fract_z
 _atom_site_occupancy
  F  F0  1  0.19037766  0.90321406  0.78888710  1
  F  F1  1  0.09678594  0.28716360  0.78888710  1
  F  F2  1  0.71283640  0.80962234  0.78888710  1
  F  F3  1  0.09678594  0.80962234  0.21111290  1
  F  F4  1  0.71283640  0.90321406  0.21111290  1
  F  F5  1  0.19037766  0.28716360  0.21111290  1
  F  F6  1  0.86135126  0.13864874  0.50000000  1
  F  F7  1  0.86135126  0.72270253  0.50000000  1
  F  F8  1  0.27729747  0.13864874  0.50000000  1
  F  F9  1  0.52236408  0.29117172  0.66701728  1
  F  F10  1  0.70882828  0.23119236  0.66701728  1
  F  F11  1  0.76880764  0.47763592  0.66701728  1
  F  F12  1  0.70882828  0.47763592  0.33298272  1
  F  F13  1  0.76880764  0.29117172  0.33298272  1
  F  F14  1  0.52236408  0.23119236  0.33298272  1
  F  F15  1  0.87068812  0.12931188  0.00000000  1
  F  F16  1  0.87068812  0.74137624  0.00000000  1
  F  F17  1  0.25862376  0.12931188  0.00000000  1
  F  F18  1  0.00000000  0.00000000  0.44713376  1
  F  F19  1  0.00000000  0.00000000  0.55286624  1
  Li  Li20  1  0.66666667  0.33333333  0.00000000  1
  Li  Li21  1  0.87560475  0.48405198  0.21595232  1
  Li  Li22  1  -0.48405198  0.39155276  0.21595232  1
  Li  Li23  1  -0.39155276  -0.87560475  0.21595232  1
  Li  Li24  1  -0.48405198  -0.87560475  -0.21595232  1
  Li  Li25  1  -0.39155276  0.48405198  -0.21595232  1
  Li  Li26  1  0.87560475  0.39155276  -0.21595232  1
  Li  Li27  1  0.33333333  0.66666667  0.00000000  1
  Li  Li28  1  0.00000000  0.00000000  0.20032842  1
  Li  Li29  1  0.00000000  0.00000000  0.79967158  1
  Li  Li30  1  0.39485139  0.96494372  0.64503493  1
  Li  Li31  1  0.03505628  0.42990767  0.64503493  1
  Li  Li32  1  0.57009233  0.60514861  0.64503493  1
  Li  Li33  1  0.03505628  0.60514861  0.35496507  1
  Li  Li34  1  0.57009233  0.96494372  0.35496507  1
  Li  Li35  1  0.39485139  0.42990767  0.35496507  1
  Li  Li36  1  0.51173252  0.48826748  0.50000000  1
  Li  Li37  1  0.51173252  0.02346503  0.50000000  1
  Li  Li38  1  0.97653497  0.48826748  0.50000000  1
  Li  Li39  1  0.66666667  0.33333333  0.50000000  1
