# generated using pymatgen
data_Li2YMoP3
_symmetry_space_group_name_H-M   'P 1'
_cell_length_a   5.48313724
_cell_length_b   5.54191344
_cell_length_c   7.31391280
_cell_angle_alpha   94.30527122
_cell_angle_beta   99.12542301
_cell_angle_gamma   106.07491009
_symmetry_Int_Tables_number   1
_chemical_formula_structural   Li2YMoP3
_chemical_formula_sum   'Li2 Y1 Mo1 P3'
_cell_volume   209.19089373
_cell_formula_units_Z   1
loop_
 _symmetry_equiv_pos_site_id
 _symmetry_equiv_pos_as_xyz
  1  'x, y, z'
loop_
 _atom_site_type_symbol
 _atom_site_label
 _atom_site_symmetry_multiplicity
 _atom_site_fract_x
 _atom_site_fract_y
 _atom_site_fract_z
 _atom_site_occupancy
  P  P0  1  0.12500000  0.12500000  0.12500000  1
  P  P1  1  0.50000000  0.50000000  0.50000000  1
  P  P2  1  0.25000000  0.25000000  0.25000000  1
  Mo  Mo3  1  0.75000000  0.75000000  0.75000000  1
  Li  Li4  1  0.85525214  0.58133474  0.80607392  1
  Li  Li5  1  0.93987626  0.58847742  0.19373953  1
  Y  Y6  1  0.86831347  0.40340058  0.45095763  1
