# generated using pymatgen
data_LiF
_symmetry_space_group_name_H-M   'P 1'
_cell_length_a   8.36473082
_cell_length_b   6.92837371
_cell_length_c   12.43733708
_cell_angle_alpha   90.00000000
_cell_angle_beta   90.00000000
_cell_angle_gamma   90.00000000
_symmetry_Int_Tables_number   1
_chemical_formula_structural   LiF
_chemical_formula_sum   'Li24 F24'
_cell_volume   720.79319843
_cell_formula_units_Z   24
loop_
 _symmetry_equiv_pos_site_id
 _symmetry_equiv_pos_as_xyz
  1  'x, y, z'
loop_
 _atom_site_type_symbol
 _atom_site_label
 _atom_site_symmetry_multiplicity
 _atom_site_fract_x
 _atom_site_fract_y
 _atom_site_fract_z
 _atom_site_occupancy
  F  F0  1  0.26248998  0.92939576  0.77144100  1
  F  F1  1  0.73751002  0.07060424  0.77144100  1
  F  F2  1  0.23751002  0.42939576  0.22855900  1
  F  F3  1  0.76248998  0.57060424  0.22855900  1
  F  F4  1  0.73751002  0.07060424  0.22855900  1
  F  F5  1  0.26248998  0.92939576  0.22855900  1
  F  F6  1  0.76248998  0.57060424  0.77144100  1
  F  F7  1  0.23751002  0.42939576  0.77144100  1
  F  F8  1  0.30667050  0.34068040  0.50000000  1
  F  F9  1  0.69332950  0.65931960  0.50000000  1
  F  F10  1  0.19332950  0.84068040  0.50000000  1
  F  F11  1  0.80667050  0.15931960  0.50000000  1
  F  F12  1  0.72087009  0.33450980  0.10388747  1
  F  F13  1  0.27912991  0.66549020  0.10388747  1
  F  F14  1  0.77912991  0.83450980  0.89611253  1
  F  F15  1  0.22087009  0.16549020  0.89611253  1
  F  F16  1  0.27912991  0.66549020  0.89611253  1
  F  F17  1  0.72087009  0.33450980  0.89611253  1
  F  F18  1  0.22087009  0.16549020  0.10388747  1
  F  F19  1  0.77912991  0.83450980  0.10388747  1
  F  F20  1  0.12960144  0.10993500  0.00000000  1
  F  F21  1  0.87039856  0.89006500  -0.00000000  1
  F  F22  1  0.37039856  0.60993500  -0.00000000  1
  F  F23  1  0.62960144  0.39006500  -0.00000000  1
  Li  Li24  1  0.00000000  0.00000000  0.50000000  1
  Li  Li25  1  0.50000000  0.50000000  0.50000000  1
  Li  Li26  1  0.00000000  0.50000000  0.79058519  1
  Li  Li27  1  0.50000000  0.00000000  0.20941481  1
  Li  Li28  1  0.00000000  0.50000000  0.20941481  1
  Li  Li29  1  0.50000000  0.00000000  0.79058519  1
  Li  Li30  1  0.03582619  0.29050064  0.50000000  1
  Li  Li31  1  0.96417381  0.70949936  0.50000000  1
  Li  Li32  1  0.46417381  0.79050064  0.50000000  1
  Li  Li33  1  0.53582619  0.20949936  0.50000000  1
  Li  Li34  1  0.00000000  0.00000000  0.18240997  1
  Li  Li35  1  0.50000000  0.50000000  0.81759003  1
  Li  Li36  1  0.00000000  0.00000000  0.81759003  1
  Li  Li37  1  0.50000000  0.50000000  0.18240997  1
  Li  Li38  1  0.59531708  0.02578797  0.57305579  1
  Li  Li39  1  -0.59531708  -0.02578797  0.57305579  1
  Li  Li40  1  -0.09531708  0.52578797  -0.57305579  1
  Li  Li41  1  1.09531708  0.47421203  -0.57305579  1
  Li  Li42  1  -0.59531708  -0.02578797  -0.57305579  1
  Li  Li43  1  0.59531708  0.02578797  -0.57305579  1
  Li  Li44  1  1.09531708  0.47421203  0.57305579  1
  Li  Li45  1  -0.09531708  0.52578797  0.57305579  1
  Li  Li46  1  0.00000000  0.50000000  -0.00000000  1
  Li  Li47  1  0.50000000  0.00000000  -0.00000000  1
