# generated using pymatgen
data_LiF
_symmetry_space_group_name_H-M   'P 1'
_cell_length_a   8.80054997
_cell_length_b   11.11376235
_cell_length_c   7.14526319
_cell_angle_alpha   90.00000000
_cell_angle_beta   90.00000000
_cell_angle_gamma   90.00000000
_symmetry_Int_Tables_number   1
_chemical_formula_structural   LiF
_chemical_formula_sum   'Li28 F28'
_cell_volume   698.85833566
_cell_formula_units_Z   28
loop_
 _symmetry_equiv_pos_site_id
 _symmetry_equiv_pos_as_xyz
  1  'x, y, z'
loop_
 _atom_site_type_symbol
 _atom_site_label
 _atom_site_symmetry_multiplicity
 _atom_site_fract_x
 _atom_site_fract_y
 _atom_site_fract_z
 _atom_site_occupancy
  F  F0  1  0.17057421  0.89949436  0.50000000  1
  F  F1  1  0.82942579  0.10050564  0.50000000  1
  F  F2  1  0.32942579  0.39949436  0.50000000  1
  F  F3  1  0.67057421  0.60050564  0.50000000  1
  F  F4  1  0.94725618  0.24301755  0.83944181  1
  F  F5  1  0.05274382  0.75698245  0.83944181  1
  F  F6  1  0.55274382  0.74301755  0.16055819  1
  F  F7  1  0.44725618  0.25698245  0.16055819  1
  F  F8  1  0.05274382  0.75698245  0.16055819  1
  F  F9  1  0.94725618  0.24301755  0.16055819  1
  F  F10  1  0.44725618  0.25698245  0.83944181  1
  F  F11  1  0.55274382  0.74301755  0.83944181  1
  F  F12  1  0.40634230  0.79301581  0.00000000  1
  F  F13  1  0.59365770  0.20698419  -0.00000000  1
  F  F14  1  0.09365770  0.29301581  -0.00000000  1
  F  F15  1  0.90634230  0.70698419  0.00000000  1
  F  F16  1  0.00000000  0.00000000  0.94588397  1
  F  F17  1  0.50000000  0.50000000  0.05411603  1
  F  F18  1  0.00000000  0.00000000  0.05411603  1
  F  F19  1  0.50000000  0.50000000  0.94588397  1
  F  F20  1  0.28214934  0.37993286  0.89440887  1
  F  F21  1  0.71785066  0.62006714  0.89440887  1
  F  F22  1  0.21785066  0.87993286  0.10559113  1
  F  F23  1  0.78214934  0.12006714  0.10559113  1
  F  F24  1  0.71785066  0.62006714  0.10559113  1
  F  F25  1  0.28214934  0.37993286  0.10559113  1
  F  F26  1  0.78214934  0.12006714  0.89440887  1
  F  F27  1  0.21785066  0.87993286  0.89440887  1
  Li  Li28  1  0.17348988  0.28208146  0.50000000  1
  Li  Li29  1  0.82651012  0.71791854  0.50000000  1
  Li  Li30  1  0.32651012  0.78208146  0.50000000  1
  Li  Li31  1  0.67348988  0.21791854  0.50000000  1
  Li  Li32  1  0.21105529  0.18246125  -0.00000000  1
  Li  Li33  1  0.78894471  0.81753875  -0.00000000  1
  Li  Li34  1  0.28894471  0.68246125  0.00000000  1
  Li  Li35  1  0.71105529  0.31753875  0.00000000  1
  Li  Li36  1  0.00000000  0.50000000  0.34600776  1
  Li  Li37  1  0.50000000  -0.00000000  0.65399224  1
  Li  Li38  1  0.00000000  0.50000000  0.65399224  1
  Li  Li39  1  0.50000000  -0.00000000  0.34600776  1
  Li  Li40  1  0.63929913  0.45346907  0.50000000  1
  Li  Li41  1  0.36070087  0.54653093  0.50000000  1
  Li  Li42  1  0.86070087  0.95346907  0.50000000  1
  Li  Li43  1  0.13929913  0.04653093  0.50000000  1
  Li  Li44  1  0.41900050  0.77312574  0.64724911  1
  Li  Li45  1  -0.41900050  -0.77312574  0.64724911  1
  Li  Li46  1  0.08099950  1.27312574  -0.64724911  1
  Li  Li47  1  0.91900050  -0.27312574  -0.64724911  1
  Li  Li48  1  -0.41900050  -0.77312574  -0.64724911  1
  Li  Li49  1  0.41900050  0.77312574  -0.64724911  1
  Li  Li50  1  0.91900050  -0.27312574  0.64724911  1
  Li  Li51  1  0.08099950  1.27312574  0.64724911  1
  Li  Li52  1  0.00000000  0.50000000  0.00000000  1
  Li  Li53  1  0.50000000  -0.00000000  0.00000000  1
  Li  Li54  1  0.00000000  0.00000000  0.50000000  1
  Li  Li55  1  0.50000000  0.50000000  0.50000000  1
