# generated using pymatgen
data_Li2SnO3
_symmetry_space_group_name_H-M   'P 1'
_cell_length_a   11.09764826
_cell_length_b   11.09764826
_cell_length_c   2.96695875
_cell_angle_alpha   90.00000000
_cell_angle_beta   90.00000000
_cell_angle_gamma   120.00000000
_symmetry_Int_Tables_number   1
_chemical_formula_structural   Li2SnO3
_chemical_formula_sum   'Li8 Sn4 O12'
_cell_volume   316.44923631
_cell_formula_units_Z   4
loop_
 _symmetry_equiv_pos_site_id
 _symmetry_equiv_pos_as_xyz
  1  'x, y, z'
loop_
 _atom_site_type_symbol
 _atom_site_label
 _atom_site_symmetry_multiplicity
 _atom_site_fract_x
 _atom_site_fract_y
 _atom_site_fract_z
 _atom_site_occupancy
  Li  Li0  1  0.00000000  0.00000000  0.50000000  1
  Li  Li1  1  0.91678209  0.08321791  0.50000000  1
  Li  Li2  1  0.91678209  0.83356417  0.50000000  1
  Li  Li3  1  0.16643583  0.08321791  0.50000000  1
  Li  Li4  1  0.53491629  0.46508371  0.00000000  1
  Li  Li5  1  0.53491629  0.06983259  0.00000000  1
  Li  Li6  1  0.93016741  0.46508371  0.00000000  1
  Li  Li7  1  0.66666667  0.33333333  0.00000000  1
  O  O8  1  0.33333333  0.66666667  0.50000000  1
  O  O9  1  0.33333333  0.66666667  0.00000000  1
  O  O10  1  0.43948902  0.56051098  0.50000000  1
  O  O11  1  0.43948902  0.87897805  0.50000000  1
  O  O12  1  0.12102195  0.56051098  0.50000000  1
  O  O13  1  0.68208713  0.03869961  0.88130604  1
  O  O14  1  -0.03869961  0.64338752  0.88130604  1
  O  O15  1  -0.64338752  -0.68208713  0.88130604  1
  O  O16  1  -0.03869961  -0.68208713  -0.88130604  1
  O  O17  1  -0.64338752  0.03869961  -0.88130604  1
  O  O18  1  0.68208713  0.64338752  -0.88130604  1
  O  O19  1  0.66666667  0.33333333  0.50000000  1
  Sn  Sn20  1  0.14577091  0.85422909  0.00000000  1
  Sn  Sn21  1  0.14577091  0.29154182  0.00000000  1
  Sn  Sn22  1  0.70845818  0.85422909  0.00000000  1
  Sn  Sn23  1  0.00000000  0.00000000  0.00000000  1
