# generated using pymatgen
data_Li2Y2Cu3P2Se
_symmetry_space_group_name_H-M   'P 1'
_cell_length_a   5.19502584
_cell_length_b   5.43851196
_cell_length_c   6.79619153
_cell_angle_alpha   93.79134484
_cell_angle_beta   97.61508176
_cell_angle_gamma   104.14209934
_symmetry_Int_Tables_number   1
_chemical_formula_structural   Li2Y2Cu3P2Se
_chemical_formula_sum   'Li2 Y2 Cu3 P2 Se1'
_cell_volume   183.58097595
_cell_formula_units_Z   1
loop_
 _symmetry_equiv_pos_site_id
 _symmetry_equiv_pos_as_xyz
  1  'x, y, z'
loop_
 _atom_site_type_symbol
 _atom_site_label
 _atom_site_symmetry_multiplicity
 _atom_site_fract_x
 _atom_site_fract_y
 _atom_site_fract_z
 _atom_site_occupancy
  Se  Se0  1  0.12500000  0.00000000  0.25000000  1
  Cu  Cu1  1  0.00000000  0.00000000  0.00000000  1
  Cu  Cu2  1  0.37500000  0.00000000  0.25000000  1
  Cu  Cu3  1  0.25000000  0.25000000  0.25000000  1
  Y  Y4  1  0.00000000  0.25000000  0.12500000  1
  Y  Y5  1  0.37665504  0.11576159  0.23504581  1
  P  P6  1  0.05459862  0.96770207  0.39069076  1
  P  P7  1  0.46600884  0.01877507  0.68226881  1
  Li  Li8  1  0.85231496  0.74542771  0.64223751  1
  Li  Li9  1  0.97893539  0.17211348  0.73251454  1
