# generated using pymatgen
data_Li2Si4Te3F12
_symmetry_space_group_name_H-M   'P 1'
_cell_length_a   8.52091561
_cell_length_b   8.52091561
_cell_length_c   17.68805542
_cell_angle_alpha   90.00000000
_cell_angle_beta   90.00000000
_cell_angle_gamma   90.00000000
_symmetry_Int_Tables_number   1
_chemical_formula_structural   Li2Si4Te3F12
_chemical_formula_sum   'Li8 Si16 Te12 F48'
_cell_volume   1284.25900128
_cell_formula_units_Z   4
loop_
 _symmetry_equiv_pos_site_id
 _symmetry_equiv_pos_as_xyz
  1  'x, y, z'
loop_
 _atom_site_type_symbol
 _atom_site_label
 _atom_site_symmetry_multiplicity
 _atom_site_fract_x
 _atom_site_fract_y
 _atom_site_fract_z
 _atom_site_occupancy
  F  F0  1  0.00000000  0.82269298  0.42622259  1
  F  F1  1  0.50000000  0.17730702  0.92622259  1
  F  F2  1  0.42730702  0.75000000  0.67622259  1
  F  F3  1  0.07269298  0.25000000  0.17622259  1
  F  F4  1  0.50000000  0.82269298  0.07377741  1
  F  F5  1  0.00000000  0.17730702  0.57377741  1
  F  F6  1  0.07269298  0.75000000  0.82377741  1
  F  F7  1  0.42730702  0.25000000  0.32377741  1
  F  F8  1  0.50000000  0.32269298  0.92622259  1
  F  F9  1  0.00000000  0.67730702  0.42622259  1
  F  F10  1  0.92730702  0.25000000  0.17622259  1
  F  F11  1  0.57269298  0.75000000  0.67622259  1
  F  F12  1  0.00000000  0.32269298  0.57377741  1
  F  F13  1  0.50000000  0.67730702  0.07377741  1
  F  F14  1  0.57269298  0.25000000  0.32377741  1
  F  F15  1  0.92730702  0.75000000  0.82377741  1
  F  F16  1  0.08192332  0.85326266  0.46169212  1
  F  F17  1  0.41807668  -0.85326266  0.96169212  1
  F  F18  1  -0.60326266  0.83192332  0.71169212  1
  F  F19  1  1.10326266  0.16807668  1.21169212  1
  F  F20  1  0.41807668  0.85326266  0.03830788  1
  F  F21  1  0.08192332  -0.85326266  -0.46169212  1
  F  F22  1  1.10326266  0.83192332  -0.21169212  1
  F  F23  1  -0.60326266  0.16807668  0.28830788  1
  F  F24  1  -0.08192332  -0.85326266  -0.46169212  1
  F  F25  1  0.58192332  0.85326266  0.03830788  1
  F  F26  1  1.60326266  0.16807668  0.28830788  1
  F  F27  1  -0.10326266  0.83192332  -0.21169212  1
  F  F28  1  0.58192332  -0.85326266  0.96169212  1
  F  F29  1  -0.08192332  0.85326266  0.46169212  1
  F  F30  1  -0.10326266  0.16807668  1.21169212  1
  F  F31  1  1.60326266  0.83192332  0.71169212  1
  F  F32  1  0.58192332  1.35326266  0.96169212  1
  F  F33  1  0.91807668  -0.35326266  1.46169212  1
  F  F34  1  -0.10326266  1.33192332  1.21169212  1
  F  F35  1  1.60326266  0.66807668  1.71169212  1
  F  F36  1  0.91807668  1.35326266  0.53830788  1
  F  F37  1  0.58192332  -0.35326266  0.03830788  1
  F  F38  1  1.60326266  1.33192332  0.28830788  1
  F  F39  1  -0.10326266  0.66807668  0.78830788  1
  F  F40  1  0.41807668  -0.35326266  0.03830788  1
  F  F41  1  1.08192332  1.35326266  0.53830788  1
  F  F42  1  2.10326266  0.66807668  0.78830788  1
  F  F43  1  0.39673734  1.33192332  0.28830788  1
  F  F44  1  1.08192332  -0.35326266  1.46169212  1
  F  F45  1  0.41807668  1.35326266  0.96169212  1
  F  F46  1  0.39673734  0.66807668  1.71169212  1
  F  F47  1  2.10326266  1.33192332  1.21169212  1
  Li  Li48  1  0.00000000  0.00000000  0.00000000  1
  Li  Li49  1  0.50000000  0.00000000  0.50000000  1
  Li  Li50  1  0.25000000  0.75000000  0.25000000  1
  Li  Li51  1  0.25000000  0.25000000  0.75000000  1
  Li  Li52  1  0.50000000  0.50000000  0.50000000  1
  Li  Li53  1  0.00000000  0.50000000  0.00000000  1
  Li  Li54  1  0.75000000  0.25000000  0.75000000  1
  Li  Li55  1  0.75000000  0.75000000  0.25000000  1
  Si  Si56  1  0.17646160  -0.00000000  0.00000000  1
  Si  Si57  1  0.32353840  0.00000000  0.50000000  1
  Si  Si58  1  0.25000000  0.92646160  0.25000000  1
  Si  Si59  1  0.25000000  0.07353840  0.75000000  1
  Si  Si60  1  0.82353840  -0.00000000  0.00000000  1
  Si  Si61  1  0.67646160  -0.00000000  0.50000000  1
  Si  Si62  1  0.75000000  0.07353840  0.75000000  1
  Si  Si63  1  0.75000000  0.92646160  0.25000000  1
  Si  Si64  1  0.67646160  0.50000000  0.50000000  1
  Si  Si65  1  0.82353840  0.50000000  0.00000000  1
  Si  Si66  1  0.75000000  0.42646160  0.75000000  1
  Si  Si67  1  0.75000000  0.57353840  0.25000000  1
  Si  Si68  1  0.32353840  0.50000000  0.50000000  1
  Si  Si69  1  0.17646160  0.50000000  0.00000000  1
  Si  Si70  1  0.25000000  0.57353840  0.25000000  1
  Si  Si71  1  0.25000000  0.42646160  0.75000000  1
  Te  Te72  1  0.00000000  0.00000000  0.50000000  1
  Te  Te73  1  0.50000000  0.00000000  0.00000000  1
  Te  Te74  1  0.25000000  0.75000000  0.75000000  1
  Te  Te75  1  0.25000000  0.25000000  0.25000000  1
  Te  Te76  1  0.50000000  0.50000000  0.00000000  1
  Te  Te77  1  0.00000000  0.50000000  0.50000000  1
  Te  Te78  1  0.75000000  0.25000000  0.25000000  1
  Te  Te79  1  0.75000000  0.75000000  0.75000000  1
  Te  Te80  1  0.00000000  0.75000000  0.12500000  1
  Te  Te81  1  0.50000000  0.75000000  0.37500000  1
  Te  Te82  1  0.50000000  0.25000000  0.62500000  1
  Te  Te83  1  0.00000000  0.25000000  0.87500000  1
