# generated using pymatgen
data_LiF
_symmetry_space_group_name_H-M   'P 1'
_cell_length_a   3.96231634
_cell_length_b   3.96231634
_cell_length_c   25.71107102
_cell_angle_alpha   90.00000000
_cell_angle_beta   90.00000000
_cell_angle_gamma   120.00000000
_symmetry_Int_Tables_number   1
_chemical_formula_structural   LiF
_chemical_formula_sum   'Li11 F11'
_cell_volume   349.58202318
_cell_formula_units_Z   11
loop_
 _symmetry_equiv_pos_site_id
 _symmetry_equiv_pos_as_xyz
  1  'x, y, z'
loop_
 _atom_site_type_symbol
 _atom_site_label
 _atom_site_symmetry_multiplicity
 _atom_site_fract_x
 _atom_site_fract_y
 _atom_site_fract_z
 _atom_site_occupancy
  F  F0  1  0.48700631  0.68191822  0.89711059  1
  F  F1  1  0.31808178  0.80508808  0.89711059  1
  F  F2  1  0.19491192  0.51299369  0.89711059  1
  F  F3  1  0.31808178  0.51299369  0.10288941  1
  F  F4  1  0.19491192  0.68191822  0.10288941  1
  F  F5  1  0.48700631  0.80508808  0.10288941  1
  F  F6  1  0.15148137  0.84851863  0.50000000  1
  F  F7  1  0.15148137  0.30296275  0.50000000  1
  F  F8  1  0.69703725  0.84851863  0.50000000  1
  F  F9  1  0.00000000  0.00000000  0.00000000  1
  F  F10  1  0.33333333  0.66666667  0.00000000  1
  Li  Li11  1  0.33333333  0.66666667  0.50000000  1
  Li  Li12  1  0.00000000  0.00000000  0.05856521  1
  Li  Li13  1  0.00000000  0.00000000  0.94143479  1
  Li  Li14  1  0.66666667  0.33333333  0.96181803  1
  Li  Li15  1  0.66666667  0.33333333  0.03818197  1
  Li  Li16  1  0.55442641  0.98092240  0.36137639  1
  Li  Li17  1  -0.98092240  -0.42649599  0.36137639  1
  Li  Li18  1  0.42649599  -0.55442641  0.36137639  1
  Li  Li19  1  -0.98092240  -0.55442641  -0.36137639  1
  Li  Li20  1  0.42649599  0.98092240  -0.36137639  1
  Li  Li21  1  0.55442641  -0.42649599  -0.36137639  1
