# generated using pymatgen
data_LiF
_symmetry_space_group_name_H-M   'P 1'
_cell_length_a   4.18741172
_cell_length_b   10.86656827
_cell_length_c   9.27626364
_cell_angle_alpha   90.00000000
_cell_angle_beta   90.00000000
_cell_angle_gamma   90.00000000
_symmetry_Int_Tables_number   1
_chemical_formula_structural   LiF
_chemical_formula_sum   'Li24 F24'
_cell_volume   422.09592633
_cell_formula_units_Z   24
loop_
 _symmetry_equiv_pos_site_id
 _symmetry_equiv_pos_as_xyz
  1  'x, y, z'
loop_
 _atom_site_type_symbol
 _atom_site_label
 _atom_site_symmetry_multiplicity
 _atom_site_fract_x
 _atom_site_fract_y
 _atom_site_fract_z
 _atom_site_occupancy
  F  F0  1  0.93719877  0.70594371  0.00000000  1
  F  F1  1  0.06280123  0.29405629  -0.00000000  1
  F  F2  1  0.56280123  0.20594371  -0.00000000  1
  F  F3  1  0.43719877  0.79405629  0.00000000  1
  F  F4  1  0.00000000  0.00000000  0.50000000  1
  F  F5  1  0.50000000  0.50000000  0.50000000  1
  F  F6  1  0.66299699  0.24664656  0.75385417  1
  F  F7  1  0.33700301  0.75335344  0.75385417  1
  F  F8  1  0.83700301  0.74664656  0.24614583  1
  F  F9  1  0.16299699  0.25335344  0.24614583  1
  F  F10  1  0.33700301  0.75335344  0.24614583  1
  F  F11  1  0.66299699  0.24664656  0.24614583  1
  F  F12  1  0.16299699  0.25335344  0.75385417  1
  F  F13  1  0.83700301  0.74664656  0.75385417  1
  F  F14  1  0.51677572  0.45489276  0.32987227  1
  F  F15  1  0.48322428  0.54510724  0.32987227  1
  F  F16  1  0.98322428  0.95489276  0.67012773  1
  F  F17  1  0.01677572  0.04510724  0.67012773  1
  F  F18  1  0.48322428  0.54510724  0.67012773  1
  F  F19  1  0.51677572  0.45489276  0.67012773  1
  F  F20  1  0.01677572  0.04510724  0.32987227  1
  F  F21  1  0.98322428  0.95489276  0.32987227  1
  F  F22  1  0.00000000  0.50000000  0.50000000  1
  F  F23  1  0.50000000  -0.00000000  0.50000000  1
  Li  Li24  1  0.97397360  0.31766895  0.16581121  1
  Li  Li25  1  -0.97397360  -0.31766895  0.16581121  1
  Li  Li26  1  -0.47397360  0.81766895  -0.16581121  1
  Li  Li27  1  1.47397360  0.18233105  -0.16581121  1
  Li  Li28  1  -0.97397360  -0.31766895  -0.16581121  1
  Li  Li29  1  0.97397360  0.31766895  -0.16581121  1
  Li  Li30  1  1.47397360  0.18233105  0.16581121  1
  Li  Li31  1  -0.47397360  0.81766895  0.16581121  1
  Li  Li32  1  0.83958092  0.93338148  -0.00000000  1
  Li  Li33  1  0.16041908  0.06661852  0.00000000  1
  Li  Li34  1  0.66041908  0.43338148  0.00000000  1
  Li  Li35  1  0.33958092  0.56661852  -0.00000000  1
  Li  Li36  1  0.19554547  0.50111673  0.28008625  1
  Li  Li37  1  0.80445453  0.49888327  0.28008625  1
  Li  Li38  1  0.30445453  0.00111673  0.71991375  1
  Li  Li39  1  0.69554547  0.99888327  0.71991375  1
  Li  Li40  1  0.80445453  0.49888327  0.71991375  1
  Li  Li41  1  0.19554547  0.50111673  0.71991375  1
  Li  Li42  1  0.69554547  0.99888327  0.28008625  1
  Li  Li43  1  0.30445453  0.00111673  0.28008625  1
  Li  Li44  1  0.56879098  0.06622679  -0.00000000  1
  Li  Li45  1  0.43120902  0.93377321  0.00000000  1
  Li  Li46  1  0.93120902  0.56622679  -0.00000000  1
  Li  Li47  1  0.06879098  0.43377321  -0.00000000  1
