# generated using pymatgen
data_Li2Si4Te3F12
_symmetry_space_group_name_H-M   'P 1'
_cell_length_a   15.05089907
_cell_length_b   15.05089907
_cell_length_c   6.87567913
_cell_angle_alpha   90.00000000
_cell_angle_beta   90.00000000
_cell_angle_gamma   90.00000000
_symmetry_Int_Tables_number   1
_chemical_formula_structural   Li2Si4Te3F12
_chemical_formula_sum   'Li8 Si16 Te12 F48'
_cell_volume   1557.54458918
_cell_formula_units_Z   4
loop_
 _symmetry_equiv_pos_site_id
 _symmetry_equiv_pos_as_xyz
  1  'x, y, z'
loop_
 _atom_site_type_symbol
 _atom_site_label
 _atom_site_symmetry_multiplicity
 _atom_site_fract_x
 _atom_site_fract_y
 _atom_site_fract_z
 _atom_site_occupancy
  F  F0  1  0.10521323  0.27586587  0.73351520  1
  F  F1  1  0.39478677  -0.27586587  1.23351520  1
  F  F2  1  -0.02586587  0.85521323  0.98351520  1
  F  F3  1  0.52586587  0.14478677  1.48351520  1
  F  F4  1  0.39478677  0.27586587  -0.23351520  1
  F  F5  1  0.10521323  -0.27586587  -0.73351520  1
  F  F6  1  0.52586587  0.85521323  -0.48351520  1
  F  F7  1  -0.02586587  0.14478677  0.01648480  1
  F  F8  1  -0.10521323  -0.27586587  -0.73351520  1
  F  F9  1  0.60521323  0.27586587  -0.23351520  1
  F  F10  1  1.02586587  0.14478677  0.01648480  1
  F  F11  1  0.47413413  0.85521323  -0.48351520  1
  F  F12  1  0.60521323  -0.27586587  1.23351520  1
  F  F13  1  -0.10521323  0.27586587  0.73351520  1
  F  F14  1  0.47413413  0.14478677  1.48351520  1
  F  F15  1  1.02586587  0.85521323  0.98351520  1
  F  F16  1  0.60521323  0.77586587  1.23351520  1
  F  F17  1  0.89478677  0.22413413  1.73351520  1
  F  F18  1  0.47413413  1.35521323  1.48351520  1
  F  F19  1  1.02586587  0.64478677  1.98351520  1
  F  F20  1  0.89478677  0.77586587  0.26648480  1
  F  F21  1  0.60521323  0.22413413  -0.23351520  1
  F  F22  1  1.02586587  1.35521323  0.01648480  1
  F  F23  1  0.47413413  0.64478677  0.51648480  1
  F  F24  1  0.39478677  0.22413413  -0.23351520  1
  F  F25  1  1.10521323  0.77586587  0.26648480  1
  F  F26  1  1.52586587  0.64478677  0.51648480  1
  F  F27  1  0.97413413  1.35521323  0.01648480  1
  F  F28  1  1.10521323  0.22413413  1.73351520  1
  F  F29  1  0.39478677  0.77586587  1.23351520  1
  F  F30  1  0.97413413  0.64478677  1.98351520  1
  F  F31  1  1.52586587  1.35521323  1.48351520  1
  F  F32  1  0.00000000  0.97228325  0.57222232  1
  F  F33  1  0.50000000  0.02771675  0.07222232  1
  F  F34  1  0.27771675  0.75000000  0.82222232  1
  F  F35  1  0.22228325  0.25000000  0.32222232  1
  F  F36  1  0.50000000  0.97228325  0.92777768  1
  F  F37  1  0.00000000  0.02771675  0.42777768  1
  F  F38  1  0.22228325  0.75000000  0.67777768  1
  F  F39  1  0.27771675  0.25000000  0.17777768  1
  F  F40  1  0.50000000  0.47228325  0.07222232  1
  F  F41  1  0.00000000  0.52771675  0.57222232  1
  F  F42  1  0.77771675  0.25000000  0.32222232  1
  F  F43  1  0.72228325  0.75000000  0.82222232  1
  F  F44  1  0.00000000  0.47228325  0.42777768  1
  F  F45  1  0.50000000  0.52771675  0.92777768  1
  F  F46  1  0.72228325  0.25000000  0.17777768  1
  F  F47  1  0.77771675  0.75000000  0.67777768  1
  Li  Li48  1  0.00000000  0.25000000  0.56224044  1
  Li  Li49  1  0.00000000  0.75000000  0.81224044  1
  Li  Li50  1  0.50000000  0.25000000  0.93775956  1
  Li  Li51  1  0.50000000  0.75000000  0.68775956  1
  Li  Li52  1  0.50000000  0.75000000  0.06224044  1
  Li  Li53  1  0.50000000  0.25000000  0.31224044  1
  Li  Li54  1  0.00000000  0.75000000  0.43775956  1
  Li  Li55  1  0.00000000  0.25000000  0.18775956  1
  Si  Si56  1  0.00000000  0.69293151  0.65715550  1
  Si  Si57  1  0.50000000  0.30706849  0.15715550  1
  Si  Si58  1  0.55706849  0.75000000  0.90715550  1
  Si  Si59  1  0.94293151  0.25000000  0.40715550  1
  Si  Si60  1  0.50000000  0.69293151  0.84284450  1
  Si  Si61  1  0.00000000  0.30706849  0.34284450  1
  Si  Si62  1  0.94293151  0.75000000  0.59284450  1
  Si  Si63  1  0.55706849  0.25000000  0.09284450  1
  Si  Si64  1  0.50000000  0.19293151  0.15715550  1
  Si  Si65  1  0.00000000  0.80706849  0.65715550  1
  Si  Si66  1  0.05706849  0.25000000  0.40715550  1
  Si  Si67  1  0.44293151  0.75000000  0.90715550  1
  Si  Si68  1  0.00000000  0.19293151  0.34284450  1
  Si  Si69  1  0.50000000  0.80706849  0.84284450  1
  Si  Si70  1  0.44293151  0.25000000  0.09284450  1
  Si  Si71  1  0.05706849  0.75000000  0.59284450  1
  Te  Te72  1  0.00000000  0.00000000  0.00000000  1
  Te  Te73  1  0.50000000  0.00000000  0.50000000  1
  Te  Te74  1  0.25000000  0.75000000  0.25000000  1
  Te  Te75  1  0.25000000  0.25000000  0.75000000  1
  Te  Te76  1  0.50000000  0.50000000  0.50000000  1
  Te  Te77  1  0.00000000  0.50000000  0.00000000  1
  Te  Te78  1  0.75000000  0.25000000  0.75000000  1
  Te  Te79  1  0.75000000  0.75000000  0.25000000  1
  Te  Te80  1  0.00000000  0.75000000  0.12500000  1
  Te  Te81  1  0.50000000  0.75000000  0.37500000  1
  Te  Te82  1  0.50000000  0.25000000  0.62500000  1
  Te  Te83  1  0.00000000  0.25000000  0.87500000  1
