# generated using pymatgen
data_Na3Li9(Te2S)2
_symmetry_space_group_name_H-M   'P 1'
_cell_length_a   15.77491079
_cell_length_b   15.77491079
_cell_length_c   9.20031134
_cell_angle_alpha   90.00000000
_cell_angle_beta   90.00000000
_cell_angle_gamma   90.00000000
_symmetry_Int_Tables_number   1
_chemical_formula_structural   Na3Li9(Te2S)2
_chemical_formula_sum   'Na24 Li72 Te32 S16'
_cell_volume   2289.47733257
_cell_formula_units_Z   8
loop_
 _symmetry_equiv_pos_site_id
 _symmetry_equiv_pos_as_xyz
  1  'x, y, z'
loop_
 _atom_site_type_symbol
 _atom_site_label
 _atom_site_symmetry_multiplicity
 _atom_site_fract_x
 _atom_site_fract_y
 _atom_site_fract_z
 _atom_site_occupancy
  Li  Li0  1  0.19427152  0.00000000  0.00000000  1
  Li  Li1  1  0.30572848  0.00000000  0.50000000  1
  Li  Li2  1  0.25000000  0.94427152  0.25000000  1
  Li  Li3  1  0.25000000  0.05572848  0.75000000  1
  Li  Li4  1  0.80572848  0.00000000  0.00000000  1
  Li  Li5  1  0.69427152  0.00000000  0.50000000  1
  Li  Li6  1  0.75000000  0.05572848  0.75000000  1
  Li  Li7  1  0.75000000  0.94427152  0.25000000  1
  Li  Li8  1  0.69427152  0.50000000  0.50000000  1
  Li  Li9  1  0.80572848  0.50000000  0.00000000  1
  Li  Li10  1  0.75000000  0.44427152  0.75000000  1
  Li  Li11  1  0.75000000  0.55572848  0.25000000  1
  Li  Li12  1  0.30572848  0.50000000  0.50000000  1
  Li  Li13  1  0.19427152  0.50000000  0.00000000  1
  Li  Li14  1  0.25000000  0.55572848  0.25000000  1
  Li  Li15  1  0.25000000  0.44427152  0.75000000  1
  Li  Li16  1  0.60308716  0.85308716  0.87500000  1
  Li  Li17  1  0.89691284  0.14691284  0.37500000  1
  Li  Li18  1  0.39691284  0.35308716  0.12500000  1
  Li  Li19  1  0.10308716  0.64691284  0.62500000  1
  Li  Li20  1  0.39691284  0.14691284  0.12500000  1
  Li  Li21  1  0.10308716  0.85308716  0.62500000  1
  Li  Li22  1  0.60308716  0.64691284  0.87500000  1
  Li  Li23  1  0.89691284  0.35308716  0.37500000  1
  Li  Li24  1  0.10308716  0.35308716  0.37500000  1
  Li  Li25  1  0.39691284  0.64691284  0.87500000  1
  Li  Li26  1  0.89691284  0.85308716  0.62500000  1
  Li  Li27  1  0.60308716  0.14691284  0.12500000  1
  Li  Li28  1  0.89691284  0.64691284  0.62500000  1
  Li  Li29  1  0.60308716  0.35308716  0.12500000  1
  Li  Li30  1  0.10308716  0.14691284  0.37500000  1
  Li  Li31  1  0.39691284  0.85308716  0.87500000  1
  Li  Li32  1  0.59641430  0.00000000  0.00000000  1
  Li  Li33  1  0.90358570  0.00000000  0.50000000  1
  Li  Li34  1  0.25000000  0.34641430  0.25000000  1
  Li  Li35  1  0.25000000  0.65358570  0.75000000  1
  Li  Li36  1  0.40358570  0.00000000  0.00000000  1
  Li  Li37  1  0.09641430  0.00000000  0.50000000  1
  Li  Li38  1  0.75000000  0.65358570  0.75000000  1
  Li  Li39  1  0.75000000  0.34641430  0.25000000  1
  Li  Li40  1  0.09641430  0.50000000  0.50000000  1
  Li  Li41  1  0.40358570  0.50000000  0.00000000  1
  Li  Li42  1  0.75000000  0.84641430  0.75000000  1
  Li  Li43  1  0.75000000  0.15358570  0.25000000  1
  Li  Li44  1  0.90358570  0.50000000  0.50000000  1
  Li  Li45  1  0.59641430  0.50000000  0.00000000  1
  Li  Li46  1  0.25000000  0.15358570  0.25000000  1
  Li  Li47  1  0.25000000  0.84641430  0.75000000  1
  Li  Li48  1  0.00000000  0.56288861  0.60160841  1
  Li  Li49  1  0.50000000  0.43711139  0.10160841  1
  Li  Li50  1  0.68711139  0.75000000  0.85160841  1
  Li  Li51  1  0.81288861  0.25000000  0.35160841  1
  Li  Li52  1  0.50000000  0.56288861  0.89839159  1
  Li  Li53  1  0.00000000  0.43711139  0.39839159  1
  Li  Li54  1  0.81288861  0.75000000  0.64839159  1
  Li  Li55  1  0.68711139  0.25000000  0.14839159  1
  Li  Li56  1  0.50000000  0.06288861  0.10160841  1
  Li  Li57  1  0.00000000  0.93711139  0.60160841  1
  Li  Li58  1  0.18711139  0.25000000  0.35160841  1
  Li  Li59  1  0.31288861  0.75000000  0.85160841  1
  Li  Li60  1  0.00000000  0.06288861  0.39839159  1
  Li  Li61  1  0.50000000  0.93711139  0.89839159  1
  Li  Li62  1  0.31288861  0.25000000  0.14839159  1
  Li  Li63  1  0.18711139  0.75000000  0.64839159  1
  Li  Li64  1  0.00000000  0.00000000  0.00000000  1
  Li  Li65  1  0.50000000  0.00000000  0.50000000  1
  Li  Li66  1  0.25000000  0.75000000  0.25000000  1
  Li  Li67  1  0.25000000  0.25000000  0.75000000  1
  Li  Li68  1  0.50000000  0.50000000  0.50000000  1
  Li  Li69  1  0.00000000  0.50000000  0.00000000  1
  Li  Li70  1  0.75000000  0.25000000  0.75000000  1
  Li  Li71  1  0.75000000  0.75000000  0.25000000  1
  Na  Na72  1  0.00000000  0.03222128  0.59199044  1
  Na  Na73  1  0.50000000  0.96777872  0.09199044  1
  Na  Na74  1  0.21777872  0.75000000  0.84199044  1
  Na  Na75  1  0.28222128  0.25000000  0.34199044  1
  Na  Na76  1  0.50000000  0.03222128  0.90800956  1
  Na  Na77  1  0.00000000  0.96777872  0.40800956  1
  Na  Na78  1  0.28222128  0.75000000  0.65800956  1
  Na  Na79  1  0.21777872  0.25000000  0.15800956  1
  Na  Na80  1  0.50000000  0.53222128  0.09199044  1
  Na  Na81  1  0.00000000  0.46777872  0.59199044  1
  Na  Na82  1  0.71777872  0.25000000  0.34199044  1
  Na  Na83  1  0.78222128  0.75000000  0.84199044  1
  Na  Na84  1  0.00000000  0.53222128  0.40800956  1
  Na  Na85  1  0.50000000  0.46777872  0.90800956  1
  Na  Na86  1  0.78222128  0.25000000  0.15800956  1
  Na  Na87  1  0.71777872  0.75000000  0.65800956  1
  Na  Na88  1  0.00000000  0.25000000  0.37500000  1
  Na  Na89  1  0.00000000  0.75000000  0.62500000  1
  Na  Na90  1  0.50000000  0.75000000  0.87500000  1
  Na  Na91  1  0.50000000  0.25000000  0.12500000  1
  Na  Na92  1  0.00000000  0.75000000  0.12500000  1
  Na  Na93  1  0.50000000  0.75000000  0.37500000  1
  Na  Na94  1  0.50000000  0.25000000  0.62500000  1
  Na  Na95  1  0.00000000  0.25000000  0.87500000  1
  S  S96  1  0.20741737  0.45741737  0.87500000  1
  S  S97  1  0.29258263  0.54258263  0.37500000  1
  S  S98  1  0.79258263  0.95741737  0.12500000  1
  S  S99  1  0.70741737  0.04258263  0.62500000  1
  S  S100  1  0.79258263  0.54258263  0.12500000  1
  S  S101  1  0.70741737  0.45741737  0.62500000  1
  S  S102  1  0.20741737  0.04258263  0.87500000  1
  S  S103  1  0.29258263  0.95741737  0.37500000  1
  S  S104  1  0.70741737  0.95741737  0.37500000  1
  S  S105  1  0.79258263  0.04258263  0.87500000  1
  S  S106  1  0.29258263  0.45741737  0.62500000  1
  S  S107  1  0.20741737  0.54258263  0.12500000  1
  S  S108  1  0.29258263  0.04258263  0.62500000  1
  S  S109  1  0.20741737  0.95741737  0.12500000  1
  S  S110  1  0.70741737  0.54258263  0.37500000  1
  S  S111  1  0.79258263  0.45741737  0.87500000  1
  Te  Te112  1  0.40756924  0.85635137  0.60893299  1
  Te  Te113  1  0.09243076  -0.85635137  1.10893299  1
  Te  Te114  1  -0.60635137  1.15756924  0.85893299  1
  Te  Te115  1  1.10635137  -0.15756924  1.35893299  1
  Te  Te116  1  0.09243076  0.85635137  -0.10893299  1
  Te  Te117  1  0.40756924  -0.85635137  -0.60893299  1
  Te  Te118  1  1.10635137  1.15756924  -0.35893299  1
  Te  Te119  1  -0.60635137  -0.15756924  0.14106701  1
  Te  Te120  1  -0.40756924  -0.85635137  -0.60893299  1
  Te  Te121  1  0.90756924  0.85635137  -0.10893299  1
  Te  Te122  1  1.60635137  -0.15756924  0.14106701  1
  Te  Te123  1  -0.10635137  1.15756924  -0.35893299  1
  Te  Te124  1  0.90756924  -0.85635137  1.10893299  1
  Te  Te125  1  -0.40756924  0.85635137  0.60893299  1
  Te  Te126  1  -0.10635137  -0.15756924  1.35893299  1
  Te  Te127  1  1.60635137  1.15756924  0.85893299  1
  Te  Te128  1  0.90756924  1.35635137  1.10893299  1
  Te  Te129  1  0.59243076  -0.35635137  1.60893299  1
  Te  Te130  1  -0.10635137  1.65756924  1.35893299  1
  Te  Te131  1  1.60635137  0.34243076  1.85893299  1
  Te  Te132  1  0.59243076  1.35635137  0.39106701  1
  Te  Te133  1  0.90756924  -0.35635137  -0.10893299  1
  Te  Te134  1  1.60635137  1.65756924  0.14106701  1
  Te  Te135  1  -0.10635137  0.34243076  0.64106701  1
  Te  Te136  1  0.09243076  -0.35635137  -0.10893299  1
  Te  Te137  1  1.40756924  1.35635137  0.39106701  1
  Te  Te138  1  2.10635137  0.34243076  0.64106701  1
  Te  Te139  1  0.39364863  1.65756924  0.14106701  1
  Te  Te140  1  1.40756924  -0.35635137  1.60893299  1
  Te  Te141  1  0.09243076  1.35635137  1.10893299  1
  Te  Te142  1  0.39364863  0.34243076  1.85893299  1
  Te  Te143  1  2.10635137  1.65756924  1.35893299  1
