# generated using pymatgen
data_Li2Y2Cu3P2Se
_symmetry_space_group_name_H-M   'P 1'
_cell_length_a   5.37514930
_cell_length_b   5.67058473
_cell_length_c   6.74784540
_cell_angle_alpha   93.51379849
_cell_angle_beta   96.44174384
_cell_angle_gamma   100.88978897
_symmetry_Int_Tables_number   1
_chemical_formula_structural   Li2Y2Cu3P2Se
_chemical_formula_sum   'Li2 Y2 Cu3 P2 Se1'
_cell_volume   199.97873016
_cell_formula_units_Z   1
loop_
 _symmetry_equiv_pos_site_id
 _symmetry_equiv_pos_as_xyz
  1  'x, y, z'
loop_
 _atom_site_type_symbol
 _atom_site_label
 _atom_site_symmetry_multiplicity
 _atom_site_fract_x
 _atom_site_fract_y
 _atom_site_fract_z
 _atom_site_occupancy
  Se  Se0  1  0.00000000  0.00000000  0.00000000  1
  Cu  Cu1  1  0.50000000  0.50000000  0.50000000  1
  Cu  Cu2  1  0.25000000  0.25000000  0.25000000  1
  Cu  Cu3  1  0.75000000  0.25000000  0.00000000  1
  P  P4  1  0.25000000  0.75000000  0.50000000  1
  P  P5  1  0.50513329  0.74821466  0.83898522  1
  Li  Li6  1  0.98606786  0.28605349  0.79980398  1
  Li  Li7  1  0.69050236  0.74962514  0.65036351  1
  Y  Y8  1  0.04160812  0.65906385  0.70383361  1
  Y  Y9  1  0.77687753  0.58823512  0.09721503  1
