# generated using pymatgen
data_Li2CaSeF2
_symmetry_space_group_name_H-M   'P 1'
_cell_length_a   10.51596787
_cell_length_b   8.90888152
_cell_length_c   5.42443376
_cell_angle_alpha   90.00000000
_cell_angle_beta   90.00000000
_cell_angle_gamma   90.00000000
_symmetry_Int_Tables_number   1
_chemical_formula_structural   Li2CaSeF2
_chemical_formula_sum   'Li8 Ca4 Se4 F8'
_cell_volume   508.19085353
_cell_formula_units_Z   4
loop_
 _symmetry_equiv_pos_site_id
 _symmetry_equiv_pos_as_xyz
  1  'x, y, z'
loop_
 _atom_site_type_symbol
 _atom_site_label
 _atom_site_symmetry_multiplicity
 _atom_site_fract_x
 _atom_site_fract_y
 _atom_site_fract_z
 _atom_site_occupancy
  Ca  Ca0  1  0.00000000  0.00000000  0.77340979  1
  Ca  Ca1  1  0.50000000  0.50000000  0.22659021  1
  Ca  Ca2  1  0.00000000  0.00000000  0.22659021  1
  Ca  Ca3  1  0.50000000  0.50000000  0.77340979  1
  F  F4  1  0.43169663  0.78970154  0.50000000  1
  F  F5  1  -0.43169663  -0.78970154  0.50000000  1
  F  F6  1  0.06830337  1.28970154  0.50000000  1
  F  F7  1  0.93169663  -0.28970154  0.50000000  1
  F  F8  1  0.00000000  0.00000000  0.50000000  1
  F  F9  1  0.50000000  0.50000000  0.50000000  1
  F  F10  1  0.00000000  0.00000000  0.00000000  1
  F  F11  1  0.50000000  0.50000000  0.00000000  1
  Li  Li12  1  0.68265493  0.65524538  0.50000000  1
  Li  Li13  1  0.31734507  0.34475462  0.50000000  1
  Li  Li14  1  0.81734507  0.15524538  0.50000000  1
  Li  Li15  1  0.18265493  0.84475462  0.50000000  1
  Li  Li16  1  0.28417442  0.47363379  0.00000000  1
  Li  Li17  1  0.71582558  0.52636621  0.00000000  1
  Li  Li18  1  0.21582558  0.97363379  0.00000000  1
  Li  Li19  1  0.78417442  0.02636621  0.00000000  1
  Se  Se20  1  0.00000000  0.50000000  0.00000000  1
  Se  Se21  1  0.50000000  0.00000000  0.00000000  1
  Se  Se22  1  0.00000000  0.50000000  0.50000000  1
  Se  Se23  1  0.50000000  0.00000000  0.50000000  1
