# generated using pymatgen
data_Sr4Li17Zr4Te12F17
_symmetry_space_group_name_H-M   'P 1'
_cell_length_a   14.27307506
_cell_length_b   14.27307506
_cell_length_c   12.24320060
_cell_angle_alpha   90.00000000
_cell_angle_beta   90.00000000
_cell_angle_gamma   120.00000000
_symmetry_Int_Tables_number   1
_chemical_formula_structural   Sr4Li17Zr4Te12F17
_chemical_formula_sum   'Sr8 Li34 Zr8 Te24 F34'
_cell_volume   2160.03454251
_cell_formula_units_Z   2
loop_
 _symmetry_equiv_pos_site_id
 _symmetry_equiv_pos_as_xyz
  1  'x, y, z'
loop_
 _atom_site_type_symbol
 _atom_site_label
 _atom_site_symmetry_multiplicity
 _atom_site_fract_x
 _atom_site_fract_y
 _atom_site_fract_z
 _atom_site_occupancy
  F  F0  1  0.36042609  0.03369933  0.25000000  1
  F  F1  1  0.96630067  0.32672676  0.25000000  1
  F  F2  1  0.67327324  0.63957391  0.25000000  1
  F  F3  1  0.63957391  0.96630067  0.75000000  1
  F  F4  1  0.03369933  0.67327324  0.75000000  1
  F  F5  1  0.32672676  0.36042609  0.75000000  1
  F  F6  1  0.00000000  0.00000000  0.25000000  1
  F  F7  1  0.00000000  0.00000000  0.75000000  1
  F  F8  1  0.39725325  0.30807783  0.36233962  1
  F  F9  1  0.69192217  0.08917542  0.36233962  1
  F  F10  1  0.91082458  0.60274675  0.36233962  1
  F  F11  1  0.60274675  0.69192217  0.86233962  1
  F  F12  1  0.30807783  0.91082458  0.86233962  1
  F  F13  1  0.08917542  0.39725325  0.86233962  1
  F  F14  1  0.60274675  0.69192217  0.63766038  1
  F  F15  1  0.30807783  0.91082458  0.63766038  1
  F  F16  1  0.08917542  0.39725325  0.63766038  1
  F  F17  1  0.39725325  0.30807783  0.13766038  1
  F  F18  1  0.69192217  0.08917542  0.13766038  1
  F  F19  1  0.91082458  0.60274675  0.13766038  1
  F  F20  1  0.13438163  0.09747706  0.83529906  1
  F  F21  1  0.90252294  0.03690458  0.83529906  1
  F  F22  1  0.96309542  0.86561837  0.83529906  1
  F  F23  1  0.86561837  0.90252294  0.33529906  1
  F  F24  1  0.09747706  0.96309542  0.33529906  1
  F  F25  1  0.03690458  0.13438163  0.33529906  1
  F  F26  1  0.86561837  0.90252294  0.16470094  1
  F  F27  1  0.09747706  0.96309542  0.16470094  1
  F  F28  1  0.03690458  0.13438163  0.16470094  1
  F  F29  1  0.13438163  0.09747706  0.66470094  1
  F  F30  1  0.90252294  0.03690458  0.66470094  1
  F  F31  1  0.96309542  0.86561837  0.66470094  1
  F  F32  1  0.66666667  0.33333333  0.25000000  1
  F  F33  1  0.33333333  0.66666667  0.75000000  1
  Li  Li34  1  0.33333333  0.66666667  0.44671420  1
  Li  Li35  1  0.66666667  0.33333333  0.94671420  1
  Li  Li36  1  0.66666667  0.33333333  0.55328580  1
  Li  Li37  1  0.33333333  0.66666667  0.05328580  1
  Li  Li38  1  0.93282556  0.19954588  0.94987194  1
  Li  Li39  1  0.80045412  0.73327968  0.94987194  1
  Li  Li40  1  0.26672032  0.06717444  0.94987194  1
  Li  Li41  1  0.06717444  0.80045412  0.44987194  1
  Li  Li42  1  0.19954588  0.26672032  0.44987194  1
  Li  Li43  1  0.73327968  0.93282556  0.44987194  1
  Li  Li44  1  0.06717444  0.80045412  0.05012806  1
  Li  Li45  1  0.19954588  0.26672032  0.05012806  1
  Li  Li46  1  0.73327968  0.93282556  0.05012806  1
  Li  Li47  1  0.93282556  0.19954588  0.55012806  1
  Li  Li48  1  0.80045412  0.73327968  0.55012806  1
  Li  Li49  1  0.26672032  0.06717444  0.55012806  1
  Li  Li50  1  0.54417250  0.75778052  0.68299589  1
  Li  Li51  1  0.24221948  0.78639198  0.68299589  1
  Li  Li52  1  0.21360802  0.45582750  0.68299589  1
  Li  Li53  1  0.45582750  0.24221948  0.18299589  1
  Li  Li54  1  0.75778052  0.21360802  0.18299589  1
  Li  Li55  1  0.78639198  0.54417250  0.18299589  1
  Li  Li56  1  0.45582750  0.24221948  0.31700411  1
  Li  Li57  1  0.75778052  0.21360802  0.31700411  1
  Li  Li58  1  0.78639198  0.54417250  0.31700411  1
  Li  Li59  1  0.54417250  0.75778052  0.81700411  1
  Li  Li60  1  0.24221948  0.78639198  0.81700411  1
  Li  Li61  1  0.21360802  0.45582750  0.81700411  1
  Li  Li62  1  0.57339544  0.87428119  0.25000000  1
  Li  Li63  1  0.12571881  0.69911425  0.25000000  1
  Li  Li64  1  0.30088575  0.42660456  0.25000000  1
  Li  Li65  1  0.42660456  0.12571881  0.75000000  1
  Li  Li66  1  0.87428119  0.30088575  0.75000000  1
  Li  Li67  1  0.69911425  0.57339544  0.75000000  1
  Sr  Sr68  1  0.50000000  0.00000000  -0.00000000  1
  Sr  Sr69  1  0.00000000  0.50000000  0.00000000  1
  Sr  Sr70  1  0.50000000  0.50000000  -0.00000000  1
  Sr  Sr71  1  0.50000000  0.00000000  0.50000000  1
  Sr  Sr72  1  0.00000000  0.50000000  0.50000000  1
  Sr  Sr73  1  0.50000000  0.50000000  0.50000000  1
  Sr  Sr74  1  0.00000000  0.00000000  0.00000000  1
  Sr  Sr75  1  0.00000000  0.00000000  0.50000000  1
  Te  Te76  1  0.00167648  0.67520366  0.25000000  1
  Te  Te77  1  0.32479634  0.32647282  0.25000000  1
  Te  Te78  1  0.67352718  0.99832352  0.25000000  1
  Te  Te79  1  0.99832352  0.32479634  0.75000000  1
  Te  Te80  1  0.67520366  0.67352718  0.75000000  1
  Te  Te81  1  0.32647282  0.00167648  0.75000000  1
  Te  Te82  1  0.14663841  0.72853793  0.86619634  1
  Te  Te83  1  -0.72853793  -0.58189953  0.86619634  1
  Te  Te84  1  0.58189953  -0.14663841  0.86619634  1
  Te  Te85  1  -0.14663841  -0.72853793  1.36619634  1
  Te  Te86  1  0.72853793  0.58189953  1.36619634  1
  Te  Te87  1  -0.58189953  0.14663841  1.36619634  1
  Te  Te88  1  -0.14663841  -0.72853793  -0.86619634  1
  Te  Te89  1  0.72853793  0.58189953  -0.86619634  1
  Te  Te90  1  -0.58189953  0.14663841  -0.86619634  1
  Te  Te91  1  0.14663841  0.72853793  -0.36619634  1
  Te  Te92  1  -0.72853793  -0.58189953  -0.36619634  1
  Te  Te93  1  0.58189953  -0.14663841  -0.36619634  1
  Te  Te94  1  0.17181732  0.21184178  0.25000000  1
  Te  Te95  1  0.78815822  0.95997554  0.25000000  1
  Te  Te96  1  0.04002446  0.82818268  0.25000000  1
  Te  Te97  1  0.82818268  0.78815822  0.75000000  1
  Te  Te98  1  0.21184178  0.04002446  0.75000000  1
  Te  Te99  1  0.95997554  0.17181732  0.75000000  1
  Zr  Zr100  1  0.90661005  0.79667229  0.25000000  1
  Zr  Zr101  1  0.20332771  0.10993776  0.25000000  1
  Zr  Zr102  1  0.89006224  0.09338995  0.25000000  1
  Zr  Zr103  1  0.09338995  0.20332771  0.75000000  1
  Zr  Zr104  1  0.79667229  0.89006224  0.75000000  1
  Zr  Zr105  1  0.10993776  0.90661005  0.75000000  1
  Zr  Zr106  1  0.33333333  0.66666667  0.25000000  1
  Zr  Zr107  1  0.66666667  0.33333333  0.75000000  1
