# generated using pymatgen
data_Li2Y2As4P2Se
_symmetry_space_group_name_H-M   'P 1'
_cell_length_a   5.16895271
_cell_length_b   5.32330491
_cell_length_c   6.72284703
_cell_angle_alpha   93.81768718
_cell_angle_beta   97.69788442
_cell_angle_gamma   104.29096128
_symmetry_Int_Tables_number   1
_chemical_formula_structural   Li2Y2As4P2Se
_chemical_formula_sum   'Li2 Y2 As4 P2 Se1'
_cell_volume   176.68642342
_cell_formula_units_Z   1
loop_
 _symmetry_equiv_pos_site_id
 _symmetry_equiv_pos_as_xyz
  1  'x, y, z'
loop_
 _atom_site_type_symbol
 _atom_site_label
 _atom_site_symmetry_multiplicity
 _atom_site_fract_x
 _atom_site_fract_y
 _atom_site_fract_z
 _atom_site_occupancy
  Se  Se0  1  0.00000000  0.00000000  0.00000000  1
  Y  Y1  1  0.50000000  0.50000000  0.50000000  1
  Y  Y2  1  0.25000000  0.25000000  0.25000000  1
  P  P3  1  0.75000000  0.25000000  0.00000000  1
  P  P4  1  0.25000000  0.75000000  0.50000000  1
  As  As5  1  0.12192825  0.17376928  0.66125726  1
  As  As6  1  0.39654085  0.08642637  0.93354311  1
  As  As7  1  0.93517665  0.70028999  0.71946437  1
  As  As8  1  0.07004217  0.45286777  0.30649195  1
  Li  Li9  1  0.92854462  0.21882660  0.90809702  1
  Li  Li10  1  0.77989921  0.61840196  0.35376682  1
