# generated using pymatgen
data_LiF
_symmetry_space_group_name_H-M   'P 1'
_cell_length_a   4.86517227
_cell_length_b   13.05990047
_cell_length_c   8.95645227
_cell_angle_alpha   90.00000000
_cell_angle_beta   90.00000000
_cell_angle_gamma   90.00000000
_symmetry_Int_Tables_number   1
_chemical_formula_structural   LiF
_chemical_formula_sum   'Li24 F24'
_cell_volume   569.08102638
_cell_formula_units_Z   24
loop_
 _symmetry_equiv_pos_site_id
 _symmetry_equiv_pos_as_xyz
  1  'x, y, z'
loop_
 _atom_site_type_symbol
 _atom_site_label
 _atom_site_symmetry_multiplicity
 _atom_site_fract_x
 _atom_site_fract_y
 _atom_site_fract_z
 _atom_site_occupancy
  F  F0  1  0.95886376  0.25000000  0.76230081  1
  F  F1  1  0.54113624  0.75000000  0.26230081  1
  F  F2  1  0.04113624  0.75000000  0.23769919  1
  F  F3  1  0.45886376  0.25000000  0.73769919  1
  F  F4  1  0.27856331  0.00553193  0.14902274  1
  F  F5  1  0.22143669  0.99446807  0.64902274  1
  F  F6  1  0.72143669  0.50553193  0.85097726  1
  F  F7  1  0.77856331  0.49446807  0.35097726  1
  F  F8  1  0.72143669  0.99446807  0.85097726  1
  F  F9  1  0.77856331  0.00553193  0.35097726  1
  F  F10  1  0.27856331  0.49446807  0.14902274  1
  F  F11  1  0.22143669  0.50553193  0.64902274  1
  F  F12  1  0.00000000  0.00000000  0.00000000  1
  F  F13  1  0.50000000  0.00000000  0.50000000  1
  F  F14  1  0.00000000  0.50000000  0.00000000  1
  F  F15  1  0.50000000  0.50000000  0.50000000  1
  F  F16  1  0.83838974  0.51364701  0.44895809  1
  F  F17  1  0.66161026  0.48635299  0.94895809  1
  F  F18  1  0.16161026  0.01364701  0.55104191  1
  F  F19  1  0.33838974  0.98635299  0.05104191  1
  F  F20  1  0.16161026  0.48635299  0.55104191  1
  F  F21  1  0.33838974  0.51364701  0.05104191  1
  F  F22  1  0.83838974  0.98635299  0.44895809  1
  F  F23  1  0.66161026  0.01364701  0.94895809  1
  Li  Li24  1  0.90030531  0.25000000  0.44528480  1
  Li  Li25  1  0.59969469  0.75000000  0.94528480  1
  Li  Li26  1  0.09969469  0.75000000  0.55471520  1
  Li  Li27  1  0.40030531  0.25000000  0.05471520  1
  Li  Li28  1  0.00000000  0.00000000  0.50000000  1
  Li  Li29  1  0.50000000  0.00000000  0.00000000  1
  Li  Li30  1  0.00000000  0.50000000  0.50000000  1
  Li  Li31  1  0.50000000  0.50000000  0.00000000  1
  Li  Li32  1  0.26229256  0.14518710  0.42149193  1
  Li  Li33  1  0.23770744  -0.14518710  0.92149193  1
  Li  Li34  1  -0.26229256  0.64518710  -0.42149193  1
  Li  Li35  1  0.76229256  0.35481290  0.07850807  1
  Li  Li36  1  -0.26229256  -0.14518710  -0.42149193  1
  Li  Li37  1  0.76229256  0.14518710  0.07850807  1
  Li  Li38  1  0.26229256  0.35481290  0.42149193  1
  Li  Li39  1  0.23770744  0.64518710  0.92149193  1
  Li  Li40  1  0.87342030  0.13678168  0.67911452  1
  Li  Li41  1  0.62657970  0.86321832  0.17911452  1
  Li  Li42  1  0.12657970  0.63678168  0.32088548  1
  Li  Li43  1  0.37342030  0.36321832  0.82088548  1
  Li  Li44  1  0.12657970  0.86321832  0.32088548  1
  Li  Li45  1  0.37342030  0.13678168  0.82088548  1
  Li  Li46  1  0.87342030  0.36321832  0.67911452  1
  Li  Li47  1  0.62657970  0.63678168  0.17911452  1
