# generated using pymatgen
data_Li2Y2As4P3
_symmetry_space_group_name_H-M   'P 1'
_cell_length_a   4.60125735
_cell_length_b   4.74369896
_cell_length_c   6.85924801
_cell_angle_alpha   95.41949991
_cell_angle_beta   101.80254411
_cell_angle_gamma   111.76797719
_symmetry_Int_Tables_number   1
_chemical_formula_structural   Li2Y2As4P3
_chemical_formula_sum   'Li2 Y2 As4 P3'
_cell_volume   133.69172061
_cell_formula_units_Z   1
loop_
 _symmetry_equiv_pos_site_id
 _symmetry_equiv_pos_as_xyz
  1  'x, y, z'
loop_
 _atom_site_type_symbol
 _atom_site_label
 _atom_site_symmetry_multiplicity
 _atom_site_fract_x
 _atom_site_fract_y
 _atom_site_fract_z
 _atom_site_occupancy
  P  P0  1  0.00000000  0.00000000  0.00000000  1
  P  P1  1  0.50000000  0.50000000  0.50000000  1
  P  P2  1  0.50000000  0.50000000  0.00000000  1
  As  As3  1  0.50000000  0.00000000  0.50000000  1
  As  As4  1  0.00000000  0.50000000  0.50000000  1
  As  As5  1  0.21330326  0.23353192  0.02213541  1
  As  As6  1  0.75946010  0.45636308  0.89672536  1
  Li  Li7  1  0.93949853  0.78893781  0.82537720  1
  Li  Li8  1  0.56928080  0.08227536  0.34912440  1
  Y  Y9  1  0.06208433  0.89941977  0.49625493  1
  Y  Y10  1  0.41521125  0.68553834  0.48614473  1
