# generated using pymatgen
data_Li2S
_symmetry_space_group_name_H-M   'P 1'
_cell_length_a   5.74089200
_cell_length_b   8.97612824
_cell_length_c   4.31342587
_cell_angle_alpha   90.00000000
_cell_angle_beta   90.00000000
_cell_angle_gamma   90.00000000
_symmetry_Int_Tables_number   1
_chemical_formula_structural   Li2S
_chemical_formula_sum   'Li8 S4'
_cell_volume   222.27507432
_cell_formula_units_Z   4
loop_
 _symmetry_equiv_pos_site_id
 _symmetry_equiv_pos_as_xyz
  1  'x, y, z'
loop_
 _atom_site_type_symbol
 _atom_site_label
 _atom_site_symmetry_multiplicity
 _atom_site_fract_x
 _atom_site_fract_y
 _atom_site_fract_z
 _atom_site_occupancy
  Li  Li0  1  0.21822300  0.43584008  0.81089718  1
  Li  Li1  1  -0.21822300  -0.43584008  0.81089718  1
  Li  Li2  1  0.28177700  0.93584008  -0.31089718  1
  Li  Li3  1  0.71822300  0.06415992  -0.31089718  1
  Li  Li4  1  -0.21822300  -0.43584008  -0.81089718  1
  Li  Li5  1  0.21822300  0.43584008  -0.81089718  1
  Li  Li6  1  0.71822300  0.06415992  1.31089718  1
  Li  Li7  1  0.28177700  0.93584008  1.31089718  1
  S  S8  1  0.00000000  0.00000000  0.50000000  1
  S  S9  1  0.50000000  0.50000000  0.00000000  1
  S  S10  1  0.00000000  0.00000000  0.00000000  1
  S  S11  1  0.50000000  0.50000000  0.50000000  1
