# generated using pymatgen
data_LiF
_symmetry_space_group_name_H-M   'P 1'
_cell_length_a   8.62829206
_cell_length_b   8.62829206
_cell_length_c   14.41235538
_cell_angle_alpha   90.00000000
_cell_angle_beta   90.00000000
_cell_angle_gamma   90.00000000
_symmetry_Int_Tables_number   1
_chemical_formula_structural   LiF
_chemical_formula_sum   'Li33 F33'
_cell_volume   1072.96272964
_cell_formula_units_Z   33
loop_
 _symmetry_equiv_pos_site_id
 _symmetry_equiv_pos_as_xyz
  1  'x, y, z'
loop_
 _atom_site_type_symbol
 _atom_site_label
 _atom_site_symmetry_multiplicity
 _atom_site_fract_x
 _atom_site_fract_y
 _atom_site_fract_z
 _atom_site_occupancy
  F  F0  1  0.00000000  0.00000000  0.50000000  1
  F  F1  1  0.45196422  0.80148185  0.75996334  1
  F  F2  1  -0.45196422  -0.80148185  0.75996334  1
  F  F3  1  -0.80148185  0.45196422  0.75996334  1
  F  F4  1  0.80148185  -0.45196422  0.75996334  1
  F  F5  1  -0.45196422  0.80148185  -0.75996334  1
  F  F6  1  0.45196422  -0.80148185  -0.75996334  1
  F  F7  1  0.80148185  0.45196422  -0.75996334  1
  F  F8  1  -0.80148185  -0.45196422  -0.75996334  1
  F  F9  1  -0.45196422  -0.80148185  -0.75996334  1
  F  F10  1  0.45196422  0.80148185  -0.75996334  1
  F  F11  1  0.80148185  -0.45196422  -0.75996334  1
  F  F12  1  -0.80148185  0.45196422  -0.75996334  1
  F  F13  1  0.45196422  -0.80148185  0.75996334  1
  F  F14  1  -0.45196422  0.80148185  0.75996334  1
  F  F15  1  -0.80148185  -0.45196422  0.75996334  1
  F  F16  1  0.80148185  0.45196422  0.75996334  1
  F  F17  1  0.09318151  0.57172991  0.27504065  1
  F  F18  1  0.90681849  0.42827009  0.27504065  1
  F  F19  1  0.42827009  0.09318151  0.27504065  1
  F  F20  1  0.57172991  0.90681849  0.27504065  1
  F  F21  1  0.90681849  0.57172991  0.72495935  1
  F  F22  1  0.09318151  0.42827009  0.72495935  1
  F  F23  1  0.57172991  0.09318151  0.72495935  1
  F  F24  1  0.42827009  0.90681849  0.72495935  1
  F  F25  1  0.90681849  0.42827009  0.72495935  1
  F  F26  1  0.09318151  0.57172991  0.72495935  1
  F  F27  1  0.57172991  0.90681849  0.72495935  1
  F  F28  1  0.42827009  0.09318151  0.72495935  1
  F  F29  1  0.09318151  0.42827009  0.27504065  1
  F  F30  1  0.90681849  0.57172991  0.27504065  1
  F  F31  1  0.42827009  0.90681849  0.27504065  1
  F  F32  1  0.57172991  0.09318151  0.27504065  1
  Li  Li33  1  0.34374697  0.00000000  0.40621591  1
  Li  Li34  1  0.65625303  0.00000000  0.40621591  1
  Li  Li35  1  0.00000000  0.34374697  0.40621591  1
  Li  Li36  1  0.00000000  0.65625303  0.40621591  1
  Li  Li37  1  0.65625303  0.00000000  0.59378409  1
  Li  Li38  1  0.34374697  0.00000000  0.59378409  1
  Li  Li39  1  0.00000000  0.34374697  0.59378409  1
  Li  Li40  1  0.00000000  0.65625303  0.59378409  1
  Li  Li41  1  0.17973072  0.50000000  0.50000000  1
  Li  Li42  1  0.82026928  0.50000000  0.50000000  1
  Li  Li43  1  0.50000000  0.17973072  0.50000000  1
  Li  Li44  1  0.50000000  0.82026928  0.50000000  1
  Li  Li45  1  0.80765236  0.80765236  0.00000000  1
  Li  Li46  1  0.19234764  0.19234764  0.00000000  1
  Li  Li47  1  0.19234764  0.80765236  0.00000000  1
  Li  Li48  1  0.80765236  0.19234764  0.00000000  1
  Li  Li49  1  0.00000000  0.50000000  0.00000000  1
  Li  Li50  1  0.50000000  0.00000000  0.00000000  1
  Li  Li51  1  0.12255316  0.00000000  0.79888993  1
  Li  Li52  1  0.87744684  0.00000000  0.79888993  1
  Li  Li53  1  0.00000000  0.12255316  0.79888993  1
  Li  Li54  1  0.00000000  0.87744684  0.79888993  1
  Li  Li55  1  0.87744684  0.00000000  0.20111007  1
  Li  Li56  1  0.12255316  0.00000000  0.20111007  1
  Li  Li57  1  0.00000000  0.12255316  0.20111007  1
  Li  Li58  1  0.00000000  0.87744684  0.20111007  1
  Li  Li59  1  0.41011026  0.00000000  0.50000000  1
  Li  Li60  1  0.58988974  0.00000000  0.50000000  1
  Li  Li61  1  0.00000000  0.41011026  0.50000000  1
  Li  Li62  1  0.00000000  0.58988974  0.50000000  1
  Li  Li63  1  0.00000000  0.00000000  0.85291894  1
  Li  Li64  1  0.00000000  0.00000000  0.14708106  1
  Li  Li65  1  0.00000000  0.00000000  0.00000000  1
