# generated using pymatgen
data_LiCaF3
_symmetry_space_group_name_H-M   'P 1'
_cell_length_a   8.29643653
_cell_length_b   8.29643653
_cell_length_c   22.98221082
_cell_angle_alpha   90.00000000
_cell_angle_beta   90.00000000
_cell_angle_gamma   120.00000000
_symmetry_Int_Tables_number   1
_chemical_formula_structural   LiCaF3
_chemical_formula_sum   'Li18 Ca18 F54'
_cell_volume   1369.95286792
_cell_formula_units_Z   18
loop_
 _symmetry_equiv_pos_site_id
 _symmetry_equiv_pos_as_xyz
  1  'x, y, z'
loop_
 _atom_site_type_symbol
 _atom_site_label
 _atom_site_symmetry_multiplicity
 _atom_site_fract_x
 _atom_site_fract_y
 _atom_site_fract_z
 _atom_site_occupancy
  Ca  Ca0  1  0.40707876  0.00000000  0.25000000  1
  Ca  Ca1  1  0.00000000  0.40707876  0.25000000  1
  Ca  Ca2  1  0.59292124  0.59292124  0.25000000  1
  Ca  Ca3  1  0.59292124  0.00000000  0.75000000  1
  Ca  Ca4  1  0.00000000  0.59292124  0.75000000  1
  Ca  Ca5  1  0.40707876  0.40707876  0.75000000  1
  Ca  Ca6  1  0.07374543  0.33333333  0.58333333  1
  Ca  Ca7  1  0.66666667  0.74041209  0.58333333  1
  Ca  Ca8  1  0.25958791  0.92625457  0.58333333  1
  Ca  Ca9  1  0.25958791  0.33333333  0.08333333  1
  Ca  Ca10  1  0.66666667  0.92625457  0.08333333  1
  Ca  Ca11  1  0.07374543  0.74041209  0.08333333  1
  Ca  Ca12  1  0.74041209  0.66666667  0.91666667  1
  Ca  Ca13  1  0.33333333  0.07374543  0.91666667  1
  Ca  Ca14  1  0.92625457  0.25958791  0.91666667  1
  Ca  Ca15  1  0.92625457  0.66666667  0.41666667  1
  Ca  Ca16  1  0.33333333  0.25958791  0.41666667  1
  Ca  Ca17  1  0.74041209  0.07374543  0.41666667  1
  F  F18  1  0.00000000  0.00000000  0.25000000  1
  F  F19  1  0.00000000  0.00000000  0.75000000  1
  F  F20  1  0.66666667  0.33333333  0.58333333  1
  F  F21  1  0.66666667  0.33333333  0.08333333  1
  F  F22  1  0.33333333  0.66666667  0.91666667  1
  F  F23  1  0.33333333  0.66666667  0.41666667  1
  F  F24  1  0.86011903  0.08741586  0.88769063  1
  F  F25  1  -0.08741586  0.77270317  0.88769063  1
  F  F26  1  -0.77270317  -0.86011903  0.88769063  1
  F  F27  1  0.08741586  0.86011903  -0.38769063  1
  F  F28  1  0.77270317  -0.08741586  -0.38769063  1
  F  F29  1  -0.86011903  -0.77270317  -0.38769063  1
  F  F30  1  -0.86011903  -0.08741586  -0.88769063  1
  F  F31  1  0.08741586  -0.77270317  -0.88769063  1
  F  F32  1  0.77270317  0.86011903  -0.88769063  1
  F  F33  1  -0.08741586  -0.86011903  1.38769063  1
  F  F34  1  -0.77270317  0.08741586  1.38769063  1
  F  F35  1  0.86011903  0.77270317  1.38769063  1
  F  F36  1  1.52678570  0.42074920  1.22102397  1
  F  F37  1  0.57925080  1.10603650  1.22102397  1
  F  F38  1  -0.10603650  -0.52678570  1.22102397  1
  F  F39  1  0.75408253  1.19345236  -0.05435730  1
  F  F40  1  1.43936984  0.24591747  -0.05435730  1
  F  F41  1  -0.19345236  -0.43936984  -0.05435730  1
  F  F42  1  -0.19345236  0.24591747  -0.55435730  1
  F  F43  1  0.75408253  -0.43936984  -0.55435730  1
  F  F44  1  1.43936984  1.19345236  -0.55435730  1
  F  F45  1  0.57925080  -0.52678570  1.72102397  1
  F  F46  1  -0.10603650  0.42074920  1.72102397  1
  F  F47  1  1.52678570  1.10603650  1.72102397  1
  F  F48  1  1.19345236  0.75408253  1.55435730  1
  F  F49  1  0.24591747  1.43936984  1.55435730  1
  F  F50  1  -0.43936984  -0.19345236  1.55435730  1
  F  F51  1  0.42074920  1.52678570  0.27897603  1
  F  F52  1  1.10603650  0.57925080  0.27897603  1
  F  F53  1  -0.52678570  -0.10603650  0.27897603  1
  F  F54  1  -0.52678570  0.57925080  -0.22102397  1
  F  F55  1  0.42074920  -0.10603650  -0.22102397  1
  F  F56  1  1.10603650  1.52678570  -0.22102397  1
  F  F57  1  0.24591747  -0.19345236  2.05435730  1
  F  F58  1  -0.43936984  0.75408253  2.05435730  1
  F  F59  1  1.19345236  1.43936984  2.05435730  1
  F  F60  1  0.00000000  0.00000000  0.18869183  1
  F  F61  1  0.00000000  0.00000000  0.31130817  1
  F  F62  1  0.00000000  0.00000000  0.81130817  1
  F  F63  1  0.00000000  0.00000000  0.68869183  1
  F  F64  1  0.66666667  0.33333333  0.52202516  1
  F  F65  1  0.66666667  0.33333333  0.64464151  1
  F  F66  1  0.66666667  0.33333333  0.14464151  1
  F  F67  1  0.66666667  0.33333333  0.02202516  1
  F  F68  1  0.33333333  0.66666667  0.85535849  1
  F  F69  1  0.33333333  0.66666667  0.97797484  1
  F  F70  1  0.33333333  0.66666667  0.47797484  1
  F  F71  1  0.33333333  0.66666667  0.35535849  1
  Li  Li72  1  0.50000000  0.00000000  0.00000000  1
  Li  Li73  1  0.00000000  0.50000000  0.00000000  1
  Li  Li74  1  0.50000000  0.50000000  0.00000000  1
  Li  Li75  1  0.00000000  0.50000000  0.50000000  1
  Li  Li76  1  0.50000000  0.00000000  0.50000000  1
  Li  Li77  1  0.50000000  0.50000000  0.50000000  1
  Li  Li78  1  0.16666667  0.33333333  0.33333333  1
  Li  Li79  1  0.66666667  0.83333333  0.33333333  1
  Li  Li80  1  0.16666667  0.83333333  0.33333333  1
  Li  Li81  1  0.66666667  0.83333333  0.83333333  1
  Li  Li82  1  0.16666667  0.33333333  0.83333333  1
  Li  Li83  1  0.16666667  0.83333333  0.83333333  1
  Li  Li84  1  0.83333333  0.66666667  0.66666667  1
  Li  Li85  1  0.33333333  0.16666667  0.66666667  1
  Li  Li86  1  0.83333333  0.16666667  0.66666667  1
  Li  Li87  1  0.33333333  0.16666667  0.16666667  1
  Li  Li88  1  0.83333333  0.66666667  0.16666667  1
  Li  Li89  1  0.83333333  0.16666667  0.16666667  1
