# generated using pymatgen
data_Li2Y2MoP3Se2
_symmetry_space_group_name_H-M   'P 1'
_cell_length_a   4.85038611
_cell_length_b   5.16215953
_cell_length_c   7.10326979
_cell_angle_alpha   95.04322340
_cell_angle_beta   100.98309210
_cell_angle_gamma   110.25662402
_symmetry_Int_Tables_number   1
_chemical_formula_structural   Li2Y2MoP3Se2
_chemical_formula_sum   'Li2 Y2 Mo1 P3 Se2'
_cell_volume   161.49638211
_cell_formula_units_Z   1
loop_
 _symmetry_equiv_pos_site_id
 _symmetry_equiv_pos_as_xyz
  1  'x, y, z'
loop_
 _atom_site_type_symbol
 _atom_site_label
 _atom_site_symmetry_multiplicity
 _atom_site_fract_x
 _atom_site_fract_y
 _atom_site_fract_z
 _atom_site_occupancy
  Se  Se0  1  0.12500000  0.00000000  0.25000000  1
  Se  Se1  1  0.00000000  0.00000000  0.00000000  1
  Y  Y2  1  0.37500000  0.00000000  0.25000000  1
  Y  Y3  1  0.25000000  0.25000000  0.25000000  1
  P  P4  1  0.00000000  0.25000000  0.12500000  1
  P  P5  1  0.43242768  0.48929371  0.23131965  1
  P  P6  1  0.98983052  0.51095808  0.27265833  1
  Mo  Mo7  1  0.05672930  0.14759470  0.88671804  1
  Li  Li8  1  0.74628587  0.44829339  0.98679801  1
  Li  Li9  1  0.09827455  0.23796960  0.69172507  1
