# generated using pymatgen
data_LiF
_symmetry_space_group_name_H-M   'P 1'
_cell_length_a   6.55415764
_cell_length_b   3.02834596
_cell_length_c   6.06080143
_cell_angle_alpha   90.00000000
_cell_angle_beta   90.00000000
_cell_angle_gamma   90.00000000
_symmetry_Int_Tables_number   1
_chemical_formula_structural   LiF
_chemical_formula_sum   'Li10 F10'
_cell_volume   120.29634341
_cell_formula_units_Z   10
loop_
 _symmetry_equiv_pos_site_id
 _symmetry_equiv_pos_as_xyz
  1  'x, y, z'
loop_
 _atom_site_type_symbol
 _atom_site_label
 _atom_site_symmetry_multiplicity
 _atom_site_fract_x
 _atom_site_fract_y
 _atom_site_fract_z
 _atom_site_occupancy
  F  F0  1  0.80574370  0.74419944  0.00000000  1
  F  F1  1  0.19425630  0.25580056  0.00000000  1
  F  F2  1  0.69425630  0.24419944  0.50000000  1
  F  F3  1  0.30574370  0.75580056  0.50000000  1
  F  F4  1  0.14250171  0.62128405  0.00000000  1
  F  F5  1  0.85749829  0.37871595  0.00000000  1
  F  F6  1  0.35749829  0.12128405  0.50000000  1
  F  F7  1  0.64250171  0.87871595  0.50000000  1
  F  F8  1  0.00000000  0.50000000  0.00000000  1
  F  F9  1  0.50000000  0.00000000  0.50000000  1
  Li  Li10  1  0.94971216  0.26007118  0.74129617  1
  Li  Li11  1  -0.94971216  -0.26007118  0.74129617  1
  Li  Li12  1  -0.44971216  0.76007118  -0.24129617  1
  Li  Li13  1  1.44971216  0.23992882  -0.24129617  1
  Li  Li14  1  -0.94971216  -0.26007118  -0.74129617  1
  Li  Li15  1  0.94971216  0.26007118  -0.74129617  1
  Li  Li16  1  1.44971216  0.23992882  1.24129617  1
  Li  Li17  1  -0.44971216  0.76007118  1.24129617  1
  Li  Li18  1  0.00000000  0.00000000  0.50000000  1
  Li  Li19  1  0.50000000  0.50000000  0.00000000  1
