# generated using pymatgen
data_LiF
_symmetry_space_group_name_H-M   'P 1'
_cell_length_a   6.17617648
_cell_length_b   7.36150495
_cell_length_c   13.32884433
_cell_angle_alpha   90.00000000
_cell_angle_beta   90.00000000
_cell_angle_gamma   90.00000000
_symmetry_Int_Tables_number   1
_chemical_formula_structural   LiF
_chemical_formula_sum   'Li16 F16'
_cell_volume   606.00861922
_cell_formula_units_Z   16
loop_
 _symmetry_equiv_pos_site_id
 _symmetry_equiv_pos_as_xyz
  1  'x, y, z'
loop_
 _atom_site_type_symbol
 _atom_site_label
 _atom_site_symmetry_multiplicity
 _atom_site_fract_x
 _atom_site_fract_y
 _atom_site_fract_z
 _atom_site_occupancy
  F  F0  1  0.34007015  0.12798412  0.57256133  1
  F  F1  1  0.15992985  0.87201588  0.07256133  1
  F  F2  1  0.65992985  0.62798412  0.42743867  1
  F  F3  1  0.84007015  0.37201588  0.92743867  1
  F  F4  1  0.65992985  0.87201588  0.42743867  1
  F  F5  1  0.84007015  0.12798412  0.92743867  1
  F  F6  1  0.34007015  0.37201588  0.57256133  1
  F  F7  1  0.15992985  0.62798412  0.07256133  1
  F  F8  1  0.00000000  0.00000000  0.00000000  1
  F  F9  1  0.50000000  0.00000000  0.50000000  1
  F  F10  1  0.00000000  0.50000000  0.00000000  1
  F  F11  1  0.50000000  0.50000000  0.50000000  1
  F  F12  1  0.58157347  0.25000000  0.10514687  1
  F  F13  1  0.91842653  0.75000000  0.60514687  1
  F  F14  1  0.41842653  0.75000000  0.89485313  1
  F  F15  1  0.08157347  0.25000000  0.39485313  1
  Li  Li16  1  0.00793309  0.09994394  0.34823169  1
  Li  Li17  1  0.49206691  -0.09994394  0.84823169  1
  Li  Li18  1  -0.00793309  0.59994394  -0.34823169  1
  Li  Li19  1  0.50793309  0.40005606  0.15176831  1
  Li  Li20  1  -0.00793309  -0.09994394  -0.34823169  1
  Li  Li21  1  0.50793309  0.09994394  0.15176831  1
  Li  Li22  1  0.00793309  0.40005606  0.34823169  1
  Li  Li23  1  0.49206691  0.59994394  0.84823169  1
  Li  Li24  1  0.28538916  0.25000000  0.61513829  1
  Li  Li25  1  0.21461084  0.75000000  0.11513829  1
  Li  Li26  1  0.71461084  0.75000000  0.38486171  1
  Li  Li27  1  0.78538916  0.25000000  0.88486171  1
  Li  Li28  1  0.00000000  0.00000000  0.50000000  1
  Li  Li29  1  0.50000000  0.00000000  0.00000000  1
  Li  Li30  1  0.00000000  0.50000000  0.50000000  1
  Li  Li31  1  0.50000000  0.50000000  0.00000000  1
