# generated using pymatgen
data_LiF
_symmetry_space_group_name_H-M   'P 1'
_cell_length_a   13.41525816
_cell_length_b   6.51533611
_cell_length_c   8.04896258
_cell_angle_alpha   90.00000000
_cell_angle_beta   90.00000000
_cell_angle_gamma   90.00000000
_symmetry_Int_Tables_number   1
_chemical_formula_structural   LiF
_chemical_formula_sum   'Li40 F40'
_cell_volume   703.51889722
_cell_formula_units_Z   40
loop_
 _symmetry_equiv_pos_site_id
 _symmetry_equiv_pos_as_xyz
  1  'x, y, z'
loop_
 _atom_site_type_symbol
 _atom_site_label
 _atom_site_symmetry_multiplicity
 _atom_site_fract_x
 _atom_site_fract_y
 _atom_site_fract_z
 _atom_site_occupancy
  F  F0  1  0.89113261  0.88820600  0.85898544  1
  F  F1  1  0.60886739  0.11179400  0.35898544  1
  F  F2  1  0.10886739  0.38820600  0.14101456  1
  F  F3  1  0.39113261  0.61179400  0.64101456  1
  F  F4  1  0.10886739  0.11179400  0.14101456  1
  F  F5  1  0.39113261  0.88820600  0.64101456  1
  F  F6  1  0.89113261  0.61179400  0.85898544  1
  F  F7  1  0.60886739  0.38820600  0.35898544  1
  F  F8  1  0.16795980  0.90420870  0.81116996  1
  F  F9  1  0.33204020  0.09579130  0.31116996  1
  F  F10  1  0.83204020  0.40420870  0.18883004  1
  F  F11  1  0.66795980  0.59579130  0.68883004  1
  F  F12  1  0.83204020  0.09579130  0.18883004  1
  F  F13  1  0.66795980  0.90420870  0.68883004  1
  F  F14  1  0.16795980  0.59579130  0.81116996  1
  F  F15  1  0.33204020  0.40420870  0.31116996  1
  F  F16  1  0.52413391  0.53128573  0.26879586  1
  F  F17  1  0.97586609  0.46871427  0.76879586  1
  F  F18  1  0.47586609  0.03128573  0.73120414  1
  F  F19  1  0.02413391  0.96871427  0.23120414  1
  F  F20  1  0.47586609  0.46871427  0.73120414  1
  F  F21  1  0.02413391  0.53128573  0.23120414  1
  F  F22  1  0.52413391  0.96871427  0.26879586  1
  F  F23  1  0.97586609  0.03128573  0.76879586  1
  F  F24  1  0.82891948  0.25000000  0.30713759  1
  F  F25  1  0.67108052  0.75000000  0.80713759  1
  F  F26  1  0.17108052  0.75000000  0.69286241  1
  F  F27  1  0.32891948  0.25000000  0.19286241  1
  F  F28  1  0.08095832  0.32918027  0.36622493  1
  F  F29  1  0.41904168  0.67081973  0.86622493  1
  F  F30  1  0.91904168  0.82918027  0.63377507  1
  F  F31  1  0.58095832  0.17081973  0.13377507  1
  F  F32  1  0.91904168  0.67081973  0.63377507  1
  F  F33  1  0.58095832  0.32918027  0.13377507  1
  F  F34  1  0.08095832  0.17081973  0.36622493  1
  F  F35  1  0.41904168  0.82918027  0.86622493  1
  F  F36  1  0.81516227  0.25000000  0.83062980  1
  F  F37  1  0.68483773  0.75000000  0.33062980  1
  F  F38  1  0.18483773  0.75000000  0.16937020  1
  F  F39  1  0.31516227  0.25000000  0.66937020  1
  Li  Li40  1  0.63297666  0.44329031  0.72731215  1
  Li  Li41  1  -0.13297666  -0.44329031  1.22731215  1
  Li  Li42  1  -0.63297666  0.94329031  -0.72731215  1
  Li  Li43  1  1.13297666  0.05670969  -0.22731215  1
  Li  Li44  1  -0.63297666  -0.44329031  -0.72731215  1
  Li  Li45  1  1.13297666  0.44329031  -0.22731215  1
  Li  Li46  1  0.63297666  0.05670969  0.72731215  1
  Li  Li47  1  -0.13297666  0.94329031  1.22731215  1
  Li  Li48  1  0.47718205  0.25000000  0.75869055  1
  Li  Li49  1  0.02281795  0.75000000  0.25869055  1
  Li  Li50  1  0.52281795  0.75000000  0.24130945  1
  Li  Li51  1  0.97718205  0.25000000  0.74130945  1
  Li  Li52  1  0.73654518  0.55500663  0.40552106  1
  Li  Li53  1  0.76345482  0.44499337  0.90552106  1
  Li  Li54  1  0.26345482  0.05500663  0.59447894  1
  Li  Li55  1  0.23654518  0.94499337  0.09447894  1
  Li  Li56  1  0.26345482  0.44499337  0.59447894  1
  Li  Li57  1  0.23654518  0.55500663  0.09447894  1
  Li  Li58  1  0.73654518  0.94499337  0.40552106  1
  Li  Li59  1  0.76345482  0.05500663  0.90552106  1
  Li  Li60  1  0.05299506  0.25000000  0.59800807  1
  Li  Li61  1  0.44700494  0.75000000  0.09800807  1
  Li  Li62  1  0.94700494  0.75000000  0.40199193  1
  Li  Li63  1  0.55299506  0.25000000  0.90199193  1
  Li  Li64  1  0.73235793  0.86035187  0.90411053  1
  Li  Li65  1  0.76764207  0.13964813  0.40411053  1
  Li  Li66  1  0.26764207  0.36035187  0.09588947  1
  Li  Li67  1  0.23235793  0.63964813  0.59588947  1
  Li  Li68  1  0.26764207  0.13964813  0.09588947  1
  Li  Li69  1  0.23235793  0.86035187  0.59588947  1
  Li  Li70  1  0.73235793  0.63964813  0.90411053  1
  Li  Li71  1  0.76764207  0.36035187  0.40411053  1
  Li  Li72  1  0.00000000  0.00000000  0.50000000  1
  Li  Li73  1  0.50000000  0.00000000  0.00000000  1
  Li  Li74  1  0.00000000  0.50000000  0.50000000  1
  Li  Li75  1  0.50000000  0.50000000  0.00000000  1
  Li  Li76  1  0.00000000  0.00000000  0.00000000  1
  Li  Li77  1  0.50000000  0.00000000  0.50000000  1
  Li  Li78  1  0.00000000  0.50000000  0.00000000  1
  Li  Li79  1  0.50000000  0.50000000  0.50000000  1
