# generated using pymatgen
data_KLi3Te2
_symmetry_space_group_name_H-M   'P 1'
_cell_length_a   7.60865963
_cell_length_b   7.60865963
_cell_length_c   20.64235080
_cell_angle_alpha   90.00000000
_cell_angle_beta   90.00000000
_cell_angle_gamma   120.00000000
_symmetry_Int_Tables_number   1
_chemical_formula_structural   KLi3Te2
_chemical_formula_sum   'K6 Li18 Te12'
_cell_volume   1034.91837812
_cell_formula_units_Z   6
loop_
 _symmetry_equiv_pos_site_id
 _symmetry_equiv_pos_as_xyz
  1  'x, y, z'
loop_
 _atom_site_type_symbol
 _atom_site_label
 _atom_site_symmetry_multiplicity
 _atom_site_fract_x
 _atom_site_fract_y
 _atom_site_fract_z
 _atom_site_occupancy
  K  K0  1  0.00000000  0.00000000  0.25000000  1
  K  K1  1  0.00000000  0.00000000  0.75000000  1
  K  K2  1  0.00000000  0.00000000  0.88973473  1
  K  K3  1  0.00000000  0.00000000  0.38973473  1
  K  K4  1  0.00000000  0.00000000  0.11026527  1
  K  K5  1  0.00000000  0.00000000  0.61026527  1
  Li  Li6  1  0.33559849  0.47676534  0.25000000  1
  Li  Li7  1  0.52323466  0.85883315  0.25000000  1
  Li  Li8  1  0.14116685  0.66440151  0.25000000  1
  Li  Li9  1  0.66440151  0.52323466  0.75000000  1
  Li  Li10  1  0.47676534  0.14116685  0.75000000  1
  Li  Li11  1  0.85883315  0.33559849  0.75000000  1
  Li  Li12  1  0.47676534  0.33559849  0.75000000  1
  Li  Li13  1  0.85883315  0.52323466  0.75000000  1
  Li  Li14  1  0.66440151  0.14116685  0.75000000  1
  Li  Li15  1  0.52323466  0.66440151  0.25000000  1
  Li  Li16  1  0.14116685  0.47676534  0.25000000  1
  Li  Li17  1  0.33559849  0.85883315  0.25000000  1
  Li  Li18  1  0.00000000  0.00000000  0.00000000  1
  Li  Li19  1  0.00000000  0.00000000  0.50000000  1
  Li  Li20  1  0.33333333  0.66666667  0.62995441  1
  Li  Li21  1  0.66666667  0.33333333  0.12995441  1
  Li  Li22  1  0.66666667  0.33333333  0.37004559  1
  Li  Li23  1  0.33333333  0.66666667  0.87004559  1
  Te  Te24  1  0.97559171  0.73698407  0.25000000  1
  Te  Te25  1  -0.73698407  0.23860764  0.25000000  1
  Te  Te26  1  -0.23860764  -0.97559171  0.25000000  1
  Te  Te27  1  -0.97559171  -0.73698407  0.75000000  1
  Te  Te28  1  0.73698407  -0.23860764  0.75000000  1
  Te  Te29  1  0.23860764  0.97559171  0.75000000  1
  Te  Te30  1  0.73698407  0.97559171  0.75000000  1
  Te  Te31  1  0.23860764  -0.73698407  0.75000000  1
  Te  Te32  1  -0.97559171  -0.23860764  0.75000000  1
  Te  Te33  1  -0.73698407  -0.97559171  0.25000000  1
  Te  Te34  1  -0.23860764  0.73698407  0.25000000  1
  Te  Te35  1  0.97559171  0.23860764  0.25000000  1
