# generated using pymatgen
data_Li2Si4Te3F12
_symmetry_space_group_name_H-M   'P 1'
_cell_length_a   9.44480086
_cell_length_b   9.32141078
_cell_length_c   15.02656376
_cell_angle_alpha   90.00000000
_cell_angle_beta   90.00000000
_cell_angle_gamma   90.00000000
_symmetry_Int_Tables_number   1
_chemical_formula_structural   Li2Si4Te3F12
_chemical_formula_sum   'Li8 Si16 Te12 F48'
_cell_volume   1322.92167266
_cell_formula_units_Z   4
loop_
 _symmetry_equiv_pos_site_id
 _symmetry_equiv_pos_as_xyz
  1  'x, y, z'
loop_
 _atom_site_type_symbol
 _atom_site_label
 _atom_site_symmetry_multiplicity
 _atom_site_fract_x
 _atom_site_fract_y
 _atom_site_fract_z
 _atom_site_occupancy
  F  F0  1  0.72227026  0.04029604  0.18822735  1
  F  F1  1  0.27772974  0.95970396  0.18822735  1
  F  F2  1  0.77772974  0.54029604  0.81177265  1
  F  F3  1  0.22227026  0.45970396  0.81177265  1
  F  F4  1  0.27772974  0.95970396  0.81177265  1
  F  F5  1  0.72227026  0.04029604  0.81177265  1
  F  F6  1  0.22227026  0.45970396  0.18822735  1
  F  F7  1  0.77772974  0.54029604  0.18822735  1
  F  F8  1  0.00000000  0.00000000  0.00000000  1
  F  F9  1  0.50000000  0.50000000  -0.00000000  1
  F  F10  1  0.96603804  0.01741611  0.39591783  1
  F  F11  1  0.03396196  0.98258389  0.39591783  1
  F  F12  1  0.53396196  0.51741611  0.60408217  1
  F  F13  1  0.46603804  0.48258389  0.60408217  1
  F  F14  1  0.03396196  0.98258389  0.60408217  1
  F  F15  1  0.96603804  0.01741611  0.60408217  1
  F  F16  1  0.46603804  0.48258389  0.39591783  1
  F  F17  1  0.53396196  0.51741611  0.39591783  1
  F  F18  1  0.00173228  0.13358622  0.38384382  1
  F  F19  1  0.99826772  0.86641378  0.38384382  1
  F  F20  1  0.49826772  0.63358622  0.61615618  1
  F  F21  1  0.50173228  0.36641378  0.61615618  1
  F  F22  1  0.99826772  0.86641378  0.61615618  1
  F  F23  1  0.00173228  0.13358622  0.61615618  1
  F  F24  1  0.50173228  0.36641378  0.38384382  1
  F  F25  1  0.49826772  0.63358622  0.38384382  1
  F  F26  1  0.82821644  0.63483368  0.91818487  1
  F  F27  1  0.17178356  0.36516632  0.91818487  1
  F  F28  1  0.67178356  0.13483368  0.08181513  1
  F  F29  1  0.32821644  0.86516632  0.08181513  1
  F  F30  1  0.17178356  0.36516632  0.08181513  1
  F  F31  1  0.82821644  0.63483368  0.08181513  1
  F  F32  1  0.32821644  0.86516632  0.91818487  1
  F  F33  1  0.67178356  0.13483368  0.91818487  1
  F  F34  1  0.65646106  0.40474901  0.87407080  1
  F  F35  1  0.34353894  0.59525099  0.87407080  1
  F  F36  1  0.84353894  0.90474901  0.12592920  1
  F  F37  1  0.15646106  0.09525099  0.12592920  1
  F  F38  1  0.34353894  0.59525099  0.12592920  1
  F  F39  1  0.65646106  0.40474901  0.12592920  1
  F  F40  1  0.15646106  0.09525099  0.87407080  1
  F  F41  1  0.84353894  0.90474901  0.87407080  1
  F  F42  1  0.00000000  0.00000000  0.78213903  1
  F  F43  1  0.50000000  0.50000000  0.21786097  1
  F  F44  1  0.00000000  0.00000000  0.21786097  1
  F  F45  1  0.50000000  0.50000000  0.78213903  1
  F  F46  1  0.00000000  0.00000000  0.50000000  1
  F  F47  1  0.50000000  0.50000000  0.50000000  1
  Li  Li48  1  0.21763129  0.15155126  0.50000000  1
  Li  Li49  1  0.78236871  0.84844874  0.50000000  1
  Li  Li50  1  0.28236871  0.65155126  0.50000000  1
  Li  Li51  1  0.71763129  0.34844874  0.50000000  1
  Li  Li52  1  0.00000000  0.50000000  0.50000000  1
  Li  Li53  1  0.50000000  0.00000000  0.50000000  1
  Li  Li54  1  0.00000000  0.50000000  0.00000000  1
  Li  Li55  1  0.50000000  0.00000000  0.00000000  1
  Si  Si56  1  0.94469726  0.85595973  0.10088242  1
  Si  Si57  1  -0.94469726  -0.85595973  0.10088242  1
  Si  Si58  1  -0.44469726  1.35595973  -0.10088242  1
  Si  Si59  1  1.44469726  -0.35595973  -0.10088242  1
  Si  Si60  1  -0.94469726  -0.85595973  -0.10088242  1
  Si  Si61  1  0.94469726  0.85595973  -0.10088242  1
  Si  Si62  1  1.44469726  -0.35595973  0.10088242  1
  Si  Si63  1  -0.44469726  1.35595973  0.10088242  1
  Si  Si64  1  0.71440016  0.67571179  0.90185807  1
  Si  Si65  1  0.28559984  0.32428821  0.90185807  1
  Si  Si66  1  0.78559984  0.17571179  0.09814193  1
  Si  Si67  1  0.21440016  0.82428821  0.09814193  1
  Si  Si68  1  0.28559984  0.32428821  0.09814193  1
  Si  Si69  1  0.71440016  0.67571179  0.09814193  1
  Si  Si70  1  0.21440016  0.82428821  0.90185807  1
  Si  Si71  1  0.78559984  0.17571179  0.90185807  1
  Te  Te72  1  0.06611611  0.79886950  0.50000000  1
  Te  Te73  1  0.93388389  0.20113050  0.50000000  1
  Te  Te74  1  0.43388389  0.29886950  0.50000000  1
  Te  Te75  1  0.56611611  0.70113050  0.50000000  1
  Te  Te76  1  0.81902938  0.10191017  0.20025018  1
  Te  Te77  1  0.18097062  0.89808983  0.20025018  1
  Te  Te78  1  0.68097062  0.60191017  0.79974982  1
  Te  Te79  1  0.31902938  0.39808983  0.79974982  1
  Te  Te80  1  0.18097062  0.89808983  0.79974982  1
  Te  Te81  1  0.81902938  0.10191017  0.79974982  1
  Te  Te82  1  0.31902938  0.39808983  0.20025018  1
  Te  Te83  1  0.68097062  0.60191017  0.20025018  1
