# generated using pymatgen
data_LiF
_symmetry_space_group_name_H-M   'P 1'
_cell_length_a   13.65285229
_cell_length_b   13.65285229
_cell_length_c   9.49013582
_cell_angle_alpha   90.00000000
_cell_angle_beta   90.00000000
_cell_angle_gamma   120.00000000
_symmetry_Int_Tables_number   1
_chemical_formula_structural   LiF
_chemical_formula_sum   'Li56 F56'
_cell_volume   1531.96852680
_cell_formula_units_Z   56
loop_
 _symmetry_equiv_pos_site_id
 _symmetry_equiv_pos_as_xyz
  1  'x, y, z'
loop_
 _atom_site_type_symbol
 _atom_site_label
 _atom_site_symmetry_multiplicity
 _atom_site_fract_x
 _atom_site_fract_y
 _atom_site_fract_z
 _atom_site_occupancy
  F  F0  1  0.62473838  0.86681811  0.99228481  1
  F  F1  1  0.13318189  0.75792027  0.99228481  1
  F  F2  1  0.24207973  0.37526162  0.99228481  1
  F  F3  1  0.13318189  0.37526162  0.00771519  1
  F  F4  1  0.24207973  0.86681811  0.00771519  1
  F  F5  1  0.62473838  0.75792027  0.00771519  1
  F  F6  1  0.00000000  0.00000000  0.54187602  1
  F  F7  1  0.00000000  0.00000000  0.45812398  1
  F  F8  1  0.98990959  0.89006466  0.82929745  1
  F  F9  1  0.10993534  0.09984492  0.82929745  1
  F  F10  1  0.90015508  0.01009041  0.82929745  1
  F  F11  1  0.10993534  0.01009041  0.17070255  1
  F  F12  1  0.90015508  0.89006466  0.17070255  1
  F  F13  1  0.98990959  0.09984492  0.17070255  1
  F  F14  1  0.77964330  0.75382105  0.40177199  1
  F  F15  1  0.24617895  0.02582225  0.40177199  1
  F  F16  1  0.97417775  0.22035670  0.40177199  1
  F  F17  1  0.24617895  0.22035670  0.59822801  1
  F  F18  1  0.97417775  0.75382105  0.59822801  1
  F  F19  1  0.77964330  0.02582225  0.59822801  1
  F  F20  1  0.63195403  0.84695912  0.08474811  1
  F  F21  1  0.15304088  0.78499491  0.08474811  1
  F  F22  1  0.21500509  0.36804597  0.08474811  1
  F  F23  1  0.15304088  0.36804597  0.91525189  1
  F  F24  1  0.21500509  0.84695912  0.91525189  1
  F  F25  1  0.63195403  0.78499491  0.91525189  1
  F  F26  1  0.33333333  0.66666667  0.96323302  1
  F  F27  1  0.33333333  0.66666667  0.03676698  1
  F  F28  1  0.89993713  0.10006287  0.50000000  1
  F  F29  1  0.89993713  0.79987427  0.50000000  1
  F  F30  1  0.20012573  0.10006287  0.50000000  1
  F  F31  1  0.86345898  0.62105827  0.27231554  1
  F  F32  1  0.37894173  0.24240072  0.27231554  1
  F  F33  1  0.75759928  0.13654102  0.27231554  1
  F  F34  1  0.37894173  0.13654102  0.72768446  1
  F  F35  1  0.75759928  0.62105827  0.72768446  1
  F  F36  1  0.86345898  0.24240072  0.72768446  1
  F  F37  1  0.61799601  0.77449649  0.65782756  1
  F  F38  1  0.22550351  0.84349952  0.65782756  1
  F  F39  1  0.15650048  0.38200399  0.65782756  1
  F  F40  1  0.22550351  0.38200399  0.34217244  1
  F  F41  1  0.15650048  0.77449649  0.34217244  1
  F  F42  1  0.61799601  0.84349952  0.34217244  1
  F  F43  1  0.80410635  0.30897485  0.19894493  1
  F  F44  1  0.69102515  0.49513150  0.19894493  1
  F  F45  1  0.50486850  0.19589365  0.19894493  1
  F  F46  1  0.69102515  0.19589365  0.80105507  1
  F  F47  1  0.50486850  0.30897485  0.80105507  1
  F  F48  1  0.80410635  0.49513150  0.80105507  1
  F  F49  1  0.93997317  0.43324654  0.33632495  1
  F  F50  1  0.56675346  0.50672662  0.33632495  1
  F  F51  1  0.49327338  0.06002683  0.33632495  1
  F  F52  1  0.56675346  0.06002683  0.66367505  1
  F  F53  1  0.49327338  0.43324654  0.66367505  1
  F  F54  1  0.93997317  0.50672662  0.66367505  1
  F  F55  1  0.33333333  0.66666667  0.50000000  1
  Li  Li56  1  0.05512837  0.66584446  0.84013127  1
  Li  Li57  1  -0.66584446  -0.61071609  0.84013127  1
  Li  Li58  1  0.61071609  -0.05512837  0.84013127  1
  Li  Li59  1  -0.66584446  -0.05512837  -0.84013127  1
  Li  Li60  1  0.61071609  0.66584446  -0.84013127  1
  Li  Li61  1  0.05512837  -0.61071609  -0.84013127  1
  Li  Li62  1  0.94736593  0.05263407  0.50000000  1
  Li  Li63  1  0.94736593  0.89473186  0.50000000  1
  Li  Li64  1  0.10526814  0.05263407  0.50000000  1
  Li  Li65  1  0.22363210  0.25233960  0.46001123  1
  Li  Li66  1  0.74766040  0.97129251  0.46001123  1
  Li  Li67  1  0.02870749  0.77636790  0.46001123  1
  Li  Li68  1  0.74766040  0.77636790  0.53998877  1
  Li  Li69  1  0.02870749  0.25233960  0.53998877  1
  Li  Li70  1  0.22363210  0.97129251  0.53998877  1
  Li  Li71  1  0.00000000  0.00000000  0.00000000  1
  Li  Li72  1  0.66666667  0.33333333  0.00000000  1
  Li  Li73  1  0.66666667  0.33333333  0.50000000  1
  Li  Li74  1  0.68807333  0.27680355  0.73529721  1
  Li  Li75  1  0.72319645  0.41126977  0.73529721  1
  Li  Li76  1  0.58873023  0.31192667  0.73529721  1
  Li  Li77  1  0.72319645  0.31192667  0.26470279  1
  Li  Li78  1  0.58873023  0.27680355  0.26470279  1
  Li  Li79  1  0.68807333  0.41126977  0.26470279  1
  Li  Li80  1  0.88482952  0.14389350  0.18912678  1
  Li  Li81  1  0.85610650  0.74093602  0.18912678  1
  Li  Li82  1  0.25906398  0.11517048  0.18912678  1
  Li  Li83  1  0.85610650  0.11517048  0.81087322  1
  Li  Li84  1  0.25906398  0.14389350  0.81087322  1
  Li  Li85  1  0.88482952  0.74093602  0.81087322  1
  Li  Li86  1  0.88597297  0.84266123  0.06271011  1
  Li  Li87  1  0.15733877  0.04331174  0.06271011  1
  Li  Li88  1  0.95668826  0.11402703  0.06271011  1
  Li  Li89  1  0.15733877  0.11402703  0.93728989  1
  Li  Li90  1  0.95668826  0.84266123  0.93728989  1
  Li  Li91  1  0.88597297  0.04331174  0.93728989  1
  Li  Li92  1  0.39590526  0.80175135  0.88701764  1
  Li  Li93  1  0.19824865  0.59415390  0.88701764  1
  Li  Li94  1  0.40584610  0.60409474  0.88701764  1
  Li  Li95  1  0.19824865  0.60409474  0.11298236  1
  Li  Li96  1  0.40584610  0.80175135  0.11298236  1
  Li  Li97  1  0.39590526  0.59415390  0.11298236  1
  Li  Li98  1  0.45638468  0.15135858  0.95322140  1
  Li  Li99  1  0.84864142  0.30502610  0.95322140  1
  Li  Li100  1  0.69497390  0.54361532  0.95322140  1
  Li  Li101  1  0.84864142  0.54361532  0.04677860  1
  Li  Li102  1  0.69497390  0.15135858  0.04677860  1
  Li  Li103  1  0.45638468  0.30502610  0.04677860  1
  Li  Li104  1  0.83695279  0.32289723  0.37489765  1
  Li  Li105  1  0.67710277  0.51405557  0.37489765  1
  Li  Li106  1  0.48594443  0.16304721  0.37489765  1
  Li  Li107  1  0.67710277  0.16304721  0.62510235  1
  Li  Li108  1  0.48594443  0.32289723  0.62510235  1
  Li  Li109  1  0.83695279  0.51405557  0.62510235  1
  Li  Li110  1  0.33333333  0.66666667  0.72251411  1
  Li  Li111  1  0.33333333  0.66666667  0.27748589  1
