# generated using pymatgen
data_LiF
_symmetry_space_group_name_H-M   'P 1'
_cell_length_a   13.61472316
_cell_length_b   13.61472316
_cell_length_c   10.12221017
_cell_angle_alpha   90.00000000
_cell_angle_beta   90.00000000
_cell_angle_gamma   120.00000000
_symmetry_Int_Tables_number   1
_chemical_formula_structural   LiF
_chemical_formula_sum   'Li66 F66'
_cell_volume   1624.88867657
_cell_formula_units_Z   66
loop_
 _symmetry_equiv_pos_site_id
 _symmetry_equiv_pos_as_xyz
  1  'x, y, z'
loop_
 _atom_site_type_symbol
 _atom_site_label
 _atom_site_symmetry_multiplicity
 _atom_site_fract_x
 _atom_site_fract_y
 _atom_site_fract_z
 _atom_site_occupancy
  F  F0  1  0.75079385  0.87471822  0.83714269  1
  F  F1  1  0.12528178  0.87607563  0.83714269  1
  F  F2  1  0.12392437  0.24920615  0.83714269  1
  F  F3  1  0.87471822  0.75079385  0.66285731  1
  F  F4  1  0.87607563  0.12528178  0.66285731  1
  F  F5  1  0.24920615  0.12392437  0.66285731  1
  F  F6  1  0.24920615  0.12528178  0.16285731  1
  F  F7  1  0.87471822  0.12392437  0.16285731  1
  F  F8  1  0.87607563  0.75079385  0.16285731  1
  F  F9  1  0.12528178  0.24920615  0.33714269  1
  F  F10  1  0.12392437  0.87471822  0.33714269  1
  F  F11  1  0.75079385  0.87607563  0.33714269  1
  F  F12  1  0.41746052  0.20805156  0.17047602  1
  F  F13  1  0.79194844  0.20940896  0.17047602  1
  F  F14  1  0.79059104  0.58253948  0.17047602  1
  F  F15  1  0.54138489  0.08412719  0.99619065  1
  F  F16  1  0.54274229  0.45861511  0.99619065  1
  F  F17  1  0.91587281  0.45725771  0.99619065  1
  F  F18  1  0.91587281  0.45861511  0.49619065  1
  F  F19  1  0.54138489  0.45725771  0.49619065  1
  F  F20  1  0.54274229  0.08412719  0.49619065  1
  F  F21  1  0.79194844  0.58253948  0.67047602  1
  F  F22  1  0.79059104  0.20805156  0.67047602  1
  F  F23  1  0.41746052  0.20940896  0.67047602  1
  F  F24  1  0.08412719  0.54138489  0.50380935  1
  F  F25  1  0.45861511  0.54274229  0.50380935  1
  F  F26  1  0.45725771  0.91587281  0.50380935  1
  F  F27  1  0.20805156  0.41746052  0.32952398  1
  F  F28  1  0.20940896  0.79194844  0.32952398  1
  F  F29  1  0.58253948  0.79059104  0.32952398  1
  F  F30  1  0.58253948  0.79194844  0.82952398  1
  F  F31  1  0.20805156  0.79059104  0.82952398  1
  F  F32  1  0.20940896  0.41746052  0.82952398  1
  F  F33  1  0.45861511  0.91587281  0.00380935  1
  F  F34  1  0.45725771  0.54138489  0.00380935  1
  F  F35  1  0.08412719  0.54274229  0.00380935  1
  F  F36  1  0.00000000  0.00000000  0.00000000  1
  F  F37  1  0.00000000  0.00000000  0.50000000  1
  F  F38  1  0.66666667  0.33333333  0.33333333  1
  F  F39  1  0.66666667  0.33333333  0.83333333  1
  F  F40  1  0.33333333  0.66666667  0.66666667  1
  F  F41  1  0.33333333  0.66666667  0.16666667  1
  F  F42  1  0.81391331  -0.00000000  0.25000000  1
  F  F43  1  0.00000000  0.81391331  0.25000000  1
  F  F44  1  0.18608669  0.18608669  0.25000000  1
  F  F45  1  0.18608669  0.00000000  0.75000000  1
  F  F46  1  0.00000000  0.18608669  0.75000000  1
  F  F47  1  0.81391331  0.81391331  0.75000000  1
  F  F48  1  0.48057997  0.33333333  0.58333333  1
  F  F49  1  0.66666667  0.14724664  0.58333333  1
  F  F50  1  0.85275336  0.51942003  0.58333333  1
  F  F51  1  0.85275336  0.33333333  0.08333333  1
  F  F52  1  0.66666667  0.51942003  0.08333333  1
  F  F53  1  0.48057997  0.14724664  0.08333333  1
  F  F54  1  0.14724664  0.66666667  0.91666667  1
  F  F55  1  0.33333333  0.48057997  0.91666667  1
  F  F56  1  0.51942003  0.85275336  0.91666667  1
  F  F57  1  0.51942003  0.66666667  0.41666667  1
  F  F58  1  0.33333333  0.85275336  0.41666667  1
  F  F59  1  0.14724664  0.48057997  0.41666667  1
  F  F60  1  0.00000000  0.00000000  0.25000000  1
  F  F61  1  0.00000000  0.00000000  0.75000000  1
  F  F62  1  0.66666667  0.33333333  0.58333333  1
  F  F63  1  0.66666667  0.33333333  0.08333333  1
  F  F64  1  0.33333333  0.66666667  0.91666667  1
  F  F65  1  0.33333333  0.66666667  0.41666667  1
  Li  Li66  1  0.17167021  0.65189534  0.61679643  1
  Li  Li67  1  -0.65189534  -0.48022513  0.61679643  1
  Li  Li68  1  0.48022513  -0.17167021  0.61679643  1
  Li  Li69  1  0.65189534  0.17167021  -0.11679643  1
  Li  Li70  1  -0.48022513  -0.65189534  -0.11679643  1
  Li  Li71  1  -0.17167021  0.48022513  -0.11679643  1
  Li  Li72  1  -0.17167021  -0.65189534  -0.61679643  1
  Li  Li73  1  0.65189534  0.48022513  -0.61679643  1
  Li  Li74  1  -0.48022513  0.17167021  -0.61679643  1
  Li  Li75  1  -0.65189534  -0.17167021  1.11679643  1
  Li  Li76  1  0.48022513  0.65189534  1.11679643  1
  Li  Li77  1  0.17167021  -0.48022513  1.11679643  1
  Li  Li78  1  0.83833688  0.98522867  0.95012976  1
  Li  Li79  1  0.01477133  -0.14689180  0.95012976  1
  Li  Li80  1  1.14689180  0.16166312  0.95012976  1
  Li  Li81  1  1.31856201  0.50500354  0.21653690  1
  Li  Li82  1  0.18644154  -0.31856201  0.21653690  1
  Li  Li83  1  0.49499646  0.81355846  0.21653690  1
  Li  Li84  1  0.49499646  -0.31856201  -0.28346310  1
  Li  Li85  1  1.31856201  0.81355846  -0.28346310  1
  Li  Li86  1  0.18644154  0.50500354  -0.28346310  1
  Li  Li87  1  0.01477133  0.16166312  1.45012976  1
  Li  Li88  1  1.14689180  0.98522867  1.45012976  1
  Li  Li89  1  0.83833688  -0.14689180  1.45012976  1
  Li  Li90  1  0.50500354  1.31856201  1.28346310  1
  Li  Li91  1  -0.31856201  0.18644154  1.28346310  1
  Li  Li92  1  0.81355846  0.49499646  1.28346310  1
  Li  Li93  1  0.98522867  0.83833688  0.54987024  1
  Li  Li94  1  -0.14689180  0.01477133  0.54987024  1
  Li  Li95  1  0.16166312  1.14689180  0.54987024  1
  Li  Li96  1  0.16166312  0.01477133  0.04987024  1
  Li  Li97  1  0.98522867  1.14689180  0.04987024  1
  Li  Li98  1  -0.14689180  0.83833688  0.04987024  1
  Li  Li99  1  -0.31856201  0.49499646  1.78346310  1
  Li  Li100  1  0.81355846  1.31856201  1.78346310  1
  Li  Li101  1  0.50500354  0.18644154  1.78346310  1
  Li  Li102  1  0.50000000  -0.00000000  0.00000000  1
  Li  Li103  1  0.00000000  0.50000000  0.00000000  1
  Li  Li104  1  0.50000000  0.50000000  0.00000000  1
  Li  Li105  1  0.00000000  0.50000000  0.50000000  1
  Li  Li106  1  0.50000000  -0.00000000  0.50000000  1
  Li  Li107  1  0.50000000  0.50000000  0.50000000  1
  Li  Li108  1  0.16666667  0.33333333  0.33333333  1
  Li  Li109  1  0.66666667  0.83333333  0.33333333  1
  Li  Li110  1  0.16666667  0.83333333  0.33333333  1
  Li  Li111  1  0.66666667  0.83333333  0.83333333  1
  Li  Li112  1  0.16666667  0.33333333  0.83333333  1
  Li  Li113  1  0.16666667  0.83333333  0.83333333  1
  Li  Li114  1  0.83333333  0.66666667  0.66666667  1
  Li  Li115  1  0.33333333  0.16666667  0.66666667  1
  Li  Li116  1  0.83333333  0.16666667  0.66666667  1
  Li  Li117  1  0.33333333  0.16666667  0.16666667  1
  Li  Li118  1  0.83333333  0.66666667  0.16666667  1
  Li  Li119  1  0.83333333  0.16666667  0.16666667  1
  Li  Li120  1  0.00000000  0.00000000  0.84693957  1
  Li  Li121  1  0.00000000  0.00000000  0.65306043  1
  Li  Li122  1  0.00000000  0.00000000  0.15306043  1
  Li  Li123  1  0.00000000  0.00000000  0.34693957  1
  Li  Li124  1  0.66666667  0.33333333  0.18027290  1
  Li  Li125  1  0.66666667  0.33333333  0.98639377  1
  Li  Li126  1  0.66666667  0.33333333  0.48639377  1
  Li  Li127  1  0.66666667  0.33333333  0.68027290  1
  Li  Li128  1  0.33333333  0.66666667  0.51360623  1
  Li  Li129  1  0.33333333  0.66666667  0.31972710  1
  Li  Li130  1  0.33333333  0.66666667  0.81972710  1
  Li  Li131  1  0.33333333  0.66666667  0.01360623  1
