# generated using pymatgen
data_LiF
_symmetry_space_group_name_H-M   'P 1'
_cell_length_a   9.94628518
_cell_length_b   10.10235757
_cell_length_c   8.89565039
_cell_angle_alpha   90.00000000
_cell_angle_beta   90.00000000
_cell_angle_gamma   90.00000000
_symmetry_Int_Tables_number   1
_chemical_formula_structural   LiF
_chemical_formula_sum   'Li24 F24'
_cell_volume   893.84321911
_cell_formula_units_Z   24
loop_
 _symmetry_equiv_pos_site_id
 _symmetry_equiv_pos_as_xyz
  1  'x, y, z'
loop_
 _atom_site_type_symbol
 _atom_site_label
 _atom_site_symmetry_multiplicity
 _atom_site_fract_x
 _atom_site_fract_y
 _atom_site_fract_z
 _atom_site_occupancy
  F  F0  1  0.14662994  0.27962486  0.13464180  1
  F  F1  1  0.35337006  0.72037514  0.63464180  1
  F  F2  1  0.85337006  0.77962486  0.86535820  1
  F  F3  1  0.64662994  0.22037514  0.36535820  1
  F  F4  1  0.85337006  0.72037514  0.86535820  1
  F  F5  1  0.64662994  0.27962486  0.36535820  1
  F  F6  1  0.14662994  0.22037514  0.13464180  1
  F  F7  1  0.35337006  0.77962486  0.63464180  1
  F  F8  1  0.09486393  0.12698337  0.83112622  1
  F  F9  1  0.40513607  0.87301663  0.33112622  1
  F  F10  1  0.90513607  0.62698337  0.16887378  1
  F  F11  1  0.59486393  0.37301663  0.66887378  1
  F  F12  1  0.90513607  0.87301663  0.16887378  1
  F  F13  1  0.59486393  0.12698337  0.66887378  1
  F  F14  1  0.09486393  0.37301663  0.83112622  1
  F  F15  1  0.40513607  0.62698337  0.33112622  1
  F  F16  1  0.46177201  0.50350187  0.56836600  1
  F  F17  1  0.03822799  0.49649813  0.06836600  1
  F  F18  1  0.53822799  0.00350187  0.43163400  1
  F  F19  1  0.96177201  0.99649813  0.93163400  1
  F  F20  1  0.53822799  0.49649813  0.43163400  1
  F  F21  1  0.96177201  0.50350187  0.93163400  1
  F  F22  1  0.46177201  0.99649813  0.56836600  1
  F  F23  1  0.03822799  0.00350187  0.06836600  1
  Li  Li24  1  0.77608026  0.25000000  0.80033638  1
  Li  Li25  1  0.72391974  0.75000000  0.30033638  1
  Li  Li26  1  0.22391974  0.75000000  0.19966362  1
  Li  Li27  1  0.27608026  0.25000000  0.69966362  1
  Li  Li28  1  0.00000000  0.00000000  0.50000000  1
  Li  Li29  1  0.50000000  0.00000000  0.00000000  1
  Li  Li30  1  0.00000000  0.50000000  0.50000000  1
  Li  Li31  1  0.50000000  0.50000000  0.00000000  1
  Li  Li32  1  0.35297125  0.41692087  0.59813371  1
  Li  Li33  1  0.14702875  -0.41692087  1.09813371  1
  Li  Li34  1  -0.35297125  0.91692087  -0.59813371  1
  Li  Li35  1  0.85297125  0.08307913  -0.09813371  1
  Li  Li36  1  -0.35297125  -0.41692087  -0.59813371  1
  Li  Li37  1  0.85297125  0.41692087  -0.09813371  1
  Li  Li38  1  0.35297125  0.08307913  0.59813371  1
  Li  Li39  1  0.14702875  0.91692087  1.09813371  1
  Li  Li40  1  0.53344543  0.66806475  0.88833416  1
  Li  Li41  1  0.96655457  0.33193525  0.38833416  1
  Li  Li42  1  0.46655457  0.16806475  0.11166584  1
  Li  Li43  1  0.03344543  0.83193525  0.61166584  1
  Li  Li44  1  0.46655457  0.33193525  0.11166584  1
  Li  Li45  1  0.03344543  0.66806475  0.61166584  1
  Li  Li46  1  0.53344543  0.83193525  0.88833416  1
  Li  Li47  1  0.96655457  0.16806475  0.38833416  1
