# generated using pymatgen
data_LiF
_symmetry_space_group_name_H-M   'P 1'
_cell_length_a   6.34478119
_cell_length_b   10.66518304
_cell_length_c   4.56813164
_cell_angle_alpha   90.00000000
_cell_angle_beta   90.00000000
_cell_angle_gamma   90.00000000
_symmetry_Int_Tables_number   1
_chemical_formula_structural   LiF
_chemical_formula_sum   'Li24 F24'
_cell_volume   309.11748643
_cell_formula_units_Z   24
loop_
 _symmetry_equiv_pos_site_id
 _symmetry_equiv_pos_as_xyz
  1  'x, y, z'
loop_
 _atom_site_type_symbol
 _atom_site_label
 _atom_site_symmetry_multiplicity
 _atom_site_fract_x
 _atom_site_fract_y
 _atom_site_fract_z
 _atom_site_occupancy
  F  F0  1  0.82930416  0.94164320  0.53851293  1
  F  F1  1  0.67069584  0.05835680  0.03851293  1
  F  F2  1  0.17069584  0.44164320  0.46148707  1
  F  F3  1  0.32930416  0.55835680  0.96148707  1
  F  F4  1  0.17069584  0.05835680  0.46148707  1
  F  F5  1  0.32930416  0.94164320  0.96148707  1
  F  F6  1  0.82930416  0.55835680  0.53851293  1
  F  F7  1  0.67069584  0.44164320  0.03851293  1
  F  F8  1  0.79741001  0.25000000  0.62897044  1
  F  F9  1  0.70258999  0.75000000  0.12897044  1
  F  F10  1  0.20258999  0.75000000  0.37102956  1
  F  F11  1  0.29741001  0.25000000  0.87102956  1
  F  F12  1  0.35818275  0.27920634  0.47157058  1
  F  F13  1  0.14181725  0.72079366  0.97157058  1
  F  F14  1  0.64181725  0.77920634  0.52842942  1
  F  F15  1  0.85818275  0.22079366  0.02842942  1
  F  F16  1  0.64181725  0.72079366  0.52842942  1
  F  F17  1  0.85818275  0.27920634  0.02842942  1
  F  F18  1  0.35818275  0.22079366  0.47157058  1
  F  F19  1  0.14181725  0.77920634  0.97157058  1
  F  F20  1  0.06846710  0.25000000  0.07364202  1
  F  F21  1  0.43153290  0.75000000  0.57364202  1
  F  F22  1  0.93153290  0.75000000  0.92635798  1
  F  F23  1  0.56846710  0.25000000  0.42635798  1
  Li  Li24  1  0.60222640  0.89169618  0.72687221  1
  Li  Li25  1  -0.10222640  -0.89169618  1.22687221  1
  Li  Li26  1  -0.60222640  1.39169618  -0.72687221  1
  Li  Li27  1  1.10222640  -0.39169618  -0.22687221  1
  Li  Li28  1  -0.60222640  -0.89169618  -0.72687221  1
  Li  Li29  1  1.10222640  0.89169618  -0.22687221  1
  Li  Li30  1  0.60222640  -0.39169618  0.72687221  1
  Li  Li31  1  -0.10222640  1.39169618  1.22687221  1
  Li  Li32  1  0.82403971  0.67757201  0.20942986  1
  Li  Li33  1  0.67596029  0.32242799  0.70942986  1
  Li  Li34  1  0.17596029  0.17757201  0.79057014  1
  Li  Li35  1  0.32403971  0.82242799  0.29057014  1
  Li  Li36  1  0.17596029  0.32242799  0.79057014  1
  Li  Li37  1  0.32403971  0.67757201  0.29057014  1
  Li  Li38  1  0.82403971  0.82242799  0.20942986  1
  Li  Li39  1  0.67596029  0.17757201  0.70942986  1
  Li  Li40  1  0.00000000  0.00000000  0.50000000  1
  Li  Li41  1  0.50000000  0.00000000  0.00000000  1
  Li  Li42  1  0.00000000  0.50000000  0.50000000  1
  Li  Li43  1  0.50000000  0.50000000  0.00000000  1
  Li  Li44  1  0.00000000  0.00000000  0.00000000  1
  Li  Li45  1  0.50000000  0.00000000  0.50000000  1
  Li  Li46  1  0.00000000  0.50000000  0.00000000  1
  Li  Li47  1  0.50000000  0.50000000  0.50000000  1
