# generated using pymatgen
data_LiF
_symmetry_space_group_name_H-M   'P 1'
_cell_length_a   6.89431835
_cell_length_b   6.89431835
_cell_length_c   44.90181272
_cell_angle_alpha   90.00000000
_cell_angle_beta   90.00000000
_cell_angle_gamma   120.00000000
_symmetry_Int_Tables_number   1
_chemical_formula_structural   LiF
_chemical_formula_sum   'Li56 F56'
_cell_volume   1848.32004299
_cell_formula_units_Z   56
loop_
 _symmetry_equiv_pos_site_id
 _symmetry_equiv_pos_as_xyz
  1  'x, y, z'
loop_
 _atom_site_type_symbol
 _atom_site_label
 _atom_site_symmetry_multiplicity
 _atom_site_fract_x
 _atom_site_fract_y
 _atom_site_fract_z
 _atom_site_occupancy
  F  F0  1  0.65878027  0.82315573  0.52408970  1
  F  F1  1  0.17684427  0.83562455  0.52408970  1
  F  F2  1  0.16437545  0.34121973  0.52408970  1
  F  F3  1  0.34121973  0.17684427  0.02408970  1
  F  F4  1  0.82315573  0.16437545  0.02408970  1
  F  F5  1  0.83562455  0.65878027  0.02408970  1
  F  F6  1  0.34121973  0.17684427  0.47591030  1
  F  F7  1  0.82315573  0.16437545  0.47591030  1
  F  F8  1  0.83562455  0.65878027  0.47591030  1
  F  F9  1  0.65878027  0.82315573  0.97591030  1
  F  F10  1  0.17684427  0.83562455  0.97591030  1
  F  F11  1  0.16437545  0.34121973  0.97591030  1
  F  F12  1  0.00000000  0.00000000  0.25000000  1
  F  F13  1  0.00000000  0.00000000  0.75000000  1
  F  F14  1  0.41644861  0.80802227  0.19674379  1
  F  F15  1  0.19197773  0.60842633  0.19674379  1
  F  F16  1  0.39157367  0.58355139  0.19674379  1
  F  F17  1  0.58355139  0.19197773  0.69674379  1
  F  F18  1  0.80802227  0.39157367  0.69674379  1
  F  F19  1  0.60842633  0.41644861  0.69674379  1
  F  F20  1  0.58355139  0.19197773  0.80325621  1
  F  F21  1  0.80802227  0.39157367  0.80325621  1
  F  F22  1  0.60842633  0.41644861  0.80325621  1
  F  F23  1  0.41644861  0.80802227  0.30325621  1
  F  F24  1  0.19197773  0.60842633  0.30325621  1
  F  F25  1  0.39157367  0.58355139  0.30325621  1
  F  F26  1  0.39882030  0.73396331  0.97058124  1
  F  F27  1  0.26603669  0.66485698  0.97058124  1
  F  F28  1  0.33514302  0.60117970  0.97058124  1
  F  F29  1  0.60117970  0.26603669  0.47058124  1
  F  F30  1  0.73396331  0.33514302  0.47058124  1
  F  F31  1  0.66485698  0.39882030  0.47058124  1
  F  F32  1  0.60117970  0.26603669  0.02941876  1
  F  F33  1  0.73396331  0.33514302  0.02941876  1
  F  F34  1  0.66485698  0.39882030  0.02941876  1
  F  F35  1  0.39882030  0.73396331  0.52941876  1
  F  F36  1  0.26603669  0.66485698  0.52941876  1
  F  F37  1  0.33514302  0.60117970  0.52941876  1
  F  F38  1  0.43824240  0.89324653  0.21646670  1
  F  F39  1  0.10675347  0.54499587  0.21646670  1
  F  F40  1  0.45500413  0.56175760  0.21646670  1
  F  F41  1  0.56175760  0.10675347  0.71646670  1
  F  F42  1  0.89324653  0.45500413  0.71646670  1
  F  F43  1  0.54499587  0.43824240  0.71646670  1
  F  F44  1  0.56175760  0.10675347  0.78353330  1
  F  F45  1  0.89324653  0.45500413  0.78353330  1
  F  F46  1  0.54499587  0.43824240  0.78353330  1
  F  F47  1  0.43824240  0.89324653  0.28353330  1
  F  F48  1  0.10675347  0.54499587  0.28353330  1
  F  F49  1  0.45500413  0.56175760  0.28353330  1
  F  F50  1  0.50468006  0.85984742  0.25000000  1
  F  F51  1  0.14015258  0.64483265  0.25000000  1
  F  F52  1  0.35516735  0.49531994  0.25000000  1
  F  F53  1  0.49531994  0.14015258  0.75000000  1
  F  F54  1  0.85984742  0.35516735  0.75000000  1
  F  F55  1  0.64483265  0.50468006  0.75000000  1
  Li  Li56  1  0.32435353  0.79037156  0.25000000  1
  Li  Li57  1  0.20962844  0.53398197  0.25000000  1
  Li  Li58  1  0.46601803  0.67564647  0.25000000  1
  Li  Li59  1  0.67564647  0.20962844  0.75000000  1
  Li  Li60  1  0.79037156  0.46601803  0.75000000  1
  Li  Li61  1  0.53398197  0.32435353  0.75000000  1
  Li  Li62  1  0.00000000  0.00000000  0.40727894  1
  Li  Li63  1  0.00000000  0.00000000  0.90727894  1
  Li  Li64  1  0.00000000  0.00000000  0.59272106  1
  Li  Li65  1  0.00000000  0.00000000  0.09272106  1
  Li  Li66  1  0.00437023  0.55334548  0.98721584  1
  Li  Li67  1  -0.55334548  -0.54897525  0.98721584  1
  Li  Li68  1  0.54897525  -0.00437023  0.98721584  1
  Li  Li69  1  -0.00437023  -0.55334548  1.48721584  1
  Li  Li70  1  0.55334548  0.54897525  1.48721584  1
  Li  Li71  1  -0.54897525  0.00437023  1.48721584  1
  Li  Li72  1  -0.00437023  -0.55334548  -0.98721584  1
  Li  Li73  1  0.55334548  0.54897525  -0.98721584  1
  Li  Li74  1  -0.54897525  0.00437023  -0.98721584  1
  Li  Li75  1  0.00437023  0.55334548  -0.48721584  1
  Li  Li76  1  -0.55334548  -0.54897525  -0.48721584  1
  Li  Li77  1  0.54897525  -0.00437023  -0.48721584  1
  Li  Li78  1  0.48879805  0.17524678  0.09151341  1
  Li  Li79  1  0.82475322  0.31355127  0.09151341  1
  Li  Li80  1  0.68644873  0.51120195  0.09151341  1
  Li  Li81  1  0.51120195  0.82475322  0.59151341  1
  Li  Li82  1  0.17524678  0.68644873  0.59151341  1
  Li  Li83  1  0.31355127  0.48879805  0.59151341  1
  Li  Li84  1  0.51120195  0.82475322  0.90848659  1
  Li  Li85  1  0.17524678  0.68644873  0.90848659  1
  Li  Li86  1  0.31355127  0.48879805  0.90848659  1
  Li  Li87  1  0.48879805  0.17524678  0.40848659  1
  Li  Li88  1  0.82475322  0.31355127  0.40848659  1
  Li  Li89  1  0.68644873  0.51120195  0.40848659  1
  Li  Li90  1  0.33333333  0.66666667  0.83848906  1
  Li  Li91  1  0.66666667  0.33333333  0.33848906  1
  Li  Li92  1  0.66666667  0.33333333  0.16151094  1
  Li  Li93  1  0.33333333  0.66666667  0.66151094  1
  Li  Li94  1  0.94591826  0.14687452  0.22873750  1
  Li  Li95  1  0.85312548  0.79904374  0.22873750  1
  Li  Li96  1  0.20095626  0.05408174  0.22873750  1
  Li  Li97  1  0.05408174  0.85312548  0.72873750  1
  Li  Li98  1  0.14687452  0.20095626  0.72873750  1
  Li  Li99  1  0.79904374  0.94591826  0.72873750  1
  Li  Li100  1  0.05408174  0.85312548  0.77126250  1
  Li  Li101  1  0.14687452  0.20095626  0.77126250  1
  Li  Li102  1  0.79904374  0.94591826  0.77126250  1
  Li  Li103  1  0.94591826  0.14687452  0.27126250  1
  Li  Li104  1  0.85312548  0.79904374  0.27126250  1
  Li  Li105  1  0.20095626  0.05408174  0.27126250  1
  Li  Li106  1  0.66983052  0.83598067  0.25000000  1
  Li  Li107  1  0.16401933  0.83384985  0.25000000  1
  Li  Li108  1  0.16615015  0.33016948  0.25000000  1
  Li  Li109  1  0.33016948  0.16401933  0.75000000  1
  Li  Li110  1  0.83598067  0.16615015  0.75000000  1
  Li  Li111  1  0.83384985  0.66983052  0.75000000  1
