# generated using pymatgen
data_LiYAs2P
_symmetry_space_group_name_H-M   'P 1'
_cell_length_a   5.16732968
_cell_length_b   5.25903884
_cell_length_c   6.96808193
_cell_angle_alpha   94.50117662
_cell_angle_beta   99.80262690
_cell_angle_gamma   108.07943752
_symmetry_Int_Tables_number   1
_chemical_formula_structural   LiYAs2P
_chemical_formula_sum   'Li2 Y2 As4 P2'
_cell_volume   175.63010051
_cell_formula_units_Z   2
loop_
 _symmetry_equiv_pos_site_id
 _symmetry_equiv_pos_as_xyz
  1  'x, y, z'
loop_
 _atom_site_type_symbol
 _atom_site_label
 _atom_site_symmetry_multiplicity
 _atom_site_fract_x
 _atom_site_fract_y
 _atom_site_fract_z
 _atom_site_occupancy
  P  P0  1  0.00000000  0.00000000  0.00000000  1
  P  P1  1  0.50000000  0.50000000  0.50000000  1
  As  As2  1  0.25000000  0.25000000  0.25000000  1
  As  As3  1  0.75000000  0.25000000  0.00000000  1
  As  As4  1  0.25000000  0.75000000  0.50000000  1
  As  As5  1  0.66637041  0.00210043  0.46689767  1
  Li  Li6  1  0.61048635  0.92748667  0.26853510  1
  Li  Li7  1  0.10322055  0.39756271  0.18845252  1
  Y  Y8  1  0.80222341  0.58015350  0.29069110  1
  Y  Y9  1  0.89181501  0.35874134  0.11367546  1
