# generated using pymatgen
data_Li2O
_symmetry_space_group_name_H-M   'P 1'
_cell_length_a   6.84630349
_cell_length_b   8.76582749
_cell_length_c   7.07951227
_cell_angle_alpha   90.00000000
_cell_angle_beta   90.00000000
_cell_angle_gamma   90.00000000
_symmetry_Int_Tables_number   1
_chemical_formula_structural   Li2O
_chemical_formula_sum   'Li24 O12'
_cell_volume   424.86641824
_cell_formula_units_Z   12
loop_
 _symmetry_equiv_pos_site_id
 _symmetry_equiv_pos_as_xyz
  1  'x, y, z'
loop_
 _atom_site_type_symbol
 _atom_site_label
 _atom_site_symmetry_multiplicity
 _atom_site_fract_x
 _atom_site_fract_y
 _atom_site_fract_z
 _atom_site_occupancy
  Li  Li0  1  0.34933384  0.85091462  0.00000000  1
  Li  Li1  1  0.65066616  0.14908538  0.00000000  1
  Li  Li2  1  0.15066616  0.35091462  0.50000000  1
  Li  Li3  1  0.84933384  0.64908538  0.50000000  1
  Li  Li4  1  0.41226392  0.70802381  0.32180049  1
  Li  Li5  1  0.58773608  0.29197619  0.32180049  1
  Li  Li6  1  0.08773608  0.20802381  0.17819951  1
  Li  Li7  1  0.91226392  0.79197619  0.17819951  1
  Li  Li8  1  0.58773608  0.29197619  0.67819951  1
  Li  Li9  1  0.41226392  0.70802381  0.67819951  1
  Li  Li10  1  0.91226392  0.79197619  0.82180049  1
  Li  Li11  1  0.08773608  0.20802381  0.82180049  1
  Li  Li12  1  0.77520234  0.38059390  -0.00000000  1
  Li  Li13  1  0.22479766  0.61940610  0.00000000  1
  Li  Li14  1  0.72479766  0.88059390  0.50000000  1
  Li  Li15  1  0.27520234  0.11940610  0.50000000  1
  Li  Li16  1  0.00000000  0.00000000  0.76263615  1
  Li  Li17  1  0.50000000  0.50000000  0.73736385  1
  Li  Li18  1  0.00000000  0.00000000  0.23736385  1
  Li  Li19  1  0.50000000  0.50000000  0.26263615  1
  Li  Li20  1  0.94051515  0.06211084  0.00000000  1
  Li  Li21  1  0.05948485  0.93788916  0.00000000  1
  Li  Li22  1  0.55948485  0.56211084  0.50000000  1
  Li  Li23  1  0.44051515  0.43788916  0.50000000  1
  O  O24  1  0.06540591  0.36263003  0.85780970  1
  O  O25  1  -0.06540591  -0.36263003  0.85780970  1
  O  O26  1  0.43459409  0.86263003  -0.35780970  1
  O  O27  1  0.56540591  0.13736997  -0.35780970  1
  O  O28  1  -0.06540591  -0.36263003  -0.85780970  1
  O  O29  1  0.06540591  0.36263003  -0.85780970  1
  O  O30  1  0.56540591  0.13736997  1.35780970  1
  O  O31  1  0.43459409  0.86263003  1.35780970  1
  O  O32  1  0.00000000  0.50000000  0.00000000  1
  O  O33  1  0.50000000  0.00000000  0.50000000  1
  O  O34  1  0.00000000  0.50000000  0.50000000  1
  O  O35  1  0.50000000  0.00000000  0.00000000  1
