# generated using pymatgen
data_Li2YAs4P3
_symmetry_space_group_name_H-M   'P 1'
_cell_length_a   5.69104832
_cell_length_b   5.59828421
_cell_length_c   7.49420011
_cell_angle_alpha   94.70614517
_cell_angle_beta   100.24900579
_cell_angle_gamma   108.90271472
_symmetry_Int_Tables_number   1
_chemical_formula_structural   Li2YAs4P3
_chemical_formula_sum   'Li2 Y1 As4 P3'
_cell_volume   219.76861362
_cell_formula_units_Z   1
loop_
 _symmetry_equiv_pos_site_id
 _symmetry_equiv_pos_as_xyz
  1  'x, y, z'
loop_
 _atom_site_type_symbol
 _atom_site_label
 _atom_site_symmetry_multiplicity
 _atom_site_fract_x
 _atom_site_fract_y
 _atom_site_fract_z
 _atom_site_occupancy
  P  P0  1  0.12500000  0.12500000  0.12500000  1
  P  P1  1  0.50000000  0.50000000  0.50000000  1
  P  P2  1  0.25000000  0.25000000  0.25000000  1
  As  As3  1  0.75000000  0.75000000  0.75000000  1
  As  As4  1  0.81734444  0.81828287  0.84069591  1
  As  As5  1  0.75116838  0.16775104  0.97424947  1
  As  As6  1  0.39017388  0.64603035  0.81132465  1
  Li  Li7  1  0.52998955  0.86494510  0.68734048  1
  Li  Li8  1  0.50596622  0.40855765  0.56020307  1
  Y  Y9  1  0.63359306  0.21092738  0.86086993  1
