# generated using pymatgen
data_Li2O
_symmetry_space_group_name_H-M   'P 1'
_cell_length_a   12.49262837
_cell_length_b   12.49262837
_cell_length_c   6.63366919
_cell_angle_alpha   90.00000000
_cell_angle_beta   90.00000000
_cell_angle_gamma   120.00000000
_symmetry_Int_Tables_number   1
_chemical_formula_structural   Li2O
_chemical_formula_sum   'Li36 O18'
_cell_volume   896.58626802
_cell_formula_units_Z   18
loop_
 _symmetry_equiv_pos_site_id
 _symmetry_equiv_pos_as_xyz
  1  'x, y, z'
loop_
 _atom_site_type_symbol
 _atom_site_label
 _atom_site_symmetry_multiplicity
 _atom_site_fract_x
 _atom_site_fract_y
 _atom_site_fract_z
 _atom_site_occupancy
  Li  Li0  1  0.79646386  0.86482876  0.49218102  1
  Li  Li1  1  -0.86482876  -0.06836489  0.49218102  1
  Li  Li2  1  0.06836489  -0.79646386  0.49218102  1
  Li  Li3  1  -0.79646386  -0.86482876  0.99218102  1
  Li  Li4  1  0.86482876  0.06836489  0.99218102  1
  Li  Li5  1  -0.06836489  0.79646386  0.99218102  1
  Li  Li6  1  -0.79646386  -0.86482876  -0.49218102  1
  Li  Li7  1  0.86482876  0.06836489  -0.49218102  1
  Li  Li8  1  -0.06836489  0.79646386  -0.49218102  1
  Li  Li9  1  0.79646386  0.86482876  0.00781898  1
  Li  Li10  1  -0.86482876  -0.06836489  0.00781898  1
  Li  Li11  1  0.06836489  -0.79646386  0.00781898  1
  Li  Li12  1  0.33333333  0.66666667  0.95960203  1
  Li  Li13  1  0.66666667  0.33333333  0.45960203  1
  Li  Li14  1  0.66666667  0.33333333  0.04039797  1
  Li  Li15  1  0.33333333  0.66666667  0.54039797  1
  Li  Li16  1  0.66666667  0.33333333  0.25000000  1
  Li  Li17  1  0.33333333  0.66666667  0.75000000  1
  Li  Li18  1  0.49625916  0.74820807  0.25000000  1
  Li  Li19  1  0.25179193  0.74805109  0.25000000  1
  Li  Li20  1  0.25194891  0.50374084  0.25000000  1
  Li  Li21  1  0.50374084  0.25179193  0.75000000  1
  Li  Li22  1  0.74820807  0.25194891  0.75000000  1
  Li  Li23  1  0.74805109  0.49625916  0.75000000  1
  Li  Li24  1  0.22972609  0.80963051  0.61866558  1
  Li  Li25  1  0.19036949  0.42009558  0.61866558  1
  Li  Li26  1  0.57990442  0.77027391  0.61866558  1
  Li  Li27  1  0.77027391  0.19036949  0.11866558  1
  Li  Li28  1  0.80963051  0.57990442  0.11866558  1
  Li  Li29  1  0.42009558  0.22972609  0.11866558  1
  Li  Li30  1  0.77027391  0.19036949  0.38133442  1
  Li  Li31  1  0.80963051  0.57990442  0.38133442  1
  Li  Li32  1  0.42009558  0.22972609  0.38133442  1
  Li  Li33  1  0.22972609  0.80963051  0.88133442  1
  Li  Li34  1  0.19036949  0.42009558  0.88133442  1
  Li  Li35  1  0.57990442  0.77027391  0.88133442  1
  O  O36  1  0.57037210  0.50312774  0.25000000  1
  O  O37  1  0.49687226  0.06724436  0.25000000  1
  O  O38  1  0.93275564  0.42962790  0.25000000  1
  O  O39  1  0.42962790  0.49687226  0.75000000  1
  O  O40  1  0.50312774  0.93275564  0.75000000  1
  O  O41  1  0.06724436  0.57037210  0.75000000  1
  O  O42  1  0.50000000  0.00000000  -0.00000000  1
  O  O43  1  0.00000000  0.50000000  0.00000000  1
  O  O44  1  0.50000000  0.50000000  0.00000000  1
  O  O45  1  0.50000000  0.00000000  0.50000000  1
  O  O46  1  0.00000000  0.50000000  0.50000000  1
  O  O47  1  0.50000000  0.50000000  0.50000000  1
  O  O48  1  0.42074428  0.46855100  0.25000000  1
  O  O49  1  0.53144900  0.95219327  0.25000000  1
  O  O50  1  0.04780673  0.57925572  0.25000000  1
  O  O51  1  0.57925572  0.53144900  0.75000000  1
  O  O52  1  0.46855100  0.04780673  0.75000000  1
  O  O53  1  0.95219327  0.42074428  0.75000000  1
