# generated using pymatgen
data_LiF
_symmetry_space_group_name_H-M   'P 1'
_cell_length_a   9.30382170
_cell_length_b   6.44942616
_cell_length_c   6.95712795
_cell_angle_alpha   90.00000000
_cell_angle_beta   90.00000000
_cell_angle_gamma   90.00000000
_symmetry_Int_Tables_number   1
_chemical_formula_structural   LiF
_chemical_formula_sum   'Li24 F24'
_cell_volume   417.45766957
_cell_formula_units_Z   24
loop_
 _symmetry_equiv_pos_site_id
 _symmetry_equiv_pos_as_xyz
  1  'x, y, z'
loop_
 _atom_site_type_symbol
 _atom_site_label
 _atom_site_symmetry_multiplicity
 _atom_site_fract_x
 _atom_site_fract_y
 _atom_site_fract_z
 _atom_site_occupancy
  F  F0  1  0.20960442  0.25000000  0.71996362  1
  F  F1  1  0.29039558  0.75000000  0.21996362  1
  F  F2  1  0.79039558  0.75000000  0.28003638  1
  F  F3  1  0.70960442  0.25000000  0.78003638  1
  F  F4  1  0.00000000  0.00000000  0.00000000  1
  F  F5  1  0.50000000  -0.00000000  0.50000000  1
  F  F6  1  0.00000000  0.50000000  0.00000000  1
  F  F7  1  0.50000000  0.50000000  0.50000000  1
  F  F8  1  0.92174507  0.25000000  0.22621571  1
  F  F9  1  0.57825493  0.75000000  0.72621571  1
  F  F10  1  0.07825493  0.75000000  0.77378429  1
  F  F11  1  0.42174507  0.25000000  0.27378429  1
  F  F12  1  0.61028025  0.58759103  0.91627167  1
  F  F13  1  0.88971975  0.41240897  0.41627167  1
  F  F14  1  0.38971975  0.08759103  0.08372833  1
  F  F15  1  0.11028025  0.91240897  0.58372833  1
  F  F16  1  0.38971975  0.41240897  0.08372833  1
  F  F17  1  0.11028025  0.58759103  0.58372833  1
  F  F18  1  0.61028025  0.91240897  0.91627167  1
  F  F19  1  0.88971975  0.08759103  0.41627167  1
  F  F20  1  0.26349932  0.25000000  0.58094036  1
  F  F21  1  0.23650068  0.75000000  0.08094036  1
  F  F22  1  0.73650068  0.75000000  0.41905964  1
  F  F23  1  0.76349932  0.25000000  0.91905964  1
  Li  Li24  1  0.75738789  0.05466658  0.26145644  1
  Li  Li25  1  -0.25738789  -0.05466658  0.76145644  1
  Li  Li26  1  -0.75738789  0.55466658  -0.26145644  1
  Li  Li27  1  1.25738789  0.44533342  0.23854356  1
  Li  Li28  1  -0.75738789  -0.05466658  -0.26145644  1
  Li  Li29  1  1.25738789  0.05466658  0.23854356  1
  Li  Li30  1  0.75738789  0.44533342  0.26145644  1
  Li  Li31  1  -0.25738789  0.55466658  0.76145644  1
  Li  Li32  1  0.26019734  0.51443896  0.03501287  1
  Li  Li33  1  0.23980266  0.48556104  0.53501287  1
  Li  Li34  1  0.73980266  0.01443896  0.96498713  1
  Li  Li35  1  0.76019734  0.98556104  0.46498713  1
  Li  Li36  1  0.73980266  0.48556104  0.96498713  1
  Li  Li37  1  0.76019734  0.51443896  0.46498713  1
  Li  Li38  1  0.26019734  0.98556104  0.03501287  1
  Li  Li39  1  0.23980266  0.01443896  0.53501287  1
  Li  Li40  1  0.22575377  0.25000000  0.31526887  1
  Li  Li41  1  0.27424623  0.75000000  0.81526887  1
  Li  Li42  1  0.77424623  0.75000000  0.68473113  1
  Li  Li43  1  0.72575377  0.25000000  0.18473113  1
  Li  Li44  1  0.46333223  0.25000000  0.98640490  1
  Li  Li45  1  0.03666777  0.75000000  0.48640490  1
  Li  Li46  1  0.53666777  0.75000000  0.01359510  1
  Li  Li47  1  0.96333223  0.25000000  0.51359510  1
