# generated using pymatgen
data_LiF
_symmetry_space_group_name_H-M   'P 1'
_cell_length_a   9.22584160
_cell_length_b   9.22584160
_cell_length_c   28.59045758
_cell_angle_alpha   90.00000000
_cell_angle_beta   90.00000000
_cell_angle_gamma   120.00000000
_symmetry_Int_Tables_number   1
_chemical_formula_structural   LiF
_chemical_formula_sum   'Li72 F72'
_cell_volume   2107.48127861
_cell_formula_units_Z   72
loop_
 _symmetry_equiv_pos_site_id
 _symmetry_equiv_pos_as_xyz
  1  'x, y, z'
loop_
 _atom_site_type_symbol
 _atom_site_label
 _atom_site_symmetry_multiplicity
 _atom_site_fract_x
 _atom_site_fract_y
 _atom_site_fract_z
 _atom_site_occupancy
  F  F0  1  0.59204056  0.31671213  0.91426337  1
  F  F1  1  0.68328787  0.27532843  0.91426337  1
  F  F2  1  0.72467157  0.40795944  0.91426337  1
  F  F3  1  0.31671213  0.59204056  0.58573663  1
  F  F4  1  0.27532843  0.68328787  0.58573663  1
  F  F5  1  0.40795944  0.72467157  0.58573663  1
  F  F6  1  0.40795944  0.68328787  0.08573663  1
  F  F7  1  0.31671213  0.72467157  0.08573663  1
  F  F8  1  0.27532843  0.59204056  0.08573663  1
  F  F9  1  0.68328787  0.40795944  0.41426337  1
  F  F10  1  0.72467157  0.31671213  0.41426337  1
  F  F11  1  0.59204056  0.27532843  0.41426337  1
  F  F12  1  0.25870722  0.65004547  0.24759671  1
  F  F13  1  0.34995453  0.60866176  0.24759671  1
  F  F14  1  0.39133824  0.74129278  0.24759671  1
  F  F15  1  0.98337880  0.92537389  0.91906996  1
  F  F16  1  0.94199509  0.01662120  0.91906996  1
  F  F17  1  0.07462611  0.05800491  0.91906996  1
  F  F18  1  0.07462611  0.01662120  0.41906996  1
  F  F19  1  0.98337880  0.05800491  0.41906996  1
  F  F20  1  0.94199509  0.92537389  0.41906996  1
  F  F21  1  0.34995453  0.74129278  0.74759671  1
  F  F22  1  0.39133824  0.65004547  0.74759671  1
  F  F23  1  0.25870722  0.60866176  0.74759671  1
  F  F24  1  0.92537389  0.98337880  0.58093004  1
  F  F25  1  0.01662120  0.94199509  0.58093004  1
  F  F26  1  0.05800491  0.07462611  0.58093004  1
  F  F27  1  0.65004547  0.25870722  0.25240329  1
  F  F28  1  0.60866176  0.34995453  0.25240329  1
  F  F29  1  0.74129278  0.39133824  0.25240329  1
  F  F30  1  0.74129278  0.34995453  0.75240329  1
  F  F31  1  0.65004547  0.39133824  0.75240329  1
  F  F32  1  0.60866176  0.25870722  0.75240329  1
  F  F33  1  0.01662120  0.07462611  0.08093004  1
  F  F34  1  0.05800491  0.98337880  0.08093004  1
  F  F35  1  0.92537389  0.94199509  0.08093004  1
  F  F36  1  0.52643502  0.39608988  0.68011635  1
  F  F37  1  0.60391012  0.13034514  0.68011635  1
  F  F38  1  0.86965486  0.47356498  0.68011635  1
  F  F39  1  0.39608988  0.52643502  0.81988365  1
  F  F40  1  0.13034514  0.60391012  0.81988365  1
  F  F41  1  0.47356498  0.86965486  0.81988365  1
  F  F42  1  0.47356498  0.60391012  0.31988365  1
  F  F43  1  0.39608988  0.86965486  0.31988365  1
  F  F44  1  0.13034514  0.52643502  0.31988365  1
  F  F45  1  0.60391012  0.47356498  0.18011635  1
  F  F46  1  0.86965486  0.39608988  0.18011635  1
  F  F47  1  0.52643502  0.13034514  0.18011635  1
  F  F48  1  0.19310169  0.72942322  0.01344968  1
  F  F49  1  0.27057678  0.46367847  0.01344968  1
  F  F50  1  0.53632153  0.80689831  0.01344968  1
  F  F51  1  0.06275655  0.85976835  0.15321699  1
  F  F52  1  0.79701180  0.93724345  0.15321699  1
  F  F53  1  0.14023165  0.20298820  0.15321699  1
  F  F54  1  0.14023165  0.93724345  0.65321699  1
  F  F55  1  0.06275655  0.20298820  0.65321699  1
  F  F56  1  0.79701180  0.85976835  0.65321699  1
  F  F57  1  0.27057678  0.80689831  0.51344968  1
  F  F58  1  0.53632153  0.72942322  0.51344968  1
  F  F59  1  0.19310169  0.46367847  0.51344968  1
  F  F60  1  0.85976835  0.06275655  0.34678301  1
  F  F61  1  0.93724345  0.79701180  0.34678301  1
  F  F62  1  0.20298820  0.14023165  0.34678301  1
  F  F63  1  0.72942322  0.19310169  0.48655032  1
  F  F64  1  0.46367847  0.27057678  0.48655032  1
  F  F65  1  0.80689831  0.53632153  0.48655032  1
  F  F66  1  0.80689831  0.27057678  0.98655032  1
  F  F67  1  0.72942322  0.53632153  0.98655032  1
  F  F68  1  0.46367847  0.19310169  0.98655032  1
  F  F69  1  0.93724345  0.14023165  0.84678301  1
  F  F70  1  0.20298820  0.06275655  0.84678301  1
  F  F71  1  0.85976835  0.79701180  0.84678301  1
  Li  Li72  1  0.47252343  0.20518463  0.63512672  1
  Li  Li73  1  -0.20518463  0.26733880  0.63512672  1
  Li  Li74  1  -0.26733880  -0.47252343  0.63512672  1
  Li  Li75  1  0.20518463  0.47252343  -0.13512672  1
  Li  Li76  1  0.26733880  -0.20518463  -0.13512672  1
  Li  Li77  1  -0.47252343  -0.26733880  -0.13512672  1
  Li  Li78  1  -0.47252343  -0.20518463  -0.63512672  1
  Li  Li79  1  0.20518463  -0.26733880  -0.63512672  1
  Li  Li80  1  0.26733880  0.47252343  -0.63512672  1
  Li  Li81  1  -0.20518463  -0.47252343  1.13512672  1
  Li  Li82  1  -0.26733880  0.20518463  1.13512672  1
  Li  Li83  1  0.47252343  0.26733880  1.13512672  1
  Li  Li84  1  1.13919010  0.53851796  0.96846005  1
  Li  Li85  1  0.46148204  0.60067214  0.96846005  1
  Li  Li86  1  0.39932786  -0.13919010  0.96846005  1
  Li  Li87  1  0.87185130  0.80585677  0.19820661  1
  Li  Li88  1  0.93400547  0.12814870  0.19820661  1
  Li  Li89  1  0.19414323  0.06599453  0.19820661  1
  Li  Li90  1  0.19414323  0.12814870  -0.30179339  1
  Li  Li91  1  0.87185130  0.06599453  -0.30179339  1
  Li  Li92  1  0.93400547  0.80585677  -0.30179339  1
  Li  Li93  1  0.46148204  -0.13919010  1.46846005  1
  Li  Li94  1  0.39932786  0.53851796  1.46846005  1
  Li  Li95  1  1.13919010  0.60067214  1.46846005  1
  Li  Li96  1  0.80585677  0.87185130  1.30179339  1
  Li  Li97  1  0.12814870  0.93400547  1.30179339  1
  Li  Li98  1  0.06599453  0.19414323  1.30179339  1
  Li  Li99  1  0.53851796  1.13919010  0.53153995  1
  Li  Li100  1  0.60067214  0.46148204  0.53153995  1
  Li  Li101  1  -0.13919010  0.39932786  0.53153995  1
  Li  Li102  1  -0.13919010  0.46148204  0.03153995  1
  Li  Li103  1  0.53851796  0.39932786  0.03153995  1
  Li  Li104  1  0.60067214  1.13919010  0.03153995  1
  Li  Li105  1  0.12814870  0.19414323  1.80179339  1
  Li  Li106  1  0.06599453  0.87185130  1.80179339  1
  Li  Li107  1  0.80585677  0.93400547  1.80179339  1
  Li  Li108  1  0.40489635  0.13562642  0.74290144  1
  Li  Li109  1  0.86437358  0.26926993  0.74290144  1
  Li  Li110  1  0.73073007  0.59510365  0.74290144  1
  Li  Li111  1  0.13562642  0.40489635  0.75709856  1
  Li  Li112  1  0.26926993  0.86437358  0.75709856  1
  Li  Li113  1  0.59510365  0.73073007  0.75709856  1
  Li  Li114  1  0.59510365  0.86437358  0.25709856  1
  Li  Li115  1  0.13562642  0.73073007  0.25709856  1
  Li  Li116  1  0.26926993  0.40489635  0.25709856  1
  Li  Li117  1  0.86437358  0.59510365  0.24290144  1
  Li  Li118  1  0.73073007  0.13562642  0.24290144  1
  Li  Li119  1  0.40489635  0.26926993  0.24290144  1
  Li  Li120  1  0.07156302  0.46895975  0.07623478  1
  Li  Li121  1  0.53104025  0.60260326  0.07623478  1
  Li  Li122  1  0.39739674  0.92843698  0.07623478  1
  Li  Li123  1  0.80229309  0.73822968  0.09043189  1
  Li  Li124  1  0.93593660  0.19770691  0.09043189  1
  Li  Li125  1  0.26177032  0.06406340  0.09043189  1
  Li  Li126  1  0.26177032  0.19770691  0.59043189  1
  Li  Li127  1  0.80229309  0.06406340  0.59043189  1
  Li  Li128  1  0.93593660  0.73822968  0.59043189  1
  Li  Li129  1  0.53104025  0.92843698  0.57623478  1
  Li  Li130  1  0.39739674  0.46895975  0.57623478  1
  Li  Li131  1  0.07156302  0.60260326  0.57623478  1
  Li  Li132  1  0.73822968  0.80229309  0.40956811  1
  Li  Li133  1  0.19770691  0.93593660  0.40956811  1
  Li  Li134  1  0.06406340  0.26177032  0.40956811  1
  Li  Li135  1  0.46895975  0.07156302  0.42376522  1
  Li  Li136  1  0.60260326  0.53104025  0.42376522  1
  Li  Li137  1  0.92843698  0.39739674  0.42376522  1
  Li  Li138  1  0.92843698  0.53104025  0.92376522  1
  Li  Li139  1  0.46895975  0.39739674  0.92376522  1
  Li  Li140  1  0.60260326  0.07156302  0.92376522  1
  Li  Li141  1  0.19770691  0.26177032  0.90956811  1
  Li  Li142  1  0.06406340  0.80229309  0.90956811  1
  Li  Li143  1  0.73822968  0.93593660  0.90956811  1
