# generated using pymatgen
data_Li6Ti3P2S9
_symmetry_space_group_name_H-M   'P 1'
_cell_length_a   5.89696087
_cell_length_b   5.91190430
_cell_length_c   7.91741087
_cell_angle_alpha   91.77613278
_cell_angle_beta   99.25733434
_cell_angle_gamma   103.37002430
_symmetry_Int_Tables_number   1
_chemical_formula_structural   Li6Ti3P2S9
_chemical_formula_sum   'Li6 Ti3 P2 S9'
_cell_volume   264.37123919
_cell_formula_units_Z   1
loop_
 _symmetry_equiv_pos_site_id
 _symmetry_equiv_pos_as_xyz
  1  'x, y, z'
loop_
 _atom_site_type_symbol
 _atom_site_label
 _atom_site_symmetry_multiplicity
 _atom_site_fract_x
 _atom_site_fract_y
 _atom_site_fract_z
 _atom_site_occupancy
  P  P0  1  0.00000000  0.00000000  0.00000000  1
  P  P1  1  0.50000000  0.50000000  0.50000000  1
  S  S2  1  0.50000000  0.50000000  0.00000000  1
  S  S3  1  0.50000000  0.00000000  0.50000000  1
  S  S4  1  0.00000000  0.50000000  0.50000000  1
  S  S5  1  0.92591074  0.11127991  0.09570483  1
  S  S6  1  0.62513664  0.22900930  0.95845116  1
  S  S7  1  0.06032297  0.30733461  0.90312947  1
  S  S8  1  0.79336171  0.83573683  0.22790377  1
  S  S9  1  0.86106225  0.90088874  0.46982375  1
  S  S10  1  0.98460406  0.26850646  0.67303437  1
  Ti  Ti11  1  0.25330120  0.90920941  0.17375702  1
  Ti  Ti12  1  0.96182220  0.70406099  0.17153052  1
  Ti  Ti13  1  0.07177193  0.86074329  0.32887235  1
  Li  Li14  1  0.53741462  0.78274848  0.03997605  1
  Li  Li15  1  0.23192335  0.41849789  0.61474157  1
  Li  Li16  1  0.20018173  0.00352352  0.25850720  1
  Li  Li17  1  0.21765185  0.12920303  0.98633683  1
  Li  Li18  1  0.12448900  0.02262248  0.25425980  1
  Li  Li19  1  0.23686529  0.96624621  0.57471657  1
