# generated using pymatgen
data_Li2Y2MoP3Se2
_symmetry_space_group_name_H-M   'P 1'
_cell_length_a   3.96123776
_cell_length_b   4.24232346
_cell_length_c   6.76885686
_cell_angle_alpha   96.59558063
_cell_angle_beta   104.36380341
_cell_angle_gamma   116.49182602
_symmetry_Int_Tables_number   1
_chemical_formula_structural   Li2Y2MoP3Se2
_chemical_formula_sum   'Li2 Y2 Mo1 P3 Se2'
_cell_volume   95.22854790
_cell_formula_units_Z   1
loop_
 _symmetry_equiv_pos_site_id
 _symmetry_equiv_pos_as_xyz
  1  'x, y, z'
loop_
 _atom_site_type_symbol
 _atom_site_label
 _atom_site_symmetry_multiplicity
 _atom_site_fract_x
 _atom_site_fract_y
 _atom_site_fract_z
 _atom_site_occupancy
  P  P0  1  0.00000000  0.00000000  0.00000000  1
  P  P1  1  0.50000000  0.50000000  0.50000000  1
  P  P2  1  0.25000000  0.25000000  0.25000000  1
  Mo  Mo3  1  0.75000000  0.25000000  0.00000000  1
  Se  Se4  1  0.25000000  0.75000000  0.50000000  1
  Se  Se5  1  0.42033081  0.15772276  0.68524493  1
  Li  Li6  1  0.82900286  0.88778066  0.69073881  1
  Li  Li7  1  0.52602329  0.23146315  0.62299528  1
  Y  Y8  1  0.38113921  0.40860081  0.72881449  1
  Y  Y9  1  0.01463470  0.01145917  0.01434388  1
