# generated using pymatgen
data_LiF
_symmetry_space_group_name_H-M   'P 1'
_cell_length_a   7.49738678
_cell_length_b   7.49738678
_cell_length_c   9.97941607
_cell_angle_alpha   90.00000000
_cell_angle_beta   90.00000000
_cell_angle_gamma   120.00000000
_symmetry_Int_Tables_number   1
_chemical_formula_structural   LiF
_chemical_formula_sum   'Li24 F24'
_cell_volume   485.79785604
_cell_formula_units_Z   24
loop_
 _symmetry_equiv_pos_site_id
 _symmetry_equiv_pos_as_xyz
  1  'x, y, z'
loop_
 _atom_site_type_symbol
 _atom_site_label
 _atom_site_symmetry_multiplicity
 _atom_site_fract_x
 _atom_site_fract_y
 _atom_site_fract_z
 _atom_site_occupancy
  F  F0  1  0.66666667  0.33333333  0.50000000  1
  F  F1  1  0.47191727  0.77517449  0.85109362  1
  F  F2  1  0.22482551  0.69674278  0.85109362  1
  F  F3  1  0.30325722  0.52808273  0.85109362  1
  F  F4  1  0.22482551  0.52808273  0.14890638  1
  F  F5  1  0.30325722  0.77517449  0.14890638  1
  F  F6  1  0.47191727  0.69674278  0.14890638  1
  F  F7  1  0.00000000  0.00000000  0.28328453  1
  F  F8  1  0.00000000  0.00000000  0.71671547  1
  F  F9  1  0.33333333  0.66666667  0.50000000  1
  F  F10  1  0.23705093  0.42389730  0.83862472  1
  F  F11  1  0.57610270  0.81315363  0.83862472  1
  F  F12  1  0.18684637  0.76294907  0.83862472  1
  F  F13  1  0.57610270  0.76294907  0.16137528  1
  F  F14  1  0.18684637  0.42389730  0.16137528  1
  F  F15  1  0.23705093  0.81315363  0.16137528  1
  F  F16  1  0.25751271  0.62608732  0.35664693  1
  F  F17  1  0.37391268  0.63142538  0.35664693  1
  F  F18  1  0.36857462  0.74248729  0.35664693  1
  F  F19  1  0.37391268  0.74248729  0.64335307  1
  F  F20  1  0.36857462  0.62608732  0.64335307  1
  F  F21  1  0.25751271  0.63142538  0.64335307  1
  F  F22  1  0.66666667  0.33333333  0.84537197  1
  F  F23  1  0.66666667  0.33333333  0.15462803  1
  Li  Li24  1  0.66666667  0.33333333  0.31679953  1
  Li  Li25  1  0.66666667  0.33333333  0.68320047  1
  Li  Li26  1  0.41094371  0.24403053  0.07936739  1
  Li  Li27  1  -0.24403053  0.16691319  0.07936739  1
  Li  Li28  1  -0.16691319  -0.41094371  0.07936739  1
  Li  Li29  1  -0.24403053  -0.41094371  -0.07936739  1
  Li  Li30  1  -0.16691319  0.24403053  -0.07936739  1
  Li  Li31  1  0.41094371  0.16691319  -0.07936739  1
  Li  Li32  1  0.99301567  0.80245105  0.12389632  1
  Li  Li33  1  0.19754895  0.19056462  0.12389632  1
  Li  Li34  1  0.80943538  0.00698433  0.12389632  1
  Li  Li35  1  0.19754895  0.00698433  0.87610368  1
  Li  Li36  1  0.80943538  0.80245105  0.87610368  1
  Li  Li37  1  0.99301567  0.19056462  0.87610368  1
  Li  Li38  1  0.15801805  0.29531389  0.71293127  1
  Li  Li39  1  0.70468611  0.86270416  0.71293127  1
  Li  Li40  1  0.13729584  0.84198195  0.71293127  1
  Li  Li41  1  0.70468611  0.84198195  0.28706873  1
  Li  Li42  1  0.13729584  0.29531389  0.28706873  1
  Li  Li43  1  0.15801805  0.86270416  0.28706873  1
  Li  Li44  1  0.54952991  0.45047009  0.50000000  1
  Li  Li45  1  0.54952991  0.09905983  0.50000000  1
  Li  Li46  1  0.90094017  0.45047009  0.50000000  1
  Li  Li47  1  0.66666667  0.33333333  0.00000000  1
