# generated using pymatgen
data_LiF
_symmetry_space_group_name_H-M   'P 1'
_cell_length_a   11.37692636
_cell_length_b   11.37692636
_cell_length_c   9.04810390
_cell_angle_alpha   90.00000000
_cell_angle_beta   90.00000000
_cell_angle_gamma   120.00000000
_symmetry_Int_Tables_number   1
_chemical_formula_structural   LiF
_chemical_formula_sum   'Li36 F36'
_cell_volume   1014.23385892
_cell_formula_units_Z   36
loop_
 _symmetry_equiv_pos_site_id
 _symmetry_equiv_pos_as_xyz
  1  'x, y, z'
loop_
 _atom_site_type_symbol
 _atom_site_label
 _atom_site_symmetry_multiplicity
 _atom_site_fract_x
 _atom_site_fract_y
 _atom_site_fract_z
 _atom_site_occupancy
  F  F0  1  0.89942142  0.97423589  0.08439177  1
  F  F1  1  -0.97423589  -0.07481447  0.08439177  1
  F  F2  1  0.07481447  -0.89942142  0.08439177  1
  F  F3  1  -0.89942142  -0.97423589  0.58439177  1
  F  F4  1  0.97423589  0.07481447  0.58439177  1
  F  F5  1  -0.07481447  0.89942142  0.58439177  1
  F  F6  1  -0.89942142  -0.97423589  -0.08439177  1
  F  F7  1  0.97423589  0.07481447  -0.08439177  1
  F  F8  1  -0.07481447  0.89942142  -0.08439177  1
  F  F9  1  0.89942142  0.97423589  0.41560823  1
  F  F10  1  -0.97423589  -0.07481447  0.41560823  1
  F  F11  1  0.07481447  -0.89942142  0.41560823  1
  F  F12  1  0.66666667  0.33333333  0.25000000  1
  F  F13  1  0.33333333  0.66666667  0.75000000  1
  F  F14  1  0.50000000  0.00000000  0.00000000  1
  F  F15  1  0.00000000  0.50000000  0.00000000  1
  F  F16  1  0.50000000  0.50000000  0.00000000  1
  F  F17  1  0.50000000  0.00000000  0.50000000  1
  F  F18  1  0.00000000  0.50000000  0.50000000  1
  F  F19  1  0.50000000  0.50000000  0.50000000  1
  F  F20  1  0.00000000  0.00000000  0.25000000  1
  F  F21  1  0.00000000  0.00000000  0.75000000  1
  F  F22  1  0.33333333  0.66666667  0.85730625  1
  F  F23  1  0.66666667  0.33333333  0.35730625  1
  F  F24  1  0.66666667  0.33333333  0.14269375  1
  F  F25  1  0.33333333  0.66666667  0.64269375  1
  F  F26  1  0.89342002  0.01152262  0.25000000  1
  F  F27  1  0.98847738  0.88189740  0.25000000  1
  F  F28  1  0.11810260  0.10657998  0.25000000  1
  F  F29  1  0.10657998  0.98847738  0.75000000  1
  F  F30  1  0.01152262  0.11810260  0.75000000  1
  F  F31  1  0.88189740  0.89342002  0.75000000  1
  F  F32  1  0.33333333  0.66666667  0.19127037  1
  F  F33  1  0.66666667  0.33333333  0.69127037  1
  F  F34  1  0.66666667  0.33333333  0.80872963  1
  F  F35  1  0.33333333  0.66666667  0.30872963  1
  Li  Li36  1  0.37134985  0.17934121  0.99552293  1
  Li  Li37  1  0.82065879  0.19200863  0.99552293  1
  Li  Li38  1  0.80799137  0.62865015  0.99552293  1
  Li  Li39  1  0.62865015  0.82065879  0.49552293  1
  Li  Li40  1  0.17934121  0.80799137  0.49552293  1
  Li  Li41  1  0.19200863  0.37134985  0.49552293  1
  Li  Li42  1  0.62865015  0.82065879  0.00447707  1
  Li  Li43  1  0.17934121  0.80799137  0.00447707  1
  Li  Li44  1  0.19200863  0.37134985  0.00447707  1
  Li  Li45  1  0.37134985  0.17934121  0.50447707  1
  Li  Li46  1  0.82065879  0.19200863  0.50447707  1
  Li  Li47  1  0.80799137  0.62865015  0.50447707  1
  Li  Li48  1  0.80552136  0.39054535  0.07554168  1
  Li  Li49  1  0.60945465  0.41497600  0.07554168  1
  Li  Li50  1  0.58502400  0.19447864  0.07554168  1
  Li  Li51  1  0.19447864  0.60945465  0.57554168  1
  Li  Li52  1  0.39054535  0.58502400  0.57554168  1
  Li  Li53  1  0.41497600  0.80552136  0.57554168  1
  Li  Li54  1  0.19447864  0.60945465  0.92445832  1
  Li  Li55  1  0.39054535  0.58502400  0.92445832  1
  Li  Li56  1  0.41497600  0.80552136  0.92445832  1
  Li  Li57  1  0.80552136  0.39054535  0.42445832  1
  Li  Li58  1  0.60945465  0.41497600  0.42445832  1
  Li  Li59  1  0.58502400  0.19447864  0.42445832  1
  Li  Li60  1  0.31296634  0.40096527  0.25000000  1
  Li  Li61  1  0.59903473  0.91200108  0.25000000  1
  Li  Li62  1  0.08799892  0.68703366  0.25000000  1
  Li  Li63  1  0.68703366  0.59903473  0.75000000  1
  Li  Li64  1  0.40096527  0.08799892  0.75000000  1
  Li  Li65  1  0.91200108  0.31296634  0.75000000  1
  Li  Li66  1  0.78219186  0.85873451  0.25000000  1
  Li  Li67  1  0.14126549  0.92345735  0.25000000  1
  Li  Li68  1  0.07654265  0.21780814  0.25000000  1
  Li  Li69  1  0.21780814  0.14126549  0.75000000  1
  Li  Li70  1  0.85873451  0.07654265  0.75000000  1
  Li  Li71  1  0.92345735  0.78219186  0.75000000  1
