# generated using pymatgen
data_LiF
_symmetry_space_group_name_H-M   'P 1'
_cell_length_a   12.44148634
_cell_length_b   12.44148634
_cell_length_c   11.93246638
_cell_angle_alpha   90.00000000
_cell_angle_beta   90.00000000
_cell_angle_gamma   90.00000000
_symmetry_Int_Tables_number   1
_chemical_formula_structural   LiF
_chemical_formula_sum   'Li64 F64'
_cell_volume   1847.03342158
_cell_formula_units_Z   64
loop_
 _symmetry_equiv_pos_site_id
 _symmetry_equiv_pos_as_xyz
  1  'x, y, z'
loop_
 _atom_site_type_symbol
 _atom_site_label
 _atom_site_symmetry_multiplicity
 _atom_site_fract_x
 _atom_site_fract_y
 _atom_site_fract_z
 _atom_site_occupancy
  F  F0  1  0.00000000  0.25000000  0.12500000  1
  F  F1  1  0.00000000  0.75000000  0.37500000  1
  F  F2  1  0.00000000  0.75000000  0.87500000  1
  F  F3  1  0.00000000  0.25000000  0.62500000  1
  F  F4  1  0.50000000  0.75000000  0.62500000  1
  F  F5  1  0.50000000  0.25000000  0.87500000  1
  F  F6  1  0.50000000  0.25000000  0.37500000  1
  F  F7  1  0.50000000  0.75000000  0.12500000  1
  F  F8  1  0.44876284  0.59567206  0.71565173  1
  F  F9  1  0.05123716  -0.59567206  1.21565173  1
  F  F10  1  -0.34567206  1.19876284  0.96565173  1
  F  F11  1  0.84567206  -0.19876284  1.46565173  1
  F  F12  1  0.05123716  0.59567206  -0.71565173  1
  F  F13  1  0.44876284  -0.59567206  -0.21565173  1
  F  F14  1  0.84567206  1.19876284  0.03434827  1
  F  F15  1  -0.34567206  -0.19876284  -0.46565173  1
  F  F16  1  -0.44876284  -0.59567206  -0.71565173  1
  F  F17  1  0.94876284  0.59567206  -0.21565173  1
  F  F18  1  1.34567206  -0.19876284  0.03434827  1
  F  F19  1  0.15432794  1.19876284  -0.46565173  1
  F  F20  1  0.94876284  -0.59567206  0.71565173  1
  F  F21  1  -0.44876284  0.59567206  1.21565173  1
  F  F22  1  0.15432794  -0.19876284  0.96565173  1
  F  F23  1  1.34567206  1.19876284  1.46565173  1
  F  F24  1  0.94876284  1.09567206  1.21565173  1
  F  F25  1  0.55123716  -0.09567206  1.71565173  1
  F  F26  1  0.15432794  1.69876284  1.46565173  1
  F  F27  1  1.34567206  0.30123716  1.96565173  1
  F  F28  1  0.55123716  1.09567206  -0.21565173  1
  F  F29  1  0.94876284  -0.09567206  0.28434827  1
  F  F30  1  1.34567206  1.69876284  0.53434827  1
  F  F31  1  0.15432794  0.30123716  0.03434827  1
  F  F32  1  0.05123716  -0.09567206  -0.21565173  1
  F  F33  1  1.44876284  1.09567206  0.28434827  1
  F  F34  1  1.84567206  0.30123716  0.53434827  1
  F  F35  1  0.65432794  1.69876284  0.03434827  1
  F  F36  1  1.44876284  -0.09567206  1.21565173  1
  F  F37  1  0.05123716  1.09567206  1.71565173  1
  F  F38  1  0.65432794  0.30123716  1.46565173  1
  F  F39  1  1.84567206  1.69876284  1.96565173  1
  F  F40  1  0.70853622  0.00000000  0.25000000  1
  F  F41  1  0.79146378  0.00000000  0.75000000  1
  F  F42  1  0.25000000  0.45853622  0.50000000  1
  F  F43  1  0.25000000  0.54146378  0.00000000  1
  F  F44  1  0.29146378  -0.00000000  0.75000000  1
  F  F45  1  0.20853622  0.00000000  0.25000000  1
  F  F46  1  0.75000000  0.54146378  0.50000000  1
  F  F47  1  0.75000000  0.45853622  -0.00000000  1
  F  F48  1  0.20853622  0.50000000  0.75000000  1
  F  F49  1  0.29146378  0.50000000  0.25000000  1
  F  F50  1  0.75000000  0.95853622  -0.00000000  1
  F  F51  1  0.75000000  0.04146378  0.50000000  1
  F  F52  1  0.79146378  0.50000000  0.25000000  1
  F  F53  1  0.70853622  0.50000000  0.75000000  1
  F  F54  1  0.25000000  0.04146378  -0.00000000  1
  F  F55  1  0.25000000  0.95853622  0.50000000  1
  F  F56  1  0.00000000  0.25000000  0.37500000  1
  F  F57  1  0.00000000  0.75000000  0.62500000  1
  F  F58  1  0.50000000  0.25000000  0.62500000  1
  F  F59  1  0.50000000  0.75000000  0.37500000  1
  F  F60  1  0.50000000  0.75000000  0.87500000  1
  F  F61  1  0.50000000  0.25000000  0.12500000  1
  F  F62  1  0.00000000  0.75000000  0.12500000  1
  F  F63  1  0.00000000  0.25000000  0.87500000  1
  Li  Li64  1  0.72977788  0.97977788  0.12500000  1
  Li  Li65  1  0.77022212  0.02022212  0.62500000  1
  Li  Li66  1  0.27022212  0.47977788  0.37500000  1
  Li  Li67  1  0.22977788  0.52022212  0.87500000  1
  Li  Li68  1  0.27022212  0.02022212  0.87500000  1
  Li  Li69  1  0.22977788  0.97977788  0.37500000  1
  Li  Li70  1  0.72977788  0.52022212  0.62500000  1
  Li  Li71  1  0.77022212  0.47977788  0.12500000  1
  Li  Li72  1  0.22977788  0.47977788  0.62500000  1
  Li  Li73  1  0.27022212  0.52022212  0.12500000  1
  Li  Li74  1  0.77022212  0.97977788  0.87500000  1
  Li  Li75  1  0.72977788  0.02022212  0.37500000  1
  Li  Li76  1  0.77022212  0.52022212  0.37500000  1
  Li  Li77  1  0.72977788  0.47977788  0.87500000  1
  Li  Li78  1  0.22977788  0.02022212  0.12500000  1
  Li  Li79  1  0.27022212  0.97977788  0.62500000  1
  Li  Li80  1  0.88393341  0.04172172  0.86364286  1
  Li  Li81  1  0.61606659  0.95827828  0.36364286  1
  Li  Li82  1  0.20827828  0.63393341  0.11364286  1
  Li  Li83  1  0.29172172  0.36606659  0.61364286  1
  Li  Li84  1  0.61606659  0.04172172  0.13635714  1
  Li  Li85  1  0.88393341  0.95827828  0.63635714  1
  Li  Li86  1  0.29172172  0.63393341  0.88635714  1
  Li  Li87  1  0.20827828  0.36606659  0.38635714  1
  Li  Li88  1  0.11606659  0.95827828  0.13635714  1
  Li  Li89  1  0.38393341  0.04172172  0.63635714  1
  Li  Li90  1  0.79172172  0.36606659  0.88635714  1
  Li  Li91  1  0.70827828  0.63393341  0.38635714  1
  Li  Li92  1  0.38393341  0.95827828  0.86364286  1
  Li  Li93  1  0.11606659  0.04172172  0.36364286  1
  Li  Li94  1  0.70827828  0.36606659  0.11364286  1
  Li  Li95  1  0.79172172  0.63393341  0.61364286  1
  Li  Li96  1  0.38393341  0.54172172  0.36364286  1
  Li  Li97  1  0.11606659  0.45827828  0.86364286  1
  Li  Li98  1  0.70827828  0.13393341  0.61364286  1
  Li  Li99  1  0.79172172  0.86606659  0.11364286  1
  Li  Li100  1  0.11606659  0.54172172  0.63635714  1
  Li  Li101  1  0.38393341  0.45827828  0.13635714  1
  Li  Li102  1  0.79172172  0.13393341  0.38635714  1
  Li  Li103  1  0.70827828  0.86606659  0.88635714  1
  Li  Li104  1  0.61606659  0.45827828  0.63635714  1
  Li  Li105  1  0.88393341  0.54172172  0.13635714  1
  Li  Li106  1  0.29172172  0.86606659  0.38635714  1
  Li  Li107  1  0.20827828  0.13393341  0.88635714  1
  Li  Li108  1  0.88393341  0.45827828  0.36364286  1
  Li  Li109  1  0.61606659  0.54172172  0.86364286  1
  Li  Li110  1  0.20827828  0.86606659  0.61364286  1
  Li  Li111  1  0.29172172  0.13393341  0.11364286  1
  Li  Li112  1  0.12510068  0.00000000  0.25000000  1
  Li  Li113  1  0.37489932  -0.00000000  0.75000000  1
  Li  Li114  1  0.25000000  0.87510068  0.50000000  1
  Li  Li115  1  0.25000000  0.12489932  -0.00000000  1
  Li  Li116  1  0.87489932  0.00000000  0.75000000  1
  Li  Li117  1  0.62510068  0.00000000  0.25000000  1
  Li  Li118  1  0.75000000  0.12489932  0.50000000  1
  Li  Li119  1  0.75000000  0.87510068  -0.00000000  1
  Li  Li120  1  0.62510068  0.50000000  0.75000000  1
  Li  Li121  1  0.87489932  0.50000000  0.25000000  1
  Li  Li122  1  0.75000000  0.37510068  -0.00000000  1
  Li  Li123  1  0.75000000  0.62489932  0.50000000  1
  Li  Li124  1  0.37489932  0.50000000  0.25000000  1
  Li  Li125  1  0.12510068  0.50000000  0.75000000  1
  Li  Li126  1  0.25000000  0.62489932  0.00000000  1
  Li  Li127  1  0.25000000  0.37510068  0.50000000  1
