# generated using pymatgen
data_Li3P4SeO
_symmetry_space_group_name_H-M   'P 1'
_cell_length_a   3.88474745
_cell_length_b   4.33100015
_cell_length_c   5.04130834
_cell_angle_alpha   98.15855535
_cell_angle_beta   100.85271694
_cell_angle_gamma   99.02251878
_symmetry_Int_Tables_number   1
_chemical_formula_structural   Li3P4SeO
_chemical_formula_sum   'Li3 P4 Se1 O1'
_cell_volume   80.97616775
_cell_formula_units_Z   1
loop_
 _symmetry_equiv_pos_site_id
 _symmetry_equiv_pos_as_xyz
  1  'x, y, z'
loop_
 _atom_site_type_symbol
 _atom_site_label
 _atom_site_symmetry_multiplicity
 _atom_site_fract_x
 _atom_site_fract_y
 _atom_site_fract_z
 _atom_site_occupancy
  Se  Se0  1  0.00000000  0.00000000  0.00000000  1
  P  P1  1  0.50000000  0.50000000  0.50000000  1
  P  P2  1  0.50000000  0.50000000  0.00000000  1
  P  P3  1  0.50000000  0.00000000  0.50000000  1
  P  P4  1  0.00000000  0.50000000  0.50000000  1
  O  O5  1  0.47325486  0.36972902  0.70424683  1
  Li  Li6  1  0.93890513  0.47817643  0.43587055  1
  Li  Li7  1  0.10153817  0.15640727  0.27074431  1
  Li  Li8  1  0.00722175  0.72579187  0.84147923  1
