# generated using pymatgen
data_Li3Y2Sb2MoP2
_symmetry_space_group_name_H-M   'P 1'
_cell_length_a   5.97043350
_cell_length_b   6.23482925
_cell_length_c   7.49606240
_cell_angle_alpha   93.06138250
_cell_angle_beta   96.66705463
_cell_angle_gamma   102.29635677
_symmetry_Int_Tables_number   1
_chemical_formula_structural   Li3Y2Sb2MoP2
_chemical_formula_sum   'Li3 Y2 Sb2 Mo1 P2'
_cell_volume   269.91405240
_cell_formula_units_Z   1
loop_
 _symmetry_equiv_pos_site_id
 _symmetry_equiv_pos_as_xyz
  1  'x, y, z'
loop_
 _atom_site_type_symbol
 _atom_site_label
 _atom_site_symmetry_multiplicity
 _atom_site_fract_x
 _atom_site_fract_y
 _atom_site_fract_z
 _atom_site_occupancy
  Y  Y0  1  0.00000000  0.00000000  0.00000000  1
  Y  Y1  1  0.50000000  0.50000000  0.50000000  1
  P  P2  1  0.25000000  0.25000000  0.25000000  1
  P  P3  1  0.75000000  0.25000000  0.00000000  1
  Mo  Mo4  1  0.25000000  0.75000000  0.50000000  1
  Li  Li5  1  0.41057831  0.06756836  0.23282407  1
  Li  Li6  1  0.49670031  0.22140340  0.96948331  1
  Li  Li7  1  0.64063953  0.56520593  0.66261686  1
  Sb  Sb8  1  0.61346553  0.38286490  0.57064421  1
  Sb  Sb9  1  0.27876405  0.30496815  0.49462497  1
