# generated using pymatgen
data_Li3Y2P3Se2
_symmetry_space_group_name_H-M   'P 1'
_cell_length_a   6.11822954
_cell_length_b   6.47548570
_cell_length_c   7.59666262
_cell_angle_alpha   92.79308632
_cell_angle_beta   96.08276134
_cell_angle_gamma   101.21871766
_symmetry_Int_Tables_number   1
_chemical_formula_structural   Li3Y2P3Se2
_chemical_formula_sum   'Li3 Y2 P3 Se2'
_cell_volume   292.81245892
_cell_formula_units_Z   1
loop_
 _symmetry_equiv_pos_site_id
 _symmetry_equiv_pos_as_xyz
  1  'x, y, z'
loop_
 _atom_site_type_symbol
 _atom_site_label
 _atom_site_symmetry_multiplicity
 _atom_site_fract_x
 _atom_site_fract_y
 _atom_site_fract_z
 _atom_site_occupancy
  Se  Se0  1  0.00000000  0.00000000  0.00000000  1
  Se  Se1  1  0.50000000  0.50000000  0.50000000  1
  P  P2  1  0.50000000  0.50000000  0.00000000  1
  P  P3  1  0.50000000  0.00000000  0.50000000  1
  P  P4  1  0.00000000  0.50000000  0.50000000  1
  Li  Li5  1  0.10650592  0.61403386  0.93172691  1
  Li  Li6  1  0.92723884  0.13504019  0.42841574  1
  Li  Li7  1  0.08793231  0.62968303  0.59387581  1
  Y  Y8  1  0.69251675  0.15334293  0.60129665  1
  Y  Y9  1  0.03005257  0.75382617  0.83429965  1
