# generated using pymatgen
data_Li6SF4
_symmetry_space_group_name_H-M   'P 1'
_cell_length_a   13.67719795
_cell_length_b   13.67719795
_cell_length_c   15.37635941
_cell_angle_alpha   90.00000000
_cell_angle_beta   90.00000000
_cell_angle_gamma   90.00000000
_symmetry_Int_Tables_number   1
_chemical_formula_structural   Li6SF4
_chemical_formula_sum   'Li108 S18 F72'
_cell_volume   2876.39010905
_cell_formula_units_Z   18
loop_
 _symmetry_equiv_pos_site_id
 _symmetry_equiv_pos_as_xyz
  1  'x, y, z'
loop_
 _atom_site_type_symbol
 _atom_site_label
 _atom_site_symmetry_multiplicity
 _atom_site_fract_x
 _atom_site_fract_y
 _atom_site_fract_z
 _atom_site_occupancy
  F  F0  1  0.32726296  0.83232815  0.50000000  1
  F  F1  1  0.67273704  0.16767185  0.50000000  1
  F  F2  1  0.16767185  0.32726296  0.50000000  1
  F  F3  1  0.83232815  0.67273704  0.50000000  1
  F  F4  1  0.67273704  0.83232815  0.50000000  1
  F  F5  1  0.32726296  0.16767185  0.50000000  1
  F  F6  1  0.83232815  0.32726296  0.50000000  1
  F  F7  1  0.16767185  0.67273704  0.50000000  1
  F  F8  1  0.29669217  0.00000000  0.50000000  1
  F  F9  1  0.70330783  0.00000000  0.50000000  1
  F  F10  1  0.00000000  0.29669217  0.50000000  1
  F  F11  1  0.00000000  0.70330783  0.50000000  1
  F  F12  1  0.39474142  0.04969240  0.89499970  1
  F  F13  1  0.60525858  0.95030760  0.89499970  1
  F  F14  1  0.95030760  0.39474142  0.89499970  1
  F  F15  1  0.04969240  0.60525858  0.89499970  1
  F  F16  1  0.60525858  0.04969240  0.10500030  1
  F  F17  1  0.39474142  0.95030760  0.10500030  1
  F  F18  1  0.04969240  0.39474142  0.10500030  1
  F  F19  1  0.95030760  0.60525858  0.10500030  1
  F  F20  1  0.60525858  0.95030760  0.10500030  1
  F  F21  1  0.39474142  0.04969240  0.10500030  1
  F  F22  1  0.04969240  0.60525858  0.10500030  1
  F  F23  1  0.95030760  0.39474142  0.10500030  1
  F  F24  1  0.39474142  0.95030760  0.89499970  1
  F  F25  1  0.60525858  0.04969240  0.89499970  1
  F  F26  1  0.95030760  0.60525858  0.89499970  1
  F  F27  1  0.04969240  0.39474142  0.89499970  1
  F  F28  1  0.94640970  0.94640970  0.50000000  1
  F  F29  1  0.05359030  0.05359030  0.50000000  1
  F  F30  1  0.05359030  0.94640970  0.50000000  1
  F  F31  1  0.94640970  0.05359030  0.50000000  1
  F  F32  1  0.42523154  0.00000000  0.00000000  1
  F  F33  1  0.57476846  0.00000000  0.00000000  1
  F  F34  1  0.00000000  0.42523154  0.00000000  1
  F  F35  1  0.00000000  0.57476846  0.00000000  1
  F  F36  1  0.23620089  0.23620089  0.18949683  1
  F  F37  1  0.76379911  0.76379911  0.18949683  1
  F  F38  1  0.76379911  0.23620089  0.18949683  1
  F  F39  1  0.23620089  0.76379911  0.18949683  1
  F  F40  1  0.76379911  0.23620089  0.81050317  1
  F  F41  1  0.23620089  0.76379911  0.81050317  1
  F  F42  1  0.23620089  0.23620089  0.81050317  1
  F  F43  1  0.76379911  0.76379911  0.81050317  1
  F  F44  1  0.50000000  0.50000000  0.51950056  1
  F  F45  1  0.50000000  0.50000000  0.48049944  1
  F  F46  1  0.23598238  0.80623116  0.66308483  1
  F  F47  1  0.76401762  0.19376884  0.66308483  1
  F  F48  1  0.19376884  0.23598238  0.66308483  1
  F  F49  1  0.80623116  0.76401762  0.66308483  1
  F  F50  1  0.76401762  0.80623116  0.33691517  1
  F  F51  1  0.23598238  0.19376884  0.33691517  1
  F  F52  1  0.80623116  0.23598238  0.33691517  1
  F  F53  1  0.19376884  0.76401762  0.33691517  1
  F  F54  1  0.76401762  0.19376884  0.33691517  1
  F  F55  1  0.23598238  0.80623116  0.33691517  1
  F  F56  1  0.80623116  0.76401762  0.33691517  1
  F  F57  1  0.19376884  0.23598238  0.33691517  1
  F  F58  1  0.23598238  0.19376884  0.66308483  1
  F  F59  1  0.76401762  0.80623116  0.66308483  1
  F  F60  1  0.19376884  0.76401762  0.66308483  1
  F  F61  1  0.80623116  0.23598238  0.66308483  1
  F  F62  1  0.94314294  0.94314294  0.12584933  1
  F  F63  1  0.05685706  0.05685706  0.12584933  1
  F  F64  1  0.05685706  0.94314294  0.12584933  1
  F  F65  1  0.94314294  0.05685706  0.12584933  1
  F  F66  1  0.05685706  0.94314294  0.87415067  1
  F  F67  1  0.94314294  0.05685706  0.87415067  1
  F  F68  1  0.94314294  0.94314294  0.87415067  1
  F  F69  1  0.05685706  0.05685706  0.87415067  1
  F  F70  1  0.00000000  0.50000000  0.50000000  1
  F  F71  1  0.50000000  0.00000000  0.50000000  1
  Li  Li72  1  0.80090934  0.05047379  0.71473630  1
  Li  Li73  1  -0.80090934  -0.05047379  0.71473630  1
  Li  Li74  1  -0.05047379  0.80090934  0.71473630  1
  Li  Li75  1  0.05047379  -0.80090934  0.71473630  1
  Li  Li76  1  -0.80090934  0.05047379  -0.71473630  1
  Li  Li77  1  0.80090934  -0.05047379  -0.71473630  1
  Li  Li78  1  0.05047379  0.80090934  -0.71473630  1
  Li  Li79  1  -0.05047379  -0.80090934  -0.71473630  1
  Li  Li80  1  -0.80090934  -0.05047379  -0.71473630  1
  Li  Li81  1  0.80090934  0.05047379  -0.71473630  1
  Li  Li82  1  0.05047379  -0.80090934  -0.71473630  1
  Li  Li83  1  -0.05047379  0.80090934  -0.71473630  1
  Li  Li84  1  0.80090934  -0.05047379  0.71473630  1
  Li  Li85  1  -0.80090934  0.05047379  0.71473630  1
  Li  Li86  1  -0.05047379  -0.80090934  0.71473630  1
  Li  Li87  1  0.05047379  0.80090934  0.71473630  1
  Li  Li88  1  0.00000000  0.50000000  0.82368627  1
  Li  Li89  1  0.50000000  0.00000000  0.82368627  1
  Li  Li90  1  0.00000000  0.50000000  0.17631373  1
  Li  Li91  1  0.50000000  0.00000000  0.17631373  1
  Li  Li92  1  0.58073000  0.58073000  0.68755402  1
  Li  Li93  1  0.41927000  0.41927000  0.68755402  1
  Li  Li94  1  0.41927000  0.58073000  0.68755402  1
  Li  Li95  1  0.58073000  0.41927000  0.68755402  1
  Li  Li96  1  0.41927000  0.58073000  0.31244598  1
  Li  Li97  1  0.58073000  0.41927000  0.31244598  1
  Li  Li98  1  0.58073000  0.58073000  0.31244598  1
  Li  Li99  1  0.41927000  0.41927000  0.31244598  1
  Li  Li100  1  0.20251912  0.71059498  0.11702568  1
  Li  Li101  1  0.79748088  0.28940502  0.11702568  1
  Li  Li102  1  0.28940502  0.20251912  0.11702568  1
  Li  Li103  1  0.71059498  0.79748088  0.11702568  1
  Li  Li104  1  0.79748088  0.71059498  0.88297432  1
  Li  Li105  1  0.20251912  0.28940502  0.88297432  1
  Li  Li106  1  0.71059498  0.20251912  0.88297432  1
  Li  Li107  1  0.28940502  0.79748088  0.88297432  1
  Li  Li108  1  0.79748088  0.28940502  0.88297432  1
  Li  Li109  1  0.20251912  0.71059498  0.88297432  1
  Li  Li110  1  0.71059498  0.79748088  0.88297432  1
  Li  Li111  1  0.28940502  0.20251912  0.88297432  1
  Li  Li112  1  0.20251912  0.28940502  0.11702568  1
  Li  Li113  1  0.79748088  0.71059498  0.11702568  1
  Li  Li114  1  0.28940502  0.79748088  0.11702568  1
  Li  Li115  1  0.71059498  0.20251912  0.11702568  1
  Li  Li116  1  0.09903877  0.56846788  0.50000000  1
  Li  Li117  1  0.90096123  0.43153212  0.50000000  1
  Li  Li118  1  0.43153212  0.09903877  0.50000000  1
  Li  Li119  1  0.56846788  0.90096123  0.50000000  1
  Li  Li120  1  0.90096123  0.56846788  0.50000000  1
  Li  Li121  1  0.09903877  0.43153212  0.50000000  1
  Li  Li122  1  0.56846788  0.09903877  0.50000000  1
  Li  Li123  1  0.43153212  0.90096123  0.50000000  1
  Li  Li124  1  0.89499306  0.62115460  0.84664243  1
  Li  Li125  1  0.10500694  0.37884540  0.84664243  1
  Li  Li126  1  0.37884540  0.89499306  0.84664243  1
  Li  Li127  1  0.62115460  0.10500694  0.84664243  1
  Li  Li128  1  0.10500694  0.62115460  0.15335757  1
  Li  Li129  1  0.89499306  0.37884540  0.15335757  1
  Li  Li130  1  0.62115460  0.89499306  0.15335757  1
  Li  Li131  1  0.37884540  0.10500694  0.15335757  1
  Li  Li132  1  0.10500694  0.37884540  0.15335757  1
  Li  Li133  1  0.89499306  0.62115460  0.15335757  1
  Li  Li134  1  0.62115460  0.10500694  0.15335757  1
  Li  Li135  1  0.37884540  0.89499306  0.15335757  1
  Li  Li136  1  0.89499306  0.37884540  0.84664243  1
  Li  Li137  1  0.10500694  0.62115460  0.84664243  1
  Li  Li138  1  0.37884540  0.10500694  0.84664243  1
  Li  Li139  1  0.62115460  0.89499306  0.84664243  1
  Li  Li140  1  0.94021891  0.29457293  0.04260979  1
  Li  Li141  1  0.05978109  0.70542707  0.04260979  1
  Li  Li142  1  0.70542707  0.94021891  0.04260979  1
  Li  Li143  1  0.29457293  0.05978109  0.04260979  1
  Li  Li144  1  0.05978109  0.29457293  0.95739021  1
  Li  Li145  1  0.94021891  0.70542707  0.95739021  1
  Li  Li146  1  0.29457293  0.94021891  0.95739021  1
  Li  Li147  1  0.70542707  0.05978109  0.95739021  1
  Li  Li148  1  0.05978109  0.70542707  0.95739021  1
  Li  Li149  1  0.94021891  0.29457293  0.95739021  1
  Li  Li150  1  0.29457293  0.05978109  0.95739021  1
  Li  Li151  1  0.70542707  0.94021891  0.95739021  1
  Li  Li152  1  0.94021891  0.70542707  0.04260979  1
  Li  Li153  1  0.05978109  0.29457293  0.04260979  1
  Li  Li154  1  0.70542707  0.05978109  0.04260979  1
  Li  Li155  1  0.29457293  0.94021891  0.04260979  1
  Li  Li156  1  0.42712221  0.50000000  0.11745241  1
  Li  Li157  1  0.57287779  0.50000000  0.11745241  1
  Li  Li158  1  0.50000000  0.42712221  0.11745241  1
  Li  Li159  1  0.50000000  0.57287779  0.11745241  1
  Li  Li160  1  0.57287779  0.50000000  0.88254759  1
  Li  Li161  1  0.42712221  0.50000000  0.88254759  1
  Li  Li162  1  0.50000000  0.42712221  0.88254759  1
  Li  Li163  1  0.50000000  0.57287779  0.88254759  1
  Li  Li164  1  0.89055532  0.89055532  0.57847352  1
  Li  Li165  1  0.10944468  0.10944468  0.57847352  1
  Li  Li166  1  0.10944468  0.89055532  0.57847352  1
  Li  Li167  1  0.89055532  0.10944468  0.57847352  1
  Li  Li168  1  0.10944468  0.89055532  0.42152648  1
  Li  Li169  1  0.89055532  0.10944468  0.42152648  1
  Li  Li170  1  0.89055532  0.89055532  0.42152648  1
  Li  Li171  1  0.10944468  0.10944468  0.42152648  1
  Li  Li172  1  0.20433919  0.29200448  0.00000000  1
  Li  Li173  1  0.79566081  0.70799552  0.00000000  1
  Li  Li174  1  0.70799552  0.20433919  0.00000000  1
  Li  Li175  1  0.29200448  0.79566081  0.00000000  1
  Li  Li176  1  0.79566081  0.29200448  0.00000000  1
  Li  Li177  1  0.20433919  0.70799552  0.00000000  1
  Li  Li178  1  0.29200448  0.20433919  0.00000000  1
  Li  Li179  1  0.70799552  0.79566081  0.00000000  1
  S  S180  1  0.40825690  0.86641457  0.92998588  1
  S  S181  1  0.59174310  0.13358543  0.92998588  1
  S  S182  1  0.13358543  0.40825690  0.92998588  1
  S  S183  1  0.86641457  0.59174310  0.92998588  1
  S  S184  1  0.59174310  0.86641457  0.07001412  1
  S  S185  1  0.40825690  0.13358543  0.07001412  1
  S  S186  1  0.86641457  0.40825690  0.07001412  1
  S  S187  1  0.13358543  0.59174310  0.07001412  1
  S  S188  1  0.59174310  0.13358543  0.07001412  1
  S  S189  1  0.40825690  0.86641457  0.07001412  1
  S  S190  1  0.86641457  0.59174310  0.07001412  1
  S  S191  1  0.13358543  0.40825690  0.07001412  1
  S  S192  1  0.40825690  0.13358543  0.92998588  1
  S  S193  1  0.59174310  0.86641457  0.92998588  1
  S  S194  1  0.13358543  0.59174310  0.92998588  1
  S  S195  1  0.86641457  0.40825690  0.92998588  1
  S  S196  1  0.00000000  0.50000000  0.00000000  1
  S  S197  1  0.50000000  0.00000000  0.00000000  1
