# generated using pymatgen
data_Li(Te2P)2
_symmetry_space_group_name_H-M   'P 1'
_cell_length_a   4.14956410
_cell_length_b   4.29154007
_cell_length_c   6.86348906
_cell_angle_alpha   96.32417335
_cell_angle_beta   103.77273478
_cell_angle_gamma   115.40169084
_symmetry_Int_Tables_number   1
_chemical_formula_structural   Li(Te2P)2
_chemical_formula_sum   'Li1 Te4 P2'
_cell_volume   104.04810363
_cell_formula_units_Z   1
loop_
 _symmetry_equiv_pos_site_id
 _symmetry_equiv_pos_as_xyz
  1  'x, y, z'
loop_
 _atom_site_type_symbol
 _atom_site_label
 _atom_site_symmetry_multiplicity
 _atom_site_fract_x
 _atom_site_fract_y
 _atom_site_fract_z
 _atom_site_occupancy
  P  P0  1  0.00000000  0.00000000  0.00000000  1
  P  P1  1  0.33300000  0.66700000  0.25000000  1
  Te  Te2  1  0.66700000  0.33300000  0.50000000  1
  Te  Te3  1  0.00000000  0.00000000  0.75000000  1
  Te  Te4  1  0.16827951  0.79298543  0.31541800  1
  Te  Te5  1  0.90949633  0.11567139  0.37352245  1
  Li  Li6  1  0.40629542  0.10239262  0.38872805  1
