# generated using pymatgen
data_Li2LaTiS
_symmetry_space_group_name_H-M   'P 1'
_cell_length_a   3.41860300
_cell_length_b   3.32237677
_cell_length_c   5.91526284
_cell_angle_alpha   108.79473877
_cell_angle_beta   99.75490154
_cell_angle_gamma   107.10829149
_symmetry_Int_Tables_number   1
_chemical_formula_structural   Li2LaTiS
_chemical_formula_sum   'Li2 La1 Ti1 S1'
_cell_volume   58.13860196
_cell_formula_units_Z   1
loop_
 _symmetry_equiv_pos_site_id
 _symmetry_equiv_pos_as_xyz
  1  'x, y, z'
loop_
 _atom_site_type_symbol
 _atom_site_label
 _atom_site_symmetry_multiplicity
 _atom_site_fract_x
 _atom_site_fract_y
 _atom_site_fract_z
 _atom_site_occupancy
  S  S0  1  0.00000000  0.00000000  0.00000000  1
  Li  Li1  1  0.50000000  0.50000000  0.50000000  1
  Li  Li2  1  0.50000000  0.50000000  0.00000000  1
  Ti  Ti3  1  0.50000000  0.00000000  0.50000000  1
  La  La4  1  0.00000000  0.50000000  0.50000000  1
