# generated using pymatgen
data_LiF
_symmetry_space_group_name_H-M   'P 1'
_cell_length_a   9.12781845
_cell_length_b   7.67139791
_cell_length_c   7.25420666
_cell_angle_alpha   90.00000000
_cell_angle_beta   90.00000000
_cell_angle_gamma   90.00000000
_symmetry_Int_Tables_number   1
_chemical_formula_structural   LiF
_chemical_formula_sum   'Li20 F20'
_cell_volume   507.96223711
_cell_formula_units_Z   20
loop_
 _symmetry_equiv_pos_site_id
 _symmetry_equiv_pos_as_xyz
  1  'x, y, z'
loop_
 _atom_site_type_symbol
 _atom_site_label
 _atom_site_symmetry_multiplicity
 _atom_site_fract_x
 _atom_site_fract_y
 _atom_site_fract_z
 _atom_site_occupancy
  F  F0  1  0.85481485  0.37364204  0.88252723  1
  F  F1  1  0.64518515  0.62635796  0.38252723  1
  F  F2  1  0.14518515  0.87364204  0.11747277  1
  F  F3  1  0.35481485  0.12635796  0.61747277  1
  F  F4  1  0.14518515  0.62635796  0.11747277  1
  F  F5  1  0.35481485  0.37364204  0.61747277  1
  F  F6  1  0.85481485  0.12635796  0.88252723  1
  F  F7  1  0.64518515  0.87364204  0.38252723  1
  F  F8  1  0.59415312  0.25000000  0.27285505  1
  F  F9  1  0.90584688  0.75000000  0.77285505  1
  F  F10  1  0.40584688  0.75000000  0.72714495  1
  F  F11  1  0.09415312  0.25000000  0.22714495  1
  F  F12  1  0.10890305  0.98081974  0.56560677  1
  F  F13  1  0.39109695  0.01918026  0.06560677  1
  F  F14  1  0.89109695  0.48081974  0.43439323  1
  F  F15  1  0.60890305  0.51918026  0.93439323  1
  F  F16  1  0.89109695  0.01918026  0.43439323  1
  F  F17  1  0.60890305  0.98081974  0.93439323  1
  F  F18  1  0.10890305  0.51918026  0.56560677  1
  F  F19  1  0.39109695  0.48081974  0.06560677  1
  Li  Li20  1  0.00000000  0.00000000  0.00000000  1
  Li  Li21  1  0.50000000  0.00000000  0.50000000  1
  Li  Li22  1  0.00000000  0.50000000  0.00000000  1
  Li  Li23  1  0.50000000  0.50000000  0.50000000  1
  Li  Li24  1  0.64597804  0.03571661  0.69871590  1
  Li  Li25  1  -0.14597804  -0.03571661  1.19871590  1
  Li  Li26  1  -0.64597804  0.53571661  -0.69871590  1
  Li  Li27  1  1.14597804  0.46428339  -0.19871590  1
  Li  Li28  1  -0.64597804  -0.03571661  -0.69871590  1
  Li  Li29  1  1.14597804  0.03571661  -0.19871590  1
  Li  Li30  1  0.64597804  0.46428339  0.69871590  1
  Li  Li31  1  -0.14597804  0.53571661  1.19871590  1
  Li  Li32  1  0.80806883  0.25000000  0.70007698  1
  Li  Li33  1  0.69193117  0.75000000  0.20007698  1
  Li  Li34  1  0.19193117  0.75000000  0.29992302  1
  Li  Li35  1  0.30806883  0.25000000  0.79992302  1
  Li  Li36  1  0.00000000  0.00000000  0.50000000  1
  Li  Li37  1  0.50000000  0.00000000  0.00000000  1
  Li  Li38  1  0.00000000  0.50000000  0.50000000  1
  Li  Li39  1  0.50000000  0.50000000  0.00000000  1
