# generated using pymatgen
data_Li4TeF2
_symmetry_space_group_name_H-M   'P 1'
_cell_length_a   14.36722522
_cell_length_b   14.36722522
_cell_length_c   14.49440441
_cell_angle_alpha   90.00000000
_cell_angle_beta   90.00000000
_cell_angle_gamma   120.00000000
_symmetry_Int_Tables_number   1
_chemical_formula_structural   Li4TeF2
_chemical_formula_sum   'Li96 Te24 F48'
_cell_volume   2591.05603798
_cell_formula_units_Z   24
loop_
 _symmetry_equiv_pos_site_id
 _symmetry_equiv_pos_as_xyz
  1  'x, y, z'
loop_
 _atom_site_type_symbol
 _atom_site_label
 _atom_site_symmetry_multiplicity
 _atom_site_fract_x
 _atom_site_fract_y
 _atom_site_fract_z
 _atom_site_occupancy
  F  F0  1  0.41968457  0.83635623  0.53234639  1
  F  F1  1  -0.83635623  -0.41667166  0.53234639  1
  F  F2  1  0.41667166  -0.41968457  0.53234639  1
  F  F3  1  0.41968457  0.83635623  -0.53234639  1
  F  F4  1  -0.83635623  -0.41667166  -0.53234639  1
  F  F5  1  0.41667166  -0.41968457  -0.53234639  1
  F  F6  1  0.83635623  0.41968457  -0.53234639  1
  F  F7  1  -0.41667166  -0.83635623  -0.53234639  1
  F  F8  1  -0.41968457  0.41667166  -0.53234639  1
  F  F9  1  0.83635623  0.41968457  0.53234639  1
  F  F10  1  -0.41667166  -0.83635623  0.53234639  1
  F  F11  1  -0.41968457  0.41667166  0.53234639  1
  F  F12  1  0.33333333  0.66666667  0.10287796  1
  F  F13  1  0.33333333  0.66666667  0.89712204  1
  F  F14  1  0.66666667  0.33333333  0.89712204  1
  F  F15  1  0.66666667  0.33333333  0.10287796  1
  F  F16  1  0.00000000  0.00000000  0.50000000  1
  F  F17  1  0.19108243  0.79510246  0.86612186  1
  F  F18  1  0.20489754  0.39597997  0.86612186  1
  F  F19  1  0.60402003  0.80891757  0.86612186  1
  F  F20  1  0.19108243  0.79510246  0.13387814  1
  F  F21  1  0.20489754  0.39597997  0.13387814  1
  F  F22  1  0.60402003  0.80891757  0.13387814  1
  F  F23  1  0.79510246  0.19108243  0.13387814  1
  F  F24  1  0.39597997  0.20489754  0.13387814  1
  F  F25  1  0.80891757  0.60402003  0.13387814  1
  F  F26  1  0.79510246  0.19108243  0.86612186  1
  F  F27  1  0.39597997  0.20489754  0.86612186  1
  F  F28  1  0.80891757  0.60402003  0.86612186  1
  F  F29  1  0.70963452  0.00000000  -0.00000000  1
  F  F30  1  0.00000000  0.70963452  0.00000000  1
  F  F31  1  0.29036548  0.29036548  -0.00000000  1
  F  F32  1  0.33333333  0.66666667  0.00000000  1
  F  F33  1  0.66666667  0.33333333  0.00000000  1
  F  F34  1  0.93159938  0.00000000  0.50000000  1
  F  F35  1  0.00000000  0.93159938  0.50000000  1
  F  F36  1  0.06840062  0.06840062  0.50000000  1
  F  F37  1  0.76552096  0.20583241  0.50000000  1
  F  F38  1  0.79416759  0.55968854  0.50000000  1
  F  F39  1  0.44031146  0.23447904  0.50000000  1
  F  F40  1  0.20583241  0.76552096  0.50000000  1
  F  F41  1  0.55968854  0.79416759  0.50000000  1
  F  F42  1  0.23447904  0.44031146  0.50000000  1
  F  F43  1  0.33333333  0.66666667  0.22359131  1
  F  F44  1  0.33333333  0.66666667  0.77640869  1
  F  F45  1  0.66666667  0.33333333  0.77640869  1
  F  F46  1  0.66666667  0.33333333  0.22359131  1
  F  F47  1  0.00000000  0.00000000  0.00000000  1
  Li  Li48  1  0.26546645  0.00000000  0.63621615  1
  Li  Li49  1  0.00000000  0.26546645  0.63621615  1
  Li  Li50  1  0.73453355  0.73453355  0.63621615  1
  Li  Li51  1  0.26546645  0.00000000  0.36378385  1
  Li  Li52  1  0.00000000  0.26546645  0.36378385  1
  Li  Li53  1  0.73453355  0.73453355  0.36378385  1
  Li  Li54  1  0.90096605  0.74422275  0.80874551  1
  Li  Li55  1  0.25577725  0.15674330  0.80874551  1
  Li  Li56  1  0.84325670  0.09903395  0.80874551  1
  Li  Li57  1  0.90096605  0.74422275  0.19125449  1
  Li  Li58  1  0.25577725  0.15674330  0.19125449  1
  Li  Li59  1  0.84325670  0.09903395  0.19125449  1
  Li  Li60  1  0.74422275  0.90096605  0.19125449  1
  Li  Li61  1  0.15674330  0.25577725  0.19125449  1
  Li  Li62  1  0.09903395  0.84325670  0.19125449  1
  Li  Li63  1  0.74422275  0.90096605  0.80874551  1
  Li  Li64  1  0.15674330  0.25577725  0.80874551  1
  Li  Li65  1  0.09903395  0.84325670  0.80874551  1
  Li  Li66  1  0.80915917  0.28786154  0.40863452  1
  Li  Li67  1  0.71213846  0.52129763  0.40863452  1
  Li  Li68  1  0.47870237  0.19084083  0.40863452  1
  Li  Li69  1  0.80915917  0.28786154  0.59136548  1
  Li  Li70  1  0.71213846  0.52129763  0.59136548  1
  Li  Li71  1  0.47870237  0.19084083  0.59136548  1
  Li  Li72  1  0.28786154  0.80915917  0.59136548  1
  Li  Li73  1  0.52129763  0.71213846  0.59136548  1
  Li  Li74  1  0.19084083  0.47870237  0.59136548  1
  Li  Li75  1  0.28786154  0.80915917  0.40863452  1
  Li  Li76  1  0.52129763  0.71213846  0.40863452  1
  Li  Li77  1  0.19084083  0.47870237  0.40863452  1
  Li  Li78  1  0.14073220  0.28943575  0.50000000  1
  Li  Li79  1  0.71056425  0.85129645  0.50000000  1
  Li  Li80  1  0.14870355  0.85926780  0.50000000  1
  Li  Li81  1  0.28943575  0.14073220  0.50000000  1
  Li  Li82  1  0.85129645  0.71056425  0.50000000  1
  Li  Li83  1  0.85926780  0.14870355  0.50000000  1
  Li  Li84  1  0.29441935  0.10192291  0.00000000  1
  Li  Li85  1  0.89807709  0.19249644  -0.00000000  1
  Li  Li86  1  0.80750356  0.70558065  0.00000000  1
  Li  Li87  1  0.10192291  0.29441935  0.00000000  1
  Li  Li88  1  0.19249644  0.89807709  0.00000000  1
  Li  Li89  1  0.70558065  0.80750356  0.00000000  1
  Li  Li90  1  0.88915741  0.29732993  0.79830358  1
  Li  Li91  1  0.70267007  0.59182748  0.79830358  1
  Li  Li92  1  0.40817252  0.11084259  0.79830358  1
  Li  Li93  1  0.88915741  0.29732993  0.20169642  1
  Li  Li94  1  0.70267007  0.59182748  0.20169642  1
  Li  Li95  1  0.40817252  0.11084259  0.20169642  1
  Li  Li96  1  0.29732993  0.88915741  0.20169642  1
  Li  Li97  1  0.59182748  0.70267007  0.20169642  1
  Li  Li98  1  0.11084259  0.40817252  0.20169642  1
  Li  Li99  1  0.29732993  0.88915741  0.79830358  1
  Li  Li100  1  0.59182748  0.70267007  0.79830358  1
  Li  Li101  1  0.11084259  0.40817252  0.79830358  1
  Li  Li102  1  0.94724782  0.07599605  0.88485863  1
  Li  Li103  1  0.92400395  0.87125177  0.88485863  1
  Li  Li104  1  0.12874823  0.05275218  0.88485863  1
  Li  Li105  1  0.94724782  0.07599605  0.11514137  1
  Li  Li106  1  0.92400395  0.87125177  0.11514137  1
  Li  Li107  1  0.12874823  0.05275218  0.11514137  1
  Li  Li108  1  0.07599605  0.94724782  0.11514137  1
  Li  Li109  1  0.87125177  0.92400395  0.11514137  1
  Li  Li110  1  0.05275218  0.12874823  0.11514137  1
  Li  Li111  1  0.07599605  0.94724782  0.88485863  1
  Li  Li112  1  0.87125177  0.92400395  0.88485863  1
  Li  Li113  1  0.05275218  0.12874823  0.88485863  1
  Li  Li114  1  0.30993101  0.00000000  0.00000000  1
  Li  Li115  1  0.00000000  0.30993101  0.00000000  1
  Li  Li116  1  0.69006899  0.69006899  0.00000000  1
  Li  Li117  1  0.63125441  0.08619238  0.08459996  1
  Li  Li118  1  0.91380762  0.54506202  0.08459996  1
  Li  Li119  1  0.45493798  0.36874559  0.08459996  1
  Li  Li120  1  0.63125441  0.08619238  0.91540004  1
  Li  Li121  1  0.91380762  0.54506202  0.91540004  1
  Li  Li122  1  0.45493798  0.36874559  0.91540004  1
  Li  Li123  1  0.08619238  0.63125441  0.91540004  1
  Li  Li124  1  0.54506202  0.91380762  0.91540004  1
  Li  Li125  1  0.36874559  0.45493798  0.91540004  1
  Li  Li126  1  0.08619238  0.63125441  0.08459996  1
  Li  Li127  1  0.54506202  0.91380762  0.08459996  1
  Li  Li128  1  0.36874559  0.45493798  0.08459996  1
  Li  Li129  1  0.19918671  0.44506652  0.95151507  1
  Li  Li130  1  0.55493348  0.75412019  0.95151507  1
  Li  Li131  1  0.24587981  0.80081329  0.95151507  1
  Li  Li132  1  0.19918671  0.44506652  0.04848493  1
  Li  Li133  1  0.55493348  0.75412019  0.04848493  1
  Li  Li134  1  0.24587981  0.80081329  0.04848493  1
  Li  Li135  1  0.44506652  0.19918671  0.04848493  1
  Li  Li136  1  0.75412019  0.55493348  0.04848493  1
  Li  Li137  1  0.80081329  0.24587981  0.04848493  1
  Li  Li138  1  0.44506652  0.19918671  0.95151507  1
  Li  Li139  1  0.75412019  0.55493348  0.95151507  1
  Li  Li140  1  0.80081329  0.24587981  0.95151507  1
  Li  Li141  1  0.37971837  0.00000000  0.50000000  1
  Li  Li142  1  0.00000000  0.37971837  0.50000000  1
  Li  Li143  1  0.62028163  0.62028163  0.50000000  1
  Te  Te144  1  0.75914000  0.31862402  0.85250836  1
  Te  Te145  1  0.68137598  0.44051598  0.85250836  1
  Te  Te146  1  0.55948402  0.24086000  0.85250836  1
  Te  Te147  1  0.75914000  0.31862402  0.14749164  1
  Te  Te148  1  0.68137598  0.44051598  0.14749164  1
  Te  Te149  1  0.55948402  0.24086000  0.14749164  1
  Te  Te150  1  0.31862402  0.75914000  0.14749164  1
  Te  Te151  1  0.44051598  0.68137598  0.14749164  1
  Te  Te152  1  0.24086000  0.55948402  0.14749164  1
  Te  Te153  1  0.31862402  0.75914000  0.85250836  1
  Te  Te154  1  0.44051598  0.68137598  0.85250836  1
  Te  Te155  1  0.24086000  0.55948402  0.85250836  1
  Te  Te156  1  0.66304049  0.00000000  0.86615024  1
  Te  Te157  1  0.00000000  0.66304049  0.86615024  1
  Te  Te158  1  0.33695951  0.33695951  0.86615024  1
  Te  Te159  1  0.66304049  0.00000000  0.13384976  1
  Te  Te160  1  0.00000000  0.66304049  0.13384976  1
  Te  Te161  1  0.33695951  0.33695951  0.13384976  1
  Te  Te162  1  0.07036162  0.52841838  0.50000000  1
  Te  Te163  1  0.47158162  0.54194324  0.50000000  1
  Te  Te164  1  0.45805676  0.92963838  0.50000000  1
  Te  Te165  1  0.52841838  0.07036162  0.50000000  1
  Te  Te166  1  0.54194324  0.47158162  0.50000000  1
  Te  Te167  1  0.92963838  0.45805676  0.50000000  1
