# generated using pymatgen
data_LiF
_symmetry_space_group_name_H-M   'P 1'
_cell_length_a   9.52615053
_cell_length_b   9.52615053
_cell_length_c   19.40415699
_cell_angle_alpha   90.00000000
_cell_angle_beta   90.00000000
_cell_angle_gamma   90.00000000
_symmetry_Int_Tables_number   1
_chemical_formula_structural   LiF
_chemical_formula_sum   'Li64 F64'
_cell_volume   1760.87958662
_cell_formula_units_Z   64
loop_
 _symmetry_equiv_pos_site_id
 _symmetry_equiv_pos_as_xyz
  1  'x, y, z'
loop_
 _atom_site_type_symbol
 _atom_site_label
 _atom_site_symmetry_multiplicity
 _atom_site_fract_x
 _atom_site_fract_y
 _atom_site_fract_z
 _atom_site_occupancy
  F  F0  1  0.40300464  0.88214724  0.29665956  1
  F  F1  1  0.09699536  -0.88214724  0.79665956  1
  F  F2  1  -0.63214724  1.15300464  0.54665956  1
  F  F3  1  1.13214724  -0.15300464  1.04665956  1
  F  F4  1  0.09699536  0.88214724  -0.29665956  1
  F  F5  1  0.40300464  -0.88214724  0.20334044  1
  F  F6  1  1.13214724  1.15300464  0.45334044  1
  F  F7  1  -0.63214724  -0.15300464  -0.04665956  1
  F  F8  1  -0.40300464  -0.88214724  -0.29665956  1
  F  F9  1  0.90300464  0.88214724  0.20334044  1
  F  F10  1  1.63214724  -0.15300464  0.45334044  1
  F  F11  1  -0.13214724  1.15300464  -0.04665956  1
  F  F12  1  0.90300464  -0.88214724  0.29665956  1
  F  F13  1  -0.40300464  0.88214724  0.79665956  1
  F  F14  1  -0.13214724  -0.15300464  0.54665956  1
  F  F15  1  1.63214724  1.15300464  1.04665956  1
  F  F16  1  0.90300464  1.38214724  0.79665956  1
  F  F17  1  0.59699536  -0.38214724  1.29665956  1
  F  F18  1  -0.13214724  1.65300464  1.04665956  1
  F  F19  1  1.63214724  0.34699536  1.54665956  1
  F  F20  1  0.59699536  1.38214724  0.20334044  1
  F  F21  1  0.90300464  -0.38214724  0.70334044  1
  F  F22  1  1.63214724  1.65300464  0.95334044  1
  F  F23  1  -0.13214724  0.34699536  0.45334044  1
  F  F24  1  0.09699536  -0.38214724  0.20334044  1
  F  F25  1  1.40300464  1.38214724  0.70334044  1
  F  F26  1  2.13214724  0.34699536  0.95334044  1
  F  F27  1  0.36785276  1.65300464  0.45334044  1
  F  F28  1  1.40300464  -0.38214724  0.79665956  1
  F  F29  1  0.09699536  1.38214724  1.29665956  1
  F  F30  1  0.36785276  0.34699536  1.04665956  1
  F  F31  1  2.13214724  1.65300464  1.54665956  1
  F  F32  1  0.95723981  0.60722540  0.62531534  1
  F  F33  1  0.54276019  0.39277460  0.12531534  1
  F  F34  1  0.64277460  0.70723981  0.87531534  1
  F  F35  1  0.85722540  0.29276019  0.37531534  1
  F  F36  1  0.54276019  0.60722540  0.37468466  1
  F  F37  1  0.95723981  0.39277460  0.87468466  1
  F  F38  1  0.85722540  0.70723981  0.12468466  1
  F  F39  1  0.64277460  0.29276019  0.62468466  1
  F  F40  1  0.04276019  0.39277460  0.37468466  1
  F  F41  1  0.45723981  0.60722540  0.87468466  1
  F  F42  1  0.35722540  0.29276019  0.12468466  1
  F  F43  1  0.14277460  0.70723981  0.62468466  1
  F  F44  1  0.45723981  0.39277460  0.62531534  1
  F  F45  1  0.04276019  0.60722540  0.12531534  1
  F  F46  1  0.14277460  0.29276019  0.87531534  1
  F  F47  1  0.35722540  0.70723981  0.37531534  1
  F  F48  1  0.45723981  0.10722540  0.12531534  1
  F  F49  1  0.04276019  0.89277460  0.62531534  1
  F  F50  1  0.14277460  0.20723981  0.37531534  1
  F  F51  1  0.35722540  0.79276019  0.87531534  1
  F  F52  1  0.04276019  0.10722540  0.87468466  1
  F  F53  1  0.45723981  0.89277460  0.37468466  1
  F  F54  1  0.35722540  0.20723981  0.62468466  1
  F  F55  1  0.14277460  0.79276019  0.12468466  1
  F  F56  1  0.54276019  0.89277460  0.87468466  1
  F  F57  1  0.95723981  0.10722540  0.37468466  1
  F  F58  1  0.85722540  0.79276019  0.62468466  1
  F  F59  1  0.64277460  0.20723981  0.12468466  1
  F  F60  1  0.95723981  0.89277460  0.12531534  1
  F  F61  1  0.54276019  0.10722540  0.62531534  1
  F  F62  1  0.64277460  0.79276019  0.37531534  1
  F  F63  1  0.85722540  0.20723981  0.87531534  1
  Li  Li64  1  0.00000000  0.25000000  0.37500000  1
  Li  Li65  1  0.00000000  0.75000000  0.62500000  1
  Li  Li66  1  0.50000000  0.25000000  0.62500000  1
  Li  Li67  1  0.50000000  0.75000000  0.37500000  1
  Li  Li68  1  0.50000000  0.75000000  0.87500000  1
  Li  Li69  1  0.50000000  0.25000000  0.12500000  1
  Li  Li70  1  0.00000000  0.75000000  0.12500000  1
  Li  Li71  1  0.00000000  0.25000000  0.87500000  1
  Li  Li72  1  0.58371581  -0.00000000  0.25000000  1
  Li  Li73  1  0.91628419  0.00000000  0.75000000  1
  Li  Li74  1  0.25000000  0.33371581  0.50000000  1
  Li  Li75  1  0.25000000  0.66628419  0.00000000  1
  Li  Li76  1  0.41628419  0.00000000  0.75000000  1
  Li  Li77  1  0.08371581  0.00000000  0.25000000  1
  Li  Li78  1  0.75000000  0.66628419  0.50000000  1
  Li  Li79  1  0.75000000  0.33371581  0.00000000  1
  Li  Li80  1  0.08371581  0.50000000  0.75000000  1
  Li  Li81  1  0.41628419  0.50000000  0.25000000  1
  Li  Li82  1  0.75000000  0.83371581  0.00000000  1
  Li  Li83  1  0.75000000  0.16628419  0.50000000  1
  Li  Li84  1  0.91628419  0.50000000  0.25000000  1
  Li  Li85  1  0.58371581  0.50000000  0.75000000  1
  Li  Li86  1  0.25000000  0.16628419  -0.00000000  1
  Li  Li87  1  0.25000000  0.83371581  0.50000000  1
  Li  Li88  1  0.00000000  0.00000000  0.00000000  1
  Li  Li89  1  0.50000000  0.00000000  0.50000000  1
  Li  Li90  1  0.25000000  0.75000000  0.25000000  1
  Li  Li91  1  0.25000000  0.25000000  0.75000000  1
  Li  Li92  1  0.50000000  0.00000000  0.00000000  1
  Li  Li93  1  0.00000000  0.00000000  0.50000000  1
  Li  Li94  1  0.25000000  0.75000000  0.75000000  1
  Li  Li95  1  0.25000000  0.25000000  0.25000000  1
  Li  Li96  1  0.50000000  0.50000000  0.50000000  1
  Li  Li97  1  0.00000000  0.50000000  0.00000000  1
  Li  Li98  1  0.75000000  0.25000000  0.75000000  1
  Li  Li99  1  0.75000000  0.75000000  0.25000000  1
  Li  Li100  1  0.00000000  0.50000000  0.50000000  1
  Li  Li101  1  0.50000000  0.50000000  0.00000000  1
  Li  Li102  1  0.75000000  0.25000000  0.25000000  1
  Li  Li103  1  0.75000000  0.75000000  0.75000000  1
  Li  Li104  1  0.00000000  0.25000000  0.12500000  1
  Li  Li105  1  0.00000000  0.75000000  0.37500000  1
  Li  Li106  1  0.00000000  0.75000000  0.87500000  1
  Li  Li107  1  0.00000000  0.25000000  0.62500000  1
  Li  Li108  1  0.50000000  0.75000000  0.62500000  1
  Li  Li109  1  0.50000000  0.25000000  0.87500000  1
  Li  Li110  1  0.50000000  0.25000000  0.37500000  1
  Li  Li111  1  0.50000000  0.75000000  0.12500000  1
  Li  Li112  1  0.00000000  0.25000000  0.98898764  1
  Li  Li113  1  0.00000000  0.75000000  0.23898764  1
  Li  Li114  1  0.50000000  0.25000000  0.01101236  1
  Li  Li115  1  0.50000000  0.75000000  0.76101236  1
  Li  Li116  1  0.00000000  0.75000000  0.01101236  1
  Li  Li117  1  0.00000000  0.25000000  0.76101236  1
  Li  Li118  1  0.50000000  0.75000000  0.98898764  1
  Li  Li119  1  0.50000000  0.25000000  0.23898764  1
  Li  Li120  1  0.50000000  0.75000000  0.48898764  1
  Li  Li121  1  0.50000000  0.25000000  0.73898764  1
  Li  Li122  1  0.00000000  0.75000000  0.51101236  1
  Li  Li123  1  0.00000000  0.25000000  0.26101236  1
  Li  Li124  1  0.50000000  0.25000000  0.51101236  1
  Li  Li125  1  0.50000000  0.75000000  0.26101236  1
  Li  Li126  1  0.00000000  0.25000000  0.48898764  1
  Li  Li127  1  0.00000000  0.75000000  0.73898764  1
