# generated using pymatgen
data_K4Li6Ti(Se2F3)2
_symmetry_space_group_name_H-M   'P 1'
_cell_length_a   20.62371581
_cell_length_b   11.17927081
_cell_length_c   9.31797401
_cell_angle_alpha   90.00000000
_cell_angle_beta   90.00000000
_cell_angle_gamma   90.00000000
_symmetry_Int_Tables_number   1
_chemical_formula_structural   K4Li6Ti(Se2F3)2
_chemical_formula_sum   'K16 Li24 Ti4 Se16 F24'
_cell_volume   2148.33442310
_cell_formula_units_Z   4
loop_
 _symmetry_equiv_pos_site_id
 _symmetry_equiv_pos_as_xyz
  1  'x, y, z'
loop_
 _atom_site_type_symbol
 _atom_site_label
 _atom_site_symmetry_multiplicity
 _atom_site_fract_x
 _atom_site_fract_y
 _atom_site_fract_z
 _atom_site_occupancy
  F  F0  1  0.14728165  0.32607881  0.43643863  1
  F  F1  1  0.35271835  0.67392119  0.93643863  1
  F  F2  1  0.85271835  0.82607881  0.56356137  1
  F  F3  1  0.64728165  0.17392119  0.06356137  1
  F  F4  1  0.85271835  0.67392119  0.56356137  1
  F  F5  1  0.64728165  0.32607881  0.06356137  1
  F  F6  1  0.14728165  0.17392119  0.43643863  1
  F  F7  1  0.35271835  0.82607881  0.93643863  1
  F  F8  1  0.86791735  0.25000000  0.43124018  1
  F  F9  1  0.63208265  0.75000000  0.93124018  1
  F  F10  1  0.13208265  0.75000000  0.56875982  1
  F  F11  1  0.36791735  0.25000000  0.06875982  1
  F  F12  1  0.97601106  0.87772755  0.55631054  1
  F  F13  1  0.52398894  0.12227245  0.05631054  1
  F  F14  1  0.02398894  0.37772755  0.44368946  1
  F  F15  1  0.47601106  0.62227245  0.94368946  1
  F  F16  1  0.02398894  0.12227245  0.44368946  1
  F  F17  1  0.47601106  0.87772755  0.94368946  1
  F  F18  1  0.97601106  0.62227245  0.55631054  1
  F  F19  1  0.52398894  0.37772755  0.05631054  1
  F  F20  1  0.33554958  0.25000000  0.48789640  1
  F  F21  1  0.16445042  0.75000000  0.98789640  1
  F  F22  1  0.66445042  0.75000000  0.51210360  1
  F  F23  1  0.83554958  0.25000000  0.01210360  1
  K  K24  1  0.80470018  0.25000000  0.23240470  1
  K  K25  1  0.69529982  0.75000000  0.73240470  1
  K  K26  1  0.19529982  0.75000000  0.76759530  1
  K  K27  1  0.30470018  0.25000000  0.26759530  1
  K  K28  1  0.84398412  0.25000000  0.76513803  1
  K  K29  1  0.65601588  0.75000000  0.26513803  1
  K  K30  1  0.15601588  0.75000000  0.23486197  1
  K  K31  1  0.34398412  0.25000000  0.73486197  1
  K  K32  1  0.54988994  0.25000000  0.45566154  1
  K  K33  1  0.95011006  0.75000000  0.95566154  1
  K  K34  1  0.45011006  0.75000000  0.54433846  1
  K  K35  1  0.04988994  0.25000000  0.04433846  1
  K  K36  1  0.00000000  0.00000000  0.00000000  1
  K  K37  1  0.50000000  0.00000000  0.50000000  1
  K  K38  1  0.00000000  0.50000000  0.00000000  1
  K  K39  1  0.50000000  0.50000000  0.50000000  1
  Li  Li40  1  0.04430417  0.25000000  0.76050860  1
  Li  Li41  1  0.45569583  0.75000000  0.26050860  1
  Li  Li42  1  0.95569583  0.75000000  0.23949140  1
  Li  Li43  1  0.54430417  0.25000000  0.73949140  1
  Li  Li44  1  0.59592831  0.25000000  0.06713272  1
  Li  Li45  1  0.90407169  0.75000000  0.56713272  1
  Li  Li46  1  0.40407169  0.75000000  0.93286728  1
  Li  Li47  1  0.09592831  0.25000000  0.43286728  1
  Li  Li48  1  0.89241108  0.97650803  0.98724458  1
  Li  Li49  1  -0.39241108  -0.97650803  1.48724458  1
  Li  Li50  1  -0.89241108  1.47650803  -0.98724458  1
  Li  Li51  1  1.39241108  -0.47650803  -0.48724458  1
  Li  Li52  1  -0.89241108  -0.97650803  -0.98724458  1
  Li  Li53  1  1.39241108  0.97650803  -0.48724458  1
  Li  Li54  1  0.89241108  -0.47650803  0.98724458  1
  Li  Li55  1  -0.39241108  1.47650803  1.48724458  1
  Li  Li56  1  0.01976217  0.25000000  0.58161466  1
  Li  Li57  1  0.48023783  0.75000000  0.08161466  1
  Li  Li58  1  0.98023783  0.75000000  0.41838534  1
  Li  Li59  1  0.51976217  0.25000000  0.91838534  1
  Li  Li60  1  0.00000000  0.00000000  0.50000000  1
  Li  Li61  1  0.50000000  0.00000000  0.00000000  1
  Li  Li62  1  0.00000000  0.50000000  0.50000000  1
  Li  Li63  1  0.50000000  0.50000000  -0.00000000  1
  Se  Se64  1  0.23217348  0.25000000  0.87490035  1
  Se  Se65  1  0.26782652  0.75000000  0.37490035  1
  Se  Se66  1  0.76782652  0.75000000  0.12509965  1
  Se  Se67  1  0.73217348  0.25000000  0.62509965  1
  Se  Se68  1  0.91372333  0.25000000  0.94324605  1
  Se  Se69  1  0.58627667  0.75000000  0.44324605  1
  Se  Se70  1  0.08627667  0.75000000  0.05675395  1
  Se  Se71  1  0.41372333  0.25000000  0.55675395  1
  Se  Se72  1  0.02850697  0.25000000  0.22721628  1
  Se  Se73  1  0.47149303  0.75000000  0.72721628  1
  Se  Se74  1  0.97149303  0.75000000  0.77278372  1
  Se  Se75  1  0.52850697  0.25000000  0.27278372  1
  Se  Se76  1  0.16211169  0.25000000  0.18319568  1
  Se  Se77  1  0.33788831  0.75000000  0.68319568  1
  Se  Se78  1  0.83788831  0.75000000  0.81680432  1
  Se  Se79  1  0.66211169  0.25000000  0.31680432  1
  Ti  Ti80  1  0.20384075  0.25000000  0.41725700  1
  Ti  Ti81  1  0.29615925  0.75000000  0.91725700  1
  Ti  Ti82  1  0.79615925  0.75000000  0.58274300  1
  Ti  Ti83  1  0.70384075  0.25000000  0.08274300  1
