# generated using pymatgen
data_Li2Y2Mo2As4P3
_symmetry_space_group_name_H-M   'P 1'
_cell_length_a   4.77214613
_cell_length_b   4.94073692
_cell_length_c   6.81647515
_cell_angle_alpha   94.68655115
_cell_angle_beta   100.44447653
_cell_angle_gamma   109.11155673
_symmetry_Int_Tables_number   1
_chemical_formula_structural   Li2Y2Mo2As4P3
_chemical_formula_sum   'Li2 Y2 Mo2 As4 P3'
_cell_volume   147.61306311
_cell_formula_units_Z   1
loop_
 _symmetry_equiv_pos_site_id
 _symmetry_equiv_pos_as_xyz
  1  'x, y, z'
loop_
 _atom_site_type_symbol
 _atom_site_label
 _atom_site_symmetry_multiplicity
 _atom_site_fract_x
 _atom_site_fract_y
 _atom_site_fract_z
 _atom_site_occupancy
  P  P0  1  0.00000000  0.00000000  0.00000000  1
  P  P1  1  0.50000000  0.50000000  0.50000000  1
  P  P2  1  0.25000000  0.25000000  0.25000000  1
  Mo  Mo3  1  0.75000000  0.25000000  0.00000000  1
  Mo  Mo4  1  0.25000000  0.75000000  0.50000000  1
  As  As5  1  0.68369949  0.94310230  0.28925161  1
  As  As6  1  0.55782372  0.00122386  0.29657598  1
  As  As7  1  0.80964586  0.54459769  0.66386296  1
  As  As8  1  0.25744086  0.72016467  0.31218967  1
  Li  Li9  1  0.47329401  0.52349739  0.01045314  1
  Li  Li10  1  0.20061923  0.79064079  0.64665088  1
  Y  Y11  1  0.54194628  0.56734563  0.13741575  1
  Y  Y12  1  0.70139217  0.21220302  0.86802834  1
