# generated using pymatgen
data_LiY2Cu3P2
_symmetry_space_group_name_H-M   'P 1'
_cell_length_a   4.48200663
_cell_length_b   4.65336755
_cell_length_c   6.81527101
_cell_angle_alpha   95.63407891
_cell_angle_beta   101.91042784
_cell_angle_gamma   112.06618266
_symmetry_Int_Tables_number   1
_chemical_formula_structural   LiY2Cu3P2
_chemical_formula_sum   'Li1 Y2 Cu3 P2'
_cell_volume   126.45151004
_cell_formula_units_Z   1
loop_
 _symmetry_equiv_pos_site_id
 _symmetry_equiv_pos_as_xyz
  1  'x, y, z'
loop_
 _atom_site_type_symbol
 _atom_site_label
 _atom_site_symmetry_multiplicity
 _atom_site_fract_x
 _atom_site_fract_y
 _atom_site_fract_z
 _atom_site_occupancy
  Cu  Cu0  1  0.12500000  0.12500000  0.12500000  1
  Cu  Cu1  1  0.50000000  0.50000000  0.50000000  1
  Cu  Cu2  1  0.25000000  0.25000000  0.25000000  1
  Y  Y3  1  0.75000000  0.75000000  0.75000000  1
  Y  Y4  1  0.05569824  0.58358124  0.58407066  1
  P  P5  1  0.93835492  0.76486952  0.47124104  1
  P  P6  1  0.01881646  0.09155788  0.88944993  1
  Li  Li7  1  0.45199824  0.73561209  0.30740886  1
