# generated using pymatgen
data_LiBO2
_symmetry_space_group_name_H-M   'P 1'
_cell_length_a   15.00501216
_cell_length_b   15.00501216
_cell_length_c   15.00501216
_cell_angle_alpha   90.00000000
_cell_angle_beta   90.00000000
_cell_angle_gamma   90.00000000
_symmetry_Int_Tables_number   1
_chemical_formula_structural   LiBO2
_chemical_formula_sum   'Li48 B48 O96'
_cell_volume   3378.38433840
_cell_formula_units_Z   48
loop_
 _symmetry_equiv_pos_site_id
 _symmetry_equiv_pos_as_xyz
  1  'x, y, z'
loop_
 _atom_site_type_symbol
 _atom_site_label
 _atom_site_symmetry_multiplicity
 _atom_site_fract_x
 _atom_site_fract_y
 _atom_site_fract_z
 _atom_site_occupancy
  B  B0  1  0.29677053  0.12404172  0.76385404  1
  B  B1  1  0.20322947  0.87595828  0.26385404  1
  B  B2  1  0.70322947  0.62404172  0.73614596  1
  B  B3  1  0.79677053  0.37595828  0.23614596  1
  B  B4  1  0.76385404  0.29677053  0.12404172  1
  B  B5  1  0.26385404  0.20322947  0.87595828  1
  B  B6  1  0.73614596  0.70322947  0.62404172  1
  B  B7  1  0.23614596  0.79677053  0.37595828  1
  B  B8  1  0.12404172  0.76385404  0.29677053  1
  B  B9  1  0.87595828  0.26385404  0.20322947  1
  B  B10  1  0.62404172  0.73614596  0.70322947  1
  B  B11  1  0.37595828  0.23614596  0.79677053  1
  B  B12  1  0.87404172  0.54677053  0.48614596  1
  B  B13  1  0.62595828  0.45322947  0.98614596  1
  B  B14  1  0.37404172  0.95322947  0.51385404  1
  B  B15  1  0.12595828  0.04677053  0.01385404  1
  B  B16  1  0.04677053  0.01385404  0.12595828  1
  B  B17  1  0.95322947  0.51385404  0.37404172  1
  B  B18  1  0.45322947  0.98614596  0.62595828  1
  B  B19  1  0.54677053  0.48614596  0.87404172  1
  B  B20  1  0.51385404  0.37404172  0.95322947  1
  B  B21  1  0.01385404  0.12595828  0.04677053  1
  B  B22  1  0.48614596  0.87404172  0.54677053  1
  B  B23  1  0.98614596  0.62595828  0.45322947  1
  B  B24  1  0.79677053  0.62404172  0.26385404  1
  B  B25  1  0.70322947  0.37595828  0.76385404  1
  B  B26  1  0.20322947  0.12404172  0.23614596  1
  B  B27  1  0.29677053  0.87595828  0.73614596  1
  B  B28  1  0.26385404  0.79677053  0.62404172  1
  B  B29  1  0.76385404  0.70322947  0.37595828  1
  B  B30  1  0.23614596  0.20322947  0.12404172  1
  B  B31  1  0.73614596  0.29677053  0.87595828  1
  B  B32  1  0.62404172  0.26385404  0.79677053  1
  B  B33  1  0.37595828  0.76385404  0.70322947  1
  B  B34  1  0.12404172  0.23614596  0.20322947  1
  B  B35  1  0.87595828  0.73614596  0.29677053  1
  B  B36  1  0.37404172  0.04677053  0.98614596  1
  B  B37  1  0.12595828  0.95322947  0.48614596  1
  B  B38  1  0.87404172  0.45322947  0.01385404  1
  B  B39  1  0.62595828  0.54677053  0.51385404  1
  B  B40  1  0.54677053  0.51385404  0.62595828  1
  B  B41  1  0.45322947  0.01385404  0.87404172  1
  B  B42  1  0.95322947  0.48614596  0.12595828  1
  B  B43  1  0.04677053  0.98614596  0.37404172  1
  B  B44  1  0.01385404  0.87404172  0.45322947  1
  B  B45  1  0.51385404  0.62595828  0.54677053  1
  B  B46  1  0.98614596  0.37404172  0.04677053  1
  B  B47  1  0.48614596  0.12595828  0.95322947  1
  Li  Li48  1  0.67971488  0.34193472  0.70010088  1
  Li  Li49  1  0.82028512  0.65806528  0.20010088  1
  Li  Li50  1  0.32028512  0.84193472  0.79989912  1
  Li  Li51  1  0.17971488  0.15806528  0.29989912  1
  Li  Li52  1  0.70010088  0.67971488  0.34193472  1
  Li  Li53  1  0.20010088  0.82028512  0.65806528  1
  Li  Li54  1  0.79989912  0.32028512  0.84193472  1
  Li  Li55  1  0.29989912  0.17971488  0.15806528  1
  Li  Li56  1  0.34193472  0.70010088  0.67971488  1
  Li  Li57  1  0.65806528  0.20010088  0.82028512  1
  Li  Li58  1  0.84193472  0.79989912  0.32028512  1
  Li  Li59  1  0.15806528  0.29989912  0.17971488  1
  Li  Li60  1  0.09193472  0.92971488  0.54989912  1
  Li  Li61  1  0.40806528  0.07028512  0.04989912  1
  Li  Li62  1  0.59193472  0.57028512  0.45010088  1
  Li  Li63  1  0.90806528  0.42971488  0.95010088  1
  Li  Li64  1  0.42971488  0.95010088  0.90806528  1
  Li  Li65  1  0.57028512  0.45010088  0.59193472  1
  Li  Li66  1  0.07028512  0.04989912  0.40806528  1
  Li  Li67  1  0.92971488  0.54989912  0.09193472  1
  Li  Li68  1  0.45010088  0.59193472  0.57028512  1
  Li  Li69  1  0.95010088  0.90806528  0.42971488  1
  Li  Li70  1  0.54989912  0.09193472  0.92971488  1
  Li  Li71  1  0.04989912  0.40806528  0.07028512  1
  Li  Li72  1  0.17971488  0.84193472  0.20010088  1
  Li  Li73  1  0.32028512  0.15806528  0.70010088  1
  Li  Li74  1  0.82028512  0.34193472  0.29989912  1
  Li  Li75  1  0.67971488  0.65806528  0.79989912  1
  Li  Li76  1  0.20010088  0.17971488  0.84193472  1
  Li  Li77  1  0.70010088  0.32028512  0.15806528  1
  Li  Li78  1  0.29989912  0.82028512  0.34193472  1
  Li  Li79  1  0.79989912  0.67971488  0.65806528  1
  Li  Li80  1  0.84193472  0.20010088  0.17971488  1
  Li  Li81  1  0.15806528  0.70010088  0.32028512  1
  Li  Li82  1  0.34193472  0.29989912  0.82028512  1
  Li  Li83  1  0.65806528  0.79989912  0.67971488  1
  Li  Li84  1  0.59193472  0.42971488  0.04989912  1
  Li  Li85  1  0.90806528  0.57028512  0.54989912  1
  Li  Li86  1  0.09193472  0.07028512  0.95010088  1
  Li  Li87  1  0.40806528  0.92971488  0.45010088  1
  Li  Li88  1  0.92971488  0.45010088  0.40806528  1
  Li  Li89  1  0.07028512  0.95010088  0.09193472  1
  Li  Li90  1  0.57028512  0.54989912  0.90806528  1
  Li  Li91  1  0.42971488  0.04989912  0.59193472  1
  Li  Li92  1  0.95010088  0.09193472  0.07028512  1
  Li  Li93  1  0.45010088  0.40806528  0.92971488  1
  Li  Li94  1  0.04989912  0.59193472  0.42971488  1
  Li  Li95  1  0.54989912  0.90806528  0.57028512  1
  O  O96  1  0.99013193  0.99013193  0.99013193  1
  O  O97  1  0.50986807  0.00986807  0.49013193  1
  O  O98  1  0.00986807  0.49013193  0.50986807  1
  O  O99  1  0.49013193  0.50986807  0.00986807  1
  O  O100  1  0.74013193  0.24013193  0.25986807  1
  O  O101  1  0.75986807  0.75986807  0.75986807  1
  O  O102  1  0.24013193  0.25986807  0.74013193  1
  O  O103  1  0.25986807  0.74013193  0.24013193  1
  O  O104  1  0.49013193  0.49013193  0.49013193  1
  O  O105  1  0.00986807  0.50986807  0.99013193  1
  O  O106  1  0.50986807  0.99013193  0.00986807  1
  O  O107  1  0.99013193  0.00986807  0.50986807  1
  O  O108  1  0.24013193  0.74013193  0.75986807  1
  O  O109  1  0.25986807  0.25986807  0.25986807  1
  O  O110  1  0.74013193  0.75986807  0.24013193  1
  O  O111  1  0.75986807  0.24013193  0.74013193  1
  O  O112  1  0.30403288  0.40590907  0.77248266  1
  O  O113  1  0.19596712  -0.40590907  1.27248266  1
  O  O114  1  -0.30403288  0.90590907  -0.27248266  1
  O  O115  1  0.80403288  0.09409093  -0.77248266  1
  O  O116  1  0.77248266  0.30403288  0.40590907  1
  O  O117  1  1.27248266  0.19596712  -0.40590907  1
  O  O118  1  -0.27248266  -0.30403288  0.90590907  1
  O  O119  1  -0.77248266  0.80403288  0.09409093  1
  O  O120  1  0.40590907  0.77248266  0.30403288  1
  O  O121  1  -0.40590907  1.27248266  0.19596712  1
  O  O122  1  0.90590907  -0.27248266  -0.30403288  1
  O  O123  1  0.09409093  -0.77248266  0.80403288  1
  O  O124  1  1.15590907  0.55403288  -0.52248266  1
  O  O125  1  0.34409093  0.44596712  -0.02248266  1
  O  O126  1  0.65590907  -0.05403288  1.52248266  1
  O  O127  1  -0.15590907  1.05403288  1.02248266  1
  O  O128  1  1.05403288  1.02248266  -0.15590907  1
  O  O129  1  -0.05403288  1.52248266  0.65590907  1
  O  O130  1  0.44596712  -0.02248266  0.34409093  1
  O  O131  1  0.55403288  -0.52248266  1.15590907  1
  O  O132  1  1.52248266  0.65590907  -0.05403288  1
  O  O133  1  1.02248266  -0.15590907  1.05403288  1
  O  O134  1  -0.52248266  1.15590907  0.55403288  1
  O  O135  1  -0.02248266  0.34409093  0.44596712  1
  O  O136  1  0.80403288  0.90590907  1.27248266  1
  O  O137  1  0.69596712  0.09409093  1.77248266  1
  O  O138  1  0.19596712  1.40590907  0.22751734  1
  O  O139  1  1.30403288  0.59409093  -0.27248266  1
  O  O140  1  1.27248266  0.80403288  0.90590907  1
  O  O141  1  1.77248266  0.69596712  0.09409093  1
  O  O142  1  0.22751734  0.19596712  1.40590907  1
  O  O143  1  -0.27248266  1.30403288  0.59409093  1
  O  O144  1  0.90590907  1.27248266  0.80403288  1
  O  O145  1  0.09409093  1.77248266  0.69596712  1
  O  O146  1  1.40590907  0.22751734  0.19596712  1
  O  O147  1  0.59409093  -0.27248266  1.30403288  1
  O  O148  1  1.65590907  1.05403288  -0.02248266  1
  O  O149  1  0.84409093  0.94596712  0.47751734  1
  O  O150  1  1.15590907  0.44596712  2.02248266  1
  O  O151  1  0.34409093  1.55403288  1.52248266  1
  O  O152  1  1.55403288  1.52248266  0.34409093  1
  O  O153  1  0.44596712  2.02248266  1.15590907  1
  O  O154  1  0.94596712  0.47751734  0.84409093  1
  O  O155  1  1.05403288  -0.02248266  1.65590907  1
  O  O156  1  2.02248266  1.15590907  0.44596712  1
  O  O157  1  1.52248266  0.34409093  1.55403288  1
  O  O158  1  -0.02248266  1.65590907  1.05403288  1
  O  O159  1  0.47751734  0.84409093  0.94596712  1
  O  O160  1  0.12500000  0.42286565  0.67286565  1
  O  O161  1  0.37500000  0.57713435  0.17286565  1
  O  O162  1  0.87500000  0.92286565  0.82713435  1
  O  O163  1  0.62500000  0.07713435  0.32713435  1
  O  O164  1  0.67286565  0.12500000  0.42286565  1
  O  O165  1  0.17286565  0.37500000  0.57713435  1
  O  O166  1  0.82713435  0.87500000  0.92286565  1
  O  O167  1  0.32713435  0.62500000  0.07713435  1
  O  O168  1  0.42286565  0.67286565  0.12500000  1
  O  O169  1  0.57713435  0.17286565  0.37500000  1
  O  O170  1  0.92286565  0.82713435  0.87500000  1
  O  O171  1  0.07713435  0.32713435  0.62500000  1
  O  O172  1  0.62500000  0.92286565  0.17286565  1
  O  O173  1  0.87500000  0.07713435  0.67286565  1
  O  O174  1  0.37500000  0.42286565  0.32713435  1
  O  O175  1  0.12500000  0.57713435  0.82713435  1
  O  O176  1  0.17286565  0.62500000  0.92286565  1
  O  O177  1  0.67286565  0.87500000  0.07713435  1
  O  O178  1  0.32713435  0.37500000  0.42286565  1
  O  O179  1  0.82713435  0.12500000  0.57713435  1
  O  O180  1  0.92286565  0.17286565  0.62500000  1
  O  O181  1  0.07713435  0.67286565  0.87500000  1
  O  O182  1  0.42286565  0.32713435  0.37500000  1
  O  O183  1  0.57713435  0.82713435  0.12500000  1
  O  O184  1  0.12500000  0.12500000  0.12500000  1
  O  O185  1  0.37500000  0.87500000  0.62500000  1
  O  O186  1  0.87500000  0.62500000  0.37500000  1
  O  O187  1  0.62500000  0.37500000  0.87500000  1
  O  O188  1  0.62500000  0.62500000  0.62500000  1
  O  O189  1  0.87500000  0.37500000  0.12500000  1
  O  O190  1  0.37500000  0.12500000  0.87500000  1
  O  O191  1  0.12500000  0.87500000  0.37500000  1
