# generated using pymatgen
data_LiF
_symmetry_space_group_name_H-M   'P 1'
_cell_length_a   13.48411249
_cell_length_b   5.56545295
_cell_length_c   9.52239115
_cell_angle_alpha   90.00000000
_cell_angle_beta   90.00000000
_cell_angle_gamma   90.00000000
_symmetry_Int_Tables_number   1
_chemical_formula_structural   LiF
_chemical_formula_sum   'Li24 F24'
_cell_volume   714.60968795
_cell_formula_units_Z   24
loop_
 _symmetry_equiv_pos_site_id
 _symmetry_equiv_pos_as_xyz
  1  'x, y, z'
loop_
 _atom_site_type_symbol
 _atom_site_label
 _atom_site_symmetry_multiplicity
 _atom_site_fract_x
 _atom_site_fract_y
 _atom_site_fract_z
 _atom_site_occupancy
  F  F0  1  0.55595356  0.47949633  0.07621293  1
  F  F1  1  -0.05595356  -0.47949633  0.57621293  1
  F  F2  1  -0.55595356  0.97949633  -0.07621293  1
  F  F3  1  1.05595356  0.02050367  0.42378707  1
  F  F4  1  -0.55595356  -0.47949633  -0.07621293  1
  F  F5  1  1.05595356  0.47949633  0.42378707  1
  F  F6  1  0.55595356  0.02050367  0.07621293  1
  F  F7  1  -0.05595356  0.97949633  0.57621293  1
  F  F8  1  0.75107394  0.25000000  0.61810018  1
  F  F9  1  0.74892606  0.75000000  0.11810018  1
  F  F10  1  0.24892606  0.75000000  0.38189982  1
  F  F11  1  0.25107394  0.25000000  0.88189982  1
  F  F12  1  0.37084842  0.40329037  0.72906115  1
  F  F13  1  0.12915158  0.59670963  0.22906115  1
  F  F14  1  0.62915158  0.90329037  0.27093885  1
  F  F15  1  0.87084842  0.09670963  0.77093885  1
  F  F16  1  0.62915158  0.59670963  0.27093885  1
  F  F17  1  0.87084842  0.40329037  0.77093885  1
  F  F18  1  0.37084842  0.09670963  0.72906115  1
  F  F19  1  0.12915158  0.90329037  0.22906115  1
  F  F20  1  0.98014084  0.25000000  0.79119861  1
  F  F21  1  0.51985916  0.75000000  0.29119861  1
  F  F22  1  0.01985916  0.75000000  0.20880139  1
  F  F23  1  0.48014084  0.25000000  0.70880139  1
  Li  Li24  1  0.00000000  0.00000000  0.50000000  1
  Li  Li25  1  0.50000000  0.00000000  -0.00000000  1
  Li  Li26  1  0.00000000  0.50000000  0.50000000  1
  Li  Li27  1  0.50000000  0.50000000  0.00000000  1
  Li  Li28  1  0.00000000  0.00000000  0.00000000  1
  Li  Li29  1  0.50000000  0.00000000  0.50000000  1
  Li  Li30  1  0.00000000  0.50000000  0.00000000  1
  Li  Li31  1  0.50000000  0.50000000  0.50000000  1
  Li  Li32  1  0.91784266  0.25000000  0.70320997  1
  Li  Li33  1  0.58215734  0.75000000  0.20320997  1
  Li  Li34  1  0.08215734  0.75000000  0.29679003  1
  Li  Li35  1  0.41784266  0.25000000  0.79679003  1
  Li  Li36  1  0.54463710  0.25000000  0.76482168  1
  Li  Li37  1  0.95536290  0.75000000  0.26482168  1
  Li  Li38  1  0.45536290  0.75000000  0.23517832  1
  Li  Li39  1  0.04463710  0.25000000  0.73517832  1
  Li  Li40  1  0.24881501  0.25000000  0.18689298  1
  Li  Li41  1  0.25118499  0.75000000  0.68689298  1
  Li  Li42  1  0.75118499  0.75000000  0.81310702  1
  Li  Li43  1  0.74881501  0.25000000  0.31310702  1
  Li  Li44  1  0.10935370  0.25000000  0.27911111  1
  Li  Li45  1  0.39064630  0.75000000  0.77911111  1
  Li  Li46  1  0.89064630  0.75000000  0.72088889  1
  Li  Li47  1  0.60935370  0.25000000  0.22088889  1
