# generated using pymatgen
data_LiF
_symmetry_space_group_name_H-M   'P 1'
_cell_length_a   6.90023025
_cell_length_b   6.90023025
_cell_length_c   11.77109123
_cell_angle_alpha   90.00000000
_cell_angle_beta   90.00000000
_cell_angle_gamma   120.00000000
_symmetry_Int_Tables_number   1
_chemical_formula_structural   LiF
_chemical_formula_sum   'Li15 F15'
_cell_volume   485.37178076
_cell_formula_units_Z   15
loop_
 _symmetry_equiv_pos_site_id
 _symmetry_equiv_pos_as_xyz
  1  'x, y, z'
loop_
 _atom_site_type_symbol
 _atom_site_label
 _atom_site_symmetry_multiplicity
 _atom_site_fract_x
 _atom_site_fract_y
 _atom_site_fract_z
 _atom_site_occupancy
  F  F0  1  0.24179846  0.43481495  0.09186761  1
  F  F1  1  0.56518505  0.80698351  0.09186761  1
  F  F2  1  0.19301649  0.75820154  0.09186761  1
  F  F3  1  0.56518505  0.75820154  0.90813239  1
  F  F4  1  0.19301649  0.43481495  0.90813239  1
  F  F5  1  0.24179846  0.80698351  0.90813239  1
  F  F6  1  0.33333333  0.66666667  0.17429472  1
  F  F7  1  0.33333333  0.66666667  0.82570528  1
  F  F8  1  0.97280471  0.54712417  0.86831455  1
  F  F9  1  0.45287583  0.42568054  0.86831455  1
  F  F10  1  0.57431946  0.02719529  0.86831455  1
  F  F11  1  0.45287583  0.02719529  0.13168545  1
  F  F12  1  0.57431946  0.54712417  0.13168545  1
  F  F13  1  0.97280471  0.42568054  0.13168545  1
  F  F14  1  0.66666667  0.33333333  -0.00000000  1
  Li  Li15  1  0.53553203  0.25400709  0.77060315  1
  Li  Li16  1  -0.25400709  0.28152494  0.77060315  1
  Li  Li17  1  -0.28152494  -0.53553203  0.77060315  1
  Li  Li18  1  -0.25400709  -0.53553203  -0.77060315  1
  Li  Li19  1  -0.28152494  0.25400709  -0.77060315  1
  Li  Li20  1  0.53553203  0.28152494  -0.77060315  1
  Li  Li21  1  0.58041005  0.59620189  0.44629846  1
  Li  Li22  1  0.40379811  0.98420816  0.44629846  1
  Li  Li23  1  0.01579184  0.41958995  0.44629846  1
  Li  Li24  1  0.40379811  0.41958995  0.55370154  1
  Li  Li25  1  0.01579184  0.59620189  0.55370154  1
  Li  Li26  1  0.58041005  0.98420816  0.55370154  1
  Li  Li27  1  0.66666667  0.33333333  0.50000000  1
  Li  Li28  1  0.33333333  0.66666667  -0.00000000  1
  Li  Li29  1  0.00000000  0.00000000  0.50000000  1
