# generated using pymatgen
data_LiSb2PSe
_symmetry_space_group_name_H-M   'P 1'
_cell_length_a   5.29916175
_cell_length_b   5.39764351
_cell_length_c   6.39863017
_cell_angle_alpha   93.54903774
_cell_angle_beta   95.04821565
_cell_angle_gamma   100.05079063
_symmetry_Int_Tables_number   1
_chemical_formula_structural   LiSb2PSe
_chemical_formula_sum   'Li1 Sb2 P1 Se1'
_cell_volume   178.95439586
_cell_formula_units_Z   1
loop_
 _symmetry_equiv_pos_site_id
 _symmetry_equiv_pos_as_xyz
  1  'x, y, z'
loop_
 _atom_site_type_symbol
 _atom_site_label
 _atom_site_symmetry_multiplicity
 _atom_site_fract_x
 _atom_site_fract_y
 _atom_site_fract_z
 _atom_site_occupancy
  Se  Se0  1  0.00000000  0.00000000  0.00000000  1
  P  P1  1  0.50000000  0.50000000  0.50000000  1
  Li  Li2  1  0.50000000  0.50000000  0.00000000  1
  Sb  Sb3  1  0.50000000  0.00000000  0.50000000  1
  Sb  Sb4  1  0.00000000  0.50000000  0.50000000  1
