# generated using pymatgen
data_Li2Y2As4P2Se
_symmetry_space_group_name_H-M   'P 1'
_cell_length_a   5.19363891
_cell_length_b   5.27205123
_cell_length_c   6.80988222
_cell_angle_alpha   94.17668680
_cell_angle_beta   98.28958256
_cell_angle_gamma   105.51148464
_symmetry_Int_Tables_number   1
_chemical_formula_structural   Li2Y2As4P2Se
_chemical_formula_sum   'Li2 Y2 As4 P2 Se1'
_cell_volume   176.57618745
_cell_formula_units_Z   1
loop_
 _symmetry_equiv_pos_site_id
 _symmetry_equiv_pos_as_xyz
  1  'x, y, z'
loop_
 _atom_site_type_symbol
 _atom_site_label
 _atom_site_symmetry_multiplicity
 _atom_site_fract_x
 _atom_site_fract_y
 _atom_site_fract_z
 _atom_site_occupancy
  Se  Se0  1  0.00000000  0.00000000  0.00000000  1
  P  P1  1  0.50000000  0.50000000  0.50000000  1
  P  P2  1  0.25000000  0.25000000  0.25000000  1
  As  As3  1  0.75000000  0.25000000  0.00000000  1
  As  As4  1  0.25000000  0.75000000  0.50000000  1
  As  As5  1  0.30296859  0.05250264  0.99882160  1
  As  As6  1  0.65844436  0.68649108  0.73570601  1
  Li  Li7  1  0.35759113  0.17407287  0.99698340  1
  Li  Li8  1  0.39926978  0.55769094  0.77080418  1
  Y  Y9  1  0.10122638  0.75287619  0.92313709  1
  Y  Y10  1  0.93190914  0.15185601  0.88261250  1
