# generated using pymatgen
data_LiF
_symmetry_space_group_name_H-M   'P 1'
_cell_length_a   10.88885464
_cell_length_b   13.09719080
_cell_length_c   8.26038112
_cell_angle_alpha   90.00000000
_cell_angle_beta   90.00000000
_cell_angle_gamma   90.00000000
_symmetry_Int_Tables_number   1
_chemical_formula_structural   LiF
_chemical_formula_sum   'Li36 F36'
_cell_volume   1178.04109231
_cell_formula_units_Z   36
loop_
 _symmetry_equiv_pos_site_id
 _symmetry_equiv_pos_as_xyz
  1  'x, y, z'
loop_
 _atom_site_type_symbol
 _atom_site_label
 _atom_site_symmetry_multiplicity
 _atom_site_fract_x
 _atom_site_fract_y
 _atom_site_fract_z
 _atom_site_occupancy
  F  F0  1  0.61269246  0.68027471  0.92966558  1
  F  F1  1  -0.61269246  -0.68027471  0.92966558  1
  F  F2  1  -0.11269246  1.18027471  -0.92966558  1
  F  F3  1  1.11269246  -0.18027471  -0.92966558  1
  F  F4  1  -0.61269246  -0.68027471  -0.92966558  1
  F  F5  1  0.61269246  0.68027471  -0.92966558  1
  F  F6  1  1.11269246  -0.18027471  0.92966558  1
  F  F7  1  -0.11269246  1.18027471  0.92966558  1
  F  F8  1  0.00000000  0.50000000  0.39159982  1
  F  F9  1  0.50000000  0.00000000  0.60840018  1
  F  F10  1  0.00000000  0.50000000  0.60840018  1
  F  F11  1  0.50000000  0.00000000  0.39159982  1
  F  F12  1  0.12352480  0.04966636  -0.00000000  1
  F  F13  1  0.87647520  0.95033364  -0.00000000  1
  F  F14  1  0.37647520  0.54966636  -0.00000000  1
  F  F15  1  0.62352480  0.45033364  -0.00000000  1
  F  F16  1  0.68883733  0.52133963  0.50000000  1
  F  F17  1  0.31116267  0.47866037  0.50000000  1
  F  F18  1  0.81116267  0.02133963  0.50000000  1
  F  F19  1  0.18883733  0.97866037  0.50000000  1
  F  F20  1  0.00000000  0.50000000  -0.00000000  1
  F  F21  1  0.50000000  0.00000000  -0.00000000  1
  F  F22  1  0.60565802  0.55883336  0.95193446  1
  F  F23  1  0.39434198  0.44116664  0.95193446  1
  F  F24  1  0.89434198  0.05883336  0.04806554  1
  F  F25  1  0.10565802  0.94116664  0.04806554  1
  F  F26  1  0.39434198  0.44116664  0.04806554  1
  F  F27  1  0.60565802  0.55883336  0.04806554  1
  F  F28  1  0.10565802  0.94116664  0.95193446  1
  F  F29  1  0.89434198  0.05883336  0.95193446  1
  F  F30  1  0.00000000  0.00000000  0.19380847  1
  F  F31  1  0.50000000  0.50000000  0.80619153  1
  F  F32  1  0.00000000  0.00000000  0.80619153  1
  F  F33  1  0.50000000  0.50000000  0.19380847  1
  F  F34  1  0.00000000  0.50000000  0.50000000  1
  F  F35  1  0.50000000  0.00000000  0.50000000  1
  Li  Li36  1  0.00000000  0.00000000  0.32521804  1
  Li  Li37  1  0.50000000  0.50000000  0.67478196  1
  Li  Li38  1  0.00000000  0.00000000  0.67478196  1
  Li  Li39  1  0.50000000  0.50000000  0.32521804  1
  Li  Li40  1  0.79524931  0.65522057  0.76978367  1
  Li  Li41  1  0.20475069  0.34477943  0.76978367  1
  Li  Li42  1  0.70475069  0.15522057  0.23021633  1
  Li  Li43  1  0.29524931  0.84477943  0.23021633  1
  Li  Li44  1  0.20475069  0.34477943  0.23021633  1
  Li  Li45  1  0.79524931  0.65522057  0.23021633  1
  Li  Li46  1  0.29524931  0.84477943  0.76978367  1
  Li  Li47  1  0.70475069  0.15522057  0.76978367  1
  Li  Li48  1  0.00000000  0.00000000  0.50000000  1
  Li  Li49  1  0.50000000  0.50000000  0.50000000  1
  Li  Li50  1  0.40018585  0.87284579  0.91087890  1
  Li  Li51  1  0.59981415  0.12715421  0.91087890  1
  Li  Li52  1  0.09981415  0.37284579  0.08912110  1
  Li  Li53  1  0.90018585  0.62715421  0.08912110  1
  Li  Li54  1  0.59981415  0.12715421  0.08912110  1
  Li  Li55  1  0.40018585  0.87284579  0.08912110  1
  Li  Li56  1  0.90018585  0.62715421  0.91087890  1
  Li  Li57  1  0.09981415  0.37284579  0.91087890  1
  Li  Li58  1  0.00000000  0.00000000  0.00000000  1
  Li  Li59  1  0.50000000  0.50000000  -0.00000000  1
  Li  Li60  1  0.52556010  0.92420615  0.87752021  1
  Li  Li61  1  0.47443990  0.07579385  0.87752021  1
  Li  Li62  1  0.97443990  0.42420615  0.12247979  1
  Li  Li63  1  0.02556010  0.57579385  0.12247979  1
  Li  Li64  1  0.47443990  0.07579385  0.12247979  1
  Li  Li65  1  0.52556010  0.92420615  0.12247979  1
  Li  Li66  1  0.02556010  0.57579385  0.87752021  1
  Li  Li67  1  0.97443990  0.42420615  0.87752021  1
  Li  Li68  1  0.61939946  0.63192428  0.50000000  1
  Li  Li69  1  0.38060054  0.36807572  0.50000000  1
  Li  Li70  1  0.88060054  0.13192428  0.50000000  1
  Li  Li71  1  0.11939946  0.86807572  0.50000000  1
