# generated using pymatgen
data_LiF
_symmetry_space_group_name_H-M   'P 1'
_cell_length_a   7.21905241
_cell_length_b   10.71173610
_cell_length_c   9.15183450
_cell_angle_alpha   90.00000000
_cell_angle_beta   90.00000000
_cell_angle_gamma   90.00000000
_symmetry_Int_Tables_number   1
_chemical_formula_structural   LiF
_chemical_formula_sum   'Li24 F24'
_cell_volume   707.69840484
_cell_formula_units_Z   24
loop_
 _symmetry_equiv_pos_site_id
 _symmetry_equiv_pos_as_xyz
  1  'x, y, z'
loop_
 _atom_site_type_symbol
 _atom_site_label
 _atom_site_symmetry_multiplicity
 _atom_site_fract_x
 _atom_site_fract_y
 _atom_site_fract_z
 _atom_site_occupancy
  F  F0  1  0.44936469  0.25000000  0.75904378  1
  F  F1  1  0.05063531  0.75000000  0.25904378  1
  F  F2  1  0.55063531  0.75000000  0.24095622  1
  F  F3  1  0.94936469  0.25000000  0.74095622  1
  F  F4  1  0.59045642  0.91341227  0.07341179  1
  F  F5  1  0.90954358  0.08658773  0.57341179  1
  F  F6  1  0.40954358  0.41341227  0.92658821  1
  F  F7  1  0.09045642  0.58658773  0.42658821  1
  F  F8  1  0.40954358  0.08658773  0.92658821  1
  F  F9  1  0.09045642  0.91341227  0.42658821  1
  F  F10  1  0.59045642  0.58658773  0.07341179  1
  F  F11  1  0.90954358  0.41341227  0.57341179  1
  F  F12  1  0.81694294  0.00821699  0.60824314  1
  F  F13  1  0.68305706  0.99178301  0.10824314  1
  F  F14  1  0.18305706  0.50821699  0.39175686  1
  F  F15  1  0.31694294  0.49178301  0.89175686  1
  F  F16  1  0.18305706  0.99178301  0.39175686  1
  F  F17  1  0.31694294  0.00821699  0.89175686  1
  F  F18  1  0.81694294  0.49178301  0.60824314  1
  F  F19  1  0.68305706  0.50821699  0.10824314  1
  F  F20  1  0.00000000  0.00000000  0.00000000  1
  F  F21  1  0.50000000  0.00000000  0.50000000  1
  F  F22  1  0.00000000  0.50000000  0.00000000  1
  F  F23  1  0.50000000  0.50000000  0.50000000  1
  Li  Li24  1  0.94711041  0.41405121  0.86818127  1
  Li  Li25  1  -0.44711041  -0.41405121  1.36818127  1
  Li  Li26  1  -0.94711041  0.91405121  -0.86818127  1
  Li  Li27  1  1.44711041  0.08594879  -0.36818127  1
  Li  Li28  1  -0.94711041  -0.41405121  -0.86818127  1
  Li  Li29  1  1.44711041  0.41405121  -0.36818127  1
  Li  Li30  1  0.94711041  0.08594879  0.86818127  1
  Li  Li31  1  -0.44711041  0.91405121  1.36818127  1
  Li  Li32  1  0.74720045  0.67398581  0.93851922  1
  Li  Li33  1  0.75279955  0.32601419  0.43851922  1
  Li  Li34  1  0.25279955  0.17398581  0.06148078  1
  Li  Li35  1  0.24720045  0.82601419  0.56148078  1
  Li  Li36  1  0.25279955  0.32601419  0.06148078  1
  Li  Li37  1  0.24720045  0.67398581  0.56148078  1
  Li  Li38  1  0.74720045  0.82601419  0.93851922  1
  Li  Li39  1  0.75279955  0.17398581  0.43851922  1
  Li  Li40  1  0.66341738  0.51914736  0.76450958  1
  Li  Li41  1  0.83658262  0.48085264  0.26450958  1
  Li  Li42  1  0.33658262  0.01914736  0.23549042  1
  Li  Li43  1  0.16341738  0.98085264  0.73549042  1
  Li  Li44  1  0.33658262  0.48085264  0.23549042  1
  Li  Li45  1  0.16341738  0.51914736  0.73549042  1
  Li  Li46  1  0.66341738  0.98085264  0.76450958  1
  Li  Li47  1  0.83658262  0.01914736  0.26450958  1
