# generated using pymatgen
data_NaLiF2
_symmetry_space_group_name_H-M   'P 1'
_cell_length_a   8.32596588
_cell_length_b   8.32596588
_cell_length_c   36.67837290
_cell_angle_alpha   90.00000000
_cell_angle_beta   90.00000000
_cell_angle_gamma   120.00000000
_symmetry_Int_Tables_number   1
_chemical_formula_structural   NaLiF2
_chemical_formula_sum   'Na32 Li32 F64'
_cell_volume   2201.96264600
_cell_formula_units_Z   32
loop_
 _symmetry_equiv_pos_site_id
 _symmetry_equiv_pos_as_xyz
  1  'x, y, z'
loop_
 _atom_site_type_symbol
 _atom_site_label
 _atom_site_symmetry_multiplicity
 _atom_site_fract_x
 _atom_site_fract_y
 _atom_site_fract_z
 _atom_site_occupancy
  F  F0  1  0.61690524  0.64323444  0.35181685  1
  F  F1  1  0.35676556  0.97367080  0.35181685  1
  F  F2  1  0.02632920  0.38309476  0.35181685  1
  F  F3  1  0.35676556  0.38309476  0.64818315  1
  F  F4  1  0.02632920  0.64323444  0.64818315  1
  F  F5  1  0.61690524  0.97367080  0.64818315  1
  F  F6  1  0.82327132  0.04860836  0.92900368  1
  F  F7  1  0.95139164  0.77466296  0.92900368  1
  F  F8  1  0.22533704  0.17672868  0.92900368  1
  F  F9  1  0.95139164  0.17672868  0.07099632  1
  F  F10  1  0.22533704  0.04860836  0.07099632  1
  F  F11  1  0.82327132  0.77466296  0.07099632  1
  F  F12  1  0.11438502  0.11361715  0.49972378  1
  F  F13  1  0.88638285  0.00076786  0.49972378  1
  F  F14  1  0.99923214  0.88561498  0.49972378  1
  F  F15  1  0.88638285  0.88561498  0.50027622  1
  F  F16  1  0.99923214  0.11361715  0.50027622  1
  F  F17  1  0.11438502  0.00076786  0.50027622  1
  F  F18  1  0.51602927  0.08829333  0.39103727  1
  F  F19  1  0.91170667  0.42773594  0.39103727  1
  F  F20  1  0.57226406  0.48397073  0.39103727  1
  F  F21  1  0.91170667  0.48397073  0.60896273  1
  F  F22  1  0.57226406  0.08829333  0.60896273  1
  F  F23  1  0.51602927  0.42773594  0.60896273  1
  F  F24  1  0.65067492  0.13628602  0.36904870  1
  F  F25  1  0.86371398  0.51438890  0.36904870  1
  F  F26  1  0.48561110  0.34932508  0.36904870  1
  F  F27  1  0.86371398  0.34932508  0.63095130  1
  F  F28  1  0.48561110  0.13628602  0.63095130  1
  F  F29  1  0.65067492  0.51438890  0.63095130  1
  F  F30  1  0.33333333  0.66666667  0.60342675  1
  F  F31  1  0.33333333  0.66666667  0.39657325  1
  F  F32  1  0.33333333  0.66666667  0.00000000  1
  F  F33  1  0.21310440  0.74705881  0.53585470  1
  F  F34  1  0.25294119  0.46604560  0.53585470  1
  F  F35  1  0.53395440  0.78689560  0.53585470  1
  F  F36  1  0.25294119  0.78689560  0.46414530  1
  F  F37  1  0.53395440  0.74705881  0.46414530  1
  F  F38  1  0.21310440  0.46604560  0.46414530  1
  F  F39  1  0.79240360  0.19102012  0.96331555  1
  F  F40  1  0.80897988  0.60138347  0.96331555  1
  F  F41  1  0.39861653  0.20759640  0.96331555  1
  F  F42  1  0.80897988  0.20759640  0.03668445  1
  F  F43  1  0.39861653  0.19102012  0.03668445  1
  F  F44  1  0.79240360  0.60138347  0.03668445  1
  F  F45  1  0.94762594  0.11975447  0.98707735  1
  F  F46  1  0.88024553  0.82787146  0.98707735  1
  F  F47  1  0.17212854  0.05237406  0.98707735  1
  F  F48  1  0.88024553  0.05237406  0.01292265  1
  F  F49  1  0.17212854  0.11975447  0.01292265  1
  F  F50  1  0.94762594  0.82787146  0.01292265  1
  F  F51  1  0.22798647  0.94196177  0.04504877  1
  F  F52  1  0.05803823  0.28602470  0.04504877  1
  F  F53  1  0.71397530  0.77201353  0.04504877  1
  F  F54  1  0.05803823  0.77201353  0.95495123  1
  F  F55  1  0.71397530  0.94196177  0.95495123  1
  F  F56  1  0.22798647  0.28602470  0.95495123  1
  F  F57  1  0.98843733  0.90318990  0.86716855  1
  F  F58  1  0.09681010  0.08524743  0.86716855  1
  F  F59  1  0.91475257  0.01156267  0.86716855  1
  F  F60  1  0.09681010  0.01156267  0.13283145  1
  F  F61  1  0.91475257  0.90318990  0.13283145  1
  F  F62  1  0.98843733  0.08524743  0.13283145  1
  F  F63  1  0.66666667  0.33333333  0.50000000  1
  Li  Li64  1  0.39801908  0.80547000  0.01783959  1
  Li  Li65  1  0.19453000  0.59254907  0.01783959  1
  Li  Li66  1  0.40745093  0.60198092  0.01783959  1
  Li  Li67  1  0.19453000  0.60198092  0.98216041  1
  Li  Li68  1  0.40745093  0.80547000  0.98216041  1
  Li  Li69  1  0.39801908  0.59254907  0.98216041  1
  Li  Li70  1  0.98621654  0.08219126  0.72782898  1
  Li  Li71  1  0.91780874  0.90402528  0.72782898  1
  Li  Li72  1  0.09597472  0.01378346  0.72782898  1
  Li  Li73  1  0.91780874  0.01378346  0.27217102  1
  Li  Li74  1  0.09597472  0.08219126  0.27217102  1
  Li  Li75  1  0.98621654  0.90402528  0.27217102  1
  Li  Li76  1  0.40341114  0.22054497  0.54314830  1
  Li  Li77  1  0.77945503  0.18286617  0.54314830  1
  Li  Li78  1  0.81713383  0.59658886  0.54314830  1
  Li  Li79  1  0.77945503  0.59658886  0.45685170  1
  Li  Li80  1  0.81713383  0.22054497  0.45685170  1
  Li  Li81  1  0.40341114  0.18286617  0.45685170  1
  Li  Li82  1  0.38926265  0.05065954  0.97715788  1
  Li  Li83  1  0.94934046  0.33860310  0.97715788  1
  Li  Li84  1  0.66139690  0.61073735  0.97715788  1
  Li  Li85  1  0.94934046  0.61073735  0.02284212  1
  Li  Li86  1  0.66139690  0.05065954  0.02284212  1
  Li  Li87  1  0.38926265  0.33860310  0.02284212  1
  Li  Li88  1  0.06877017  0.38677336  0.64350139  1
  Li  Li89  1  0.61322664  0.68199680  0.64350139  1
  Li  Li90  1  0.31800320  0.93122983  0.64350139  1
  Li  Li91  1  0.61322664  0.93122983  0.35649861  1
  Li  Li92  1  0.31800320  0.38677336  0.35649861  1
  Li  Li93  1  0.06877017  0.68199680  0.35649861  1
  Li  Li94  1  0.00000000  0.00000000  0.34494174  1
  Li  Li95  1  0.00000000  0.00000000  0.65505826  1
  Na  Na96  1  0.67813002  0.18348800  0.79011427  1
  Na  Na97  1  -0.18348800  0.49464202  0.79011427  1
  Na  Na98  1  -0.49464202  -0.67813002  0.79011427  1
  Na  Na99  1  -0.18348800  -0.67813002  -0.79011427  1
  Na  Na100  1  -0.49464202  0.18348800  -0.79011427  1
  Na  Na101  1  0.67813002  0.49464202  -0.79011427  1
  Na  Na102  1  0.00000000  0.00000000  0.00000000  1
  Na  Na103  1  0.33333333  0.66666667  0.50000000  1
  Na  Na104  1  0.69822668  0.56552846  0.87117849  1
  Na  Na105  1  0.43447154  0.13269822  0.87117849  1
  Na  Na106  1  0.86730178  0.30177332  0.87117849  1
  Na  Na107  1  0.43447154  0.30177332  0.12882151  1
  Na  Na108  1  0.86730178  0.56552846  0.12882151  1
  Na  Na109  1  0.69822668  0.13269822  0.12882151  1
  Na  Na110  1  0.66666667  0.33333333  0.00000000  1
  Na  Na111  1  0.86315573  0.48411682  0.72705792  1
  Na  Na112  1  0.51588318  0.37903891  0.72705792  1
  Na  Na113  1  0.62096109  0.13684427  0.72705792  1
  Na  Na114  1  0.51588318  0.13684427  0.27294208  1
  Na  Na115  1  0.62096109  0.48411682  0.27294208  1
  Na  Na116  1  0.86315573  0.37903891  0.27294208  1
  Na  Na117  1  0.49370616  0.70357138  0.81744356  1
  Na  Na118  1  0.29642862  0.79013477  0.81744356  1
  Na  Na119  1  0.20986523  0.50629384  0.81744356  1
  Na  Na120  1  0.29642862  0.50629384  0.18255644  1
  Na  Na121  1  0.20986523  0.70357138  0.18255644  1
  Na  Na122  1  0.49370616  0.79013477  0.18255644  1
  Na  Na123  1  0.46424529  0.53575471  0.50000000  1
  Na  Na124  1  0.46424529  0.92849058  0.50000000  1
  Na  Na125  1  0.07150942  0.53575471  0.50000000  1
  Na  Na126  1  0.33333333  0.66666667  0.24099166  1
  Na  Na127  1  0.33333333  0.66666667  0.75900834  1
