# generated using pymatgen
data_Li2Y2Al2CuP4
_symmetry_space_group_name_H-M   'P 1'
_cell_length_a   3.73472452
_cell_length_b   4.01253945
_cell_length_c   6.26028016
_cell_angle_alpha   107.94954430
_cell_angle_beta   112.94057918
_cell_angle_gamma   117.32261792
_symmetry_Int_Tables_number   1
_chemical_formula_structural   Li2Y2Al2CuP4
_chemical_formula_sum   'Li2 Y2 Al2 Cu1 P4'
_cell_volume   61.67194750
_cell_formula_units_Z   1
loop_
 _symmetry_equiv_pos_site_id
 _symmetry_equiv_pos_as_xyz
  1  'x, y, z'
loop_
 _atom_site_type_symbol
 _atom_site_label
 _atom_site_symmetry_multiplicity
 _atom_site_fract_x
 _atom_site_fract_y
 _atom_site_fract_z
 _atom_site_occupancy
  Al  Al0  1  0.00000000  0.00000000  0.00000000  1
  Al  Al1  1  0.50000000  0.50000000  0.50000000  1
  Y  Y2  1  0.50000000  0.50000000  0.00000000  1
  Y  Y3  1  0.50000000  0.00000000  0.50000000  1
  P  P4  1  0.00000000  0.50000000  0.50000000  1
  P  P5  1  0.66800044  0.53155936  0.68751768  1
  P  P6  1  0.29272033  0.95141709  0.38438029  1
  P  P7  1  0.74954199  0.99743997  0.31866943  1
  Li  Li8  1  0.00241517  0.83582015  0.95242355  1
  Li  Li9  1  0.81963980  0.01722665  0.92416610  1
  Cu  Cu10  1  0.01275402  0.23930420  0.23490261  1
