# generated using pymatgen
data_Sr8Li2Sn3(TeO4)3
_symmetry_space_group_name_H-M   'P 1'
_cell_length_a   17.86146630
_cell_length_b   17.86146630
_cell_length_c   18.27116864
_cell_angle_alpha   90.00000000
_cell_angle_beta   90.00000000
_cell_angle_gamma   90.00000000
_symmetry_Int_Tables_number   1
_chemical_formula_structural   Sr8Li2Sn3(TeO4)3
_chemical_formula_sum   'Sr72 Li18 Sn27 Te27 O108'
_cell_volume   5829.08707687
_cell_formula_units_Z   9
loop_
 _symmetry_equiv_pos_site_id
 _symmetry_equiv_pos_as_xyz
  1  'x, y, z'
loop_
 _atom_site_type_symbol
 _atom_site_label
 _atom_site_symmetry_multiplicity
 _atom_site_fract_x
 _atom_site_fract_y
 _atom_site_fract_z
 _atom_site_occupancy
  Li  Li0  1  0.61967590  0.45253767  0.57110994  1
  Li  Li1  1  0.38032410  0.54746233  0.57110994  1
  Li  Li2  1  0.54746233  0.61967590  0.57110994  1
  Li  Li3  1  0.45253767  0.38032410  0.57110994  1
  Li  Li4  1  0.38032410  0.45253767  0.42889006  1
  Li  Li5  1  0.61967590  0.54746233  0.42889006  1
  Li  Li6  1  0.45253767  0.61967590  0.42889006  1
  Li  Li7  1  0.54746233  0.38032410  0.42889006  1
  Li  Li8  1  0.38032410  0.54746233  0.42889006  1
  Li  Li9  1  0.61967590  0.45253767  0.42889006  1
  Li  Li10  1  0.45253767  0.38032410  0.42889006  1
  Li  Li11  1  0.54746233  0.61967590  0.42889006  1
  Li  Li12  1  0.61967590  0.54746233  0.57110994  1
  Li  Li13  1  0.38032410  0.45253767  0.57110994  1
  Li  Li14  1  0.54746233  0.38032410  0.57110994  1
  Li  Li15  1  0.45253767  0.61967590  0.57110994  1
  Li  Li16  1  0.00000000  0.50000000  0.50000000  1
  Li  Li17  1  0.50000000  0.00000000  0.50000000  1
  O  O18  1  0.77985379  0.50000000  0.00000000  1
  O  O19  1  0.22014621  0.50000000  0.00000000  1
  O  O20  1  0.50000000  0.77985379  0.00000000  1
  O  O21  1  0.50000000  0.22014621  -0.00000000  1
  O  O22  1  0.00000000  0.50000000  0.00000000  1
  O  O23  1  0.50000000  0.00000000  0.00000000  1
  O  O24  1  0.07175053  0.96061758  0.42713478  1
  O  O25  1  0.92824947  0.03938242  0.42713478  1
  O  O26  1  0.03938242  0.07175053  0.42713478  1
  O  O27  1  0.96061758  0.92824947  0.42713478  1
  O  O28  1  0.92824947  0.96061758  0.57286522  1
  O  O29  1  0.07175053  0.03938242  0.57286522  1
  O  O30  1  0.96061758  0.07175053  0.57286522  1
  O  O31  1  0.03938242  0.92824947  0.57286522  1
  O  O32  1  0.92824947  0.03938242  0.57286522  1
  O  O33  1  0.07175053  0.96061758  0.57286522  1
  O  O34  1  0.96061758  0.92824947  0.57286522  1
  O  O35  1  0.03938242  0.07175053  0.57286522  1
  O  O36  1  0.07175053  0.03938242  0.42713478  1
  O  O37  1  0.92824947  0.96061758  0.42713478  1
  O  O38  1  0.03938242  0.92824947  0.42713478  1
  O  O39  1  0.96061758  0.07175053  0.42713478  1
  O  O40  1  0.23443254  0.92004223  0.17287252  1
  O  O41  1  0.76556746  0.07995777  0.17287252  1
  O  O42  1  0.07995777  0.23443254  0.17287252  1
  O  O43  1  0.92004223  0.76556746  0.17287252  1
  O  O44  1  0.76556746  0.92004223  0.82712748  1
  O  O45  1  0.23443254  0.07995777  0.82712748  1
  O  O46  1  0.92004223  0.23443254  0.82712748  1
  O  O47  1  0.07995777  0.76556746  0.82712748  1
  O  O48  1  0.76556746  0.07995777  0.82712748  1
  O  O49  1  0.23443254  0.92004223  0.82712748  1
  O  O50  1  0.92004223  0.76556746  0.82712748  1
  O  O51  1  0.07995777  0.23443254  0.82712748  1
  O  O52  1  0.23443254  0.07995777  0.17287252  1
  O  O53  1  0.76556746  0.92004223  0.17287252  1
  O  O54  1  0.07995777  0.76556746  0.17287252  1
  O  O55  1  0.92004223  0.23443254  0.17287252  1
  O  O56  1  0.20449647  0.50000000  0.26252792  1
  O  O57  1  0.79550353  0.50000000  0.26252792  1
  O  O58  1  0.50000000  0.20449647  0.26252792  1
  O  O59  1  0.50000000  0.79550353  0.26252792  1
  O  O60  1  0.79550353  0.50000000  0.73747208  1
  O  O61  1  0.20449647  0.50000000  0.73747208  1
  O  O62  1  0.50000000  0.20449647  0.73747208  1
  O  O63  1  0.50000000  0.79550353  0.73747208  1
  O  O64  1  0.04370538  0.50000000  0.05717440  1
  O  O65  1  0.95629462  0.50000000  0.05717440  1
  O  O66  1  0.50000000  0.04370538  0.05717440  1
  O  O67  1  0.50000000  0.95629462  0.05717440  1
  O  O68  1  0.95629462  0.50000000  0.94282560  1
  O  O69  1  0.04370538  0.50000000  0.94282560  1
  O  O70  1  0.50000000  0.04370538  0.94282560  1
  O  O71  1  0.50000000  0.95629462  0.94282560  1
  O  O72  1  0.64797046  0.31008545  0.78552450  1
  O  O73  1  0.35202954  0.68991455  0.78552450  1
  O  O74  1  0.68991455  0.64797046  0.78552450  1
  O  O75  1  0.31008545  0.35202954  0.78552450  1
  O  O76  1  0.35202954  0.31008545  0.21447550  1
  O  O77  1  0.64797046  0.68991455  0.21447550  1
  O  O78  1  0.31008545  0.64797046  0.21447550  1
  O  O79  1  0.68991455  0.35202954  0.21447550  1
  O  O80  1  0.35202954  0.68991455  0.21447550  1
  O  O81  1  0.64797046  0.31008545  0.21447550  1
  O  O82  1  0.31008545  0.35202954  0.21447550  1
  O  O83  1  0.68991455  0.64797046  0.21447550  1
  O  O84  1  0.64797046  0.68991455  0.78552450  1
  O  O85  1  0.35202954  0.31008545  0.78552450  1
  O  O86  1  0.68991455  0.35202954  0.78552450  1
  O  O87  1  0.31008545  0.64797046  0.78552450  1
  O  O88  1  0.00000000  0.50000000  0.37833953  1
  O  O89  1  0.50000000  0.00000000  0.37833953  1
  O  O90  1  0.00000000  0.50000000  0.62166047  1
  O  O91  1  0.50000000  0.00000000  0.62166047  1
  O  O92  1  0.07541125  0.69757674  0.25052801  1
  O  O93  1  0.92458875  0.30242326  0.25052801  1
  O  O94  1  0.30242326  0.07541125  0.25052801  1
  O  O95  1  0.69757674  0.92458875  0.25052801  1
  O  O96  1  0.92458875  0.69757674  0.74947199  1
  O  O97  1  0.07541125  0.30242326  0.74947199  1
  O  O98  1  0.69757674  0.07541125  0.74947199  1
  O  O99  1  0.30242326  0.92458875  0.74947199  1
  O  O100  1  0.92458875  0.30242326  0.74947199  1
  O  O101  1  0.07541125  0.69757674  0.74947199  1
  O  O102  1  0.69757674  0.92458875  0.74947199  1
  O  O103  1  0.30242326  0.07541125  0.74947199  1
  O  O104  1  0.07541125  0.30242326  0.25052801  1
  O  O105  1  0.92458875  0.69757674  0.25052801  1
  O  O106  1  0.30242326  0.92458875  0.25052801  1
  O  O107  1  0.69757674  0.07541125  0.25052801  1
  O  O108  1  0.54727061  0.39070933  0.87539027  1
  O  O109  1  0.45272939  0.60929067  0.87539027  1
  O  O110  1  0.60929067  0.54727061  0.87539027  1
  O  O111  1  0.39070933  0.45272939  0.87539027  1
  O  O112  1  0.45272939  0.39070933  0.12460973  1
  O  O113  1  0.54727061  0.60929067  0.12460973  1
  O  O114  1  0.39070933  0.54727061  0.12460973  1
  O  O115  1  0.60929067  0.45272939  0.12460973  1
  O  O116  1  0.45272939  0.60929067  0.12460973  1
  O  O117  1  0.54727061  0.39070933  0.12460973  1
  O  O118  1  0.39070933  0.45272939  0.12460973  1
  O  O119  1  0.60929067  0.54727061  0.12460973  1
  O  O120  1  0.54727061  0.60929067  0.87539027  1
  O  O121  1  0.45272939  0.39070933  0.87539027  1
  O  O122  1  0.60929067  0.45272939  0.87539027  1
  O  O123  1  0.39070933  0.54727061  0.87539027  1
  O  O124  1  0.50000000  0.50000000  0.27672370  1
  O  O125  1  0.50000000  0.50000000  0.72327630  1
  Sn  Sn126  1  0.33783164  0.00000000  0.19175322  1
  Sn  Sn127  1  0.66216836  0.00000000  0.19175322  1
  Sn  Sn128  1  0.00000000  0.33783164  0.19175322  1
  Sn  Sn129  1  0.00000000  0.66216836  0.19175322  1
  Sn  Sn130  1  0.66216836  0.00000000  0.80824678  1
  Sn  Sn131  1  0.33783164  0.00000000  0.80824678  1
  Sn  Sn132  1  0.00000000  0.33783164  0.80824678  1
  Sn  Sn133  1  0.00000000  0.66216836  0.80824678  1
  Sn  Sn134  1  0.93718171  0.44717217  -0.00000000  1
  Sn  Sn135  1  0.06281829  0.55282783  0.00000000  1
  Sn  Sn136  1  0.55282783  0.93718171  0.00000000  1
  Sn  Sn137  1  0.44717217  0.06281829  0.00000000  1
  Sn  Sn138  1  0.06281829  0.44717217  0.00000000  1
  Sn  Sn139  1  0.93718171  0.55282783  -0.00000000  1
  Sn  Sn140  1  0.44717217  0.93718171  -0.00000000  1
  Sn  Sn141  1  0.55282783  0.06281829  -0.00000000  1
  Sn  Sn142  1  0.09730670  0.50000000  0.70544044  1
  Sn  Sn143  1  0.90269330  0.50000000  0.70544044  1
  Sn  Sn144  1  0.50000000  0.09730670  0.70544044  1
  Sn  Sn145  1  0.50000000  0.90269330  0.70544044  1
  Sn  Sn146  1  0.90269330  0.50000000  0.29455956  1
  Sn  Sn147  1  0.09730670  0.50000000  0.29455956  1
  Sn  Sn148  1  0.50000000  0.09730670  0.29455956  1
  Sn  Sn149  1  0.50000000  0.90269330  0.29455956  1
  Sn  Sn150  1  0.00000000  0.00000000  0.00000000  1
  Sn  Sn151  1  0.50000000  0.50000000  0.00000000  1
  Sn  Sn152  1  0.00000000  0.00000000  0.50000000  1
  Sr  Sr153  1  0.93720451  0.74723042  0.36602343  1
  Sr  Sr154  1  -0.93720451  -0.74723042  0.36602343  1
  Sr  Sr155  1  -0.74723042  0.93720451  0.36602343  1
  Sr  Sr156  1  0.74723042  -0.93720451  0.36602343  1
  Sr  Sr157  1  -0.93720451  0.74723042  -0.36602343  1
  Sr  Sr158  1  0.93720451  -0.74723042  -0.36602343  1
  Sr  Sr159  1  0.74723042  0.93720451  -0.36602343  1
  Sr  Sr160  1  -0.74723042  -0.93720451  -0.36602343  1
  Sr  Sr161  1  -0.93720451  -0.74723042  -0.36602343  1
  Sr  Sr162  1  0.93720451  0.74723042  -0.36602343  1
  Sr  Sr163  1  0.74723042  -0.93720451  -0.36602343  1
  Sr  Sr164  1  -0.74723042  0.93720451  -0.36602343  1
  Sr  Sr165  1  0.93720451  -0.74723042  0.36602343  1
  Sr  Sr166  1  -0.93720451  0.74723042  0.36602343  1
  Sr  Sr167  1  -0.74723042  -0.93720451  0.36602343  1
  Sr  Sr168  1  0.74723042  0.93720451  0.36602343  1
  Sr  Sr169  1  0.74512626  0.74512626  0.21824697  1
  Sr  Sr170  1  0.25487374  0.25487374  0.21824697  1
  Sr  Sr171  1  0.25487374  0.74512626  0.21824697  1
  Sr  Sr172  1  0.74512626  0.25487374  0.21824697  1
  Sr  Sr173  1  0.25487374  0.74512626  0.78175303  1
  Sr  Sr174  1  0.74512626  0.25487374  0.78175303  1
  Sr  Sr175  1  0.74512626  0.74512626  0.78175303  1
  Sr  Sr176  1  0.25487374  0.25487374  0.78175303  1
  Sr  Sr177  1  0.82280375  0.82280375  0.19313433  1
  Sr  Sr178  1  0.17719625  0.17719625  0.19313433  1
  Sr  Sr179  1  0.17719625  0.82280375  0.19313433  1
  Sr  Sr180  1  0.82280375  0.17719625  0.19313433  1
  Sr  Sr181  1  0.17719625  0.82280375  0.80686567  1
  Sr  Sr182  1  0.82280375  0.17719625  0.80686567  1
  Sr  Sr183  1  0.82280375  0.82280375  0.80686567  1
  Sr  Sr184  1  0.17719625  0.17719625  0.80686567  1
  Sr  Sr185  1  0.23321852  0.50000000  0.50000000  1
  Sr  Sr186  1  0.76678148  0.50000000  0.50000000  1
  Sr  Sr187  1  0.50000000  0.23321852  0.50000000  1
  Sr  Sr188  1  0.50000000  0.76678148  0.50000000  1
  Sr  Sr189  1  0.75951981  0.43926957  0.76396243  1
  Sr  Sr190  1  0.24048019  0.56073043  0.76396243  1
  Sr  Sr191  1  0.56073043  0.75951981  0.76396243  1
  Sr  Sr192  1  0.43926957  0.24048019  0.76396243  1
  Sr  Sr193  1  0.24048019  0.43926957  0.23603757  1
  Sr  Sr194  1  0.75951981  0.56073043  0.23603757  1
  Sr  Sr195  1  0.43926957  0.75951981  0.23603757  1
  Sr  Sr196  1  0.56073043  0.24048019  0.23603757  1
  Sr  Sr197  1  0.24048019  0.56073043  0.23603757  1
  Sr  Sr198  1  0.75951981  0.43926957  0.23603757  1
  Sr  Sr199  1  0.43926957  0.24048019  0.23603757  1
  Sr  Sr200  1  0.56073043  0.75951981  0.23603757  1
  Sr  Sr201  1  0.75951981  0.56073043  0.76396243  1
  Sr  Sr202  1  0.24048019  0.43926957  0.76396243  1
  Sr  Sr203  1  0.56073043  0.24048019  0.76396243  1
  Sr  Sr204  1  0.43926957  0.75951981  0.76396243  1
  Sr  Sr205  1  0.11326577  0.50000000  0.13652225  1
  Sr  Sr206  1  0.88673423  0.50000000  0.13652225  1
  Sr  Sr207  1  0.50000000  0.11326577  0.13652225  1
  Sr  Sr208  1  0.50000000  0.88673423  0.13652225  1
  Sr  Sr209  1  0.88673423  0.50000000  0.86347775  1
  Sr  Sr210  1  0.11326577  0.50000000  0.86347775  1
  Sr  Sr211  1  0.50000000  0.11326577  0.86347775  1
  Sr  Sr212  1  0.50000000  0.88673423  0.86347775  1
  Sr  Sr213  1  0.86134019  0.73766094  0.50000000  1
  Sr  Sr214  1  0.13865981  0.26233906  0.50000000  1
  Sr  Sr215  1  0.26233906  0.86134019  0.50000000  1
  Sr  Sr216  1  0.73766094  0.13865981  0.50000000  1
  Sr  Sr217  1  0.13865981  0.73766094  0.50000000  1
  Sr  Sr218  1  0.86134019  0.26233906  0.50000000  1
  Sr  Sr219  1  0.73766094  0.86134019  0.50000000  1
  Sr  Sr220  1  0.26233906  0.13865981  0.50000000  1
  Sr  Sr221  1  0.67425362  0.67425362  0.00000000  1
  Sr  Sr222  1  0.32574638  0.32574638  -0.00000000  1
  Sr  Sr223  1  0.32574638  0.67425362  0.00000000  1
  Sr  Sr224  1  0.67425362  0.32574638  0.00000000  1
  Te  Te225  1  0.65277112  0.65277112  0.44637033  1
  Te  Te226  1  0.34722888  0.34722888  0.44637033  1
  Te  Te227  1  0.34722888  0.65277112  0.44637033  1
  Te  Te228  1  0.65277112  0.34722888  0.44637033  1
  Te  Te229  1  0.34722888  0.65277112  0.55362967  1
  Te  Te230  1  0.65277112  0.34722888  0.55362967  1
  Te  Te231  1  0.65277112  0.65277112  0.55362967  1
  Te  Te232  1  0.34722888  0.34722888  0.55362967  1
  Te  Te233  1  0.91312740  0.91312740  0.81387303  1
  Te  Te234  1  0.08687260  0.08687260  0.81387303  1
  Te  Te235  1  0.08687260  0.91312740  0.81387303  1
  Te  Te236  1  0.91312740  0.08687260  0.81387303  1
  Te  Te237  1  0.08687260  0.91312740  0.18612697  1
  Te  Te238  1  0.91312740  0.08687260  0.18612697  1
  Te  Te239  1  0.91312740  0.91312740  0.18612697  1
  Te  Te240  1  0.08687260  0.08687260  0.18612697  1
  Te  Te241  1  0.27555213  0.50000000  0.66440376  1
  Te  Te242  1  0.72444787  0.50000000  0.66440376  1
  Te  Te243  1  0.50000000  0.27555213  0.66440376  1
  Te  Te244  1  0.50000000  0.72444787  0.66440376  1
  Te  Te245  1  0.72444787  0.50000000  0.33559624  1
  Te  Te246  1  0.27555213  0.50000000  0.33559624  1
  Te  Te247  1  0.50000000  0.27555213  0.33559624  1
  Te  Te248  1  0.50000000  0.72444787  0.33559624  1
  Te  Te249  1  0.00000000  0.00000000  0.14698658  1
  Te  Te250  1  0.00000000  0.00000000  0.85301342  1
  Te  Te251  1  0.50000000  0.50000000  0.50000000  1
