# generated using pymatgen
data_LiF
_symmetry_space_group_name_H-M   'P 1'
_cell_length_a   7.09378971
_cell_length_b   7.29533643
_cell_length_c   11.99453859
_cell_angle_alpha   90.00000000
_cell_angle_beta   90.00000000
_cell_angle_gamma   90.00000000
_symmetry_Int_Tables_number   1
_chemical_formula_structural   LiF
_chemical_formula_sum   'Li24 F24'
_cell_volume   620.73635264
_cell_formula_units_Z   24
loop_
 _symmetry_equiv_pos_site_id
 _symmetry_equiv_pos_as_xyz
  1  'x, y, z'
loop_
 _atom_site_type_symbol
 _atom_site_label
 _atom_site_symmetry_multiplicity
 _atom_site_fract_x
 _atom_site_fract_y
 _atom_site_fract_z
 _atom_site_occupancy
  F  F0  1  0.59298313  0.14019621  0.31997565  1
  F  F1  1  0.90701687  0.85980379  0.81997565  1
  F  F2  1  0.40701687  0.64019621  0.68002435  1
  F  F3  1  0.09298313  0.35980379  0.18002435  1
  F  F4  1  0.40701687  0.85980379  0.68002435  1
  F  F5  1  0.09298313  0.14019621  0.18002435  1
  F  F6  1  0.59298313  0.35980379  0.31997565  1
  F  F7  1  0.90701687  0.64019621  0.81997565  1
  F  F8  1  0.00000000  0.00000000  0.00000000  1
  F  F9  1  0.50000000  0.00000000  0.50000000  1
  F  F10  1  0.00000000  0.50000000  0.00000000  1
  F  F11  1  0.50000000  0.50000000  0.50000000  1
  F  F12  1  0.71212575  0.25000000  0.69809542  1
  F  F13  1  0.78787425  0.75000000  0.19809542  1
  F  F14  1  0.28787425  0.75000000  0.30190458  1
  F  F15  1  0.21212575  0.25000000  0.80190458  1
  F  F16  1  0.41304204  0.98740751  0.89105840  1
  F  F17  1  0.08695796  0.01259249  0.39105840  1
  F  F18  1  0.58695796  0.48740751  0.10894160  1
  F  F19  1  0.91304204  0.51259249  0.60894160  1
  F  F20  1  0.58695796  0.01259249  0.10894160  1
  F  F21  1  0.91304204  0.98740751  0.60894160  1
  F  F22  1  0.41304204  0.51259249  0.89105840  1
  F  F23  1  0.08695796  0.48740751  0.39105840  1
  Li  Li24  1  0.21048294  0.64524514  0.41988025  1
  Li  Li25  1  0.28951706  -0.64524514  0.91988025  1
  Li  Li26  1  -0.21048294  1.14524514  -0.41988025  1
  Li  Li27  1  0.71048294  -0.14524514  0.08011975  1
  Li  Li28  1  -0.21048294  -0.64524514  -0.41988025  1
  Li  Li29  1  0.71048294  0.64524514  0.08011975  1
  Li  Li30  1  0.21048294  -0.14524514  0.41988025  1
  Li  Li31  1  0.28951706  1.14524514  0.91988025  1
  Li  Li32  1  0.91853959  0.25000000  0.30808683  1
  Li  Li33  1  0.58146041  0.75000000  0.80808683  1
  Li  Li34  1  0.08146041  0.75000000  0.69191317  1
  Li  Li35  1  0.41853959  0.25000000  0.19191317  1
  Li  Li36  1  0.00000000  0.00000000  0.50000000  1
  Li  Li37  1  0.50000000  0.00000000  0.00000000  1
  Li  Li38  1  0.00000000  0.50000000  0.50000000  1
  Li  Li39  1  0.50000000  0.50000000  0.00000000  1
  Li  Li40  1  0.54054469  0.65762994  0.46728368  1
  Li  Li41  1  0.95945531  0.34237006  0.96728368  1
  Li  Li42  1  0.45945531  0.15762994  0.53271632  1
  Li  Li43  1  0.04054469  0.84237006  0.03271632  1
  Li  Li44  1  0.45945531  0.34237006  0.53271632  1
  Li  Li45  1  0.04054469  0.65762994  0.03271632  1
  Li  Li46  1  0.54054469  0.84237006  0.46728368  1
  Li  Li47  1  0.95945531  0.15762994  0.96728368  1
