# generated using pymatgen
data_Li2Cu3As4P2Se
_symmetry_space_group_name_H-M   'P 1'
_cell_length_a   4.82857003
_cell_length_b   5.13180762
_cell_length_c   6.34077753
_cell_angle_alpha   93.74549504
_cell_angle_beta   96.81035239
_cell_angle_gamma   102.76473053
_symmetry_Int_Tables_number   1
_chemical_formula_structural   Li2Cu3As4P2Se
_chemical_formula_sum   'Li2 Cu3 As4 P2 Se1'
_cell_volume   151.47453682
_cell_formula_units_Z   1
loop_
 _symmetry_equiv_pos_site_id
 _symmetry_equiv_pos_as_xyz
  1  'x, y, z'
loop_
 _atom_site_type_symbol
 _atom_site_label
 _atom_site_symmetry_multiplicity
 _atom_site_fract_x
 _atom_site_fract_y
 _atom_site_fract_z
 _atom_site_occupancy
  Se  Se0  1  0.12500000  0.00000000  0.25000000  1
  Cu  Cu1  1  0.00000000  0.00000000  0.00000000  1
  Cu  Cu2  1  0.37500000  0.00000000  0.25000000  1
  Cu  Cu3  1  0.25000000  0.25000000  0.25000000  1
  P  P4  1  0.00000000  0.25000000  0.12500000  1
  P  P5  1  0.11657752  0.11663623  0.59588029  1
  As  As6  1  0.13584045  0.95237920  0.16759114  1
  As  As7  1  0.65230532  0.06727416  0.27064973  1
  As  As8  1  0.65033161  0.39255897  0.54779422  1
  As  As9  1  0.68363269  0.11996938  0.63795557  1
  Li  Li10  1  0.15283536  0.21666370  0.44918508  1
  Li  Li11  1  0.96091243  0.11903130  0.34662214  1
