# generated using pymatgen
data_LiCaF3
_symmetry_space_group_name_H-M   'P 1'
_cell_length_a   11.61634106
_cell_length_b   11.61634106
_cell_length_c   13.04432005
_cell_angle_alpha   90.00000000
_cell_angle_beta   90.00000000
_cell_angle_gamma   120.00000000
_symmetry_Int_Tables_number   1
_chemical_formula_structural   LiCaF3
_chemical_formula_sum   'Li18 Ca18 F54'
_cell_volume   1524.37138044
_cell_formula_units_Z   18
loop_
 _symmetry_equiv_pos_site_id
 _symmetry_equiv_pos_as_xyz
  1  'x, y, z'
loop_
 _atom_site_type_symbol
 _atom_site_label
 _atom_site_symmetry_multiplicity
 _atom_site_fract_x
 _atom_site_fract_y
 _atom_site_fract_z
 _atom_site_occupancy
  Ca  Ca0  1  0.49380311  0.00000000  0.25000000  1
  Ca  Ca1  1  0.00000000  0.49380311  0.25000000  1
  Ca  Ca2  1  0.50619689  0.50619689  0.25000000  1
  Ca  Ca3  1  0.50619689  0.00000000  0.75000000  1
  Ca  Ca4  1  0.00000000  0.50619689  0.75000000  1
  Ca  Ca5  1  0.49380311  0.49380311  0.75000000  1
  Ca  Ca6  1  0.16046977  0.33333333  0.58333333  1
  Ca  Ca7  1  0.66666667  0.82713644  0.58333333  1
  Ca  Ca8  1  0.17286356  0.83953023  0.58333333  1
  Ca  Ca9  1  0.17286356  0.33333333  0.08333333  1
  Ca  Ca10  1  0.66666667  0.83953023  0.08333333  1
  Ca  Ca11  1  0.16046977  0.82713644  0.08333333  1
  Ca  Ca12  1  0.82713644  0.66666667  0.91666667  1
  Ca  Ca13  1  0.33333333  0.16046977  0.91666667  1
  Ca  Ca14  1  0.83953023  0.17286356  0.91666667  1
  Ca  Ca15  1  0.83953023  0.66666667  0.41666667  1
  Ca  Ca16  1  0.33333333  0.17286356  0.41666667  1
  Ca  Ca17  1  0.82713644  0.16046977  0.41666667  1
  F  F18  1  0.00000000  0.00000000  0.41018389  1
  F  F19  1  0.00000000  0.00000000  0.08981611  1
  F  F20  1  0.00000000  0.00000000  0.58981611  1
  F  F21  1  0.00000000  0.00000000  0.91018389  1
  F  F22  1  0.66666667  0.33333333  0.74351722  1
  F  F23  1  0.66666667  0.33333333  0.42314945  1
  F  F24  1  0.66666667  0.33333333  0.92314945  1
  F  F25  1  0.66666667  0.33333333  0.24351722  1
  F  F26  1  0.33333333  0.66666667  0.07685055  1
  F  F27  1  0.33333333  0.66666667  0.75648278  1
  F  F28  1  0.33333333  0.66666667  0.25648278  1
  F  F29  1  0.33333333  0.66666667  0.57685055  1
  F  F30  1  0.02464964  0.07264865  0.71037921  1
  F  F31  1  -0.07264865  -0.04799901  0.71037921  1
  F  F32  1  0.04799901  -0.02464964  0.71037921  1
  F  F33  1  0.07264865  0.02464964  -0.21037921  1
  F  F34  1  -0.04799901  -0.07264865  -0.21037921  1
  F  F35  1  -0.02464964  0.04799901  -0.21037921  1
  F  F36  1  -0.02464964  -0.07264865  -0.71037921  1
  F  F37  1  0.07264865  0.04799901  -0.71037921  1
  F  F38  1  -0.04799901  0.02464964  -0.71037921  1
  F  F39  1  -0.07264865  -0.02464964  1.21037921  1
  F  F40  1  0.04799901  0.07264865  1.21037921  1
  F  F41  1  0.02464964  -0.04799901  1.21037921  1
  F  F42  1  0.69131631  0.40598199  1.04371254  1
  F  F43  1  0.59401801  0.28533432  1.04371254  1
  F  F44  1  0.71466568  0.30868369  1.04371254  1
  F  F45  1  0.73931532  0.35798298  0.12295413  1
  F  F46  1  0.61866766  0.26068468  0.12295413  1
  F  F47  1  0.64201702  0.38133234  0.12295413  1
  F  F48  1  0.64201702  0.26068468  -0.37704587  1
  F  F49  1  0.73931532  0.38133234  -0.37704587  1
  F  F50  1  0.61866766  0.35798298  -0.37704587  1
  F  F51  1  0.59401801  0.30868369  1.54371254  1
  F  F52  1  0.71466568  0.40598199  1.54371254  1
  F  F53  1  0.69131631  0.28533432  1.54371254  1
  F  F54  1  0.35798298  0.73931532  1.37704587  1
  F  F55  1  0.26068468  0.61866766  1.37704587  1
  F  F56  1  0.38133234  0.64201702  1.37704587  1
  F  F57  1  0.40598199  0.69131631  0.45628746  1
  F  F58  1  0.28533432  0.59401801  0.45628746  1
  F  F59  1  0.30868369  0.71466568  0.45628746  1
  F  F60  1  0.30868369  0.59401801  -0.04371254  1
  F  F61  1  0.40598199  0.71466568  -0.04371254  1
  F  F62  1  0.28533432  0.69131631  -0.04371254  1
  F  F63  1  0.26068468  0.64201702  1.87704587  1
  F  F64  1  0.38133234  0.73931532  1.87704587  1
  F  F65  1  0.35798298  0.61866766  1.87704587  1
  F  F66  1  0.00000000  0.00000000  0.00000000  1
  F  F67  1  0.00000000  0.00000000  0.50000000  1
  F  F68  1  0.66666667  0.33333333  0.33333333  1
  F  F69  1  0.66666667  0.33333333  0.83333333  1
  F  F70  1  0.33333333  0.66666667  0.66666667  1
  F  F71  1  0.33333333  0.66666667  0.16666667  1
  Li  Li72  1  0.50000000  0.00000000  -0.00000000  1
  Li  Li73  1  0.00000000  0.50000000  0.00000000  1
  Li  Li74  1  0.50000000  0.50000000  0.00000000  1
  Li  Li75  1  0.00000000  0.50000000  0.50000000  1
  Li  Li76  1  0.50000000  0.00000000  0.50000000  1
  Li  Li77  1  0.50000000  0.50000000  0.50000000  1
  Li  Li78  1  0.16666667  0.33333333  0.33333333  1
  Li  Li79  1  0.66666667  0.83333333  0.33333333  1
  Li  Li80  1  0.16666667  0.83333333  0.33333333  1
  Li  Li81  1  0.66666667  0.83333333  0.83333333  1
  Li  Li82  1  0.16666667  0.33333333  0.83333333  1
  Li  Li83  1  0.16666667  0.83333333  0.83333333  1
  Li  Li84  1  0.83333333  0.66666667  0.66666667  1
  Li  Li85  1  0.33333333  0.16666667  0.66666667  1
  Li  Li86  1  0.83333333  0.16666667  0.66666667  1
  Li  Li87  1  0.33333333  0.16666667  0.16666667  1
  Li  Li88  1  0.83333333  0.66666667  0.16666667  1
  Li  Li89  1  0.83333333  0.16666667  0.16666667  1
