# generated using pymatgen
data_Li2Y2Cu3P2Se
_symmetry_space_group_name_H-M   'P 1'
_cell_length_a   5.28132896
_cell_length_b   5.49330668
_cell_length_c   6.68014324
_cell_angle_alpha   93.51335172
_cell_angle_beta   96.19537681
_cell_angle_gamma   101.76939822
_symmetry_Int_Tables_number   1
_chemical_formula_structural   Li2Y2Cu3P2Se
_chemical_formula_sum   'Li2 Y2 Cu3 P2 Se1'
_cell_volume   187.92948608
_cell_formula_units_Z   1
loop_
 _symmetry_equiv_pos_site_id
 _symmetry_equiv_pos_as_xyz
  1  'x, y, z'
loop_
 _atom_site_type_symbol
 _atom_site_label
 _atom_site_symmetry_multiplicity
 _atom_site_fract_x
 _atom_site_fract_y
 _atom_site_fract_z
 _atom_site_occupancy
  Se  Se0  1  0.00000000  0.00000000  0.00000000  1
  Cu  Cu1  1  0.50000000  0.50000000  0.50000000  1
  Cu  Cu2  1  0.25000000  0.25000000  0.25000000  1
  Cu  Cu3  1  0.75000000  0.25000000  0.00000000  1
  P  P4  1  0.25000000  0.75000000  0.50000000  1
  P  P5  1  0.40744189  0.52483337  0.15585050  1
  Li  Li6  1  0.85032175  0.68230738  0.98220658  1
  Li  Li7  1  0.39251215  0.66312569  0.39944061  1
  Y  Y8  1  0.36766855  0.07635154  0.82384481  1
  Y  Y9  1  0.25756864  0.59166945  0.40553814  1
