# generated using pymatgen
data_Li17Ca2Se2F17
_symmetry_space_group_name_H-M   'P 1'
_cell_length_a   8.60984360
_cell_length_b   8.60984360
_cell_length_c   16.11786560
_cell_angle_alpha   90.00000000
_cell_angle_beta   90.00000000
_cell_angle_gamma   120.00000000
_symmetry_Int_Tables_number   1
_chemical_formula_structural   Li17Ca2Se2F17
_chemical_formula_sum   'Li34 Ca4 Se4 F34'
_cell_volume   1034.73392182
_cell_formula_units_Z   2
loop_
 _symmetry_equiv_pos_site_id
 _symmetry_equiv_pos_as_xyz
  1  'x, y, z'
loop_
 _atom_site_type_symbol
 _atom_site_label
 _atom_site_symmetry_multiplicity
 _atom_site_fract_x
 _atom_site_fract_y
 _atom_site_fract_z
 _atom_site_occupancy
  Ca  Ca0  1  0.00000000  0.00000000  0.00000000  1
  Ca  Ca1  1  0.00000000  0.00000000  0.50000000  1
  Ca  Ca2  1  0.33333333  0.66666667  0.25000000  1
  Ca  Ca3  1  0.66666667  0.33333333  0.75000000  1
  F  F4  1  0.04916553  0.32033829  0.19167066  1
  F  F5  1  -0.32033829  -0.27117275  0.19167066  1
  F  F6  1  0.27117275  -0.04916553  0.19167066  1
  F  F7  1  -0.04916553  -0.32033829  0.69167066  1
  F  F8  1  0.32033829  0.27117275  0.69167066  1
  F  F9  1  -0.27117275  0.04916553  0.69167066  1
  F  F10  1  -0.04916553  -0.32033829  -0.19167066  1
  F  F11  1  0.32033829  0.27117275  -0.19167066  1
  F  F12  1  -0.27117275  0.04916553  -0.19167066  1
  F  F13  1  0.04916553  0.32033829  0.30832934  1
  F  F14  1  -0.32033829  -0.27117275  0.30832934  1
  F  F15  1  0.27117275  -0.04916553  0.30832934  1
  F  F16  1  0.36668488  0.02732605  0.18002910  1
  F  F17  1  0.97267395  0.33935883  0.18002910  1
  F  F18  1  0.66064117  0.63331512  0.18002910  1
  F  F19  1  0.63331512  0.97267395  0.68002910  1
  F  F20  1  0.02732605  0.66064117  0.68002910  1
  F  F21  1  0.33935883  0.36668488  0.68002910  1
  F  F22  1  0.63331512  0.97267395  0.81997090  1
  F  F23  1  0.02732605  0.66064117  0.81997090  1
  F  F24  1  0.33935883  0.36668488  0.81997090  1
  F  F25  1  0.36668488  0.02732605  0.31997090  1
  F  F26  1  0.97267395  0.33935883  0.31997090  1
  F  F27  1  0.66064117  0.63331512  0.31997090  1
  F  F28  1  0.00000000  0.00000000  0.25000000  1
  F  F29  1  0.00000000  0.00000000  0.75000000  1
  F  F30  1  0.66666667  0.33333333  0.25000000  1
  F  F31  1  0.33333333  0.66666667  0.75000000  1
  F  F32  1  0.50000000  0.00000000  0.00000000  1
  F  F33  1  0.00000000  0.50000000  0.00000000  1
  F  F34  1  0.50000000  0.50000000  0.00000000  1
  F  F35  1  0.50000000  0.00000000  0.50000000  1
  F  F36  1  0.00000000  0.50000000  0.50000000  1
  F  F37  1  0.50000000  0.50000000  0.50000000  1
  Li  Li38  1  0.55372530  0.99963994  0.25000000  1
  Li  Li39  1  0.00036006  0.55408535  0.25000000  1
  Li  Li40  1  0.44591465  0.44627470  0.25000000  1
  Li  Li41  1  0.44627470  0.00036006  0.75000000  1
  Li  Li42  1  0.99963994  0.44591465  0.75000000  1
  Li  Li43  1  0.55408535  0.55372530  0.75000000  1
  Li  Li44  1  0.20855855  0.05990128  0.36551910  1
  Li  Li45  1  0.94009872  0.14865727  0.36551910  1
  Li  Li46  1  0.85134273  0.79144145  0.36551910  1
  Li  Li47  1  0.79144145  0.94009872  0.86551910  1
  Li  Li48  1  0.05990128  0.85134273  0.86551910  1
  Li  Li49  1  0.14865727  0.20855855  0.86551910  1
  Li  Li50  1  0.79144145  0.94009872  0.63448090  1
  Li  Li51  1  0.05990128  0.85134273  0.63448090  1
  Li  Li52  1  0.14865727  0.20855855  0.63448090  1
  Li  Li53  1  0.20855855  0.05990128  0.13448090  1
  Li  Li54  1  0.94009872  0.14865727  0.13448090  1
  Li  Li55  1  0.85134273  0.79144145  0.13448090  1
  Li  Li56  1  0.12229071  0.49839540  0.45128779  1
  Li  Li57  1  0.50160460  0.62389531  0.45128779  1
  Li  Li58  1  0.37610469  0.87770929  0.45128779  1
  Li  Li59  1  0.87770929  0.50160460  0.95128779  1
  Li  Li60  1  0.49839540  0.37610469  0.95128779  1
  Li  Li61  1  0.62389531  0.12229071  0.95128779  1
  Li  Li62  1  0.87770929  0.50160460  0.54871221  1
  Li  Li63  1  0.49839540  0.37610469  0.54871221  1
  Li  Li64  1  0.62389531  0.12229071  0.54871221  1
  Li  Li65  1  0.12229071  0.49839540  0.04871221  1
  Li  Li66  1  0.50160460  0.62389531  0.04871221  1
  Li  Li67  1  0.37610469  0.87770929  0.04871221  1
  Li  Li68  1  0.33333333  0.66666667  0.96421902  1
  Li  Li69  1  0.66666667  0.33333333  0.46421902  1
  Li  Li70  1  0.66666667  0.33333333  0.03578098  1
  Li  Li71  1  0.33333333  0.66666667  0.53578098  1
  Se  Se72  1  0.33333333  0.66666667  0.61619499  1
  Se  Se73  1  0.66666667  0.33333333  0.11619499  1
  Se  Se74  1  0.66666667  0.33333333  0.38380501  1
  Se  Se75  1  0.33333333  0.66666667  0.88380501  1
