# generated using pymatgen
data_LiF
_symmetry_space_group_name_H-M   'P 1'
_cell_length_a   9.88725613
_cell_length_b   9.88725613
_cell_length_c   14.28118075
_cell_angle_alpha   90.00000000
_cell_angle_beta   90.00000000
_cell_angle_gamma   120.00000000
_symmetry_Int_Tables_number   1
_chemical_formula_structural   LiF
_chemical_formula_sum   'Li42 F42'
_cell_volume   1209.05572314
_cell_formula_units_Z   42
loop_
 _symmetry_equiv_pos_site_id
 _symmetry_equiv_pos_as_xyz
  1  'x, y, z'
loop_
 _atom_site_type_symbol
 _atom_site_label
 _atom_site_symmetry_multiplicity
 _atom_site_fract_x
 _atom_site_fract_y
 _atom_site_fract_z
 _atom_site_occupancy
  F  F0  1  0.52868910  0.49813799  0.25000000  1
  F  F1  1  0.50186201  0.03055111  0.25000000  1
  F  F2  1  0.96944889  0.47131090  0.25000000  1
  F  F3  1  0.47131090  0.50186201  0.75000000  1
  F  F4  1  0.49813799  0.96944889  0.75000000  1
  F  F5  1  0.03055111  0.52868910  0.75000000  1
  F  F6  1  0.00500169  0.66593613  0.48198913  1
  F  F7  1  0.33406387  0.33906557  0.48198913  1
  F  F8  1  0.66093443  0.99499831  0.48198913  1
  F  F9  1  0.99499831  0.33406387  0.98198913  1
  F  F10  1  0.66593613  0.66093443  0.98198913  1
  F  F11  1  0.33906557  0.00500169  0.98198913  1
  F  F12  1  0.99499831  0.33406387  0.51801087  1
  F  F13  1  0.66593613  0.66093443  0.51801087  1
  F  F14  1  0.33906557  0.00500169  0.51801087  1
  F  F15  1  0.00500169  0.66593613  0.01801087  1
  F  F16  1  0.33406387  0.33906557  0.01801087  1
  F  F17  1  0.66093443  0.99499831  0.01801087  1
  F  F18  1  0.09223979  0.94371212  0.00698877  1
  F  F19  1  0.05628788  0.14852767  0.00698877  1
  F  F20  1  0.85147233  0.90776021  0.00698877  1
  F  F21  1  0.90776021  0.05628788  0.50698877  1
  F  F22  1  0.94371212  0.85147233  0.50698877  1
  F  F23  1  0.14852767  0.09223979  0.50698877  1
  F  F24  1  0.90776021  0.05628788  0.99301123  1
  F  F25  1  0.94371212  0.85147233  0.99301123  1
  F  F26  1  0.14852767  0.09223979  0.99301123  1
  F  F27  1  0.09223979  0.94371212  0.49301123  1
  F  F28  1  0.05628788  0.14852767  0.49301123  1
  F  F29  1  0.85147233  0.90776021  0.49301123  1
  F  F30  1  0.23108480  0.02806148  0.78807368  1
  F  F31  1  0.97193852  0.20302332  0.78807368  1
  F  F32  1  0.79697668  0.76891520  0.78807368  1
  F  F33  1  0.76891520  0.97193852  0.28807368  1
  F  F34  1  0.02806148  0.79697668  0.28807368  1
  F  F35  1  0.20302332  0.23108480  0.28807368  1
  F  F36  1  0.76891520  0.97193852  0.21192632  1
  F  F37  1  0.02806148  0.79697668  0.21192632  1
  F  F38  1  0.20302332  0.23108480  0.21192632  1
  F  F39  1  0.23108480  0.02806148  0.71192632  1
  F  F40  1  0.97193852  0.20302332  0.71192632  1
  F  F41  1  0.79697668  0.76891520  0.71192632  1
  Li  Li42  1  0.00000000  0.00000000  0.00000000  1
  Li  Li43  1  0.00000000  0.00000000  0.50000000  1
  Li  Li44  1  0.88507896  0.56926806  0.25000000  1
  Li  Li45  1  0.43073194  0.31581090  0.25000000  1
  Li  Li46  1  0.68418910  0.11492104  0.25000000  1
  Li  Li47  1  0.11492104  0.43073194  0.75000000  1
  Li  Li48  1  0.56926806  0.68418910  0.75000000  1
  Li  Li49  1  0.31581090  0.88507896  0.75000000  1
  Li  Li50  1  0.50000000  -0.00000000  0.00000000  1
  Li  Li51  1  0.00000000  0.50000000  0.00000000  1
  Li  Li52  1  0.50000000  0.50000000  0.00000000  1
  Li  Li53  1  0.50000000  -0.00000000  0.50000000  1
  Li  Li54  1  0.00000000  0.50000000  0.50000000  1
  Li  Li55  1  0.50000000  0.50000000  0.50000000  1
  Li  Li56  1  0.41933412  0.79274471  0.51488871  1
  Li  Li57  1  -0.79274471  -0.37341060  0.51488871  1
  Li  Li58  1  0.37341060  -0.41933412  0.51488871  1
  Li  Li59  1  -0.41933412  -0.79274471  1.01488871  1
  Li  Li60  1  0.79274471  0.37341060  1.01488871  1
  Li  Li61  1  -0.37341060  0.41933412  1.01488871  1
  Li  Li62  1  -0.41933412  -0.79274471  -0.51488871  1
  Li  Li63  1  0.79274471  0.37341060  -0.51488871  1
  Li  Li64  1  -0.37341060  0.41933412  -0.51488871  1
  Li  Li65  1  0.41933412  0.79274471  -0.01488871  1
  Li  Li66  1  -0.79274471  -0.37341060  -0.01488871  1
  Li  Li67  1  0.37341060  -0.41933412  -0.01488871  1
  Li  Li68  1  0.42809882  0.52998255  0.17333472  1
  Li  Li69  1  0.47001745  0.89811627  0.17333472  1
  Li  Li70  1  0.10188373  0.57190118  0.17333472  1
  Li  Li71  1  0.57190118  0.47001745  0.67333472  1
  Li  Li72  1  0.52998255  0.10188373  0.67333472  1
  Li  Li73  1  0.89811627  0.42809882  0.67333472  1
  Li  Li74  1  0.57190118  0.47001745  0.82666528  1
  Li  Li75  1  0.52998255  0.10188373  0.82666528  1
  Li  Li76  1  0.89811627  0.42809882  0.82666528  1
  Li  Li77  1  0.42809882  0.52998255  0.32666528  1
  Li  Li78  1  0.47001745  0.89811627  0.32666528  1
  Li  Li79  1  0.10188373  0.57190118  0.32666528  1
  Li  Li80  1  0.00000000  0.00000000  0.25000000  1
  Li  Li81  1  0.00000000  0.00000000  0.75000000  1
  Li  Li82  1  0.33333333  0.66666667  0.25000000  1
  Li  Li83  1  0.66666667  0.33333333  0.75000000  1
