# generated using pymatgen
data_LiF
_symmetry_space_group_name_H-M   'P 1'
_cell_length_a   8.24304957
_cell_length_b   9.62203580
_cell_length_c   7.09477941
_cell_angle_alpha   90.00000000
_cell_angle_beta   90.00000000
_cell_angle_gamma   90.00000000
_symmetry_Int_Tables_number   1
_chemical_formula_structural   LiF
_chemical_formula_sum   'Li24 F24'
_cell_volume   562.72184739
_cell_formula_units_Z   24
loop_
 _symmetry_equiv_pos_site_id
 _symmetry_equiv_pos_as_xyz
  1  'x, y, z'
loop_
 _atom_site_type_symbol
 _atom_site_label
 _atom_site_symmetry_multiplicity
 _atom_site_fract_x
 _atom_site_fract_y
 _atom_site_fract_z
 _atom_site_occupancy
  F  F0  1  0.26002088  0.52426402  0.48808041  1
  F  F1  1  0.23997912  0.47573598  0.98808041  1
  F  F2  1  0.73997912  0.02426402  0.51191959  1
  F  F3  1  0.76002088  0.97573598  0.01191959  1
  F  F4  1  0.73997912  0.47573598  0.51191959  1
  F  F5  1  0.76002088  0.52426402  0.01191959  1
  F  F6  1  0.26002088  0.97573598  0.48808041  1
  F  F7  1  0.23997912  0.02426402  0.98808041  1
  F  F8  1  0.87807030  0.63781895  0.07496974  1
  F  F9  1  0.62192970  0.36218105  0.57496974  1
  F  F10  1  0.12192970  0.13781895  0.92503026  1
  F  F11  1  0.37807030  0.86218105  0.42503026  1
  F  F12  1  0.12192970  0.36218105  0.92503026  1
  F  F13  1  0.37807030  0.63781895  0.42503026  1
  F  F14  1  0.87807030  0.86218105  0.07496974  1
  F  F15  1  0.62192970  0.13781895  0.57496974  1
  F  F16  1  0.58746377  0.25000000  0.11089328  1
  F  F17  1  0.91253623  0.75000000  0.61089328  1
  F  F18  1  0.41253623  0.75000000  0.88910672  1
  F  F19  1  0.08746377  0.25000000  0.38910672  1
  F  F20  1  0.31004781  0.25000000  0.14592133  1
  F  F21  1  0.18995219  0.75000000  0.64592133  1
  F  F22  1  0.68995219  0.75000000  0.85407867  1
  F  F23  1  0.81004781  0.25000000  0.35407867  1
  Li  Li24  1  0.26243312  0.10407002  0.07123828  1
  Li  Li25  1  0.23756688  -0.10407002  0.57123828  1
  Li  Li26  1  -0.26243312  0.60407002  -0.07123828  1
  Li  Li27  1  0.76243312  0.39592998  0.42876172  1
  Li  Li28  1  -0.26243312  -0.10407002  -0.07123828  1
  Li  Li29  1  0.76243312  0.10407002  0.42876172  1
  Li  Li30  1  0.26243312  0.39592998  0.07123828  1
  Li  Li31  1  0.23756688  0.60407002  0.57123828  1
  Li  Li32  1  0.28640951  0.93221944  0.18198958  1
  Li  Li33  1  0.21359049  0.06778056  0.68198958  1
  Li  Li34  1  0.71359049  0.43221944  0.81801042  1
  Li  Li35  1  0.78640951  0.56778056  0.31801042  1
  Li  Li36  1  0.71359049  0.06778056  0.81801042  1
  Li  Li37  1  0.78640951  0.93221944  0.31801042  1
  Li  Li38  1  0.28640951  0.56778056  0.18198958  1
  Li  Li39  1  0.21359049  0.43221944  0.68198958  1
  Li  Li40  1  0.66534179  0.25000000  0.32906370  1
  Li  Li41  1  0.83465821  0.75000000  0.82906370  1
  Li  Li42  1  0.33465821  0.75000000  0.67093630  1
  Li  Li43  1  0.16534179  0.25000000  0.17093630  1
  Li  Li44  1  0.00000000  0.00000000  0.00000000  1
  Li  Li45  1  0.50000000  -0.00000000  0.50000000  1
  Li  Li46  1  0.00000000  0.50000000  0.00000000  1
  Li  Li47  1  0.50000000  0.50000000  0.50000000  1
