# generated using pymatgen
data_Li2YAs2P3Se2
_symmetry_space_group_name_H-M   'P 1'
_cell_length_a   5.60061980
_cell_length_b   5.72966559
_cell_length_c   7.28791684
_cell_angle_alpha   94.22700780
_cell_angle_beta   98.89925054
_cell_angle_gamma   105.48972238
_symmetry_Int_Tables_number   1
_chemical_formula_structural   Li2YAs2P3Se2
_chemical_formula_sum   'Li2 Y1 As2 P3 Se2'
_cell_volume   221.02852591
_cell_formula_units_Z   1
loop_
 _symmetry_equiv_pos_site_id
 _symmetry_equiv_pos_as_xyz
  1  'x, y, z'
loop_
 _atom_site_type_symbol
 _atom_site_label
 _atom_site_symmetry_multiplicity
 _atom_site_fract_x
 _atom_site_fract_y
 _atom_site_fract_z
 _atom_site_occupancy
  Se  Se0  1  0.12500000  0.00000000  0.25000000  1
  Se  Se1  1  0.00000000  0.00000000  0.00000000  1
  Y  Y2  1  0.37500000  0.00000000  0.25000000  1
  P  P3  1  0.25000000  0.25000000  0.25000000  1
  P  P4  1  0.00000000  0.25000000  0.12500000  1
  P  P5  1  0.88074810  0.26989634  0.87601424  1
  As  As6  1  0.80931964  0.56807717  0.59807963  1
  As  As7  1  0.85327587  0.09110012  0.39407816  1
  Li  Li8  1  0.35931098  0.71535536  0.28046733  1
  Li  Li9  1  0.92085813  0.03284226  0.89971736  1
