# generated using pymatgen
data_LiF
_symmetry_space_group_name_H-M   'P 1'
_cell_length_a   24.43594362
_cell_length_b   6.07553289
_cell_length_c   8.94161521
_cell_angle_alpha   90.00000000
_cell_angle_beta   90.00000000
_cell_angle_gamma   90.00000000
_symmetry_Int_Tables_number   1
_chemical_formula_structural   LiF
_chemical_formula_sum   'Li48 F48'
_cell_volume   1327.48452683
_cell_formula_units_Z   48
loop_
 _symmetry_equiv_pos_site_id
 _symmetry_equiv_pos_as_xyz
  1  'x, y, z'
loop_
 _atom_site_type_symbol
 _atom_site_label
 _atom_site_symmetry_multiplicity
 _atom_site_fract_x
 _atom_site_fract_y
 _atom_site_fract_z
 _atom_site_occupancy
  F  F0  1  0.67458871  0.05836008  0.62432648  1
  F  F1  1  0.82541129  0.94163992  0.12432648  1
  F  F2  1  0.32541129  0.55836008  0.37567352  1
  F  F3  1  0.17458871  0.44163992  0.87567352  1
  F  F4  1  0.32541129  0.94163992  0.37567352  1
  F  F5  1  0.17458871  0.05836008  0.87567352  1
  F  F6  1  0.67458871  0.44163992  0.62432648  1
  F  F7  1  0.82541129  0.55836008  0.12432648  1
  F  F8  1  0.31688580  0.89711055  0.52984463  1
  F  F9  1  0.18311420  0.10288945  0.02984463  1
  F  F10  1  0.68311420  0.39711055  0.47015537  1
  F  F11  1  0.81688580  0.60288945  0.97015537  1
  F  F12  1  0.68311420  0.10288945  0.47015537  1
  F  F13  1  0.81688580  0.89711055  0.97015537  1
  F  F14  1  0.31688580  0.60288945  0.52984463  1
  F  F15  1  0.18311420  0.39711055  0.02984463  1
  F  F16  1  0.54837068  0.98023070  0.75761447  1
  F  F17  1  0.95162932  0.01976930  0.25761447  1
  F  F18  1  0.45162932  0.48023070  0.24238553  1
  F  F19  1  0.04837068  0.51976930  0.74238553  1
  F  F20  1  0.45162932  0.01976930  0.24238553  1
  F  F21  1  0.04837068  0.98023070  0.74238553  1
  F  F22  1  0.54837068  0.51976930  0.75761447  1
  F  F23  1  0.95162932  0.48023070  0.25761447  1
  F  F24  1  0.83392900  0.86045574  0.42900200  1
  F  F25  1  0.66607100  0.13954426  0.92900200  1
  F  F26  1  0.16607100  0.36045574  0.57099800  1
  F  F27  1  0.33392900  0.63954426  0.07099800  1
  F  F28  1  0.16607100  0.13954426  0.57099800  1
  F  F29  1  0.33392900  0.86045574  0.07099800  1
  F  F30  1  0.83392900  0.63954426  0.42900200  1
  F  F31  1  0.66607100  0.36045574  0.92900200  1
  F  F32  1  0.44210843  0.82755290  0.62271303  1
  F  F33  1  0.05789157  0.17244710  0.12271303  1
  F  F34  1  0.55789157  0.32755290  0.37728697  1
  F  F35  1  0.94210843  0.67244710  0.87728697  1
  F  F36  1  0.55789157  0.17244710  0.37728697  1
  F  F37  1  0.94210843  0.82755290  0.87728697  1
  F  F38  1  0.44210843  0.67244710  0.62271303  1
  F  F39  1  0.05789157  0.32755290  0.12271303  1
  F  F40  1  0.40042078  0.49115436  0.04764959  1
  F  F41  1  0.09957922  0.50884564  0.54764959  1
  F  F42  1  0.59957922  0.99115436  0.95235041  1
  F  F43  1  0.90042078  0.00884564  0.45235041  1
  F  F44  1  0.59957922  0.50884564  0.95235041  1
  F  F45  1  0.90042078  0.49115436  0.45235041  1
  F  F46  1  0.40042078  0.00884564  0.04764959  1
  F  F47  1  0.09957922  0.99115436  0.54764959  1
  Li  Li48  1  0.08545333  0.52103083  0.68729825  1
  Li  Li49  1  0.41454667  -0.52103083  1.18729825  1
  Li  Li50  1  -0.08545333  1.02103083  -0.68729825  1
  Li  Li51  1  0.58545333  -0.02103083  -0.18729825  1
  Li  Li52  1  -0.08545333  -0.52103083  -0.68729825  1
  Li  Li53  1  0.58545333  0.52103083  -0.18729825  1
  Li  Li54  1  0.08545333  -0.02103083  0.68729825  1
  Li  Li55  1  0.41454667  1.02103083  1.18729825  1
  Li  Li56  1  0.68973708  0.53626656  0.19274904  1
  Li  Li57  1  0.81026292  0.46373344  0.69274904  1
  Li  Li58  1  0.31026292  0.03626656  0.80725096  1
  Li  Li59  1  0.18973708  0.96373344  0.30725096  1
  Li  Li60  1  0.31026292  0.46373344  0.80725096  1
  Li  Li61  1  0.18973708  0.53626656  0.30725096  1
  Li  Li62  1  0.68973708  0.96373344  0.19274904  1
  Li  Li63  1  0.81026292  0.03626656  0.69274904  1
  Li  Li64  1  0.86772823  0.25000000  0.35975220  1
  Li  Li65  1  0.63227177  0.75000000  0.85975220  1
  Li  Li66  1  0.13227177  0.75000000  0.64024780  1
  Li  Li67  1  0.36772823  0.25000000  0.14024780  1
  Li  Li68  1  0.00000000  0.00000000  0.00000000  1
  Li  Li69  1  0.50000000  0.00000000  0.50000000  1
  Li  Li70  1  0.00000000  0.50000000  0.00000000  1
  Li  Li71  1  0.50000000  0.50000000  0.50000000  1
  Li  Li72  1  0.00000000  0.00000000  0.50000000  1
  Li  Li73  1  0.50000000  0.00000000  0.00000000  1
  Li  Li74  1  0.00000000  0.50000000  0.50000000  1
  Li  Li75  1  0.50000000  0.50000000  -0.00000000  1
  Li  Li76  1  0.75844770  0.09258482  0.48330414  1
  Li  Li77  1  0.74155230  0.90741518  0.98330414  1
  Li  Li78  1  0.24155230  0.59258482  0.51669586  1
  Li  Li79  1  0.25844770  0.40741518  0.01669586  1
  Li  Li80  1  0.24155230  0.90741518  0.51669586  1
  Li  Li81  1  0.25844770  0.09258482  0.01669586  1
  Li  Li82  1  0.75844770  0.40741518  0.48330414  1
  Li  Li83  1  0.74155230  0.59258482  0.98330414  1
  Li  Li84  1  0.08504247  0.90760826  0.45818317  1
  Li  Li85  1  0.41495753  0.09239174  0.95818317  1
  Li  Li86  1  0.91495753  0.40760826  0.54181683  1
  Li  Li87  1  0.58504247  0.59239174  0.04181683  1
  Li  Li88  1  0.91495753  0.09239174  0.54181683  1
  Li  Li89  1  0.58504247  0.90760826  0.04181683  1
  Li  Li90  1  0.08504247  0.59239174  0.45818317  1
  Li  Li91  1  0.41495753  0.40760826  0.95818317  1
  Li  Li92  1  0.82010294  0.25000000  0.97866670  1
  Li  Li93  1  0.67989706  0.75000000  0.47866670  1
  Li  Li94  1  0.17989706  0.75000000  0.02133330  1
  Li  Li95  1  0.32010294  0.25000000  0.52133330  1
