# generated using pymatgen
data_LiF
_symmetry_space_group_name_H-M   'P 1'
_cell_length_a   7.65232032
_cell_length_b   7.65232032
_cell_length_c   8.49138803
_cell_angle_alpha   90.00000000
_cell_angle_beta   90.00000000
_cell_angle_gamma   90.00000000
_symmetry_Int_Tables_number   1
_chemical_formula_structural   LiF
_chemical_formula_sum   'Li26 F26'
_cell_volume   497.23875337
_cell_formula_units_Z   26
loop_
 _symmetry_equiv_pos_site_id
 _symmetry_equiv_pos_as_xyz
  1  'x, y, z'
loop_
 _atom_site_type_symbol
 _atom_site_label
 _atom_site_symmetry_multiplicity
 _atom_site_fract_x
 _atom_site_fract_y
 _atom_site_fract_z
 _atom_site_occupancy
  F  F0  1  0.42644975  0.50000000  0.26002425  1
  F  F1  1  0.57355025  0.50000000  0.26002425  1
  F  F2  1  0.50000000  0.42644975  0.26002425  1
  F  F3  1  0.50000000  0.57355025  0.26002425  1
  F  F4  1  0.57355025  0.50000000  0.73997575  1
  F  F5  1  0.42644975  0.50000000  0.73997575  1
  F  F6  1  0.50000000  0.42644975  0.73997575  1
  F  F7  1  0.50000000  0.57355025  0.73997575  1
  F  F8  1  0.36616948  0.50000000  0.00000000  1
  F  F9  1  0.63383052  0.50000000  -0.00000000  1
  F  F10  1  0.50000000  0.36616948  0.00000000  1
  F  F11  1  0.50000000  0.63383052  -0.00000000  1
  F  F12  1  0.63611397  0.63611397  0.00000000  1
  F  F13  1  0.36388603  0.36388603  -0.00000000  1
  F  F14  1  0.36388603  0.63611397  0.00000000  1
  F  F15  1  0.63611397  0.36388603  0.00000000  1
  F  F16  1  0.50000000  0.50000000  0.50000000  1
  F  F17  1  0.00000000  0.00000000  0.00000000  1
  F  F18  1  0.28622337  0.91142742  0.00000000  1
  F  F19  1  0.71377663  0.08857258  0.00000000  1
  F  F20  1  0.08857258  0.28622337  0.00000000  1
  F  F21  1  0.91142742  0.71377663  0.00000000  1
  F  F22  1  0.71377663  0.91142742  0.00000000  1
  F  F23  1  0.28622337  0.08857258  0.00000000  1
  F  F24  1  0.91142742  0.28622337  0.00000000  1
  F  F25  1  0.08857258  0.71377663  0.00000000  1
  Li  Li26  1  0.87861650  0.62834757  0.74667438  1
  Li  Li27  1  -0.87861650  -0.62834757  0.74667438  1
  Li  Li28  1  -0.62834757  0.87861650  0.74667438  1
  Li  Li29  1  0.62834757  -0.87861650  0.74667438  1
  Li  Li30  1  -0.87861650  0.62834757  -0.74667438  1
  Li  Li31  1  0.87861650  -0.62834757  -0.74667438  1
  Li  Li32  1  0.62834757  0.87861650  -0.74667438  1
  Li  Li33  1  -0.62834757  -0.87861650  -0.74667438  1
  Li  Li34  1  -0.87861650  -0.62834757  -0.74667438  1
  Li  Li35  1  0.87861650  0.62834757  -0.74667438  1
  Li  Li36  1  0.62834757  -0.87861650  -0.74667438  1
  Li  Li37  1  -0.62834757  0.87861650  -0.74667438  1
  Li  Li38  1  0.87861650  -0.62834757  0.74667438  1
  Li  Li39  1  -0.87861650  0.62834757  0.74667438  1
  Li  Li40  1  -0.62834757  -0.87861650  0.74667438  1
  Li  Li41  1  0.62834757  0.87861650  0.74667438  1
  Li  Li42  1  0.72497010  0.72497010  0.50000000  1
  Li  Li43  1  0.27502990  0.27502990  0.50000000  1
  Li  Li44  1  0.27502990  0.72497010  0.50000000  1
  Li  Li45  1  0.72497010  0.27502990  0.50000000  1
  Li  Li46  1  0.00000000  0.50000000  0.00000000  1
  Li  Li47  1  0.50000000  0.00000000  0.00000000  1
  Li  Li48  1  0.86325752  0.00000000  0.50000000  1
  Li  Li49  1  0.13674248  0.00000000  0.50000000  1
  Li  Li50  1  0.00000000  0.86325752  0.50000000  1
  Li  Li51  1  0.00000000  0.13674248  0.50000000  1
