# generated using pymatgen
data_LiF
_symmetry_space_group_name_H-M   'P 1'
_cell_length_a   4.47822940
_cell_length_b   4.47822940
_cell_length_c   36.32556301
_cell_angle_alpha   90.00000000
_cell_angle_beta   90.00000000
_cell_angle_gamma   120.00000000
_symmetry_Int_Tables_number   1
_chemical_formula_structural   LiF
_chemical_formula_sum   'Li27 F27'
_cell_volume   630.89292820
_cell_formula_units_Z   27
loop_
 _symmetry_equiv_pos_site_id
 _symmetry_equiv_pos_as_xyz
  1  'x, y, z'
loop_
 _atom_site_type_symbol
 _atom_site_label
 _atom_site_symmetry_multiplicity
 _atom_site_fract_x
 _atom_site_fract_y
 _atom_site_fract_z
 _atom_site_occupancy
  F  F0  1  0.09452812  0.68255864  0.61019026  1
  F  F1  1  -0.68255864  -0.58803051  0.61019026  1
  F  F2  1  0.58803051  -0.09452812  0.61019026  1
  F  F3  1  0.09452812  0.68255864  -0.61019026  1
  F  F4  1  -0.68255864  -0.58803051  -0.61019026  1
  F  F5  1  0.58803051  -0.09452812  -0.61019026  1
  F  F6  1  0.68255864  0.09452812  -0.61019026  1
  F  F7  1  -0.58803051  -0.68255864  -0.61019026  1
  F  F8  1  -0.09452812  0.58803051  -0.61019026  1
  F  F9  1  0.68255864  0.09452812  0.61019026  1
  F  F10  1  -0.58803051  -0.68255864  0.61019026  1
  F  F11  1  -0.09452812  0.58803051  0.61019026  1
  F  F12  1  0.52609482  0.88736796  -0.00000000  1
  F  F13  1  0.11263204  0.63872686  -0.00000000  1
  F  F14  1  0.36127314  0.47390518  -0.00000000  1
  F  F15  1  0.88736796  0.52609482  -0.00000000  1
  F  F16  1  0.63872686  0.11263204  -0.00000000  1
  F  F17  1  0.47390518  0.36127314  -0.00000000  1
  F  F18  1  0.27179928  0.00000000  0.76920252  1
  F  F19  1  0.00000000  0.27179928  0.76920252  1
  F  F20  1  0.72820072  0.72820072  0.76920252  1
  F  F21  1  0.27179928  0.00000000  0.23079748  1
  F  F22  1  0.00000000  0.27179928  0.23079748  1
  F  F23  1  0.72820072  0.72820072  0.23079748  1
  F  F24  1  0.31734473  -0.00000000  0.50000000  1
  F  F25  1  0.00000000  0.31734473  0.50000000  1
  F  F26  1  0.68265527  0.68265527  0.50000000  1
  Li  Li27  1  0.80863287  -0.00000000  0.83117859  1
  Li  Li28  1  0.00000000  0.80863287  0.83117859  1
  Li  Li29  1  0.19136713  0.19136713  0.83117859  1
  Li  Li30  1  0.80863287  -0.00000000  0.16882141  1
  Li  Li31  1  0.00000000  0.80863287  0.16882141  1
  Li  Li32  1  0.19136713  0.19136713  0.16882141  1
  Li  Li33  1  0.00000000  0.00000000  0.50000000  1
  Li  Li34  1  0.33333333  0.66666667  0.00000000  1
  Li  Li35  1  0.66666667  0.33333333  0.00000000  1
  Li  Li36  1  0.75725531  -0.00000000  0.24520839  1
  Li  Li37  1  0.00000000  0.75725531  0.24520839  1
  Li  Li38  1  0.24274469  0.24274469  0.24520839  1
  Li  Li39  1  0.75725531  -0.00000000  0.75479161  1
  Li  Li40  1  0.00000000  0.75725531  0.75479161  1
  Li  Li41  1  0.24274469  0.24274469  0.75479161  1
  Li  Li42  1  0.68680236  -0.00000000  0.50000000  1
  Li  Li43  1  0.00000000  0.68680236  0.50000000  1
  Li  Li44  1  0.31319764  0.31319764  0.50000000  1
  Li  Li45  1  0.00000000  0.00000000  0.00000000  1
  Li  Li46  1  0.33333333  0.66666667  0.50000000  1
  Li  Li47  1  0.66666667  0.33333333  0.50000000  1
  Li  Li48  1  0.74236305  0.00000000  0.31548119  1
  Li  Li49  1  0.00000000  0.74236305  0.31548119  1
  Li  Li50  1  0.25763695  0.25763695  0.31548119  1
  Li  Li51  1  0.74236305  0.00000000  0.68451881  1
  Li  Li52  1  0.00000000  0.74236305  0.68451881  1
  Li  Li53  1  0.25763695  0.25763695  0.68451881  1
