# generated using pymatgen
data_Li2Si4Te3F12
_symmetry_space_group_name_H-M   'P 1'
_cell_length_a   10.17041476
_cell_length_b   8.69700935
_cell_length_c   17.25423514
_cell_angle_alpha   90.00000000
_cell_angle_beta   90.00000000
_cell_angle_gamma   90.00000000
_symmetry_Int_Tables_number   1
_chemical_formula_structural   Li2Si4Te3F12
_chemical_formula_sum   'Li8 Si16 Te12 F48'
_cell_volume   1526.17492322
_cell_formula_units_Z   4
loop_
 _symmetry_equiv_pos_site_id
 _symmetry_equiv_pos_as_xyz
  1  'x, y, z'
loop_
 _atom_site_type_symbol
 _atom_site_label
 _atom_site_symmetry_multiplicity
 _atom_site_fract_x
 _atom_site_fract_y
 _atom_site_fract_z
 _atom_site_occupancy
  F  F0  1  0.43853659  0.16084554  0.50000000  1
  F  F1  1  0.56146341  0.83915446  0.50000000  1
  F  F2  1  0.06146341  0.66084554  0.50000000  1
  F  F3  1  0.93853659  0.33915446  0.50000000  1
  F  F4  1  0.44333211  0.78675528  0.96941033  1
  F  F5  1  -0.44333211  -0.78675528  0.96941033  1
  F  F6  1  0.05666789  1.28675528  -0.96941033  1
  F  F7  1  0.94333211  -0.28675528  -0.96941033  1
  F  F8  1  -0.44333211  -0.78675528  -0.96941033  1
  F  F9  1  0.44333211  0.78675528  -0.96941033  1
  F  F10  1  0.94333211  -0.28675528  0.96941033  1
  F  F11  1  0.05666789  1.28675528  0.96941033  1
  F  F12  1  0.76313879  0.70557240  0.18396723  1
  F  F13  1  0.23686121  0.29442760  0.18396723  1
  F  F14  1  0.73686121  0.20557240  0.81603277  1
  F  F15  1  0.26313879  0.79442760  0.81603277  1
  F  F16  1  0.23686121  0.29442760  0.81603277  1
  F  F17  1  0.76313879  0.70557240  0.81603277  1
  F  F18  1  0.26313879  0.79442760  0.18396723  1
  F  F19  1  0.73686121  0.20557240  0.18396723  1
  F  F20  1  0.68304771  0.03566425  0.12438284  1
  F  F21  1  0.31695229  0.96433575  0.12438284  1
  F  F22  1  0.81695229  0.53566425  0.87561716  1
  F  F23  1  0.18304771  0.46433575  0.87561716  1
  F  F24  1  0.31695229  0.96433575  0.87561716  1
  F  F25  1  0.68304771  0.03566425  0.87561716  1
  F  F26  1  0.18304771  0.46433575  0.12438284  1
  F  F27  1  0.81695229  0.53566425  0.12438284  1
  F  F28  1  0.19697158  0.28358096  -0.00000000  1
  F  F29  1  0.80302842  0.71641904  0.00000000  1
  F  F30  1  0.30302842  0.78358096  -0.00000000  1
  F  F31  1  0.69697158  0.21641904  0.00000000  1
  F  F32  1  0.78767441  0.59119590  0.71056962  1
  F  F33  1  0.21232559  0.40880410  0.71056962  1
  F  F34  1  0.71232559  0.09119590  0.28943038  1
  F  F35  1  0.28767441  0.90880410  0.28943038  1
  F  F36  1  0.21232559  0.40880410  0.28943038  1
  F  F37  1  0.78767441  0.59119590  0.28943038  1
  F  F38  1  0.28767441  0.90880410  0.71056962  1
  F  F39  1  0.71232559  0.09119590  0.71056962  1
  F  F40  1  0.22851389  0.26214075  0.39290843  1
  F  F41  1  0.77148611  0.73785925  0.39290843  1
  F  F42  1  0.27148611  0.76214075  0.60709157  1
  F  F43  1  0.72851389  0.23785925  0.60709157  1
  F  F44  1  0.77148611  0.73785925  0.60709157  1
  F  F45  1  0.22851389  0.26214075  0.60709157  1
  F  F46  1  0.72851389  0.23785925  0.39290843  1
  F  F47  1  0.27148611  0.76214075  0.39290843  1
  Li  Li48  1  0.50707200  0.80371459  0.24782651  1
  Li  Li49  1  0.49292800  0.19628541  0.24782651  1
  Li  Li50  1  0.99292800  0.30371459  0.75217349  1
  Li  Li51  1  0.00707200  0.69628541  0.75217349  1
  Li  Li52  1  0.49292800  0.19628541  0.75217349  1
  Li  Li53  1  0.50707200  0.80371459  0.75217349  1
  Li  Li54  1  0.00707200  0.69628541  0.24782651  1
  Li  Li55  1  0.99292800  0.30371459  0.24782651  1
  Si  Si56  1  0.00000000  0.00000000  0.00000000  1
  Si  Si57  1  0.50000000  0.50000000  0.00000000  1
  Si  Si58  1  0.82538757  0.14040079  0.12338925  1
  Si  Si59  1  0.17461243  0.85959921  0.12338925  1
  Si  Si60  1  0.67461243  0.64040079  0.87661075  1
  Si  Si61  1  0.32538757  0.35959921  0.87661075  1
  Si  Si62  1  0.17461243  0.85959921  0.87661075  1
  Si  Si63  1  0.82538757  0.14040079  0.87661075  1
  Si  Si64  1  0.32538757  0.35959921  0.12338925  1
  Si  Si65  1  0.67461243  0.64040079  0.12338925  1
  Si  Si66  1  0.00000000  0.50000000  0.50000000  1
  Si  Si67  1  0.50000000  0.00000000  0.50000000  1
  Si  Si68  1  0.84347503  0.03742946  0.50000000  1
  Si  Si69  1  0.15652497  0.96257054  0.50000000  1
  Si  Si70  1  0.65652497  0.53742946  0.50000000  1
  Si  Si71  1  0.34347503  0.46257054  0.50000000  1
  Te  Te72  1  0.33665079  0.78790768  0.50000000  1
  Te  Te73  1  0.66334921  0.21209232  0.50000000  1
  Te  Te74  1  0.16334921  0.28790768  0.50000000  1
  Te  Te75  1  0.83665079  0.71209232  0.50000000  1
  Te  Te76  1  0.00000000  0.50000000  -0.00000000  1
  Te  Te77  1  0.50000000  0.00000000  0.00000000  1
  Te  Te78  1  0.00000000  0.50000000  0.10682451  1
  Te  Te79  1  0.50000000  0.00000000  0.89317549  1
  Te  Te80  1  0.00000000  0.50000000  0.89317549  1
  Te  Te81  1  0.50000000  0.00000000  0.10682451  1
  Te  Te82  1  0.00000000  0.00000000  0.50000000  1
  Te  Te83  1  0.50000000  0.50000000  0.50000000  1
