# generated using pymatgen
data_LiF
_symmetry_space_group_name_H-M   'P 1'
_cell_length_a   8.01217748
_cell_length_b   8.01217748
_cell_length_c   35.82584689
_cell_angle_alpha   90.00000000
_cell_angle_beta   90.00000000
_cell_angle_gamma   90.00000000
_symmetry_Int_Tables_number   1
_chemical_formula_structural   LiF
_chemical_formula_sum   'Li64 F64'
_cell_volume   2299.83980927
_cell_formula_units_Z   64
loop_
 _symmetry_equiv_pos_site_id
 _symmetry_equiv_pos_as_xyz
  1  'x, y, z'
loop_
 _atom_site_type_symbol
 _atom_site_label
 _atom_site_symmetry_multiplicity
 _atom_site_fract_x
 _atom_site_fract_y
 _atom_site_fract_z
 _atom_site_occupancy
  F  F0  1  0.16483785  0.68910030  0.87525665  1
  F  F1  1  0.33516215  0.31089970  0.37525665  1
  F  F2  1  0.56089970  0.91483785  0.12525665  1
  F  F3  1  0.93910030  0.08516215  0.62525665  1
  F  F4  1  0.33516215  0.68910030  0.12474335  1
  F  F5  1  0.16483785  0.31089970  0.62474335  1
  F  F6  1  0.93910030  0.91483785  0.87474335  1
  F  F7  1  0.56089970  0.08516215  0.37474335  1
  F  F8  1  0.83516215  0.31089970  0.12474335  1
  F  F9  1  0.66483785  0.68910030  0.62474335  1
  F  F10  1  0.43910030  0.08516215  0.87474335  1
  F  F11  1  0.06089970  0.91483785  0.37474335  1
  F  F12  1  0.66483785  0.31089970  0.87525665  1
  F  F13  1  0.83516215  0.68910030  0.37525665  1
  F  F14  1  0.06089970  0.08516215  0.12525665  1
  F  F15  1  0.43910030  0.91483785  0.62525665  1
  F  F16  1  0.66483785  0.18910030  0.37525665  1
  F  F17  1  0.83516215  0.81089970  0.87525665  1
  F  F18  1  0.06089970  0.41483785  0.62525665  1
  F  F19  1  0.43910030  0.58516215  0.12525665  1
  F  F20  1  0.83516215  0.18910030  0.62474335  1
  F  F21  1  0.66483785  0.81089970  0.12474335  1
  F  F22  1  0.43910030  0.41483785  0.37474335  1
  F  F23  1  0.06089970  0.58516215  0.87474335  1
  F  F24  1  0.33516215  0.81089970  0.62474335  1
  F  F25  1  0.16483785  0.18910030  0.12474335  1
  F  F26  1  0.93910030  0.58516215  0.37474335  1
  F  F27  1  0.56089970  0.41483785  0.87474335  1
  F  F28  1  0.16483785  0.81089970  0.37525665  1
  F  F29  1  0.33516215  0.18910030  0.87525665  1
  F  F30  1  0.56089970  0.58516215  0.62525665  1
  F  F31  1  0.93910030  0.41483785  0.12525665  1
  F  F32  1  0.11289479  0.81321041  0.78458115  1
  F  F33  1  0.38710521  0.18678959  0.28458115  1
  F  F34  1  0.43678959  0.86289479  0.03458115  1
  F  F35  1  0.06321041  0.13710521  0.53458115  1
  F  F36  1  0.38710521  0.81321041  0.21541885  1
  F  F37  1  0.11289479  0.18678959  0.71541885  1
  F  F38  1  0.06321041  0.86289479  0.96541885  1
  F  F39  1  0.43678959  0.13710521  0.46541885  1
  F  F40  1  0.88710521  0.18678959  0.21541885  1
  F  F41  1  0.61289479  0.81321041  0.71541885  1
  F  F42  1  0.56321041  0.13710521  0.96541885  1
  F  F43  1  0.93678959  0.86289479  0.46541885  1
  F  F44  1  0.61289479  0.18678959  0.78458115  1
  F  F45  1  0.88710521  0.81321041  0.28458115  1
  F  F46  1  0.93678959  0.13710521  0.03458115  1
  F  F47  1  0.56321041  0.86289479  0.53458115  1
  F  F48  1  0.61289479  0.31321041  0.28458115  1
  F  F49  1  0.88710521  0.68678959  0.78458115  1
  F  F50  1  0.93678959  0.36289479  0.53458115  1
  F  F51  1  0.56321041  0.63710521  0.03458115  1
  F  F52  1  0.88710521  0.31321041  0.71541885  1
  F  F53  1  0.61289479  0.68678959  0.21541885  1
  F  F54  1  0.56321041  0.36289479  0.46541885  1
  F  F55  1  0.93678959  0.63710521  0.96541885  1
  F  F56  1  0.38710521  0.68678959  0.71541885  1
  F  F57  1  0.11289479  0.31321041  0.21541885  1
  F  F58  1  0.06321041  0.63710521  0.46541885  1
  F  F59  1  0.43678959  0.36289479  0.96541885  1
  F  F60  1  0.11289479  0.68678959  0.28458115  1
  F  F61  1  0.38710521  0.31321041  0.78458115  1
  F  F62  1  0.43678959  0.63710521  0.53458115  1
  F  F63  1  0.06321041  0.36289479  0.03458115  1
  Li  Li64  1  0.40889084  0.81162907  0.46106708  1
  Li  Li65  1  0.09110916  -0.81162907  0.96106708  1
  Li  Li66  1  -0.56162907  1.15889084  0.71106708  1
  Li  Li67  1  1.06162907  -0.15889084  1.21106708  1
  Li  Li68  1  0.09110916  0.81162907  -0.46106708  1
  Li  Li69  1  0.40889084  -0.81162907  0.03893292  1
  Li  Li70  1  1.06162907  1.15889084  0.28893292  1
  Li  Li71  1  -0.56162907  -0.15889084  -0.21106708  1
  Li  Li72  1  -0.40889084  -0.81162907  -0.46106708  1
  Li  Li73  1  0.90889084  0.81162907  0.03893292  1
  Li  Li74  1  1.56162907  -0.15889084  0.28893292  1
  Li  Li75  1  -0.06162907  1.15889084  -0.21106708  1
  Li  Li76  1  0.90889084  -0.81162907  0.46106708  1
  Li  Li77  1  -0.40889084  0.81162907  0.96106708  1
  Li  Li78  1  -0.06162907  -0.15889084  0.71106708  1
  Li  Li79  1  1.56162907  1.15889084  1.21106708  1
  Li  Li80  1  0.90889084  1.31162907  0.96106708  1
  Li  Li81  1  0.59110916  -0.31162907  1.46106708  1
  Li  Li82  1  -0.06162907  1.65889084  1.21106708  1
  Li  Li83  1  1.56162907  0.34110916  1.71106708  1
  Li  Li84  1  0.59110916  1.31162907  0.03893292  1
  Li  Li85  1  0.90889084  -0.31162907  0.53893292  1
  Li  Li86  1  1.56162907  1.65889084  0.78893292  1
  Li  Li87  1  -0.06162907  0.34110916  0.28893292  1
  Li  Li88  1  0.09110916  -0.31162907  0.03893292  1
  Li  Li89  1  1.40889084  1.31162907  0.53893292  1
  Li  Li90  1  2.06162907  0.34110916  0.78893292  1
  Li  Li91  1  0.43837093  1.65889084  0.28893292  1
  Li  Li92  1  1.40889084  -0.31162907  0.96106708  1
  Li  Li93  1  0.09110916  1.31162907  1.46106708  1
  Li  Li94  1  0.43837093  0.34110916  1.21106708  1
  Li  Li95  1  2.06162907  1.65889084  1.71106708  1
  Li  Li96  1  0.00000000  0.00000000  0.00000000  1
  Li  Li97  1  0.50000000  0.00000000  0.50000000  1
  Li  Li98  1  0.25000000  0.75000000  0.25000000  1
  Li  Li99  1  0.25000000  0.25000000  0.75000000  1
  Li  Li100  1  0.50000000  0.00000000  0.00000000  1
  Li  Li101  1  0.00000000  0.00000000  0.50000000  1
  Li  Li102  1  0.25000000  0.75000000  0.75000000  1
  Li  Li103  1  0.25000000  0.25000000  0.25000000  1
  Li  Li104  1  0.50000000  0.50000000  0.50000000  1
  Li  Li105  1  0.00000000  0.50000000  0.00000000  1
  Li  Li106  1  0.75000000  0.25000000  0.75000000  1
  Li  Li107  1  0.75000000  0.75000000  0.25000000  1
  Li  Li108  1  0.00000000  0.50000000  0.50000000  1
  Li  Li109  1  0.50000000  0.50000000  0.00000000  1
  Li  Li110  1  0.75000000  0.25000000  0.25000000  1
  Li  Li111  1  0.75000000  0.75000000  0.75000000  1
  Li  Li112  1  0.00000000  0.25000000  0.37500000  1
  Li  Li113  1  0.00000000  0.75000000  0.62500000  1
  Li  Li114  1  0.50000000  0.25000000  0.62500000  1
  Li  Li115  1  0.50000000  0.75000000  0.37500000  1
  Li  Li116  1  0.50000000  0.75000000  0.87500000  1
  Li  Li117  1  0.50000000  0.25000000  0.12500000  1
  Li  Li118  1  0.00000000  0.75000000  0.12500000  1
  Li  Li119  1  0.00000000  0.25000000  0.87500000  1
  Li  Li120  1  0.00000000  0.25000000  0.12500000  1
  Li  Li121  1  0.00000000  0.75000000  0.37500000  1
  Li  Li122  1  0.00000000  0.75000000  0.87500000  1
  Li  Li123  1  0.00000000  0.25000000  0.62500000  1
  Li  Li124  1  0.50000000  0.75000000  0.62500000  1
  Li  Li125  1  0.50000000  0.25000000  0.87500000  1
  Li  Li126  1  0.50000000  0.25000000  0.37500000  1
  Li  Li127  1  0.50000000  0.75000000  0.12500000  1
