# generated using pymatgen
data_LiF
_symmetry_space_group_name_H-M   'P 1'
_cell_length_a   10.66820489
_cell_length_b   10.62611991
_cell_length_c   8.82981604
_cell_angle_alpha   90.00000000
_cell_angle_beta   90.00000000
_cell_angle_gamma   90.00000000
_symmetry_Int_Tables_number   1
_chemical_formula_structural   LiF
_chemical_formula_sum   'Li24 F24'
_cell_volume   1000.96228958
_cell_formula_units_Z   24
loop_
 _symmetry_equiv_pos_site_id
 _symmetry_equiv_pos_as_xyz
  1  'x, y, z'
loop_
 _atom_site_type_symbol
 _atom_site_label
 _atom_site_symmetry_multiplicity
 _atom_site_fract_x
 _atom_site_fract_y
 _atom_site_fract_z
 _atom_site_occupancy
  F  F0  1  0.36564583  0.25000000  0.49731183  1
  F  F1  1  0.13435417  0.75000000  0.99731183  1
  F  F2  1  0.63435417  0.75000000  0.50268817  1
  F  F3  1  0.86564583  0.25000000  0.00268817  1
  F  F4  1  0.98084622  0.17976153  0.81058043  1
  F  F5  1  0.51915378  0.82023847  0.31058043  1
  F  F6  1  0.01915378  0.67976153  0.18941957  1
  F  F7  1  0.48084622  0.32023847  0.68941957  1
  F  F8  1  0.01915378  0.82023847  0.18941957  1
  F  F9  1  0.48084622  0.17976153  0.68941957  1
  F  F10  1  0.98084622  0.32023847  0.81058043  1
  F  F11  1  0.51915378  0.67976153  0.31058043  1
  F  F12  1  0.29379874  0.41304394  0.20715686  1
  F  F13  1  0.20620126  0.58695606  0.70715686  1
  F  F14  1  0.70620126  0.91304394  0.79284314  1
  F  F15  1  0.79379874  0.08695606  0.29284314  1
  F  F16  1  0.70620126  0.58695606  0.79284314  1
  F  F17  1  0.79379874  0.41304394  0.29284314  1
  F  F18  1  0.29379874  0.08695606  0.20715686  1
  F  F19  1  0.20620126  0.91304394  0.70715686  1
  F  F20  1  0.13715231  0.25000000  0.10840468  1
  F  F21  1  0.36284769  0.75000000  0.60840468  1
  F  F22  1  0.86284769  0.75000000  0.89159532  1
  F  F23  1  0.63715231  0.25000000  0.39159532  1
  Li  Li24  1  0.08104127  0.41008333  0.56909932  1
  Li  Li25  1  0.41895873  -0.41008333  1.06909932  1
  Li  Li26  1  -0.08104127  0.91008333  -0.56909932  1
  Li  Li27  1  0.58104127  0.08991667  -0.06909932  1
  Li  Li28  1  -0.08104127  -0.41008333  -0.56909932  1
  Li  Li29  1  0.58104127  0.41008333  -0.06909932  1
  Li  Li30  1  0.08104127  0.08991667  0.56909932  1
  Li  Li31  1  0.41895873  0.91008333  1.06909932  1
  Li  Li32  1  0.00000000  0.00000000  0.00000000  1
  Li  Li33  1  0.50000000  0.00000000  0.50000000  1
  Li  Li34  1  0.00000000  0.50000000  0.00000000  1
  Li  Li35  1  0.50000000  0.50000000  0.50000000  1
  Li  Li36  1  0.41424516  0.25000000  0.70957330  1
  Li  Li37  1  0.08575484  0.75000000  0.20957330  1
  Li  Li38  1  0.58575484  0.75000000  0.29042670  1
  Li  Li39  1  0.91424516  0.25000000  0.79042670  1
  Li  Li40  1  0.00000000  0.00000000  0.50000000  1
  Li  Li41  1  0.50000000  0.00000000  0.00000000  1
  Li  Li42  1  0.00000000  0.50000000  0.50000000  1
  Li  Li43  1  0.50000000  0.50000000  0.00000000  1
  Li  Li44  1  0.38341024  0.25000000  0.23032706  1
  Li  Li45  1  0.11658976  0.75000000  0.73032706  1
  Li  Li46  1  0.61658976  0.75000000  0.76967294  1
  Li  Li47  1  0.88341024  0.25000000  0.26967294  1
