# generated using pymatgen
data_Li2Y2Cu3P3Se
_symmetry_space_group_name_H-M   'P 1'
_cell_length_a   4.45392432
_cell_length_b   4.52315125
_cell_length_c   6.67881146
_cell_angle_alpha   95.45374797
_cell_angle_beta   100.41501469
_cell_angle_gamma   109.61255544
_symmetry_Int_Tables_number   1
_chemical_formula_structural   Li2Y2Cu3P3Se
_chemical_formula_sum   'Li2 Y2 Cu3 P3 Se1'
_cell_volume   122.88209434
_cell_formula_units_Z   1
loop_
 _symmetry_equiv_pos_site_id
 _symmetry_equiv_pos_as_xyz
  1  'x, y, z'
loop_
 _atom_site_type_symbol
 _atom_site_label
 _atom_site_symmetry_multiplicity
 _atom_site_fract_x
 _atom_site_fract_y
 _atom_site_fract_z
 _atom_site_occupancy
  Se  Se0  1  0.12500000  0.00000000  0.25000000  1
  Cu  Cu1  1  0.00000000  0.00000000  0.00000000  1
  Cu  Cu2  1  0.37500000  0.00000000  0.25000000  1
  Cu  Cu3  1  0.25000000  0.25000000  0.25000000  1
  P  P4  1  0.00000000  0.25000000  0.12500000  1
  P  P5  1  0.07520067  0.28784770  0.37701519  1
  P  P6  1  0.30511999  0.97220303  0.34569830  1
  Li  Li7  1  0.66886891  0.26222809  0.67121395  1
  Li  Li8  1  0.49466712  0.22213393  0.95454907  1
  Y  Y9  1  0.34747312  0.96300594  0.99664673  1
  Y  Y10  1  0.31609553  0.95759829  0.01774402  1
