# generated using pymatgen
data_LiAlSe2
_symmetry_space_group_name_H-M   'P 1'
_cell_length_a   9.25537468
_cell_length_b   9.25537468
_cell_length_c   27.69744235
_cell_angle_alpha   90.00000000
_cell_angle_beta   90.00000000
_cell_angle_gamma   120.00000000
_symmetry_Int_Tables_number   1
_chemical_formula_structural   LiAlSe2
_chemical_formula_sum   'Li24 Al24 Se48'
_cell_volume   2054.74678000
_cell_formula_units_Z   24
loop_
 _symmetry_equiv_pos_site_id
 _symmetry_equiv_pos_as_xyz
  1  'x, y, z'
loop_
 _atom_site_type_symbol
 _atom_site_label
 _atom_site_symmetry_multiplicity
 _atom_site_fract_x
 _atom_site_fract_y
 _atom_site_fract_z
 _atom_site_occupancy
  Al  Al0  1  0.15108085  0.17942941  0.72569628  1
  Al  Al1  1  -0.17942941  -0.02834855  0.72569628  1
  Al  Al2  1  0.02834855  -0.15108085  0.72569628  1
  Al  Al3  1  -0.15108085  -0.17942941  1.22569628  1
  Al  Al4  1  0.17942941  0.02834855  1.22569628  1
  Al  Al5  1  -0.02834855  0.15108085  1.22569628  1
  Al  Al6  1  -0.15108085  -0.17942941  -0.72569628  1
  Al  Al7  1  0.17942941  0.02834855  -0.72569628  1
  Al  Al8  1  -0.02834855  0.15108085  -0.72569628  1
  Al  Al9  1  0.15108085  0.17942941  -0.22569628  1
  Al  Al10  1  -0.17942941  -0.02834855  -0.22569628  1
  Al  Al11  1  0.02834855  -0.15108085  -0.22569628  1
  Al  Al12  1  0.66909434  0.46369257  0.05494759  1
  Al  Al13  1  0.53630743  0.20540178  0.05494759  1
  Al  Al14  1  0.79459822  0.33090566  0.05494759  1
  Al  Al15  1  0.33090566  0.53630743  0.55494759  1
  Al  Al16  1  0.46369257  0.79459822  0.55494759  1
  Al  Al17  1  0.20540178  0.66909434  0.55494759  1
  Al  Al18  1  0.33090566  0.53630743  0.94505241  1
  Al  Al19  1  0.46369257  0.79459822  0.94505241  1
  Al  Al20  1  0.20540178  0.66909434  0.94505241  1
  Al  Al21  1  0.66909434  0.46369257  0.44505241  1
  Al  Al22  1  0.53630743  0.20540178  0.44505241  1
  Al  Al23  1  0.79459822  0.33090566  0.44505241  1
  Li  Li24  1  0.43571772  0.68147804  0.17537229  1
  Li  Li25  1  0.31852196  0.75423968  0.17537229  1
  Li  Li26  1  0.24576032  0.56428228  0.17537229  1
  Li  Li27  1  0.56428228  0.31852196  0.67537229  1
  Li  Li28  1  0.68147804  0.24576032  0.67537229  1
  Li  Li29  1  0.75423968  0.43571772  0.67537229  1
  Li  Li30  1  0.56428228  0.31852196  0.82462771  1
  Li  Li31  1  0.68147804  0.24576032  0.82462771  1
  Li  Li32  1  0.75423968  0.43571772  0.82462771  1
  Li  Li33  1  0.43571772  0.68147804  0.32462771  1
  Li  Li34  1  0.31852196  0.75423968  0.32462771  1
  Li  Li35  1  0.24576032  0.56428228  0.32462771  1
  Li  Li36  1  0.33333333  0.66666667  0.57962066  1
  Li  Li37  1  0.66666667  0.33333333  0.07962066  1
  Li  Li38  1  0.66666667  0.33333333  0.42037934  1
  Li  Li39  1  0.33333333  0.66666667  0.92037934  1
  Li  Li40  1  0.66666667  0.33333333  0.25000000  1
  Li  Li41  1  0.33333333  0.66666667  0.75000000  1
  Li  Li42  1  0.51409879  0.01170515  0.25000000  1
  Li  Li43  1  0.98829485  0.50239363  0.25000000  1
  Li  Li44  1  0.49760637  0.48590121  0.25000000  1
  Li  Li45  1  0.48590121  0.98829485  0.75000000  1
  Li  Li46  1  0.01170515  0.49760637  0.75000000  1
  Li  Li47  1  0.50239363  0.51409879  0.75000000  1
  Se  Se48  1  0.00000000  0.00000000  0.35644479  1
  Se  Se49  1  0.00000000  0.00000000  0.85644479  1
  Se  Se50  1  0.00000000  0.00000000  0.64355521  1
  Se  Se51  1  0.00000000  0.00000000  0.14355521  1
  Se  Se52  1  0.39873248  0.37739955  0.47315862  1
  Se  Se53  1  0.62260045  0.02133292  0.47315862  1
  Se  Se54  1  0.97866708  0.60126752  0.47315862  1
  Se  Se55  1  0.60126752  0.62260045  0.97315862  1
  Se  Se56  1  0.37739955  0.97866708  0.97315862  1
  Se  Se57  1  0.02133292  0.39873248  0.97315862  1
  Se  Se58  1  0.60126752  0.62260045  0.52684138  1
  Se  Se59  1  0.37739955  0.97866708  0.52684138  1
  Se  Se60  1  0.02133292  0.39873248  0.52684138  1
  Se  Se61  1  0.39873248  0.37739955  0.02684138  1
  Se  Se62  1  0.62260045  0.02133292  0.02684138  1
  Se  Se63  1  0.97866708  0.60126752  0.02684138  1
  Se  Se64  1  0.97575662  0.29353383  0.25000000  1
  Se  Se65  1  0.70646617  0.68222279  0.25000000  1
  Se  Se66  1  0.31777721  0.02424338  0.25000000  1
  Se  Se67  1  0.02424338  0.70646617  0.75000000  1
  Se  Se68  1  0.29353383  0.31777721  0.75000000  1
  Se  Se69  1  0.68222279  0.97575662  0.75000000  1
  Se  Se70  1  0.14149443  0.45071872  0.91157885  1
  Se  Se71  1  0.54928128  0.69077571  0.91157885  1
  Se  Se72  1  0.30922429  0.85850557  0.91157885  1
  Se  Se73  1  0.85850557  0.54928128  0.41157885  1
  Se  Se74  1  0.45071872  0.30922429  0.41157885  1
  Se  Se75  1  0.69077571  0.14149443  0.41157885  1
  Se  Se76  1  0.85850557  0.54928128  0.08842115  1
  Se  Se77  1  0.45071872  0.30922429  0.08842115  1
  Se  Se78  1  0.69077571  0.14149443  0.08842115  1
  Se  Se79  1  0.14149443  0.45071872  0.58842115  1
  Se  Se80  1  0.54928128  0.69077571  0.58842115  1
  Se  Se81  1  0.30922429  0.85850557  0.58842115  1
  Se  Se82  1  0.81415537  0.33494661  0.25000000  1
  Se  Se83  1  0.66505339  0.47920876  0.25000000  1
  Se  Se84  1  0.52079124  0.18584463  0.25000000  1
  Se  Se85  1  0.18584463  0.66505339  0.75000000  1
  Se  Se86  1  0.33494661  0.52079124  0.75000000  1
  Se  Se87  1  0.47920876  0.81415537  0.75000000  1
  Se  Se88  1  0.12195030  0.73824949  0.25000000  1
  Se  Se89  1  0.26175051  0.38370080  0.25000000  1
  Se  Se90  1  0.61629920  0.87804970  0.25000000  1
  Se  Se91  1  0.87804970  0.26175051  0.75000000  1
  Se  Se92  1  0.73824949  0.61629920  0.75000000  1
  Se  Se93  1  0.38370080  0.12195030  0.75000000  1
  Se  Se94  1  0.33333333  0.66666667  0.25000000  1
  Se  Se95  1  0.66666667  0.33333333  0.75000000  1
