# generated using pymatgen
data_Li2AlSb2AsF6
_symmetry_space_group_name_H-M   'P 1'
_cell_length_a   7.59785157
_cell_length_b   6.86841045
_cell_length_c   8.14778420
_cell_angle_alpha   90.00000000
_cell_angle_beta   90.00000000
_cell_angle_gamma   90.00000000
_symmetry_Int_Tables_number   1
_chemical_formula_structural   Li2AlSb2AsF6
_chemical_formula_sum   'Li2 Al1 Sb2 As1 F6'
_cell_volume   425.19344757
_cell_formula_units_Z   1
loop_
 _symmetry_equiv_pos_site_id
 _symmetry_equiv_pos_as_xyz
  1  'x, y, z'
loop_
 _atom_site_type_symbol
 _atom_site_label
 _atom_site_symmetry_multiplicity
 _atom_site_fract_x
 _atom_site_fract_y
 _atom_site_fract_z
 _atom_site_occupancy
  Al  Al0  1  0.00000000  0.00000000  0.00000000  1
  F  F1  1  0.50000000  0.50000000  0.50000000  1
  F  F2  1  0.25000000  0.25000000  0.25000000  1
  F  F3  1  0.75000000  0.25000000  0.00000000  1
  F  F4  1  0.25000000  0.75000000  0.50000000  1
  F  F5  1  0.30808938  0.95764851  0.52488159  1
  F  F6  1  0.22387293  0.42801918  0.96083239  1
  As  As7  1  0.87630724  0.78499036  0.32756648  1
  Li  Li8  1  0.07962733  0.53025261  0.56165031  1
  Li  Li9  1  0.43813067  0.40830564  0.84880471  1
  Sb  Sb10  1  0.53485577  0.82651393  0.81568283  1
  Sb  Sb11  1  0.79634425  0.10308629  0.57074394  1
