# generated using pymatgen
data_LiF
_symmetry_space_group_name_H-M   'P 1'
_cell_length_a   11.04468219
_cell_length_b   11.04468219
_cell_length_c   3.30590832
_cell_angle_alpha   90.00000000
_cell_angle_beta   90.00000000
_cell_angle_gamma   120.00000000
_symmetry_Int_Tables_number   1
_chemical_formula_structural   LiF
_chemical_formula_sum   'Li16 F16'
_cell_volume   349.24313990
_cell_formula_units_Z   16
loop_
 _symmetry_equiv_pos_site_id
 _symmetry_equiv_pos_as_xyz
  1  'x, y, z'
loop_
 _atom_site_type_symbol
 _atom_site_label
 _atom_site_symmetry_multiplicity
 _atom_site_fract_x
 _atom_site_fract_y
 _atom_site_fract_z
 _atom_site_occupancy
  F  F0  1  0.54139927  0.86176493  0.64673749  1
  F  F1  1  -0.86176493  -0.32036566  0.64673749  1
  F  F2  1  0.32036566  -0.54139927  0.64673749  1
  F  F3  1  -0.54139927  -0.86176493  1.14673749  1
  F  F4  1  0.86176493  0.32036566  1.14673749  1
  F  F5  1  -0.32036566  0.54139927  1.14673749  1
  F  F6  1  -0.54139927  -0.86176493  -0.64673749  1
  F  F7  1  0.86176493  0.32036566  -0.64673749  1
  F  F8  1  -0.32036566  0.54139927  -0.64673749  1
  F  F9  1  0.54139927  0.86176493  -0.14673749  1
  F  F10  1  -0.86176493  -0.32036566  -0.14673749  1
  F  F11  1  0.32036566  -0.54139927  -0.14673749  1
  F  F12  1  0.00000000  0.00000000  0.87338019  1
  F  F13  1  0.00000000  0.00000000  0.37338019  1
  F  F14  1  0.00000000  0.00000000  0.12661981  1
  F  F15  1  0.00000000  0.00000000  0.62661981  1
  Li  Li16  1  0.50000000  0.00000000  0.00000000  1
  Li  Li17  1  0.00000000  0.50000000  0.00000000  1
  Li  Li18  1  0.50000000  0.50000000  0.00000000  1
  Li  Li19  1  0.50000000  0.00000000  0.50000000  1
  Li  Li20  1  0.00000000  0.50000000  0.50000000  1
  Li  Li21  1  0.50000000  0.50000000  0.50000000  1
  Li  Li22  1  0.33333333  0.66666667  0.25000000  1
  Li  Li23  1  0.66666667  0.33333333  0.75000000  1
  Li  Li24  1  0.19208933  0.61330812  0.25000000  1
  Li  Li25  1  0.38669188  0.57878121  0.25000000  1
  Li  Li26  1  0.42121879  0.80791067  0.25000000  1
  Li  Li27  1  0.80791067  0.38669188  0.75000000  1
  Li  Li28  1  0.61330812  0.42121879  0.75000000  1
  Li  Li29  1  0.57878121  0.19208933  0.75000000  1
  Li  Li30  1  0.66666667  0.33333333  0.25000000  1
  Li  Li31  1  0.33333333  0.66666667  0.75000000  1
