# generated using pymatgen
data_LiF
_symmetry_space_group_name_H-M   'P 1'
_cell_length_a   7.35878224
_cell_length_b   6.75504176
_cell_length_c   13.08620824
_cell_angle_alpha   90.00000000
_cell_angle_beta   90.00000000
_cell_angle_gamma   90.00000000
_symmetry_Int_Tables_number   1
_chemical_formula_structural   LiF
_chemical_formula_sum   'Li24 F24'
_cell_volume   650.50077177
_cell_formula_units_Z   24
loop_
 _symmetry_equiv_pos_site_id
 _symmetry_equiv_pos_as_xyz
  1  'x, y, z'
loop_
 _atom_site_type_symbol
 _atom_site_label
 _atom_site_symmetry_multiplicity
 _atom_site_fract_x
 _atom_site_fract_y
 _atom_site_fract_z
 _atom_site_occupancy
  F  F0  1  0.70625005  0.03640987  0.63593172  1
  F  F1  1  0.79374995  0.96359013  0.13593172  1
  F  F2  1  0.29374995  0.53640987  0.36406828  1
  F  F3  1  0.20625005  0.46359013  0.86406828  1
  F  F4  1  0.29374995  0.96359013  0.36406828  1
  F  F5  1  0.20625005  0.03640987  0.86406828  1
  F  F6  1  0.70625005  0.46359013  0.63593172  1
  F  F7  1  0.79374995  0.53640987  0.13593172  1
  F  F8  1  0.00000000  0.00000000  0.00000000  1
  F  F9  1  0.50000000  0.00000000  0.50000000  1
  F  F10  1  0.00000000  0.50000000  0.00000000  1
  F  F11  1  0.50000000  0.50000000  0.50000000  1
  F  F12  1  0.97679403  0.64616873  0.33869878  1
  F  F13  1  0.52320597  0.35383127  0.83869878  1
  F  F14  1  0.02320597  0.14616873  0.66130122  1
  F  F15  1  0.47679403  0.85383127  0.16130122  1
  F  F16  1  0.02320597  0.35383127  0.66130122  1
  F  F17  1  0.47679403  0.64616873  0.16130122  1
  F  F18  1  0.97679403  0.85383127  0.33869878  1
  F  F19  1  0.52320597  0.14616873  0.83869878  1
  F  F20  1  0.24747674  0.25000000  0.48754740  1
  F  F21  1  0.25252326  0.75000000  0.98754740  1
  F  F22  1  0.75252326  0.75000000  0.51245260  1
  F  F23  1  0.74747674  0.25000000  0.01245260  1
  Li  Li24  1  0.07411194  0.11794466  0.78200445  1
  Li  Li25  1  0.42588806  -0.11794466  1.28200445  1
  Li  Li26  1  -0.07411194  0.61794466  -0.78200445  1
  Li  Li27  1  0.57411194  0.38205534  -0.28200445  1
  Li  Li28  1  -0.07411194  -0.11794466  -0.78200445  1
  Li  Li29  1  0.57411194  0.11794466  -0.28200445  1
  Li  Li30  1  0.07411194  0.38205534  0.78200445  1
  Li  Li31  1  0.42588806  0.61794466  1.28200445  1
  Li  Li32  1  0.74328828  0.09160675  0.49685093  1
  Li  Li33  1  0.75671172  0.90839325  0.99685093  1
  Li  Li34  1  0.25671172  0.59160675  0.50314907  1
  Li  Li35  1  0.24328828  0.40839325  0.00314907  1
  Li  Li36  1  0.25671172  0.90839325  0.50314907  1
  Li  Li37  1  0.24328828  0.09160675  0.00314907  1
  Li  Li38  1  0.74328828  0.40839325  0.49685093  1
  Li  Li39  1  0.75671172  0.59160675  0.99685093  1
  Li  Li40  1  0.75441857  0.02284973  0.28556240  1
  Li  Li41  1  0.74558143  0.97715027  0.78556240  1
  Li  Li42  1  0.24558143  0.52284973  0.71443760  1
  Li  Li43  1  0.25441857  0.47715027  0.21443760  1
  Li  Li44  1  0.24558143  0.97715027  0.71443760  1
  Li  Li45  1  0.25441857  0.02284973  0.21443760  1
  Li  Li46  1  0.75441857  0.47715027  0.28556240  1
  Li  Li47  1  0.74558143  0.52284973  0.78556240  1
