# generated using pymatgen
data_LiF
_symmetry_space_group_name_H-M   'P 1'
_cell_length_a   5.83902267
_cell_length_b   6.76342487
_cell_length_c   19.28736872
_cell_angle_alpha   90.00000000
_cell_angle_beta   90.00000000
_cell_angle_gamma   90.00000000
_symmetry_Int_Tables_number   1
_chemical_formula_structural   LiF
_chemical_formula_sum   'Li24 F24'
_cell_volume   761.69273716
_cell_formula_units_Z   24
loop_
 _symmetry_equiv_pos_site_id
 _symmetry_equiv_pos_as_xyz
  1  'x, y, z'
loop_
 _atom_site_type_symbol
 _atom_site_label
 _atom_site_symmetry_multiplicity
 _atom_site_fract_x
 _atom_site_fract_y
 _atom_site_fract_z
 _atom_site_occupancy
  F  F0  1  0.39882073  0.60892623  0.59396417  1
  F  F1  1  0.10117927  0.39107377  0.09396417  1
  F  F2  1  0.60117927  0.10892623  0.40603583  1
  F  F3  1  0.89882073  0.89107377  0.90603583  1
  F  F4  1  0.60117927  0.39107377  0.40603583  1
  F  F5  1  0.89882073  0.60892623  0.90603583  1
  F  F6  1  0.39882073  0.89107377  0.59396417  1
  F  F7  1  0.10117927  0.10892623  0.09396417  1
  F  F8  1  0.04539070  0.35932244  0.31504832  1
  F  F9  1  0.45460930  0.64067756  0.81504832  1
  F  F10  1  0.95460930  0.85932244  0.68495168  1
  F  F11  1  0.54539070  0.14067756  0.18495168  1
  F  F12  1  0.95460930  0.64067756  0.68495168  1
  F  F13  1  0.54539070  0.35932244  0.18495168  1
  F  F14  1  0.04539070  0.14067756  0.31504832  1
  F  F15  1  0.45460930  0.85932244  0.81504832  1
  F  F16  1  0.09189824  0.62548733  0.00573668  1
  F  F17  1  0.40810176  0.37451267  0.50573668  1
  F  F18  1  0.90810176  0.12548733  0.99426332  1
  F  F19  1  0.59189824  0.87451267  0.49426332  1
  F  F20  1  0.90810176  0.37451267  0.99426332  1
  F  F21  1  0.59189824  0.62548733  0.49426332  1
  F  F22  1  0.09189824  0.87451267  0.00573668  1
  F  F23  1  0.40810176  0.12548733  0.50573668  1
  Li  Li24  1  0.61296719  0.25000000  0.21638019  1
  Li  Li25  1  0.88703281  0.75000000  0.71638019  1
  Li  Li26  1  0.38703281  0.75000000  0.78361981  1
  Li  Li27  1  0.11296719  0.25000000  0.28361981  1
  Li  Li28  1  0.51055539  0.52146550  0.04283475  1
  Li  Li29  1  -0.01055539  -0.52146550  0.54283475  1
  Li  Li30  1  -0.51055539  1.02146550  -0.04283475  1
  Li  Li31  1  1.01055539  -0.02146550  0.45716525  1
  Li  Li32  1  -0.51055539  -0.52146550  -0.04283475  1
  Li  Li33  1  1.01055539  0.52146550  0.45716525  1
  Li  Li34  1  0.51055539  -0.02146550  0.04283475  1
  Li  Li35  1  -0.01055539  1.02146550  0.54283475  1
  Li  Li36  1  0.86157407  0.99333846  0.86280836  1
  Li  Li37  1  0.63842593  0.00666154  0.36280836  1
  Li  Li38  1  0.13842593  0.49333846  0.13719164  1
  Li  Li39  1  0.36157407  0.50666154  0.63719164  1
  Li  Li40  1  0.13842593  0.00666154  0.13719164  1
  Li  Li41  1  0.36157407  0.99333846  0.63719164  1
  Li  Li42  1  0.86157407  0.50666154  0.86280836  1
  Li  Li43  1  0.63842593  0.49333846  0.36280836  1
  Li  Li44  1  0.01331557  0.25000000  0.34725887  1
  Li  Li45  1  0.48668443  0.75000000  0.84725887  1
  Li  Li46  1  0.98668443  0.75000000  0.65274113  1
  Li  Li47  1  0.51331557  0.25000000  0.15274113  1
