# generated using pymatgen
data_LiF
_symmetry_space_group_name_H-M   'P 1'
_cell_length_a   8.69958207
_cell_length_b   12.58025322
_cell_length_c   7.31860938
_cell_angle_alpha   90.00000000
_cell_angle_beta   90.00000000
_cell_angle_gamma   90.00000000
_symmetry_Int_Tables_number   1
_chemical_formula_structural   LiF
_chemical_formula_sum   'Li28 F28'
_cell_volume   800.97016632
_cell_formula_units_Z   28
loop_
 _symmetry_equiv_pos_site_id
 _symmetry_equiv_pos_as_xyz
  1  'x, y, z'
loop_
 _atom_site_type_symbol
 _atom_site_label
 _atom_site_symmetry_multiplicity
 _atom_site_fract_x
 _atom_site_fract_y
 _atom_site_fract_z
 _atom_site_occupancy
  F  F0  1  0.00000000  0.50000000  0.26670894  1
  F  F1  1  0.50000000  0.00000000  0.73329106  1
  F  F2  1  0.00000000  0.50000000  0.73329106  1
  F  F3  1  0.50000000  0.00000000  0.26670894  1
  F  F4  1  0.65555555  0.74900919  0.00000000  1
  F  F5  1  0.34444445  0.25099081  0.00000000  1
  F  F6  1  0.84444445  0.24900919  -0.00000000  1
  F  F7  1  0.15555555  0.75099081  0.00000000  1
  F  F8  1  0.02807867  0.47967704  0.50000000  1
  F  F9  1  0.97192133  0.52032296  0.50000000  1
  F  F10  1  0.47192133  0.97967704  0.50000000  1
  F  F11  1  0.52807867  0.02032296  0.50000000  1
  F  F12  1  0.51085765  0.24993965  0.00000000  1
  F  F13  1  0.48914235  0.75006035  0.00000000  1
  F  F14  1  0.98914235  0.74993965  0.00000000  1
  F  F15  1  0.01085765  0.25006035  0.00000000  1
  F  F16  1  0.24258029  0.33295727  0.28478926  1
  F  F17  1  0.75741971  0.66704273  0.28478926  1
  F  F18  1  0.25741971  0.83295727  0.71521074  1
  F  F19  1  0.74258029  0.16704273  0.71521074  1
  F  F20  1  0.75741971  0.66704273  0.71521074  1
  F  F21  1  0.24258029  0.33295727  0.71521074  1
  F  F22  1  0.74258029  0.16704273  0.28478926  1
  F  F23  1  0.25741971  0.83295727  0.28478926  1
  F  F24  1  0.00000000  0.00000000  0.17545908  1
  F  F25  1  0.50000000  0.50000000  0.82454092  1
  F  F26  1  0.00000000  0.00000000  0.82454092  1
  F  F27  1  0.50000000  0.50000000  0.17545908  1
  Li  Li28  1  0.14521946  0.31888614  0.65855243  1
  Li  Li29  1  -0.14521946  -0.31888614  0.65855243  1
  Li  Li30  1  0.35478054  0.81888614  -0.65855243  1
  Li  Li31  1  0.64521946  0.18111386  -0.65855243  1
  Li  Li32  1  -0.14521946  -0.31888614  -0.65855243  1
  Li  Li33  1  0.14521946  0.31888614  -0.65855243  1
  Li  Li34  1  0.64521946  0.18111386  0.65855243  1
  Li  Li35  1  0.35478054  0.81888614  0.65855243  1
  Li  Li36  1  0.46456411  0.82338335  0.00000000  1
  Li  Li37  1  0.53543589  0.17661665  0.00000000  1
  Li  Li38  1  0.03543589  0.32338335  0.00000000  1
  Li  Li39  1  0.96456411  0.67661665  0.00000000  1
  Li  Li40  1  0.37480918  0.43325273  0.16410005  1
  Li  Li41  1  0.62519082  0.56674727  0.16410005  1
  Li  Li42  1  0.12519082  0.93325273  0.83589995  1
  Li  Li43  1  0.87480918  0.06674727  0.83589995  1
  Li  Li44  1  0.62519082  0.56674727  0.83589995  1
  Li  Li45  1  0.37480918  0.43325273  0.83589995  1
  Li  Li46  1  0.87480918  0.06674727  0.16410005  1
  Li  Li47  1  0.12519082  0.93325273  0.16410005  1
  Li  Li48  1  0.00000000  0.50000000  0.87910023  1
  Li  Li49  1  0.50000000  0.00000000  0.12089977  1
  Li  Li50  1  0.00000000  0.50000000  0.12089977  1
  Li  Li51  1  0.50000000  0.00000000  0.87910023  1
  Li  Li52  1  0.00000000  0.00000000  0.50000000  1
  Li  Li53  1  0.50000000  0.50000000  0.50000000  1
  Li  Li54  1  0.00000000  0.00000000  0.00000000  1
  Li  Li55  1  0.50000000  0.50000000  0.00000000  1
