# generated using pymatgen
data_Li2YAsP2
_symmetry_space_group_name_H-M   'P 1'
_cell_length_a   5.49858799
_cell_length_b   5.56397343
_cell_length_c   7.30233158
_cell_angle_alpha   95.25357952
_cell_angle_beta   99.83145766
_cell_angle_gamma   105.39540262
_symmetry_Int_Tables_number   1
_chemical_formula_structural   Li2YAsP2
_chemical_formula_sum   'Li2 Y1 As1 P2'
_cell_volume   210.01257774
_cell_formula_units_Z   1
loop_
 _symmetry_equiv_pos_site_id
 _symmetry_equiv_pos_as_xyz
  1  'x, y, z'
loop_
 _atom_site_type_symbol
 _atom_site_label
 _atom_site_symmetry_multiplicity
 _atom_site_fract_x
 _atom_site_fract_y
 _atom_site_fract_z
 _atom_site_occupancy
  Y  Y0  1  0.12500000  0.00000000  0.25000000  1
  P  P1  1  0.00000000  0.00000000  0.00000000  1
  P  P2  1  0.37500000  0.00000000  0.25000000  1
  As  As3  1  0.25000000  0.25000000  0.25000000  1
  Li  Li4  1  0.00000000  0.25000000  0.12500000  1
  Li  Li5  1  0.76808549  0.56008168  0.14728284  1
