# generated using pymatgen
data_Li12Al2O9
_symmetry_space_group_name_H-M   'P 1'
_cell_length_a   12.84555788
_cell_length_b   12.84555788
_cell_length_c   12.84555788
_cell_angle_alpha   90.00000000
_cell_angle_beta   90.00000000
_cell_angle_gamma   90.00000000
_symmetry_Int_Tables_number   1
_chemical_formula_structural   Li12Al2O9
_chemical_formula_sum   'Li96 Al16 O72'
_cell_volume   2119.62440406
_cell_formula_units_Z   8
loop_
 _symmetry_equiv_pos_site_id
 _symmetry_equiv_pos_as_xyz
  1  'x, y, z'
loop_
 _atom_site_type_symbol
 _atom_site_label
 _atom_site_symmetry_multiplicity
 _atom_site_fract_x
 _atom_site_fract_y
 _atom_site_fract_z
 _atom_site_occupancy
  Al  Al0  1  0.93134445  0.93134445  0.93134445  1
  Al  Al1  1  0.06865555  0.06865555  0.93134445  1
  Al  Al2  1  0.06865555  0.93134445  0.06865555  1
  Al  Al3  1  0.93134445  0.06865555  0.06865555  1
  Al  Al4  1  0.93134445  0.43134445  0.43134445  1
  Al  Al5  1  0.06865555  0.56865555  0.43134445  1
  Al  Al6  1  0.06865555  0.43134445  0.56865555  1
  Al  Al7  1  0.93134445  0.56865555  0.56865555  1
  Al  Al8  1  0.43134445  0.93134445  0.43134445  1
  Al  Al9  1  0.56865555  0.06865555  0.43134445  1
  Al  Al10  1  0.56865555  0.93134445  0.56865555  1
  Al  Al11  1  0.43134445  0.06865555  0.56865555  1
  Al  Al12  1  0.43134445  0.43134445  0.93134445  1
  Al  Al13  1  0.56865555  0.56865555  0.93134445  1
  Al  Al14  1  0.56865555  0.43134445  0.06865555  1
  Al  Al15  1  0.43134445  0.56865555  0.06865555  1
  Li  Li16  1  0.06636248  0.06636248  0.24260274  1
  Li  Li17  1  -0.06636248  -0.06636248  0.24260274  1
  Li  Li18  1  -0.06636248  0.06636248  -0.24260274  1
  Li  Li19  1  0.06636248  -0.06636248  -0.24260274  1
  Li  Li20  1  0.24260274  0.06636248  0.06636248  1
  Li  Li21  1  0.24260274  -0.06636248  -0.06636248  1
  Li  Li22  1  -0.24260274  -0.06636248  0.06636248  1
  Li  Li23  1  -0.24260274  0.06636248  -0.06636248  1
  Li  Li24  1  0.06636248  0.24260274  0.06636248  1
  Li  Li25  1  -0.06636248  0.24260274  -0.06636248  1
  Li  Li26  1  0.06636248  -0.24260274  -0.06636248  1
  Li  Li27  1  -0.06636248  -0.24260274  0.06636248  1
  Li  Li28  1  0.06636248  0.56636248  0.74260274  1
  Li  Li29  1  -0.06636248  0.43363752  0.74260274  1
  Li  Li30  1  -0.06636248  0.56636248  0.25739726  1
  Li  Li31  1  0.06636248  0.43363752  0.25739726  1
  Li  Li32  1  0.24260274  0.56636248  0.56636248  1
  Li  Li33  1  0.24260274  0.43363752  0.43363752  1
  Li  Li34  1  -0.24260274  0.43363752  0.56636248  1
  Li  Li35  1  -0.24260274  0.56636248  0.43363752  1
  Li  Li36  1  0.06636248  0.74260274  0.56636248  1
  Li  Li37  1  -0.06636248  0.74260274  0.43363752  1
  Li  Li38  1  0.06636248  0.25739726  0.43363752  1
  Li  Li39  1  -0.06636248  0.25739726  0.56636248  1
  Li  Li40  1  0.56636248  0.06636248  0.74260274  1
  Li  Li41  1  0.43363752  -0.06636248  0.74260274  1
  Li  Li42  1  0.43363752  0.06636248  0.25739726  1
  Li  Li43  1  0.56636248  -0.06636248  0.25739726  1
  Li  Li44  1  0.74260274  0.06636248  0.56636248  1
  Li  Li45  1  0.74260274  -0.06636248  0.43363752  1
  Li  Li46  1  0.25739726  -0.06636248  0.56636248  1
  Li  Li47  1  0.25739726  0.06636248  0.43363752  1
  Li  Li48  1  0.56636248  0.24260274  0.56636248  1
  Li  Li49  1  0.43363752  0.24260274  0.43363752  1
  Li  Li50  1  0.56636248  -0.24260274  0.43363752  1
  Li  Li51  1  0.43363752  -0.24260274  0.56636248  1
  Li  Li52  1  0.56636248  0.56636248  0.24260274  1
  Li  Li53  1  0.43363752  0.43363752  0.24260274  1
  Li  Li54  1  0.43363752  0.56636248  -0.24260274  1
  Li  Li55  1  0.56636248  0.43363752  -0.24260274  1
  Li  Li56  1  0.74260274  0.56636248  0.06636248  1
  Li  Li57  1  0.74260274  0.43363752  -0.06636248  1
  Li  Li58  1  0.25739726  0.43363752  0.06636248  1
  Li  Li59  1  0.25739726  0.56636248  -0.06636248  1
  Li  Li60  1  0.56636248  0.74260274  0.06636248  1
  Li  Li61  1  0.43363752  0.74260274  -0.06636248  1
  Li  Li62  1  0.56636248  0.25739726  -0.06636248  1
  Li  Li63  1  0.43363752  0.25739726  0.06636248  1
  Li  Li64  1  0.96244614  0.96244614  0.65209543  1
  Li  Li65  1  0.03755386  0.03755386  0.65209543  1
  Li  Li66  1  0.03755386  0.96244614  0.34790457  1
  Li  Li67  1  0.96244614  0.03755386  0.34790457  1
  Li  Li68  1  0.65209543  0.96244614  0.96244614  1
  Li  Li69  1  0.65209543  0.03755386  0.03755386  1
  Li  Li70  1  0.34790457  0.03755386  0.96244614  1
  Li  Li71  1  0.34790457  0.96244614  0.03755386  1
  Li  Li72  1  0.96244614  0.65209543  0.96244614  1
  Li  Li73  1  0.03755386  0.65209543  0.03755386  1
  Li  Li74  1  0.96244614  0.34790457  0.03755386  1
  Li  Li75  1  0.03755386  0.34790457  0.96244614  1
  Li  Li76  1  0.96244614  0.46244614  0.15209543  1
  Li  Li77  1  0.03755386  0.53755386  0.15209543  1
  Li  Li78  1  0.03755386  0.46244614  0.84790457  1
  Li  Li79  1  0.96244614  0.53755386  0.84790457  1
  Li  Li80  1  0.65209543  0.46244614  0.46244614  1
  Li  Li81  1  0.65209543  0.53755386  0.53755386  1
  Li  Li82  1  0.34790457  0.53755386  0.46244614  1
  Li  Li83  1  0.34790457  0.46244614  0.53755386  1
  Li  Li84  1  0.96244614  0.15209543  0.46244614  1
  Li  Li85  1  0.03755386  0.15209543  0.53755386  1
  Li  Li86  1  0.96244614  0.84790457  0.53755386  1
  Li  Li87  1  0.03755386  0.84790457  0.46244614  1
  Li  Li88  1  0.46244614  0.96244614  0.15209543  1
  Li  Li89  1  0.53755386  0.03755386  0.15209543  1
  Li  Li90  1  0.53755386  0.96244614  0.84790457  1
  Li  Li91  1  0.46244614  0.03755386  0.84790457  1
  Li  Li92  1  0.15209543  0.96244614  0.46244614  1
  Li  Li93  1  0.15209543  0.03755386  0.53755386  1
  Li  Li94  1  0.84790457  0.03755386  0.46244614  1
  Li  Li95  1  0.84790457  0.96244614  0.53755386  1
  Li  Li96  1  0.46244614  0.65209543  0.46244614  1
  Li  Li97  1  0.53755386  0.65209543  0.53755386  1
  Li  Li98  1  0.46244614  0.34790457  0.53755386  1
  Li  Li99  1  0.53755386  0.34790457  0.46244614  1
  Li  Li100  1  0.46244614  0.46244614  0.65209543  1
  Li  Li101  1  0.53755386  0.53755386  0.65209543  1
  Li  Li102  1  0.53755386  0.46244614  0.34790457  1
  Li  Li103  1  0.46244614  0.53755386  0.34790457  1
  Li  Li104  1  0.15209543  0.46244614  0.96244614  1
  Li  Li105  1  0.15209543  0.53755386  0.03755386  1
  Li  Li106  1  0.84790457  0.53755386  0.96244614  1
  Li  Li107  1  0.84790457  0.46244614  0.03755386  1
  Li  Li108  1  0.46244614  0.15209543  0.96244614  1
  Li  Li109  1  0.53755386  0.15209543  0.03755386  1
  Li  Li110  1  0.46244614  0.84790457  0.03755386  1
  Li  Li111  1  0.53755386  0.84790457  0.96244614  1
  O  O112  1  0.25000000  0.25000000  0.25000000  1
  O  O113  1  0.25000000  0.75000000  0.75000000  1
  O  O114  1  0.75000000  0.25000000  0.75000000  1
  O  O115  1  0.75000000  0.75000000  0.25000000  1
  O  O116  1  0.43660541  0.43660541  0.43660541  1
  O  O117  1  0.56339459  0.56339459  0.43660541  1
  O  O118  1  0.56339459  0.43660541  0.56339459  1
  O  O119  1  0.43660541  0.56339459  0.56339459  1
  O  O120  1  0.43660541  0.93660541  0.93660541  1
  O  O121  1  0.56339459  0.06339459  0.93660541  1
  O  O122  1  0.56339459  0.93660541  0.06339459  1
  O  O123  1  0.43660541  0.06339459  0.06339459  1
  O  O124  1  0.93660541  0.43660541  0.93660541  1
  O  O125  1  0.06339459  0.56339459  0.93660541  1
  O  O126  1  0.06339459  0.43660541  0.06339459  1
  O  O127  1  0.93660541  0.56339459  0.06339459  1
  O  O128  1  0.93660541  0.93660541  0.43660541  1
  O  O129  1  0.06339459  0.06339459  0.43660541  1
  O  O130  1  0.06339459  0.93660541  0.56339459  1
  O  O131  1  0.93660541  0.06339459  0.56339459  1
  O  O132  1  0.00000000  0.00000000  0.00000000  1
  O  O133  1  0.00000000  0.50000000  0.50000000  1
  O  O134  1  0.50000000  0.00000000  0.50000000  1
  O  O135  1  0.50000000  0.50000000  0.00000000  1
  O  O136  1  0.99098353  0.25000000  0.25000000  1
  O  O137  1  0.00901647  0.75000000  0.25000000  1
  O  O138  1  0.25000000  0.99098353  0.25000000  1
  O  O139  1  0.25000000  0.00901647  0.75000000  1
  O  O140  1  0.25000000  0.25000000  0.99098353  1
  O  O141  1  0.75000000  0.25000000  0.00901647  1
  O  O142  1  0.99098353  0.75000000  0.75000000  1
  O  O143  1  0.00901647  0.25000000  0.75000000  1
  O  O144  1  0.25000000  0.49098353  0.75000000  1
  O  O145  1  0.25000000  0.50901647  0.25000000  1
  O  O146  1  0.25000000  0.75000000  0.49098353  1
  O  O147  1  0.75000000  0.75000000  0.50901647  1
  O  O148  1  0.49098353  0.25000000  0.75000000  1
  O  O149  1  0.50901647  0.75000000  0.75000000  1
  O  O150  1  0.75000000  0.99098353  0.75000000  1
  O  O151  1  0.75000000  0.00901647  0.25000000  1
  O  O152  1  0.75000000  0.25000000  0.49098353  1
  O  O153  1  0.25000000  0.25000000  0.50901647  1
  O  O154  1  0.49098353  0.75000000  0.25000000  1
  O  O155  1  0.50901647  0.25000000  0.25000000  1
  O  O156  1  0.75000000  0.49098353  0.25000000  1
  O  O157  1  0.75000000  0.50901647  0.75000000  1
  O  O158  1  0.75000000  0.75000000  0.99098353  1
  O  O159  1  0.25000000  0.75000000  0.00901647  1
  O  O160  1  0.50000000  0.50000000  0.50000000  1
  O  O161  1  0.50000000  0.00000000  0.00000000  1
  O  O162  1  0.00000000  0.50000000  0.00000000  1
  O  O163  1  0.00000000  0.00000000  0.50000000  1
  O  O164  1  0.07120868  0.07120868  0.07120868  1
  O  O165  1  0.92879132  0.92879132  0.07120868  1
  O  O166  1  0.92879132  0.07120868  0.92879132  1
  O  O167  1  0.07120868  0.92879132  0.92879132  1
  O  O168  1  0.07120868  0.57120868  0.57120868  1
  O  O169  1  0.92879132  0.42879132  0.57120868  1
  O  O170  1  0.92879132  0.57120868  0.42879132  1
  O  O171  1  0.07120868  0.42879132  0.42879132  1
  O  O172  1  0.57120868  0.07120868  0.57120868  1
  O  O173  1  0.42879132  0.92879132  0.57120868  1
  O  O174  1  0.42879132  0.07120868  0.42879132  1
  O  O175  1  0.57120868  0.92879132  0.42879132  1
  O  O176  1  0.57120868  0.57120868  0.07120868  1
  O  O177  1  0.42879132  0.42879132  0.07120868  1
  O  O178  1  0.42879132  0.57120868  0.92879132  1
  O  O179  1  0.57120868  0.42879132  0.92879132  1
  O  O180  1  0.75000000  0.75000000  0.75000000  1
  O  O181  1  0.75000000  0.25000000  0.25000000  1
  O  O182  1  0.25000000  0.75000000  0.25000000  1
  O  O183  1  0.25000000  0.25000000  0.75000000  1
