# generated using pymatgen
data_Li2Hf4(Se2S)3
_symmetry_space_group_name_H-M   'P 1'
_cell_length_a   18.80617606
_cell_length_b   18.80617606
_cell_length_c   18.80617606
_cell_angle_alpha   90.00000000
_cell_angle_beta   90.00000000
_cell_angle_gamma   90.00000000
_symmetry_Int_Tables_number   1
_chemical_formula_structural   Li2Hf4(Se2S)3
_chemical_formula_sum   'Li48 Hf96 Se144 S72'
_cell_volume   6651.22275242
_cell_formula_units_Z   24
loop_
 _symmetry_equiv_pos_site_id
 _symmetry_equiv_pos_as_xyz
  1  'x, y, z'
loop_
 _atom_site_type_symbol
 _atom_site_label
 _atom_site_symmetry_multiplicity
 _atom_site_fract_x
 _atom_site_fract_y
 _atom_site_fract_z
 _atom_site_occupancy
  Hf  Hf0  1  0.91997758  0.55461864  0.76126224  1
  Hf  Hf1  1  -0.41997758  -0.55461864  1.26126224  1
  Hf  Hf2  1  -0.91997758  1.05461864  -0.26126224  1
  Hf  Hf3  1  1.41997758  -0.05461864  -0.76126224  1
  Hf  Hf4  1  0.76126224  0.91997758  0.55461864  1
  Hf  Hf5  1  1.26126224  -0.41997758  -0.55461864  1
  Hf  Hf6  1  -0.26126224  -0.91997758  1.05461864  1
  Hf  Hf7  1  -0.76126224  1.41997758  -0.05461864  1
  Hf  Hf8  1  0.55461864  0.76126224  0.91997758  1
  Hf  Hf9  1  -0.55461864  1.26126224  -0.41997758  1
  Hf  Hf10  1  1.05461864  -0.26126224  -0.91997758  1
  Hf  Hf11  1  -0.05461864  -0.76126224  1.41997758  1
  Hf  Hf12  1  1.30461864  1.16997758  -0.51126224  1
  Hf  Hf13  1  0.19538136  -0.16997758  -0.01126224  1
  Hf  Hf14  1  0.80461864  -0.66997758  1.51126224  1
  Hf  Hf15  1  -0.30461864  1.66997758  1.01126224  1
  Hf  Hf16  1  1.66997758  1.01126224  -0.30461864  1
  Hf  Hf17  1  -0.66997758  1.51126224  0.80461864  1
  Hf  Hf18  1  -0.16997758  -0.01126224  0.19538136  1
  Hf  Hf19  1  1.16997758  -0.51126224  1.30461864  1
  Hf  Hf20  1  1.51126224  0.80461864  -0.66997758  1
  Hf  Hf21  1  1.01126224  -0.30461864  1.66997758  1
  Hf  Hf22  1  -0.51126224  1.30461864  1.16997758  1
  Hf  Hf23  1  -0.01126224  0.19538136  -0.16997758  1
  Hf  Hf24  1  1.41997758  1.05461864  1.26126224  1
  Hf  Hf25  1  0.08002242  -0.05461864  1.76126224  1
  Hf  Hf26  1  -0.41997758  1.55461864  0.23873776  1
  Hf  Hf27  1  1.91997758  0.44538136  -0.26126224  1
  Hf  Hf28  1  1.26126224  1.41997758  1.05461864  1
  Hf  Hf29  1  1.76126224  0.08002242  -0.05461864  1
  Hf  Hf30  1  0.23873776  -0.41997758  1.55461864  1
  Hf  Hf31  1  -0.26126224  1.91997758  0.44538136  1
  Hf  Hf32  1  1.05461864  1.26126224  1.41997758  1
  Hf  Hf33  1  -0.05461864  1.76126224  0.08002242  1
  Hf  Hf34  1  1.55461864  0.23873776  -0.41997758  1
  Hf  Hf35  1  0.44538136  -0.26126224  1.91997758  1
  Hf  Hf36  1  1.80461864  1.66997758  -0.01126224  1
  Hf  Hf37  1  0.69538136  0.33002242  0.48873776  1
  Hf  Hf38  1  1.30461864  -0.16997758  2.01126224  1
  Hf  Hf39  1  0.19538136  2.16997758  1.51126224  1
  Hf  Hf40  1  2.16997758  1.51126224  0.19538136  1
  Hf  Hf41  1  -0.16997758  2.01126224  1.30461864  1
  Hf  Hf42  1  0.33002242  0.48873776  0.69538136  1
  Hf  Hf43  1  1.66997758  -0.01126224  1.80461864  1
  Hf  Hf44  1  2.01126224  1.30461864  -0.16997758  1
  Hf  Hf45  1  1.51126224  0.19538136  2.16997758  1
  Hf  Hf46  1  -0.01126224  1.80461864  1.66997758  1
  Hf  Hf47  1  0.48873776  0.69538136  0.33002242  1
  Hf  Hf48  1  0.96673185  0.00000000  0.25000000  1
  Hf  Hf49  1  0.53326815  0.00000000  0.75000000  1
  Hf  Hf50  1  0.25000000  0.96673185  0.00000000  1
  Hf  Hf51  1  0.75000000  0.53326815  0.00000000  1
  Hf  Hf52  1  0.00000000  0.25000000  0.96673185  1
  Hf  Hf53  1  0.00000000  0.75000000  0.53326815  1
  Hf  Hf54  1  0.75000000  0.21673185  0.00000000  1
  Hf  Hf55  1  0.75000000  0.78326815  0.50000000  1
  Hf  Hf56  1  0.71673185  0.50000000  0.25000000  1
  Hf  Hf57  1  0.28326815  0.00000000  0.25000000  1
  Hf  Hf58  1  0.00000000  0.25000000  0.28326815  1
  Hf  Hf59  1  0.50000000  0.25000000  0.71673185  1
  Hf  Hf60  1  0.46673185  0.50000000  0.75000000  1
  Hf  Hf61  1  0.03326815  0.50000000  0.25000000  1
  Hf  Hf62  1  0.75000000  0.46673185  0.50000000  1
  Hf  Hf63  1  0.25000000  0.03326815  0.50000000  1
  Hf  Hf64  1  0.50000000  0.75000000  0.46673185  1
  Hf  Hf65  1  0.50000000  0.25000000  0.03326815  1
  Hf  Hf66  1  0.25000000  0.71673185  0.50000000  1
  Hf  Hf67  1  0.25000000  0.28326815  0.00000000  1
  Hf  Hf68  1  0.21673185  0.00000000  0.75000000  1
  Hf  Hf69  1  0.78326815  0.50000000  0.75000000  1
  Hf  Hf70  1  0.50000000  0.75000000  0.78326815  1
  Hf  Hf71  1  0.00000000  0.75000000  0.21673185  1
  Hf  Hf72  1  0.12500000  0.32026336  0.57026336  1
  Hf  Hf73  1  0.37500000  0.67973664  0.07026336  1
  Hf  Hf74  1  0.87500000  0.82026336  0.92973664  1
  Hf  Hf75  1  0.62500000  0.17973664  0.42973664  1
  Hf  Hf76  1  0.57026336  0.12500000  0.32026336  1
  Hf  Hf77  1  0.07026336  0.37500000  0.67973664  1
  Hf  Hf78  1  0.92973664  0.87500000  0.82026336  1
  Hf  Hf79  1  0.42973664  0.62500000  0.17973664  1
  Hf  Hf80  1  0.32026336  0.57026336  0.12500000  1
  Hf  Hf81  1  0.67973664  0.07026336  0.37500000  1
  Hf  Hf82  1  0.82026336  0.92973664  0.87500000  1
  Hf  Hf83  1  0.17973664  0.42973664  0.62500000  1
  Hf  Hf84  1  0.62500000  0.82026336  0.07026336  1
  Hf  Hf85  1  0.87500000  0.17973664  0.57026336  1
  Hf  Hf86  1  0.37500000  0.32026336  0.42973664  1
  Hf  Hf87  1  0.12500000  0.67973664  0.92973664  1
  Hf  Hf88  1  0.07026336  0.62500000  0.82026336  1
  Hf  Hf89  1  0.57026336  0.87500000  0.17973664  1
  Hf  Hf90  1  0.42973664  0.37500000  0.32026336  1
  Hf  Hf91  1  0.92973664  0.12500000  0.67973664  1
  Hf  Hf92  1  0.82026336  0.07026336  0.62500000  1
  Hf  Hf93  1  0.17973664  0.57026336  0.87500000  1
  Hf  Hf94  1  0.32026336  0.42973664  0.37500000  1
  Hf  Hf95  1  0.67973664  0.92973664  0.12500000  1
  Li  Li96  1  0.97998946  0.38467832  0.01498033  1
  Li  Li97  1  0.52001054  0.61532168  0.51498033  1
  Li  Li98  1  0.02001054  0.88467832  0.48501967  1
  Li  Li99  1  0.47998946  0.11532168  0.98501967  1
  Li  Li100  1  0.01498033  0.97998946  0.38467832  1
  Li  Li101  1  0.51498033  0.52001054  0.61532168  1
  Li  Li102  1  0.48501967  0.02001054  0.88467832  1
  Li  Li103  1  0.98501967  0.47998946  0.11532168  1
  Li  Li104  1  0.38467832  0.01498033  0.97998946  1
  Li  Li105  1  0.61532168  0.51498033  0.52001054  1
  Li  Li106  1  0.88467832  0.48501967  0.02001054  1
  Li  Li107  1  0.11532168  0.98501967  0.47998946  1
  Li  Li108  1  0.13467832  0.22998946  0.23501967  1
  Li  Li109  1  0.36532168  0.77001054  0.73501967  1
  Li  Li110  1  0.63467832  0.27001054  0.76498033  1
  Li  Li111  1  0.86532168  0.72998946  0.26498033  1
  Li  Li112  1  0.72998946  0.26498033  0.86532168  1
  Li  Li113  1  0.27001054  0.76498033  0.63467832  1
  Li  Li114  1  0.77001054  0.73501967  0.36532168  1
  Li  Li115  1  0.22998946  0.23501967  0.13467832  1
  Li  Li116  1  0.76498033  0.63467832  0.27001054  1
  Li  Li117  1  0.26498033  0.86532168  0.72998946  1
  Li  Li118  1  0.23501967  0.13467832  0.22998946  1
  Li  Li119  1  0.73501967  0.36532168  0.77001054  1
  Li  Li120  1  0.47998946  0.88467832  0.51498033  1
  Li  Li121  1  0.02001054  0.11532168  0.01498033  1
  Li  Li122  1  0.52001054  0.38467832  0.98501967  1
  Li  Li123  1  0.97998946  0.61532168  0.48501967  1
  Li  Li124  1  0.51498033  0.47998946  0.88467832  1
  Li  Li125  1  0.01498033  0.02001054  0.11532168  1
  Li  Li126  1  0.98501967  0.52001054  0.38467832  1
  Li  Li127  1  0.48501967  0.97998946  0.61532168  1
  Li  Li128  1  0.88467832  0.51498033  0.47998946  1
  Li  Li129  1  0.11532168  0.01498033  0.02001054  1
  Li  Li130  1  0.38467832  0.98501967  0.52001054  1
  Li  Li131  1  0.61532168  0.48501967  0.97998946  1
  Li  Li132  1  0.63467832  0.72998946  0.73501967  1
  Li  Li133  1  0.86532168  0.27001054  0.23501967  1
  Li  Li134  1  0.13467832  0.77001054  0.26498033  1
  Li  Li135  1  0.36532168  0.22998946  0.76498033  1
  Li  Li136  1  0.22998946  0.76498033  0.36532168  1
  Li  Li137  1  0.77001054  0.26498033  0.13467832  1
  Li  Li138  1  0.27001054  0.23501967  0.86532168  1
  Li  Li139  1  0.72998946  0.73501967  0.63467832  1
  Li  Li140  1  0.26498033  0.13467832  0.77001054  1
  Li  Li141  1  0.76498033  0.36532168  0.22998946  1
  Li  Li142  1  0.73501967  0.63467832  0.72998946  1
  Li  Li143  1  0.23501967  0.86532168  0.27001054  1
  S  S144  1  0.72373953  0.81498411  0.30037074  1
  S  S145  1  0.77626047  0.18501589  0.80037074  1
  S  S146  1  0.27626047  0.31498411  0.19962926  1
  S  S147  1  0.22373953  0.68501589  0.69962926  1
  S  S148  1  0.30037074  0.72373953  0.81498411  1
  S  S149  1  0.80037074  0.77626047  0.18501589  1
  S  S150  1  0.19962926  0.27626047  0.31498411  1
  S  S151  1  0.69962926  0.22373953  0.68501589  1
  S  S152  1  0.81498411  0.30037074  0.72373953  1
  S  S153  1  0.18501589  0.80037074  0.77626047  1
  S  S154  1  0.31498411  0.19962926  0.27626047  1
  S  S155  1  0.68501589  0.69962926  0.22373953  1
  S  S156  1  0.56498411  0.97373953  0.94962926  1
  S  S157  1  0.93501589  0.02626047  0.44962926  1
  S  S158  1  0.06498411  0.52626047  0.05037074  1
  S  S159  1  0.43501589  0.47373953  0.55037074  1
  S  S160  1  0.47373953  0.55037074  0.43501589  1
  S  S161  1  0.52626047  0.05037074  0.06498411  1
  S  S162  1  0.02626047  0.44962926  0.93501589  1
  S  S163  1  0.97373953  0.94962926  0.56498411  1
  S  S164  1  0.05037074  0.06498411  0.52626047  1
  S  S165  1  0.55037074  0.43501589  0.47373953  1
  S  S166  1  0.94962926  0.56498411  0.97373953  1
  S  S167  1  0.44962926  0.93501589  0.02626047  1
  S  S168  1  0.22373953  0.31498411  0.80037074  1
  S  S169  1  0.27626047  0.68501589  0.30037074  1
  S  S170  1  0.77626047  0.81498411  0.69962926  1
  S  S171  1  0.72373953  0.18501589  0.19962926  1
  S  S172  1  0.80037074  0.22373953  0.31498411  1
  S  S173  1  0.30037074  0.27626047  0.68501589  1
  S  S174  1  0.69962926  0.77626047  0.81498411  1
  S  S175  1  0.19962926  0.72373953  0.18501589  1
  S  S176  1  0.31498411  0.80037074  0.22373953  1
  S  S177  1  0.68501589  0.30037074  0.27626047  1
  S  S178  1  0.81498411  0.69962926  0.77626047  1
  S  S179  1  0.18501589  0.19962926  0.72373953  1
  S  S180  1  0.06498411  0.47373953  0.44962926  1
  S  S181  1  0.43501589  0.52626047  0.94962926  1
  S  S182  1  0.56498411  0.02626047  0.55037074  1
  S  S183  1  0.93501589  0.97373953  0.05037074  1
  S  S184  1  0.97373953  0.05037074  0.93501589  1
  S  S185  1  0.02626047  0.55037074  0.56498411  1
  S  S186  1  0.52626047  0.94962926  0.43501589  1
  S  S187  1  0.47373953  0.44962926  0.06498411  1
  S  S188  1  0.55037074  0.56498411  0.02626047  1
  S  S189  1  0.05037074  0.93501589  0.97373953  1
  S  S190  1  0.44962926  0.06498411  0.47373953  1
  S  S191  1  0.94962926  0.43501589  0.52626047  1
  S  S192  1  0.05624468  0.00000000  0.25000000  1
  S  S193  1  0.44375532  0.00000000  0.75000000  1
  S  S194  1  0.25000000  0.05624468  0.00000000  1
  S  S195  1  0.75000000  0.44375532  0.00000000  1
  S  S196  1  0.00000000  0.25000000  0.05624468  1
  S  S197  1  0.00000000  0.75000000  0.44375532  1
  S  S198  1  0.75000000  0.30624468  0.00000000  1
  S  S199  1  0.75000000  0.69375532  0.50000000  1
  S  S200  1  0.80624468  0.50000000  0.25000000  1
  S  S201  1  0.19375532  0.00000000  0.25000000  1
  S  S202  1  0.00000000  0.25000000  0.19375532  1
  S  S203  1  0.50000000  0.25000000  0.80624468  1
  S  S204  1  0.55624468  0.50000000  0.75000000  1
  S  S205  1  0.94375532  0.50000000  0.25000000  1
  S  S206  1  0.75000000  0.55624468  0.50000000  1
  S  S207  1  0.25000000  0.94375532  0.50000000  1
  S  S208  1  0.50000000  0.75000000  0.55624468  1
  S  S209  1  0.50000000  0.25000000  0.94375532  1
  S  S210  1  0.25000000  0.80624468  0.50000000  1
  S  S211  1  0.25000000  0.19375532  0.00000000  1
  S  S212  1  0.30624468  0.00000000  0.75000000  1
  S  S213  1  0.69375532  0.50000000  0.75000000  1
  S  S214  1  0.50000000  0.75000000  0.69375532  1
  S  S215  1  0.00000000  0.75000000  0.30624468  1
  Se  Se216  1  0.31747891  0.31747891  0.31747891  1
  Se  Se217  1  0.18252109  0.68252109  0.81747891  1
  Se  Se218  1  0.68252109  0.81747891  0.18252109  1
  Se  Se219  1  0.81747891  0.18252109  0.68252109  1
  Se  Se220  1  0.06747891  0.56747891  0.93252109  1
  Se  Se221  1  0.43252109  0.43252109  0.43252109  1
  Se  Se222  1  0.56747891  0.93252109  0.06747891  1
  Se  Se223  1  0.93252109  0.06747891  0.56747891  1
  Se  Se224  1  0.81747891  0.81747891  0.81747891  1
  Se  Se225  1  0.68252109  0.18252109  0.31747891  1
  Se  Se226  1  0.18252109  0.31747891  0.68252109  1
  Se  Se227  1  0.31747891  0.68252109  0.18252109  1
  Se  Se228  1  0.56747891  0.06747891  0.43252109  1
  Se  Se229  1  0.93252109  0.93252109  0.93252109  1
  Se  Se230  1  0.06747891  0.43252109  0.56747891  1
  Se  Se231  1  0.43252109  0.56747891  0.06747891  1
  Se  Se232  1  0.86690211  0.33412769  0.01568184  1
  Se  Se233  1  0.63309789  0.66587231  0.51568184  1
  Se  Se234  1  0.13309789  0.83412769  0.48431816  1
  Se  Se235  1  0.36690211  0.16587231  0.98431816  1
  Se  Se236  1  0.01568184  0.86690211  0.33412769  1
  Se  Se237  1  0.51568184  0.63309789  0.66587231  1
  Se  Se238  1  0.48431816  0.13309789  0.83412769  1
  Se  Se239  1  0.98431816  0.36690211  0.16587231  1
  Se  Se240  1  0.33412769  0.01568184  0.86690211  1
  Se  Se241  1  0.66587231  0.51568184  0.63309789  1
  Se  Se242  1  0.83412769  0.48431816  0.13309789  1
  Se  Se243  1  0.16587231  0.98431816  0.36690211  1
  Se  Se244  1  0.08412769  0.11690211  0.23431816  1
  Se  Se245  1  0.41587231  0.88309789  0.73431816  1
  Se  Se246  1  0.58412769  0.38309789  0.76568184  1
  Se  Se247  1  0.91587231  0.61690211  0.26568184  1
  Se  Se248  1  0.61690211  0.26568184  0.91587231  1
  Se  Se249  1  0.38309789  0.76568184  0.58412769  1
  Se  Se250  1  0.88309789  0.73431816  0.41587231  1
  Se  Se251  1  0.11690211  0.23431816  0.08412769  1
  Se  Se252  1  0.76568184  0.58412769  0.38309789  1
  Se  Se253  1  0.26568184  0.91587231  0.61690211  1
  Se  Se254  1  0.23431816  0.08412769  0.11690211  1
  Se  Se255  1  0.73431816  0.41587231  0.88309789  1
  Se  Se256  1  0.36690211  0.83412769  0.51568184  1
  Se  Se257  1  0.13309789  0.16587231  0.01568184  1
  Se  Se258  1  0.63309789  0.33412769  0.98431816  1
  Se  Se259  1  0.86690211  0.66587231  0.48431816  1
  Se  Se260  1  0.51568184  0.36690211  0.83412769  1
  Se  Se261  1  0.01568184  0.13309789  0.16587231  1
  Se  Se262  1  0.98431816  0.63309789  0.33412769  1
  Se  Se263  1  0.48431816  0.86690211  0.66587231  1
  Se  Se264  1  0.83412769  0.51568184  0.36690211  1
  Se  Se265  1  0.16587231  0.01568184  0.13309789  1
  Se  Se266  1  0.33412769  0.98431816  0.63309789  1
  Se  Se267  1  0.66587231  0.48431816  0.86690211  1
  Se  Se268  1  0.58412769  0.61690211  0.73431816  1
  Se  Se269  1  0.91587231  0.38309789  0.23431816  1
  Se  Se270  1  0.08412769  0.88309789  0.26568184  1
  Se  Se271  1  0.41587231  0.11690211  0.76568184  1
  Se  Se272  1  0.11690211  0.76568184  0.41587231  1
  Se  Se273  1  0.88309789  0.26568184  0.08412769  1
  Se  Se274  1  0.38309789  0.23431816  0.91587231  1
  Se  Se275  1  0.61690211  0.73431816  0.58412769  1
  Se  Se276  1  0.26568184  0.08412769  0.88309789  1
  Se  Se277  1  0.76568184  0.41587231  0.11690211  1
  Se  Se278  1  0.73431816  0.58412769  0.61690211  1
  Se  Se279  1  0.23431816  0.91587231  0.38309789  1
  Se  Se280  1  0.75350700  0.10922340  0.36253269  1
  Se  Se281  1  0.74649300  0.89077660  0.86253269  1
  Se  Se282  1  0.24649300  0.60922340  0.13746731  1
  Se  Se283  1  0.25350700  0.39077660  0.63746731  1
  Se  Se284  1  0.36253269  0.75350700  0.10922340  1
  Se  Se285  1  0.86253269  0.74649300  0.89077660  1
  Se  Se286  1  0.13746731  0.24649300  0.60922340  1
  Se  Se287  1  0.63746731  0.25350700  0.39077660  1
  Se  Se288  1  0.10922340  0.36253269  0.75350700  1
  Se  Se289  1  0.89077660  0.86253269  0.74649300  1
  Se  Se290  1  0.60922340  0.13746731  0.24649300  1
  Se  Se291  1  0.39077660  0.63746731  0.25350700  1
  Se  Se292  1  0.85922340  0.00350700  0.88746731  1
  Se  Se293  1  0.64077660  0.99649300  0.38746731  1
  Se  Se294  1  0.35922340  0.49649300  0.11253269  1
  Se  Se295  1  0.14077660  0.50350700  0.61253269  1
  Se  Se296  1  0.50350700  0.61253269  0.14077660  1
  Se  Se297  1  0.49649300  0.11253269  0.35922340  1
  Se  Se298  1  0.99649300  0.38746731  0.64077660  1
  Se  Se299  1  0.00350700  0.88746731  0.85922340  1
  Se  Se300  1  0.11253269  0.35922340  0.49649300  1
  Se  Se301  1  0.61253269  0.14077660  0.50350700  1
  Se  Se302  1  0.88746731  0.85922340  0.00350700  1
  Se  Se303  1  0.38746731  0.64077660  0.99649300  1
  Se  Se304  1  0.25350700  0.60922340  0.86253269  1
  Se  Se305  1  0.24649300  0.39077660  0.36253269  1
  Se  Se306  1  0.74649300  0.10922340  0.63746731  1
  Se  Se307  1  0.75350700  0.89077660  0.13746731  1
  Se  Se308  1  0.86253269  0.25350700  0.60922340  1
  Se  Se309  1  0.36253269  0.24649300  0.39077660  1
  Se  Se310  1  0.63746731  0.74649300  0.10922340  1
  Se  Se311  1  0.13746731  0.75350700  0.89077660  1
  Se  Se312  1  0.60922340  0.86253269  0.25350700  1
  Se  Se313  1  0.39077660  0.36253269  0.24649300  1
  Se  Se314  1  0.10922340  0.63746731  0.74649300  1
  Se  Se315  1  0.89077660  0.13746731  0.75350700  1
  Se  Se316  1  0.35922340  0.50350700  0.38746731  1
  Se  Se317  1  0.14077660  0.49649300  0.88746731  1
  Se  Se318  1  0.85922340  0.99649300  0.61253269  1
  Se  Se319  1  0.64077660  0.00350700  0.11253269  1
  Se  Se320  1  0.00350700  0.11253269  0.64077660  1
  Se  Se321  1  0.99649300  0.61253269  0.85922340  1
  Se  Se322  1  0.49649300  0.88746731  0.14077660  1
  Se  Se323  1  0.50350700  0.38746731  0.35922340  1
  Se  Se324  1  0.61253269  0.85922340  0.99649300  1
  Se  Se325  1  0.11253269  0.64077660  0.00350700  1
  Se  Se326  1  0.38746731  0.35922340  0.50350700  1
  Se  Se327  1  0.88746731  0.14077660  0.49649300  1
  Se  Se328  1  0.12500000  0.12500000  0.12500000  1
  Se  Se329  1  0.37500000  0.87500000  0.62500000  1
  Se  Se330  1  0.87500000  0.62500000  0.37500000  1
  Se  Se331  1  0.62500000  0.37500000  0.87500000  1
  Se  Se332  1  0.62500000  0.62500000  0.62500000  1
  Se  Se333  1  0.87500000  0.37500000  0.12500000  1
  Se  Se334  1  0.37500000  0.12500000  0.87500000  1
  Se  Se335  1  0.12500000  0.87500000  0.37500000  1
  Se  Se336  1  0.12500000  0.00000000  0.25000000  1
  Se  Se337  1  0.37500000  0.00000000  0.75000000  1
  Se  Se338  1  0.25000000  0.12500000  0.00000000  1
  Se  Se339  1  0.75000000  0.37500000  0.00000000  1
  Se  Se340  1  0.00000000  0.25000000  0.12500000  1
  Se  Se341  1  0.00000000  0.75000000  0.37500000  1
  Se  Se342  1  0.62500000  0.50000000  0.75000000  1
  Se  Se343  1  0.87500000  0.50000000  0.25000000  1
  Se  Se344  1  0.75000000  0.62500000  0.50000000  1
  Se  Se345  1  0.25000000  0.87500000  0.50000000  1
  Se  Se346  1  0.50000000  0.75000000  0.62500000  1
  Se  Se347  1  0.50000000  0.25000000  0.87500000  1
  Se  Se348  1  0.62500000  0.00000000  0.25000000  1
  Se  Se349  1  0.87500000  0.00000000  0.75000000  1
  Se  Se350  1  0.25000000  0.62500000  0.00000000  1
  Se  Se351  1  0.75000000  0.87500000  0.00000000  1
  Se  Se352  1  0.00000000  0.25000000  0.62500000  1
  Se  Se353  1  0.00000000  0.75000000  0.87500000  1
  Se  Se354  1  0.12500000  0.50000000  0.75000000  1
  Se  Se355  1  0.37500000  0.50000000  0.25000000  1
  Se  Se356  1  0.75000000  0.12500000  0.50000000  1
  Se  Se357  1  0.25000000  0.37500000  0.50000000  1
  Se  Se358  1  0.50000000  0.75000000  0.12500000  1
  Se  Se359  1  0.50000000  0.25000000  0.37500000  1
