# generated using pymatgen
data_LiF
_symmetry_space_group_name_H-M   'P 1'
_cell_length_a   8.15782584
_cell_length_b   8.03761122
_cell_length_c   7.37253203
_cell_angle_alpha   90.00000000
_cell_angle_beta   90.00000000
_cell_angle_gamma   90.00000000
_symmetry_Int_Tables_number   1
_chemical_formula_structural   LiF
_chemical_formula_sum   'Li24 F24'
_cell_volume   483.41274129
_cell_formula_units_Z   24
loop_
 _symmetry_equiv_pos_site_id
 _symmetry_equiv_pos_as_xyz
  1  'x, y, z'
loop_
 _atom_site_type_symbol
 _atom_site_label
 _atom_site_symmetry_multiplicity
 _atom_site_fract_x
 _atom_site_fract_y
 _atom_site_fract_z
 _atom_site_occupancy
  F  F0  1  0.81824473  0.89825216  0.92949591  1
  F  F1  1  0.68175527  0.10174784  0.42949591  1
  F  F2  1  0.18175527  0.39825216  0.07050409  1
  F  F3  1  0.31824473  0.60174784  0.57050409  1
  F  F4  1  0.18175527  0.10174784  0.07050409  1
  F  F5  1  0.31824473  0.89825216  0.57050409  1
  F  F6  1  0.81824473  0.60174784  0.92949591  1
  F  F7  1  0.68175527  0.39825216  0.42949591  1
  F  F8  1  0.54537153  0.20953481  0.56698607  1
  F  F9  1  0.95462847  0.79046519  0.06698607  1
  F  F10  1  0.45462847  0.70953481  0.43301393  1
  F  F11  1  0.04537153  0.29046519  0.93301393  1
  F  F12  1  0.45462847  0.79046519  0.43301393  1
  F  F13  1  0.04537153  0.20953481  0.93301393  1
  F  F14  1  0.54537153  0.29046519  0.56698607  1
  F  F15  1  0.95462847  0.70953481  0.06698607  1
  F  F16  1  0.39301521  0.39253353  0.29367504  1
  F  F17  1  0.10698479  0.60746647  0.79367504  1
  F  F18  1  0.60698479  0.89253353  0.70632496  1
  F  F19  1  0.89301521  0.10746647  0.20632496  1
  F  F20  1  0.60698479  0.60746647  0.70632496  1
  F  F21  1  0.89301521  0.39253353  0.20632496  1
  F  F22  1  0.39301521  0.10746647  0.29367504  1
  F  F23  1  0.10698479  0.89253353  0.79367504  1
  Li  Li24  1  0.25484942  0.41458549  0.69308563  1
  Li  Li25  1  0.24515058  -0.41458549  1.19308563  1
  Li  Li26  1  -0.25484942  0.91458549  -0.69308563  1
  Li  Li27  1  0.75484942  0.08541451  -0.19308563  1
  Li  Li28  1  -0.25484942  -0.41458549  -0.69308563  1
  Li  Li29  1  0.75484942  0.41458549  -0.19308563  1
  Li  Li30  1  0.25484942  0.08541451  0.69308563  1
  Li  Li31  1  0.24515058  0.91458549  1.19308563  1
  Li  Li32  1  0.88329838  0.25000000  0.64408109  1
  Li  Li33  1  0.61670162  0.75000000  0.14408109  1
  Li  Li34  1  0.11670162  0.75000000  0.35591891  1
  Li  Li35  1  0.38329838  0.25000000  0.85591891  1
  Li  Li36  1  0.64990741  0.25000000  0.49106320  1
  Li  Li37  1  0.85009259  0.75000000  0.99106320  1
  Li  Li38  1  0.35009259  0.75000000  0.50893680  1
  Li  Li39  1  0.14990741  0.25000000  0.00893680  1
  Li  Li40  1  0.00000000  0.00000000  0.00000000  1
  Li  Li41  1  0.50000000  0.00000000  0.50000000  1
  Li  Li42  1  0.00000000  0.50000000  0.00000000  1
  Li  Li43  1  0.50000000  0.50000000  0.50000000  1
  Li  Li44  1  0.00879629  0.25000000  0.29376352  1
  Li  Li45  1  0.49120371  0.75000000  0.79376352  1
  Li  Li46  1  0.99120371  0.75000000  0.70623648  1
  Li  Li47  1  0.50879629  0.25000000  0.20623648  1
