# generated using pymatgen
data_LiF
_symmetry_space_group_name_H-M   'P 1'
_cell_length_a   12.51599158
_cell_length_b   5.38273758
_cell_length_c   6.90354643
_cell_angle_alpha   90.00000000
_cell_angle_beta   90.00000000
_cell_angle_gamma   90.00000000
_symmetry_Int_Tables_number   1
_chemical_formula_structural   LiF
_chemical_formula_sum   'Li24 F24'
_cell_volume   465.09398185
_cell_formula_units_Z   24
loop_
 _symmetry_equiv_pos_site_id
 _symmetry_equiv_pos_as_xyz
  1  'x, y, z'
loop_
 _atom_site_type_symbol
 _atom_site_label
 _atom_site_symmetry_multiplicity
 _atom_site_fract_x
 _atom_site_fract_y
 _atom_site_fract_z
 _atom_site_occupancy
  F  F0  1  0.39721218  0.25000000  0.41561390  1
  F  F1  1  0.10278782  0.75000000  0.91561390  1
  F  F2  1  0.60278782  0.75000000  0.58438610  1
  F  F3  1  0.89721218  0.25000000  0.08438610  1
  F  F4  1  0.48649028  0.89727820  0.28195804  1
  F  F5  1  0.01350972  0.10272180  0.78195804  1
  F  F6  1  0.51350972  0.39727820  0.71804196  1
  F  F7  1  0.98649028  0.60272180  0.21804196  1
  F  F8  1  0.51350972  0.10272180  0.71804196  1
  F  F9  1  0.98649028  0.89727820  0.21804196  1
  F  F10  1  0.48649028  0.60272180  0.28195804  1
  F  F11  1  0.01350972  0.39727820  0.78195804  1
  F  F12  1  0.35044543  0.59347444  0.32236090  1
  F  F13  1  0.14955457  0.40652556  0.82236090  1
  F  F14  1  0.64955457  0.09347444  0.67763910  1
  F  F15  1  0.85044543  0.90652556  0.17763910  1
  F  F16  1  0.64955457  0.40652556  0.67763910  1
  F  F17  1  0.85044543  0.59347444  0.17763910  1
  F  F18  1  0.35044543  0.90652556  0.32236090  1
  F  F19  1  0.14955457  0.09347444  0.82236090  1
  F  F20  1  0.19986951  0.25000000  0.55216833  1
  F  F21  1  0.30013049  0.75000000  0.05216833  1
  F  F22  1  0.80013049  0.75000000  0.44783167  1
  F  F23  1  0.69986951  0.25000000  0.94783167  1
  Li  Li24  1  0.97789793  0.25000000  0.54625115  1
  Li  Li25  1  0.52210207  0.75000000  0.04625115  1
  Li  Li26  1  0.02210207  0.75000000  0.45374885  1
  Li  Li27  1  0.47789793  0.25000000  0.95374885  1
  Li  Li28  1  0.00000000  0.00000000  0.00000000  1
  Li  Li29  1  0.50000000  0.00000000  0.50000000  1
  Li  Li30  1  0.00000000  0.50000000  -0.00000000  1
  Li  Li31  1  0.50000000  0.50000000  0.50000000  1
  Li  Li32  1  0.92595430  0.25000000  0.27092105  1
  Li  Li33  1  0.57404570  0.75000000  0.77092105  1
  Li  Li34  1  0.07404570  0.75000000  0.72907895  1
  Li  Li35  1  0.42595430  0.25000000  0.22907895  1
  Li  Li36  1  0.00000000  0.00000000  0.50000000  1
  Li  Li37  1  0.50000000  0.00000000  0.00000000  1
  Li  Li38  1  0.00000000  0.50000000  0.50000000  1
  Li  Li39  1  0.50000000  0.50000000  -0.00000000  1
  Li  Li40  1  0.11812729  0.56811191  0.17515847  1
  Li  Li41  1  0.38187271  -0.56811191  0.67515847  1
  Li  Li42  1  -0.11812729  1.06811191  -0.17515847  1
  Li  Li43  1  0.61812729  -0.06811191  0.32484153  1
  Li  Li44  1  -0.11812729  -0.56811191  -0.17515847  1
  Li  Li45  1  0.61812729  0.56811191  0.32484153  1
  Li  Li46  1  0.11812729  -0.06811191  0.17515847  1
  Li  Li47  1  0.38187271  1.06811191  0.67515847  1
