# generated using pymatgen
data_LiF
_symmetry_space_group_name_H-M   'P 1'
_cell_length_a   10.08519409
_cell_length_b   10.08519409
_cell_length_c   8.36806233
_cell_angle_alpha   90.00000000
_cell_angle_beta   90.00000000
_cell_angle_gamma   120.00000000
_symmetry_Int_Tables_number   1
_chemical_formula_structural   LiF
_chemical_formula_sum   'Li24 F24'
_cell_volume   737.09600817
_cell_formula_units_Z   24
loop_
 _symmetry_equiv_pos_site_id
 _symmetry_equiv_pos_as_xyz
  1  'x, y, z'
loop_
 _atom_site_type_symbol
 _atom_site_label
 _atom_site_symmetry_multiplicity
 _atom_site_fract_x
 _atom_site_fract_y
 _atom_site_fract_z
 _atom_site_occupancy
  F  F0  1  0.10815540  0.31138695  0.24374927  1
  F  F1  1  0.68861305  0.79676845  0.24374927  1
  F  F2  1  0.20323155  0.89184460  0.24374927  1
  F  F3  1  0.68861305  0.89184460  0.75625073  1
  F  F4  1  0.20323155  0.31138695  0.75625073  1
  F  F5  1  0.10815540  0.79676845  0.75625073  1
  F  F6  1  0.57609304  0.20465408  0.18672779  1
  F  F7  1  0.79534592  0.37143896  0.18672779  1
  F  F8  1  0.62856104  0.42390696  0.18672779  1
  F  F9  1  0.79534592  0.42390696  0.81327221  1
  F  F10  1  0.62856104  0.20465408  0.81327221  1
  F  F11  1  0.57609304  0.37143896  0.81327221  1
  F  F12  1  0.66666667  0.33333333  0.29946441  1
  F  F13  1  0.66666667  0.33333333  0.70053559  1
  F  F14  1  0.33333333  0.66666667  0.50000000  1
  F  F15  1  0.00000000  0.00000000  0.50000000  1
  F  F16  1  0.31022311  0.17286331  0.92129235  1
  F  F17  1  0.82713669  0.13735979  0.92129235  1
  F  F18  1  0.86264021  0.68977689  0.92129235  1
  F  F19  1  0.82713669  0.68977689  0.07870765  1
  F  F20  1  0.86264021  0.17286331  0.07870765  1
  F  F21  1  0.31022311  0.13735979  0.07870765  1
  F  F22  1  0.00000000  0.00000000  0.95912572  1
  F  F23  1  0.00000000  0.00000000  0.04087428  1
  Li  Li24  1  0.66666667  0.33333333  0.41830620  1
  Li  Li25  1  0.66666667  0.33333333  0.58169380  1
  Li  Li26  1  0.77100652  0.75691429  0.87105373  1
  Li  Li27  1  -0.75691429  0.01409223  0.87105373  1
  Li  Li28  1  -0.01409223  -0.77100652  0.87105373  1
  Li  Li29  1  -0.75691429  -0.77100652  -0.87105373  1
  Li  Li30  1  -0.01409223  0.75691429  -0.87105373  1
  Li  Li31  1  0.77100652  0.01409223  -0.87105373  1
  Li  Li32  1  0.88697261  0.02099445  0.91318788  1
  Li  Li33  1  0.97900555  0.86597817  0.91318788  1
  Li  Li34  1  0.13402183  0.11302739  0.91318788  1
  Li  Li35  1  0.97900555  0.11302739  0.08681212  1
  Li  Li36  1  0.13402183  0.02099445  0.08681212  1
  Li  Li37  1  0.88697261  0.86597817  0.08681212  1
  Li  Li38  1  0.66666667  0.33333333  0.00000000  1
  Li  Li39  1  0.59816566  0.40183434  0.50000000  1
  Li  Li40  1  0.59816566  0.19633132  0.50000000  1
  Li  Li41  1  0.80366868  0.40183434  0.50000000  1
  Li  Li42  1  0.24253510  0.52503084  0.63153987  1
  Li  Li43  1  0.47496916  0.71750426  0.63153987  1
  Li  Li44  1  0.28249574  0.75746490  0.63153987  1
  Li  Li45  1  0.47496916  0.75746490  0.36846013  1
  Li  Li46  1  0.28249574  0.52503084  0.36846013  1
  Li  Li47  1  0.24253510  0.71750426  0.36846013  1
