# generated using pymatgen
data_Li3Y2As4P3Se
_symmetry_space_group_name_H-M   'P 1'
_cell_length_a   5.85140442
_cell_length_b   6.06955280
_cell_length_c   7.14355678
_cell_angle_alpha   92.40750920
_cell_angle_beta   95.67789432
_cell_angle_gamma   100.19505180
_symmetry_Int_Tables_number   1
_chemical_formula_structural   Li3Y2As4P3Se
_chemical_formula_sum   'Li3 Y2 As4 P3 Se1'
_cell_volume   248.01621082
_cell_formula_units_Z   1
loop_
 _symmetry_equiv_pos_site_id
 _symmetry_equiv_pos_as_xyz
  1  'x, y, z'
loop_
 _atom_site_type_symbol
 _atom_site_label
 _atom_site_symmetry_multiplicity
 _atom_site_fract_x
 _atom_site_fract_y
 _atom_site_fract_z
 _atom_site_occupancy
  Se  Se0  1  0.00000000  0.00000000  0.00000000  1
  P  P1  1  0.50000000  0.50000000  0.50000000  1
  P  P2  1  0.25000000  0.25000000  0.25000000  1
  P  P3  1  0.75000000  0.25000000  0.00000000  1
  As  As4  1  0.25000000  0.75000000  0.50000000  1
  As  As5  1  0.85906599  0.13375855  0.95032423  1
  As  As6  1  0.36296330  0.56328202  0.93010254  1
  As  As7  1  0.02530333  0.76685955  0.91525768  1
  Li  Li8  1  0.79521290  0.43748648  0.91619809  1
  Li  Li9  1  0.94149307  0.31158971  0.65814651  1
  Li  Li10  1  0.22623432  0.48929468  0.12446484  1
  Y  Y11  1  0.43942401  0.04540970  0.72464063  1
  Y  Y12  1  0.50452415  0.72737830  0.17376527  1
