# generated using pymatgen
data_LiF
_symmetry_space_group_name_H-M   'P 1'
_cell_length_a   12.24179005
_cell_length_b   5.16348413
_cell_length_c   17.95500507
_cell_angle_alpha   90.00000000
_cell_angle_beta   90.00000000
_cell_angle_gamma   90.00000000
_symmetry_Int_Tables_number   1
_chemical_formula_structural   LiF
_chemical_formula_sum   'Li48 F48'
_cell_volume   1134.94105305
_cell_formula_units_Z   48
loop_
 _symmetry_equiv_pos_site_id
 _symmetry_equiv_pos_as_xyz
  1  'x, y, z'
loop_
 _atom_site_type_symbol
 _atom_site_label
 _atom_site_symmetry_multiplicity
 _atom_site_fract_x
 _atom_site_fract_y
 _atom_site_fract_z
 _atom_site_occupancy
  F  F0  1  0.06350447  0.36913914  0.75285956  1
  F  F1  1  0.43649553  0.63086086  0.25285956  1
  F  F2  1  0.93649553  0.86913914  0.24714044  1
  F  F3  1  0.56350447  0.13086086  0.74714044  1
  F  F4  1  0.93649553  0.63086086  0.24714044  1
  F  F5  1  0.56350447  0.36913914  0.74714044  1
  F  F6  1  0.06350447  0.13086086  0.75285956  1
  F  F7  1  0.43649553  0.86913914  0.25285956  1
  F  F8  1  0.46969680  0.92208100  0.15085746  1
  F  F9  1  0.03030320  0.07791900  0.65085746  1
  F  F10  1  0.53030320  0.42208100  0.84914254  1
  F  F11  1  0.96969680  0.57791900  0.34914254  1
  F  F12  1  0.53030320  0.07791900  0.84914254  1
  F  F13  1  0.96969680  0.92208100  0.34914254  1
  F  F14  1  0.46969680  0.57791900  0.15085746  1
  F  F15  1  0.03030320  0.42208100  0.65085746  1
  F  F16  1  0.86286682  0.25000000  0.99190807  1
  F  F17  1  0.63713318  0.75000000  0.49190807  1
  F  F18  1  0.13713318  0.75000000  0.00809193  1
  F  F19  1  0.36286682  0.25000000  0.50809193  1
  F  F20  1  0.68457484  0.67934850  0.72333075  1
  F  F21  1  0.81542516  0.32065150  0.22333075  1
  F  F22  1  0.31542516  0.17934850  0.27666925  1
  F  F23  1  0.18457484  0.82065150  0.77666925  1
  F  F24  1  0.31542516  0.32065150  0.27666925  1
  F  F25  1  0.18457484  0.67934850  0.77666925  1
  F  F26  1  0.68457484  0.82065150  0.72333075  1
  F  F27  1  0.81542516  0.17934850  0.22333075  1
  F  F28  1  0.92718473  0.46675868  0.39148803  1
  F  F29  1  0.57281527  0.53324132  0.89148803  1
  F  F30  1  0.07281527  0.96675868  0.60851197  1
  F  F31  1  0.42718473  0.03324132  0.10851197  1
  F  F32  1  0.07281527  0.53324132  0.60851197  1
  F  F33  1  0.42718473  0.46675868  0.10851197  1
  F  F34  1  0.92718473  0.03324132  0.39148803  1
  F  F35  1  0.57281527  0.96675868  0.89148803  1
  F  F36  1  0.75992066  0.59376722  0.64767967  1
  F  F37  1  0.74007934  0.40623278  0.14767967  1
  F  F38  1  0.24007934  0.09376722  0.35232033  1
  F  F39  1  0.25992066  0.90623278  0.85232033  1
  F  F40  1  0.24007934  0.40623278  0.35232033  1
  F  F41  1  0.25992066  0.59376722  0.85232033  1
  F  F42  1  0.75992066  0.90623278  0.64767967  1
  F  F43  1  0.74007934  0.09376722  0.14767967  1
  F  F44  1  0.47879506  0.25000000  0.87916172  1
  F  F45  1  0.02120494  0.75000000  0.37916172  1
  F  F46  1  0.52120494  0.75000000  0.12083828  1
  F  F47  1  0.97879506  0.25000000  0.62083828  1
  Li  Li48  1  0.83548657  0.50263355  0.94632979  1
  Li  Li49  1  -0.33548657  -0.50263355  1.44632979  1
  Li  Li50  1  -0.83548657  1.00263355  -0.94632979  1
  Li  Li51  1  1.33548657  -0.00263355  -0.44632979  1
  Li  Li52  1  -0.83548657  -0.50263355  -0.94632979  1
  Li  Li53  1  1.33548657  0.50263355  -0.44632979  1
  Li  Li54  1  0.83548657  -0.00263355  0.94632979  1
  Li  Li55  1  -0.33548657  1.00263355  1.44632979  1
  Li  Li56  1  0.25129739  0.38315865  0.73586321  1
  Li  Li57  1  0.24870261  0.61684135  0.23586321  1
  Li  Li58  1  0.74870261  0.88315865  0.26413679  1
  Li  Li59  1  0.75129739  0.11684135  0.76413679  1
  Li  Li60  1  0.74870261  0.61684135  0.26413679  1
  Li  Li61  1  0.75129739  0.38315865  0.76413679  1
  Li  Li62  1  0.25129739  0.11684135  0.73586321  1
  Li  Li63  1  0.24870261  0.88315865  0.23586321  1
  Li  Li64  1  0.53974761  0.25000000  0.03879212  1
  Li  Li65  1  0.96025239  0.75000000  0.53879212  1
  Li  Li66  1  0.46025239  0.75000000  0.96120788  1
  Li  Li67  1  0.03974761  0.25000000  0.46120788  1
  Li  Li68  1  0.00000000  0.00000000  0.00000000  1
  Li  Li69  1  0.50000000  0.00000000  0.50000000  1
  Li  Li70  1  0.00000000  0.50000000  0.00000000  1
  Li  Li71  1  0.50000000  0.50000000  0.50000000  1
  Li  Li72  1  0.30720051  0.47890901  0.45217106  1
  Li  Li73  1  0.19279949  0.52109099  0.95217106  1
  Li  Li74  1  0.69279949  0.97890901  0.54782894  1
  Li  Li75  1  0.80720051  0.02109099  0.04782894  1
  Li  Li76  1  0.69279949  0.52109099  0.54782894  1
  Li  Li77  1  0.80720051  0.47890901  0.04782894  1
  Li  Li78  1  0.30720051  0.02109099  0.45217106  1
  Li  Li79  1  0.19279949  0.97890901  0.95217106  1
  Li  Li80  1  0.00000000  0.00000000  0.50000000  1
  Li  Li81  1  0.50000000  0.00000000  0.00000000  1
  Li  Li82  1  0.00000000  0.50000000  0.50000000  1
  Li  Li83  1  0.50000000  0.50000000  -0.00000000  1
  Li  Li84  1  0.47541804  0.25000000  0.24876961  1
  Li  Li85  1  0.02458196  0.75000000  0.74876961  1
  Li  Li86  1  0.52458196  0.75000000  0.75123039  1
  Li  Li87  1  0.97541804  0.25000000  0.25123039  1
  Li  Li88  1  0.48945061  0.25000000  0.61652181  1
  Li  Li89  1  0.01054939  0.75000000  0.11652181  1
  Li  Li90  1  0.51054939  0.75000000  0.38347819  1
  Li  Li91  1  0.98945061  0.25000000  0.88347819  1
  Li  Li92  1  0.10538344  0.25000000  0.84264020  1
  Li  Li93  1  0.39461656  0.75000000  0.34264020  1
  Li  Li94  1  0.89461656  0.75000000  0.15735980  1
  Li  Li95  1  0.60538344  0.25000000  0.65735980  1
