# generated using pymatgen
data_LiF
_symmetry_space_group_name_H-M   'P 1'
_cell_length_a   5.16683191
_cell_length_b   11.64274136
_cell_length_c   6.25878393
_cell_angle_alpha   90.00000000
_cell_angle_beta   90.00000000
_cell_angle_gamma   90.00000000
_symmetry_Int_Tables_number   1
_chemical_formula_structural   LiF
_chemical_formula_sum   'Li24 F24'
_cell_volume   376.50395438
_cell_formula_units_Z   24
loop_
 _symmetry_equiv_pos_site_id
 _symmetry_equiv_pos_as_xyz
  1  'x, y, z'
loop_
 _atom_site_type_symbol
 _atom_site_label
 _atom_site_symmetry_multiplicity
 _atom_site_fract_x
 _atom_site_fract_y
 _atom_site_fract_z
 _atom_site_occupancy
  F  F0  1  0.07364765  0.79562371  0.11907096  1
  F  F1  1  0.42635235  0.20437629  0.61907096  1
  F  F2  1  0.92635235  0.29562371  0.88092904  1
  F  F3  1  0.57364765  0.70437629  0.38092904  1
  F  F4  1  0.92635235  0.20437629  0.88092904  1
  F  F5  1  0.57364765  0.79562371  0.38092904  1
  F  F6  1  0.07364765  0.70437629  0.11907096  1
  F  F7  1  0.42635235  0.29562371  0.61907096  1
  F  F8  1  0.17935747  0.02863812  0.56549682  1
  F  F9  1  0.32064253  0.97136188  0.06549682  1
  F  F10  1  0.82064253  0.52863812  0.43450318  1
  F  F11  1  0.67935747  0.47136188  0.93450318  1
  F  F12  1  0.82064253  0.97136188  0.43450318  1
  F  F13  1  0.67935747  0.02863812  0.93450318  1
  F  F14  1  0.17935747  0.47136188  0.56549682  1
  F  F15  1  0.32064253  0.52863812  0.06549682  1
  F  F16  1  0.86307094  0.43738576  0.68700414  1
  F  F17  1  0.63692906  0.56261424  0.18700414  1
  F  F18  1  0.13692906  0.93738576  0.31299586  1
  F  F19  1  0.36307094  0.06261424  0.81299586  1
  F  F20  1  0.13692906  0.56261424  0.31299586  1
  F  F21  1  0.36307094  0.43738576  0.81299586  1
  F  F22  1  0.86307094  0.06261424  0.68700414  1
  F  F23  1  0.63692906  0.93738576  0.18700414  1
  Li  Li24  1  0.00000000  0.00000000  0.50000000  1
  Li  Li25  1  0.50000000  0.00000000  -0.00000000  1
  Li  Li26  1  0.00000000  0.50000000  0.50000000  1
  Li  Li27  1  0.50000000  0.50000000  -0.00000000  1
  Li  Li28  1  0.24094936  0.54678414  0.77845069  1
  Li  Li29  1  0.25905064  -0.54678414  1.27845069  1
  Li  Li30  1  -0.24094936  1.04678414  -0.77845069  1
  Li  Li31  1  0.74094936  -0.04678414  -0.27845069  1
  Li  Li32  1  -0.24094936  -0.54678414  -0.77845069  1
  Li  Li33  1  0.74094936  0.54678414  -0.27845069  1
  Li  Li34  1  0.24094936  -0.04678414  0.77845069  1
  Li  Li35  1  0.25905064  1.04678414  1.27845069  1
  Li  Li36  1  0.80389833  0.25000000  0.77175709  1
  Li  Li37  1  0.69610167  0.75000000  0.27175709  1
  Li  Li38  1  0.19610167  0.75000000  0.22824291  1
  Li  Li39  1  0.30389833  0.25000000  0.72824291  1
  Li  Li40  1  0.69905727  0.25000000  0.13117160  1
  Li  Li41  1  0.80094273  0.75000000  0.63117160  1
  Li  Li42  1  0.30094273  0.75000000  0.86882840  1
  Li  Li43  1  0.19905727  0.25000000  0.36882840  1
  Li  Li44  1  0.00000000  0.00000000  0.00000000  1
  Li  Li45  1  0.50000000  0.00000000  0.50000000  1
  Li  Li46  1  0.00000000  0.50000000  0.00000000  1
  Li  Li47  1  0.50000000  0.50000000  0.50000000  1
