# generated using pymatgen
data_LiF
_symmetry_space_group_name_H-M   'P 1'
_cell_length_a   15.18162436
_cell_length_b   10.80915858
_cell_length_c   5.95508868
_cell_angle_alpha   90.00000000
_cell_angle_beta   90.00000000
_cell_angle_gamma   90.00000000
_symmetry_Int_Tables_number   1
_chemical_formula_structural   LiF
_chemical_formula_sum   'Li24 F24'
_cell_volume   977.23353686
_cell_formula_units_Z   24
loop_
 _symmetry_equiv_pos_site_id
 _symmetry_equiv_pos_as_xyz
  1  'x, y, z'
loop_
 _atom_site_type_symbol
 _atom_site_label
 _atom_site_symmetry_multiplicity
 _atom_site_fract_x
 _atom_site_fract_y
 _atom_site_fract_z
 _atom_site_occupancy
  F  F0  1  0.26177536  0.98965766  0.80167149  1
  F  F1  1  0.23822464  0.01034234  0.30167149  1
  F  F2  1  0.73822464  0.48965766  0.19832851  1
  F  F3  1  0.76177536  0.51034234  0.69832851  1
  F  F4  1  0.73822464  0.01034234  0.19832851  1
  F  F5  1  0.76177536  0.98965766  0.69832851  1
  F  F6  1  0.26177536  0.51034234  0.80167149  1
  F  F7  1  0.23822464  0.48965766  0.30167149  1
  F  F8  1  0.11023646  0.94420048  0.45507073  1
  F  F9  1  0.38976354  0.05579952  0.95507073  1
  F  F10  1  0.88976354  0.44420048  0.54492927  1
  F  F11  1  0.61023646  0.55579952  0.04492927  1
  F  F12  1  0.88976354  0.05579952  0.54492927  1
  F  F13  1  0.61023646  0.94420048  0.04492927  1
  F  F14  1  0.11023646  0.55579952  0.45507073  1
  F  F15  1  0.38976354  0.44420048  0.95507073  1
  F  F16  1  0.27356834  0.80361150  0.08363932  1
  F  F17  1  0.22643166  0.19638850  0.58363932  1
  F  F18  1  0.72643166  0.30361150  0.91636068  1
  F  F19  1  0.77356834  0.69638850  0.41636068  1
  F  F20  1  0.72643166  0.19638850  0.91636068  1
  F  F21  1  0.77356834  0.80361150  0.41636068  1
  F  F22  1  0.27356834  0.69638850  0.08363932  1
  F  F23  1  0.22643166  0.30361150  0.58363932  1
  Li  Li24  1  0.50339072  0.25000000  0.06185009  1
  Li  Li25  1  0.99660928  0.75000000  0.56185009  1
  Li  Li26  1  0.49660928  0.75000000  0.93814991  1
  Li  Li27  1  0.00339072  0.25000000  0.43814991  1
  Li  Li28  1  0.30068974  0.55174570  0.27390101  1
  Li  Li29  1  0.19931026  -0.55174570  0.77390101  1
  Li  Li30  1  -0.30068974  1.05174570  -0.27390101  1
  Li  Li31  1  0.80068974  -0.05174570  0.22609899  1
  Li  Li32  1  -0.30068974  -0.55174570  -0.27390101  1
  Li  Li33  1  0.80068974  0.55174570  0.22609899  1
  Li  Li34  1  0.30068974  -0.05174570  0.27390101  1
  Li  Li35  1  0.19931026  1.05174570  0.77390101  1
  Li  Li36  1  0.89802648  0.52928598  0.75276521  1
  Li  Li37  1  0.60197352  0.47071402  0.25276521  1
  Li  Li38  1  0.10197352  0.02928598  0.24723479  1
  Li  Li39  1  0.39802648  0.97071402  0.74723479  1
  Li  Li40  1  0.10197352  0.47071402  0.24723479  1
  Li  Li41  1  0.39802648  0.52928598  0.74723479  1
  Li  Li42  1  0.89802648  0.97071402  0.75276521  1
  Li  Li43  1  0.60197352  0.02928598  0.25276521  1
  Li  Li44  1  0.00000000  0.00000000  0.50000000  1
  Li  Li45  1  0.50000000  -0.00000000  0.00000000  1
  Li  Li46  1  0.00000000  0.50000000  0.50000000  1
  Li  Li47  1  0.50000000  0.50000000  -0.00000000  1
