# generated using pymatgen
data_Li3Y2P3Se2
_symmetry_space_group_name_H-M   'P 1'
_cell_length_a   5.13254964
_cell_length_b   5.31226445
_cell_length_c   7.08980072
_cell_angle_alpha   94.46636381
_cell_angle_beta   99.72681183
_cell_angle_gamma   107.93960828
_symmetry_Int_Tables_number   1
_chemical_formula_structural   Li3Y2P3Se2
_chemical_formula_sum   'Li3 Y2 P3 Se2'
_cell_volume   179.51661410
_cell_formula_units_Z   1
loop_
 _symmetry_equiv_pos_site_id
 _symmetry_equiv_pos_as_xyz
  1  'x, y, z'
loop_
 _atom_site_type_symbol
 _atom_site_label
 _atom_site_symmetry_multiplicity
 _atom_site_fract_x
 _atom_site_fract_y
 _atom_site_fract_z
 _atom_site_occupancy
  Y  Y0  1  0.00000000  0.00000000  0.00000000  1
  Y  Y1  1  0.33300000  0.66700000  0.25000000  1
  P  P2  1  0.66700000  0.33300000  0.50000000  1
  P  P3  1  0.00000000  0.00000000  0.75000000  1
  P  P4  1  0.01503567  0.58144890  0.63136504  1
  Se  Se5  1  0.49535771  0.38054011  0.45344729  1
  Se  Se6  1  0.13491387  0.75733745  0.10969947  1
  Li  Li7  1  0.60678492  0.49220365  0.17810666  1
  Li  Li8  1  0.31120940  0.62668813  0.05946231  1
  Li  Li9  1  0.00937885  0.74746863  0.11332123  1
