# generated using pymatgen
data_LiF
_symmetry_space_group_name_H-M   'P 1'
_cell_length_a   7.65522507
_cell_length_b   11.22756689
_cell_length_c   5.76403916
_cell_angle_alpha   90.00000000
_cell_angle_beta   90.00000000
_cell_angle_gamma   90.00000000
_symmetry_Int_Tables_number   1
_chemical_formula_structural   LiF
_chemical_formula_sum   'Li22 F22'
_cell_volume   495.41658083
_cell_formula_units_Z   22
loop_
 _symmetry_equiv_pos_site_id
 _symmetry_equiv_pos_as_xyz
  1  'x, y, z'
loop_
 _atom_site_type_symbol
 _atom_site_label
 _atom_site_symmetry_multiplicity
 _atom_site_fract_x
 _atom_site_fract_y
 _atom_site_fract_z
 _atom_site_occupancy
  F  F0  1  0.26833594  0.98355480  0.43090218  1
  F  F1  1  -0.26833594  -0.98355480  0.43090218  1
  F  F2  1  0.23166406  1.48355480  0.06909782  1
  F  F3  1  0.76833594  -0.48355480  0.06909782  1
  F  F4  1  -0.26833594  -0.98355480  -0.43090218  1
  F  F5  1  0.26833594  0.98355480  -0.43090218  1
  F  F6  1  0.76833594  -0.48355480  0.93090218  1
  F  F7  1  0.23166406  1.48355480  0.93090218  1
  F  F8  1  0.97994935  0.42190488  0.58770420  1
  F  F9  1  0.02005065  0.57809512  0.58770420  1
  F  F10  1  0.52005065  0.92190488  0.91229580  1
  F  F11  1  0.47994935  0.07809512  0.91229580  1
  F  F12  1  0.02005065  0.57809512  0.41229580  1
  F  F13  1  0.97994935  0.42190488  0.41229580  1
  F  F14  1  0.47994935  0.07809512  0.08770420  1
  F  F15  1  0.52005065  0.92190488  0.08770420  1
  F  F16  1  0.00000000  0.00000000  0.50000000  1
  F  F17  1  0.50000000  0.50000000  0.00000000  1
  F  F18  1  0.00000000  0.50000000  0.50000000  1
  F  F19  1  0.50000000  -0.00000000  -0.00000000  1
  F  F20  1  0.00000000  0.50000000  0.00000000  1
  F  F21  1  0.50000000  -0.00000000  0.50000000  1
  Li  Li22  1  0.23518740  0.12748911  0.26281223  1
  Li  Li23  1  0.76481260  0.87251089  0.26281223  1
  Li  Li24  1  0.26481260  0.62748911  0.23718777  1
  Li  Li25  1  0.73518740  0.37251089  0.23718777  1
  Li  Li26  1  0.76481260  0.87251089  0.73718777  1
  Li  Li27  1  0.23518740  0.12748911  0.73718777  1
  Li  Li28  1  0.73518740  0.37251089  0.76281223  1
  Li  Li29  1  0.26481260  0.62748911  0.76281223  1
  Li  Li30  1  0.93626378  0.33927797  0.00000000  1
  Li  Li31  1  0.06373622  0.66072203  0.00000000  1
  Li  Li32  1  0.56373622  0.83927797  0.50000000  1
  Li  Li33  1  0.43626378  0.16072203  0.50000000  1
  Li  Li34  1  0.00000000  0.00000000  0.32407444  1
  Li  Li35  1  0.50000000  0.50000000  0.17592556  1
  Li  Li36  1  0.00000000  0.00000000  0.67592556  1
  Li  Li37  1  0.50000000  0.50000000  0.82407444  1
  Li  Li38  1  0.00000000  0.00000000  0.00000000  1
  Li  Li39  1  0.50000000  0.50000000  0.50000000  1
  Li  Li40  1  0.00000000  0.50000000  0.80027118  1
  Li  Li41  1  0.50000000  -0.00000000  0.69972882  1
  Li  Li42  1  0.00000000  0.50000000  0.19972882  1
  Li  Li43  1  0.50000000  -0.00000000  0.30027118  1
