# generated using pymatgen
data_Li2Y2As4P2Se
_symmetry_space_group_name_H-M   'P 1'
_cell_length_a   5.82302684
_cell_length_b   5.98097641
_cell_length_c   6.81290447
_cell_angle_alpha   92.14756501
_cell_angle_beta   94.03981319
_cell_angle_gamma   97.46339425
_symmetry_Int_Tables_number   1
_chemical_formula_structural   Li2Y2As4P2Se
_chemical_formula_sum   'Li2 Y2 As4 P2 Se1'
_cell_volume   234.42001910
_cell_formula_units_Z   1
loop_
 _symmetry_equiv_pos_site_id
 _symmetry_equiv_pos_as_xyz
  1  'x, y, z'
loop_
 _atom_site_type_symbol
 _atom_site_label
 _atom_site_symmetry_multiplicity
 _atom_site_fract_x
 _atom_site_fract_y
 _atom_site_fract_z
 _atom_site_occupancy
  Se  Se0  1  0.00000000  0.00000000  0.00000000  1
  Y  Y1  1  0.50000000  0.50000000  0.50000000  1
  Y  Y2  1  0.25000000  0.25000000  0.25000000  1
  P  P3  1  0.75000000  0.25000000  0.00000000  1
  P  P4  1  0.25000000  0.75000000  0.50000000  1
  As  As5  1  0.21982693  0.44927359  0.08982483  1
  As  As6  1  0.91106552  0.83945644  0.75046334  1
  As  As7  1  0.20135091  0.23456495  0.40279871  1
  As  As8  1  0.65949954  0.01355216  0.52679675  1
  Li  Li9  1  0.83015361  0.28627133  0.52428398  1
  Li  Li10  1  0.40088060  0.55731862  0.99398029  1
