# generated using pymatgen
data_LiF
_symmetry_space_group_name_H-M   'P 1'
_cell_length_a   8.36746647
_cell_length_b   14.75274268
_cell_length_c   4.73165868
_cell_angle_alpha   90.00000000
_cell_angle_beta   90.00000000
_cell_angle_gamma   90.00000000
_symmetry_Int_Tables_number   1
_chemical_formula_structural   LiF
_chemical_formula_sum   'Li20 F20'
_cell_volume   584.09052001
_cell_formula_units_Z   20
loop_
 _symmetry_equiv_pos_site_id
 _symmetry_equiv_pos_as_xyz
  1  'x, y, z'
loop_
 _atom_site_type_symbol
 _atom_site_label
 _atom_site_symmetry_multiplicity
 _atom_site_fract_x
 _atom_site_fract_y
 _atom_site_fract_z
 _atom_site_occupancy
  F  F0  1  0.04990555  0.39551399  0.29933664  1
  F  F1  1  -0.04990555  -0.39551399  0.29933664  1
  F  F2  1  0.45009445  0.89551399  -0.29933664  1
  F  F3  1  0.54990555  0.10448601  -0.29933664  1
  F  F4  1  -0.04990555  -0.39551399  -0.29933664  1
  F  F5  1  0.04990555  0.39551399  -0.29933664  1
  F  F6  1  0.54990555  0.10448601  0.29933664  1
  F  F7  1  0.45009445  0.89551399  0.29933664  1
  F  F8  1  0.57149216  0.23932854  0.17362745  1
  F  F9  1  0.42850784  0.76067146  0.17362745  1
  F  F10  1  0.92850784  0.73932854  0.82637255  1
  F  F11  1  0.07149216  0.26067146  0.82637255  1
  F  F12  1  0.42850784  0.76067146  0.82637255  1
  F  F13  1  0.57149216  0.23932854  0.82637255  1
  F  F14  1  0.07149216  0.26067146  0.17362745  1
  F  F15  1  0.92850784  0.73932854  0.17362745  1
  F  F16  1  0.00000000  0.00000000  0.00000000  1
  F  F17  1  0.50000000  0.50000000  0.00000000  1
  F  F18  1  0.00000000  0.50000000  0.50000000  1
  F  F19  1  0.50000000  0.00000000  0.50000000  1
  Li  Li20  1  0.87771041  0.44476019  0.50000000  1
  Li  Li21  1  0.12228959  0.55523981  0.50000000  1
  Li  Li22  1  0.62228959  0.94476019  0.50000000  1
  Li  Li23  1  0.37771041  0.05523981  0.50000000  1
  Li  Li24  1  0.72072895  0.67259244  0.00000000  1
  Li  Li25  1  0.27927105  0.32740756  -0.00000000  1
  Li  Li26  1  0.77927105  0.17259244  0.00000000  1
  Li  Li27  1  0.22072895  0.82740756  -0.00000000  1
  Li  Li28  1  0.93786931  0.19095405  0.50000000  1
  Li  Li29  1  0.06213069  0.80904595  0.50000000  1
  Li  Li30  1  0.56213069  0.69095405  0.50000000  1
  Li  Li31  1  0.43786931  0.30904595  0.50000000  1
  Li  Li32  1  0.98085144  0.28070612  0.00000000  1
  Li  Li33  1  0.01914856  0.71929388  -0.00000000  1
  Li  Li34  1  0.51914856  0.78070612  -0.00000000  1
  Li  Li35  1  0.48085144  0.21929388  0.00000000  1
  Li  Li36  1  0.72391983  0.77062948  0.50000000  1
  Li  Li37  1  0.27608017  0.22937052  0.50000000  1
  Li  Li38  1  0.77608017  0.27062948  0.50000000  1
  Li  Li39  1  0.22391983  0.72937052  0.50000000  1
