# generated using pymatgen
data_LiF
_symmetry_space_group_name_H-M   'P 1'
_cell_length_a   10.91880677
_cell_length_b   6.08175969
_cell_length_c   12.32153879
_cell_angle_alpha   90.00000000
_cell_angle_beta   90.00000000
_cell_angle_gamma   90.00000000
_symmetry_Int_Tables_number   1
_chemical_formula_structural   LiF
_chemical_formula_sum   'Li24 F24'
_cell_volume   818.21866923
_cell_formula_units_Z   24
loop_
 _symmetry_equiv_pos_site_id
 _symmetry_equiv_pos_as_xyz
  1  'x, y, z'
loop_
 _atom_site_type_symbol
 _atom_site_label
 _atom_site_symmetry_multiplicity
 _atom_site_fract_x
 _atom_site_fract_y
 _atom_site_fract_z
 _atom_site_occupancy
  F  F0  1  0.57465854  0.84322652  0.62032373  1
  F  F1  1  0.92534146  0.15677348  0.12032373  1
  F  F2  1  0.42534146  0.34322652  0.37967627  1
  F  F3  1  0.07465854  0.65677348  0.87967627  1
  F  F4  1  0.42534146  0.15677348  0.37967627  1
  F  F5  1  0.07465854  0.84322652  0.87967627  1
  F  F6  1  0.57465854  0.65677348  0.62032373  1
  F  F7  1  0.92534146  0.34322652  0.12032373  1
  F  F8  1  0.72670619  0.41361844  0.26603547  1
  F  F9  1  0.77329381  0.58638156  0.76603547  1
  F  F10  1  0.27329381  0.91361844  0.73396453  1
  F  F11  1  0.22670619  0.08638156  0.23396453  1
  F  F12  1  0.27329381  0.58638156  0.73396453  1
  F  F13  1  0.22670619  0.41361844  0.23396453  1
  F  F14  1  0.72670619  0.08638156  0.26603547  1
  F  F15  1  0.77329381  0.91361844  0.76603547  1
  F  F16  1  0.11114688  0.48875221  0.56888131  1
  F  F17  1  0.38885312  0.51124779  0.06888131  1
  F  F18  1  0.88885312  0.98875221  0.43111869  1
  F  F19  1  0.61114688  0.01124779  0.93111869  1
  F  F20  1  0.88885312  0.51124779  0.43111869  1
  F  F21  1  0.61114688  0.48875221  0.93111869  1
  F  F22  1  0.11114688  0.01124779  0.56888131  1
  F  F23  1  0.38885312  0.98875221  0.06888131  1
  Li  Li24  1  0.76782606  0.00613898  0.11124683  1
  Li  Li25  1  -0.26782606  -0.00613898  0.61124683  1
  Li  Li26  1  -0.76782606  0.50613898  -0.11124683  1
  Li  Li27  1  1.26782606  0.49386102  0.38875317  1
  Li  Li28  1  -0.76782606  -0.00613898  -0.11124683  1
  Li  Li29  1  1.26782606  0.00613898  0.38875317  1
  Li  Li30  1  0.76782606  0.49386102  0.11124683  1
  Li  Li31  1  -0.26782606  0.50613898  0.61124683  1
  Li  Li32  1  0.01253083  0.43432711  0.19496365  1
  Li  Li33  1  0.48746917  0.56567289  0.69496365  1
  Li  Li34  1  0.98746917  0.93432711  0.80503635  1
  Li  Li35  1  0.51253083  0.06567289  0.30503635  1
  Li  Li36  1  0.98746917  0.56567289  0.80503635  1
  Li  Li37  1  0.51253083  0.43432711  0.30503635  1
  Li  Li38  1  0.01253083  0.06567289  0.19496365  1
  Li  Li39  1  0.48746917  0.93432711  0.69496365  1
  Li  Li40  1  0.40317119  0.91466213  0.22917224  1
  Li  Li41  1  0.09682881  0.08533787  0.72917224  1
  Li  Li42  1  0.59682881  0.41466213  0.77082776  1
  Li  Li43  1  0.90317119  0.58533787  0.27082776  1
  Li  Li44  1  0.59682881  0.08533787  0.77082776  1
  Li  Li45  1  0.90317119  0.91466213  0.27082776  1
  Li  Li46  1  0.40317119  0.58533787  0.22917224  1
  Li  Li47  1  0.09682881  0.41466213  0.72917224  1
