# generated using pymatgen
data_Li2YP3Se2
_symmetry_space_group_name_H-M   'P 1'
_cell_length_a   5.10253731
_cell_length_b   5.29562273
_cell_length_c   7.18740719
_cell_angle_alpha   94.97732907
_cell_angle_beta   100.57920100
_cell_angle_gamma   108.72655652
_symmetry_Int_Tables_number   1
_chemical_formula_structural   Li2YP3Se2
_chemical_formula_sum   'Li2 Y1 P3 Se2'
_cell_volume   178.57587890
_cell_formula_units_Z   1
loop_
 _symmetry_equiv_pos_site_id
 _symmetry_equiv_pos_as_xyz
  1  'x, y, z'
loop_
 _atom_site_type_symbol
 _atom_site_label
 _atom_site_symmetry_multiplicity
 _atom_site_fract_x
 _atom_site_fract_y
 _atom_site_fract_z
 _atom_site_occupancy
  Se  Se0  1  0.12500000  0.12500000  0.12500000  1
  Se  Se1  1  0.50000000  0.50000000  0.50000000  1
  P  P2  1  0.25000000  0.25000000  0.25000000  1
  P  P3  1  0.75000000  0.75000000  0.75000000  1
  P  P4  1  0.11421662  0.71437010  0.43819452  1
  Li  Li5  1  0.31496945  0.14173210  0.98558921  1
  Li  Li6  1  0.02929865  0.75531054  0.32398320  1
  Y  Y7  1  0.76566243  0.34589928  0.53685103  1
