# generated using pymatgen
data_LiF
_symmetry_space_group_name_H-M   'P 1'
_cell_length_a   9.31439365
_cell_length_b   9.31439365
_cell_length_c   10.11267162
_cell_angle_alpha   90.00000000
_cell_angle_beta   90.00000000
_cell_angle_gamma   120.00000000
_symmetry_Int_Tables_number   1
_chemical_formula_structural   LiF
_chemical_formula_sum   'Li22 F22'
_cell_volume   759.81123863
_cell_formula_units_Z   22
loop_
 _symmetry_equiv_pos_site_id
 _symmetry_equiv_pos_as_xyz
  1  'x, y, z'
loop_
 _atom_site_type_symbol
 _atom_site_label
 _atom_site_symmetry_multiplicity
 _atom_site_fract_x
 _atom_site_fract_y
 _atom_site_fract_z
 _atom_site_occupancy
  F  F0  1  0.98253324  0.88369321  0.91131235  1
  F  F1  1  -0.88369321  0.09884003  0.91131235  1
  F  F2  1  -0.09884003  -0.98253324  0.91131235  1
  F  F3  1  -0.98253324  -0.88369321  1.41131235  1
  F  F4  1  0.88369321  -0.09884003  1.41131235  1
  F  F5  1  0.09884003  0.98253324  1.41131235  1
  F  F6  1  -0.98253324  -0.88369321  -0.91131235  1
  F  F7  1  0.88369321  -0.09884003  -0.91131235  1
  F  F8  1  0.09884003  0.98253324  -0.91131235  1
  F  F9  1  0.98253324  0.88369321  -0.41131235  1
  F  F10  1  -0.88369321  0.09884003  -0.41131235  1
  F  F11  1  -0.09884003  -0.98253324  -0.41131235  1
  F  F12  1  0.50000000  0.00000000  -0.00000000  1
  F  F13  1  0.00000000  0.50000000  0.00000000  1
  F  F14  1  0.50000000  0.50000000  0.00000000  1
  F  F15  1  0.50000000  0.00000000  0.50000000  1
  F  F16  1  0.00000000  0.50000000  0.50000000  1
  F  F17  1  0.50000000  0.50000000  0.50000000  1
  F  F18  1  0.33333333  0.66666667  0.25000000  1
  F  F19  1  0.66666667  0.33333333  0.75000000  1
  F  F20  1  0.00000000  0.00000000  0.25000000  1
  F  F21  1  0.00000000  0.00000000  0.75000000  1
  Li  Li22  1  0.95722639  0.25180575  0.25000000  1
  Li  Li23  1  0.74819425  0.70542064  0.25000000  1
  Li  Li24  1  0.29457936  0.04277361  0.25000000  1
  Li  Li25  1  0.04277361  0.74819425  0.75000000  1
  Li  Li26  1  0.25180575  0.29457936  0.75000000  1
  Li  Li27  1  0.70542064  0.95722639  0.75000000  1
  Li  Li28  1  0.33333333  0.66666667  0.68164005  1
  Li  Li29  1  0.66666667  0.33333333  0.18164005  1
  Li  Li30  1  0.66666667  0.33333333  0.31835995  1
  Li  Li31  1  0.33333333  0.66666667  0.81835995  1
  Li  Li32  1  0.52909993  0.76206862  0.04950802  1
  Li  Li33  1  0.23793138  0.76703131  0.04950802  1
  Li  Li34  1  0.23296869  0.47090007  0.04950802  1
  Li  Li35  1  0.47090007  0.23793138  0.54950802  1
  Li  Li36  1  0.76206862  0.23296869  0.54950802  1
  Li  Li37  1  0.76703131  0.52909993  0.54950802  1
  Li  Li38  1  0.47090007  0.23793138  0.95049198  1
  Li  Li39  1  0.76206862  0.23296869  0.95049198  1
  Li  Li40  1  0.76703131  0.52909993  0.95049198  1
  Li  Li41  1  0.52909993  0.76206862  0.45049198  1
  Li  Li42  1  0.23793138  0.76703131  0.45049198  1
  Li  Li43  1  0.23296869  0.47090007  0.45049198  1
