# generated using pymatgen
data_Li3Y2P3Se2
_symmetry_space_group_name_H-M   'P 1'
_cell_length_a   5.49363528
_cell_length_b   5.77532075
_cell_length_c   7.31823089
_cell_angle_alpha   93.84639647
_cell_angle_beta   98.37665186
_cell_angle_gamma   105.44944590
_symmetry_Int_Tables_number   1
_chemical_formula_structural   Li3Y2P3Se2
_chemical_formula_sum   'Li3 Y2 P3 Se2'
_cell_volume   220.04240732
_cell_formula_units_Z   1
loop_
 _symmetry_equiv_pos_site_id
 _symmetry_equiv_pos_as_xyz
  1  'x, y, z'
loop_
 _atom_site_type_symbol
 _atom_site_label
 _atom_site_symmetry_multiplicity
 _atom_site_fract_x
 _atom_site_fract_y
 _atom_site_fract_z
 _atom_site_occupancy
  Se  Se0  1  0.00000000  0.00000000  0.00000000  1
  Se  Se1  1  0.50000000  0.50000000  0.50000000  1
  Y  Y2  1  0.50000000  0.50000000  0.00000000  1
  Y  Y3  1  0.50000000  0.00000000  0.50000000  1
  P  P4  1  0.00000000  0.50000000  0.50000000  1
  P  P5  1  0.77288444  0.47024597  0.95977865  1
  P  P6  1  0.77962780  0.78683136  0.49970770  1
  Li  Li7  1  0.40332982  0.77042430  0.27348462  1
  Li  Li8  1  0.61911238  0.58357117  0.13617489  1
  Li  Li9  1  0.37626198  0.06846099  0.29039501  1
