# generated using pymatgen
data_LiF
_symmetry_space_group_name_H-M   'P 1'
_cell_length_a   6.97765147
_cell_length_b   6.97765147
_cell_length_c   28.13191848
_cell_angle_alpha   90.00000000
_cell_angle_beta   90.00000000
_cell_angle_gamma   120.00000000
_symmetry_Int_Tables_number   1
_chemical_formula_structural   LiF
_chemical_formula_sum   'Li43 F43'
_cell_volume   1186.17434854
_cell_formula_units_Z   43
loop_
 _symmetry_equiv_pos_site_id
 _symmetry_equiv_pos_as_xyz
  1  'x, y, z'
loop_
 _atom_site_type_symbol
 _atom_site_label
 _atom_site_symmetry_multiplicity
 _atom_site_fract_x
 _atom_site_fract_y
 _atom_site_fract_z
 _atom_site_occupancy
  F  F0  1  0.88548464  0.72358197  0.91907974  1
  F  F1  1  0.27641803  0.16190267  0.91907974  1
  F  F2  1  0.83809733  0.11451536  0.91907974  1
  F  F3  1  0.27641803  0.11451536  0.08092026  1
  F  F4  1  0.83809733  0.72358197  0.08092026  1
  F  F5  1  0.88548464  0.16190267  0.08092026  1
  F  F6  1  0.88009762  0.83715734  0.38273396  1
  F  F7  1  0.16284266  0.04294028  0.38273396  1
  F  F8  1  0.95705972  0.11990238  0.38273396  1
  F  F9  1  0.16284266  0.11990238  0.61726604  1
  F  F10  1  0.95705972  0.83715734  0.61726604  1
  F  F11  1  0.88009762  0.04294028  0.61726604  1
  F  F12  1  0.76540474  0.23459526  0.50000000  1
  F  F13  1  0.76540474  0.53080947  0.50000000  1
  F  F14  1  0.46919053  0.23459526  0.50000000  1
  F  F15  1  0.20718777  0.52167261  0.48600194  1
  F  F16  1  0.47832739  0.68551515  0.48600194  1
  F  F17  1  0.31448485  0.79281223  0.48600194  1
  F  F18  1  0.47832739  0.79281223  0.51399806  1
  F  F19  1  0.31448485  0.52167261  0.51399806  1
  F  F20  1  0.20718777  0.68551515  0.51399806  1
  F  F21  1  0.33333333  0.66666667  0.00000000  1
  F  F22  1  0.65889362  0.14016665  0.98543016  1
  F  F23  1  0.85983335  0.51872698  0.98543016  1
  F  F24  1  0.48127302  0.34110638  0.98543016  1
  F  F25  1  0.85983335  0.34110638  0.01456984  1
  F  F26  1  0.48127302  0.14016665  0.01456984  1
  F  F27  1  0.65889362  0.51872698  0.01456984  1
  F  F28  1  0.74358557  0.13874856  0.08361955  1
  F  F29  1  0.86125144  0.60483701  0.08361955  1
  F  F30  1  0.39516299  0.25641443  0.08361955  1
  F  F31  1  0.86125144  0.25641443  0.91638045  1
  F  F32  1  0.39516299  0.13874856  0.91638045  1
  F  F33  1  0.74358557  0.60483701  0.91638045  1
  F  F34  1  0.51963757  0.80003913  0.01912957  1
  F  F35  1  0.19996087  0.71959844  0.01912957  1
  F  F36  1  0.28040156  0.48036243  0.01912957  1
  F  F37  1  0.19996087  0.48036243  0.98087043  1
  F  F38  1  0.28040156  0.80003913  0.98087043  1
  F  F39  1  0.51963757  0.71959844  0.98087043  1
  F  F40  1  0.66666667  0.33333333  0.50000000  1
  F  F41  1  0.33333333  0.66666667  0.88866694  1
  F  F42  1  0.33333333  0.66666667  0.11133306  1
  Li  Li43  1  0.00000000  0.00000000  0.13340560  1
  Li  Li44  1  0.00000000  0.00000000  0.86659440  1
  Li  Li45  1  0.08581522  0.70850960  0.19167438  1
  Li  Li46  1  -0.70850960  -0.62269438  0.19167438  1
  Li  Li47  1  0.62269438  -0.08581522  0.19167438  1
  Li  Li48  1  -0.70850960  -0.08581522  -0.19167438  1
  Li  Li49  1  0.62269438  0.70850960  -0.19167438  1
  Li  Li50  1  0.08581522  -0.62269438  -0.19167438  1
  Li  Li51  1  0.33333333  0.66666667  0.50000000  1
  Li  Li52  1  0.89043583  0.22099538  0.69341530  1
  Li  Li53  1  0.77900462  0.66944045  0.69341530  1
  Li  Li54  1  0.33055955  0.10956417  0.69341530  1
  Li  Li55  1  0.77900462  0.10956417  0.30658470  1
  Li  Li56  1  0.33055955  0.22099538  0.30658470  1
  Li  Li57  1  0.89043583  0.66944045  0.30658470  1
  Li  Li58  1  0.00000000  0.00000000  0.00000000  1
  Li  Li59  1  0.51402732  0.48597268  0.00000000  1
  Li  Li60  1  0.51402732  0.02805464  -0.00000000  1
  Li  Li61  1  0.97194536  0.48597268  0.00000000  1
  Li  Li62  1  0.95667755  0.33506127  0.28490493  1
  Li  Li63  1  0.66493873  0.62161627  0.28490493  1
  Li  Li64  1  0.37838373  0.04332245  0.28490493  1
  Li  Li65  1  0.66493873  0.04332245  0.71509507  1
  Li  Li66  1  0.37838373  0.33506127  0.71509507  1
  Li  Li67  1  0.95667755  0.62161627  0.71509507  1
  Li  Li68  1  0.84820291  0.15179709  -0.00000000  1
  Li  Li69  1  0.84820291  0.69640582  -0.00000000  1
  Li  Li70  1  0.30359418  0.15179709  -0.00000000  1
  Li  Li71  1  0.97810467  0.57579423  0.45785933  1
  Li  Li72  1  0.42420577  0.40231043  0.45785933  1
  Li  Li73  1  0.59768957  0.02189533  0.45785933  1
  Li  Li74  1  0.42420577  0.02189533  0.54214067  1
  Li  Li75  1  0.59768957  0.57579423  0.54214067  1
  Li  Li76  1  0.97810467  0.40231043  0.54214067  1
  Li  Li77  1  0.02839776  0.81501421  0.76005410  1
  Li  Li78  1  0.18498579  0.21338355  0.76005410  1
  Li  Li79  1  0.78661645  0.97160224  0.76005410  1
  Li  Li80  1  0.18498579  0.97160224  0.23994590  1
  Li  Li81  1  0.78661645  0.81501421  0.23994590  1
  Li  Li82  1  0.02839776  0.21338355  0.23994590  1
  Li  Li83  1  0.18331938  0.81668062  0.50000000  1
  Li  Li84  1  0.18331938  0.36663877  0.50000000  1
  Li  Li85  1  0.63336123  0.81668062  0.50000000  1
