# generated using pymatgen
data_Li2Si4Te3F12
_symmetry_space_group_name_H-M   'P 1'
_cell_length_a   7.87704811
_cell_length_b   16.14361713
_cell_length_c   9.18120455
_cell_angle_alpha   90.00000000
_cell_angle_beta   90.00000000
_cell_angle_gamma   90.00000000
_symmetry_Int_Tables_number   1
_chemical_formula_structural   Li2Si4Te3F12
_chemical_formula_sum   'Li8 Si16 Te12 F48'
_cell_volume   1167.51914268
_cell_formula_units_Z   4
loop_
 _symmetry_equiv_pos_site_id
 _symmetry_equiv_pos_as_xyz
  1  'x, y, z'
loop_
 _atom_site_type_symbol
 _atom_site_label
 _atom_site_symmetry_multiplicity
 _atom_site_fract_x
 _atom_site_fract_y
 _atom_site_fract_z
 _atom_site_occupancy
  F  F0  1  0.11557850  0.29398475  0.27013523  1
  F  F1  1  0.88442150  0.70601525  0.27013523  1
  F  F2  1  0.38442150  0.79398475  0.72986477  1
  F  F3  1  0.61557850  0.20601525  0.72986477  1
  F  F4  1  0.88442150  0.70601525  0.72986477  1
  F  F5  1  0.11557850  0.29398475  0.72986477  1
  F  F6  1  0.61557850  0.20601525  0.27013523  1
  F  F7  1  0.38442150  0.79398475  0.27013523  1
  F  F8  1  0.86717296  0.86850726  0.04851627  1
  F  F9  1  0.13282704  0.13149274  0.04851627  1
  F  F10  1  0.63282704  0.36850726  0.95148373  1
  F  F11  1  0.36717296  0.63149274  0.95148373  1
  F  F12  1  0.13282704  0.13149274  0.95148373  1
  F  F13  1  0.86717296  0.86850726  0.95148373  1
  F  F14  1  0.36717296  0.63149274  0.04851627  1
  F  F15  1  0.63282704  0.36850726  0.04851627  1
  F  F16  1  0.05789625  0.64995975  0.56984971  1
  F  F17  1  0.94210375  0.35004025  0.56984971  1
  F  F18  1  0.44210375  0.14995975  0.43015029  1
  F  F19  1  0.55789625  0.85004025  0.43015029  1
  F  F20  1  0.94210375  0.35004025  0.43015029  1
  F  F21  1  0.05789625  0.64995975  0.43015029  1
  F  F22  1  0.55789625  0.85004025  0.56984971  1
  F  F23  1  0.44210375  0.14995975  0.56984971  1
  F  F24  1  0.36201290  0.28140224  0.95511459  1
  F  F25  1  0.63798710  0.71859776  0.95511459  1
  F  F26  1  0.13798710  0.78140224  0.04488541  1
  F  F27  1  0.86201290  0.21859776  0.04488541  1
  F  F28  1  0.63798710  0.71859776  0.04488541  1
  F  F29  1  0.36201290  0.28140224  0.04488541  1
  F  F30  1  0.86201290  0.21859776  0.95511459  1
  F  F31  1  0.13798710  0.78140224  0.95511459  1
  F  F32  1  0.92028997  0.46376697  0.15733650  1
  F  F33  1  0.07971003  0.53623303  0.15733650  1
  F  F34  1  0.57971003  0.96376697  0.84266350  1
  F  F35  1  0.42028997  0.03623303  0.84266350  1
  F  F36  1  0.07971003  0.53623303  0.84266350  1
  F  F37  1  0.92028997  0.46376697  0.84266350  1
  F  F38  1  0.42028997  0.03623303  0.15733650  1
  F  F39  1  0.57971003  0.96376697  0.15733650  1
  F  F40  1  0.00000000  0.00000000  0.50000000  1
  F  F41  1  0.50000000  0.50000000  0.50000000  1
  F  F42  1  0.00000000  0.00000000  0.90803130  1
  F  F43  1  0.50000000  0.50000000  0.09196870  1
  F  F44  1  0.00000000  0.00000000  0.09196870  1
  F  F45  1  0.50000000  0.50000000  0.90803130  1
  F  F46  1  0.00000000  0.50000000  0.00000000  1
  F  F47  1  0.50000000  0.00000000  0.00000000  1
  Li  Li48  1  0.65978376  0.26833622  0.11282955  1
  Li  Li49  1  0.34021624  0.73166378  0.11282955  1
  Li  Li50  1  0.84021624  0.76833622  0.88717045  1
  Li  Li51  1  0.15978376  0.23166378  0.88717045  1
  Li  Li52  1  0.34021624  0.73166378  0.88717045  1
  Li  Li53  1  0.65978376  0.26833622  0.88717045  1
  Li  Li54  1  0.15978376  0.23166378  0.11282955  1
  Li  Li55  1  0.84021624  0.76833622  0.11282955  1
  Si  Si56  1  0.00000000  0.50000000  0.50000000  1
  Si  Si57  1  0.50000000  0.00000000  0.50000000  1
  Si  Si58  1  0.32547997  0.83019304  0.50000000  1
  Si  Si59  1  0.67452003  0.16980696  0.50000000  1
  Si  Si60  1  0.17452003  0.33019304  0.50000000  1
  Si  Si61  1  0.82547997  0.66980696  0.50000000  1
  Si  Si62  1  0.73832770  0.31513865  0.81018876  1
  Si  Si63  1  -0.73832770  -0.31513865  0.81018876  1
  Si  Si64  1  -0.23832770  0.81513865  -0.81018876  1
  Si  Si65  1  1.23832770  0.18486135  -0.81018876  1
  Si  Si66  1  -0.73832770  -0.31513865  -0.81018876  1
  Si  Si67  1  0.73832770  0.31513865  -0.81018876  1
  Si  Si68  1  1.23832770  0.18486135  0.81018876  1
  Si  Si69  1  -0.23832770  0.81513865  0.81018876  1
  Si  Si70  1  0.00000000  0.00000000  0.00000000  1
  Si  Si71  1  0.50000000  0.50000000  0.00000000  1
  Te  Te72  1  0.77713425  0.46925366  0.00000000  1
  Te  Te73  1  0.22286575  0.53074634  0.00000000  1
  Te  Te74  1  0.72286575  0.96925366  0.00000000  1
  Te  Te75  1  0.27713425  0.03074634  0.00000000  1
  Te  Te76  1  0.36441298  0.86787689  0.00000000  1
  Te  Te77  1  0.63558702  0.13212311  0.00000000  1
  Te  Te78  1  0.13558702  0.36787689  0.00000000  1
  Te  Te79  1  0.86441298  0.63212311  0.00000000  1
  Te  Te80  1  0.53848505  0.85425756  0.00000000  1
  Te  Te81  1  0.46151495  0.14574244  0.00000000  1
  Te  Te82  1  0.96151495  0.35425756  0.00000000  1
  Te  Te83  1  0.03848505  0.64574244  0.00000000  1
