# generated using pymatgen
data_LiF
_symmetry_space_group_name_H-M   'P 1'
_cell_length_a   14.64556959
_cell_length_b   14.64556959
_cell_length_c   4.03134041
_cell_angle_alpha   90.00000000
_cell_angle_beta   90.00000000
_cell_angle_gamma   120.00000000
_symmetry_Int_Tables_number   1
_chemical_formula_structural   LiF
_chemical_formula_sum   'Li36 F36'
_cell_volume   748.84621190
_cell_formula_units_Z   36
loop_
 _symmetry_equiv_pos_site_id
 _symmetry_equiv_pos_as_xyz
  1  'x, y, z'
loop_
 _atom_site_type_symbol
 _atom_site_label
 _atom_site_symmetry_multiplicity
 _atom_site_fract_x
 _atom_site_fract_y
 _atom_site_fract_z
 _atom_site_occupancy
  F  F0  1  0.44220054  0.09591393  0.88571557  1
  F  F1  1  -0.09591393  0.34628661  0.88571557  1
  F  F2  1  -0.34628661  -0.44220054  0.88571557  1
  F  F3  1  -0.44220054  -0.09591393  1.38571557  1
  F  F4  1  0.09591393  -0.34628661  1.38571557  1
  F  F5  1  0.34628661  0.44220054  1.38571557  1
  F  F6  1  -0.44220054  -0.09591393  -0.88571557  1
  F  F7  1  0.09591393  -0.34628661  -0.88571557  1
  F  F8  1  0.34628661  0.44220054  -0.88571557  1
  F  F9  1  0.44220054  0.09591393  -0.38571557  1
  F  F10  1  -0.09591393  0.34628661  -0.38571557  1
  F  F11  1  -0.34628661  -0.44220054  -0.38571557  1
  F  F12  1  0.66666667  0.33333333  0.25000000  1
  F  F13  1  0.33333333  0.66666667  0.75000000  1
  F  F14  1  0.27498953  0.89920975  0.03359417  1
  F  F15  1  0.10079025  0.37577977  0.03359417  1
  F  F16  1  0.62422023  0.72501047  0.03359417  1
  F  F17  1  0.72501047  0.10079025  0.53359417  1
  F  F18  1  0.89920975  0.62422023  0.53359417  1
  F  F19  1  0.37577977  0.27498953  0.53359417  1
  F  F20  1  0.72501047  0.10079025  0.96640583  1
  F  F21  1  0.89920975  0.62422023  0.96640583  1
  F  F22  1  0.37577977  0.27498953  0.96640583  1
  F  F23  1  0.27498953  0.89920975  0.46640583  1
  F  F24  1  0.10079025  0.37577977  0.46640583  1
  F  F25  1  0.62422023  0.72501047  0.46640583  1
  F  F26  1  0.33333333  0.66666667  0.25000000  1
  F  F27  1  0.66666667  0.33333333  0.75000000  1
  F  F28  1  0.48969615  0.69659245  0.25000000  1
  F  F29  1  0.30340755  0.79310370  0.25000000  1
  F  F30  1  0.20689630  0.51030385  0.25000000  1
  F  F31  1  0.51030385  0.30340755  0.75000000  1
  F  F32  1  0.69659245  0.20689630  0.75000000  1
  F  F33  1  0.79310370  0.48969615  0.75000000  1
  F  F34  1  0.00000000  0.00000000  0.25000000  1
  F  F35  1  0.00000000  0.00000000  0.75000000  1
  Li  Li36  1  0.31243388  0.25325649  0.25000000  1
  Li  Li37  1  0.74674351  0.05917739  0.25000000  1
  Li  Li38  1  0.94082261  0.68756612  0.25000000  1
  Li  Li39  1  0.68756612  0.74674351  0.75000000  1
  Li  Li40  1  0.25325649  0.94082261  0.75000000  1
  Li  Li41  1  0.05917739  0.31243388  0.75000000  1
  Li  Li42  1  0.47252312  0.75829314  0.41099471  1
  Li  Li43  1  0.24170686  0.71422998  0.41099471  1
  Li  Li44  1  0.28577002  0.52747688  0.41099471  1
  Li  Li45  1  0.52747688  0.24170686  0.91099471  1
  Li  Li46  1  0.75829314  0.28577002  0.91099471  1
  Li  Li47  1  0.71422998  0.47252312  0.91099471  1
  Li  Li48  1  0.52747688  0.24170686  0.58900529  1
  Li  Li49  1  0.75829314  0.28577002  0.58900529  1
  Li  Li50  1  0.71422998  0.47252312  0.58900529  1
  Li  Li51  1  0.47252312  0.75829314  0.08900529  1
  Li  Li52  1  0.24170686  0.71422998  0.08900529  1
  Li  Li53  1  0.28577002  0.52747688  0.08900529  1
  Li  Li54  1  0.64825143  0.71062865  0.25000000  1
  Li  Li55  1  0.28937135  0.93762278  0.25000000  1
  Li  Li56  1  0.06237722  0.35174857  0.25000000  1
  Li  Li57  1  0.35174857  0.28937135  0.75000000  1
  Li  Li58  1  0.71062865  0.06237722  0.75000000  1
  Li  Li59  1  0.93762278  0.64825143  0.75000000  1
  Li  Li60  1  0.68142032  0.88393310  0.06705252  1
  Li  Li61  1  0.11606690  0.79748722  0.06705252  1
  Li  Li62  1  0.20251278  0.31857968  0.06705252  1
  Li  Li63  1  0.31857968  0.11606690  0.56705252  1
  Li  Li64  1  0.88393310  0.20251278  0.56705252  1
  Li  Li65  1  0.79748722  0.68142032  0.56705252  1
  Li  Li66  1  0.31857968  0.11606690  0.93294748  1
  Li  Li67  1  0.88393310  0.20251278  0.93294748  1
  Li  Li68  1  0.79748722  0.68142032  0.93294748  1
  Li  Li69  1  0.68142032  0.88393310  0.43294748  1
  Li  Li70  1  0.11606690  0.79748722  0.43294748  1
  Li  Li71  1  0.20251278  0.31857968  0.43294748  1
