# generated using pymatgen
data_LiF
_symmetry_space_group_name_H-M   'P 1'
_cell_length_a   9.39872714
_cell_length_b   9.24570529
_cell_length_c   9.36943703
_cell_angle_alpha   90.00000000
_cell_angle_beta   90.00000000
_cell_angle_gamma   90.00000000
_symmetry_Int_Tables_number   1
_chemical_formula_structural   LiF
_chemical_formula_sum   'Li28 F28'
_cell_volume   814.18403819
_cell_formula_units_Z   28
loop_
 _symmetry_equiv_pos_site_id
 _symmetry_equiv_pos_as_xyz
  1  'x, y, z'
loop_
 _atom_site_type_symbol
 _atom_site_label
 _atom_site_symmetry_multiplicity
 _atom_site_fract_x
 _atom_site_fract_y
 _atom_site_fract_z
 _atom_site_occupancy
  F  F0  1  0.00000000  0.00000000  0.50000000  1
  F  F1  1  0.50000000  0.00000000  0.00000000  1
  F  F2  1  0.00000000  0.50000000  0.50000000  1
  F  F3  1  0.50000000  0.50000000  0.00000000  1
  F  F4  1  0.37414269  0.20133823  0.24151702  1
  F  F5  1  0.12585731  0.79866177  0.74151702  1
  F  F6  1  0.62585731  0.70133823  0.75848298  1
  F  F7  1  0.87414269  0.29866177  0.25848298  1
  F  F8  1  0.62585731  0.79866177  0.75848298  1
  F  F9  1  0.87414269  0.20133823  0.25848298  1
  F  F10  1  0.37414269  0.29866177  0.24151702  1
  F  F11  1  0.12585731  0.70133823  0.74151702  1
  F  F12  1  0.48162980  0.43457592  0.37266657  1
  F  F13  1  0.01837020  0.56542408  0.87266657  1
  F  F14  1  0.51837020  0.93457592  0.62733343  1
  F  F15  1  0.98162980  0.06542408  0.12733343  1
  F  F16  1  0.51837020  0.56542408  0.62733343  1
  F  F17  1  0.98162980  0.43457592  0.12733343  1
  F  F18  1  0.48162980  0.06542408  0.37266657  1
  F  F19  1  0.01837020  0.93457592  0.87266657  1
  F  F20  1  0.44751358  0.83912697  0.21861425  1
  F  F21  1  0.05248642  0.16087303  0.71861425  1
  F  F22  1  0.55248642  0.33912697  0.78138575  1
  F  F23  1  0.94751358  0.66087303  0.28138575  1
  F  F24  1  0.55248642  0.16087303  0.78138575  1
  F  F25  1  0.94751358  0.83912697  0.28138575  1
  F  F26  1  0.44751358  0.66087303  0.21861425  1
  F  F27  1  0.05248642  0.33912697  0.71861425  1
  Li  Li28  1  0.61684458  0.93740649  0.74478048  1
  Li  Li29  1  -0.11684458  -0.93740649  1.24478048  1
  Li  Li30  1  -0.61684458  1.43740649  -0.74478048  1
  Li  Li31  1  1.11684458  -0.43740649  -0.24478048  1
  Li  Li32  1  -0.61684458  -0.93740649  -0.74478048  1
  Li  Li33  1  1.11684458  0.93740649  -0.24478048  1
  Li  Li34  1  0.61684458  -0.43740649  0.74478048  1
  Li  Li35  1  -0.11684458  1.43740649  1.24478048  1
  Li  Li36  1  0.00000000  0.00000000  0.00000000  1
  Li  Li37  1  0.50000000  0.00000000  0.50000000  1
  Li  Li38  1  0.00000000  0.50000000  0.00000000  1
  Li  Li39  1  0.50000000  0.50000000  0.50000000  1
  Li  Li40  1  0.89841330  0.25000000  0.74530937  1
  Li  Li41  1  0.60158670  0.75000000  0.24530937  1
  Li  Li42  1  0.10158670  0.75000000  0.25469063  1
  Li  Li43  1  0.39841330  0.25000000  0.75469063  1
  Li  Li44  1  0.85933555  0.04736563  0.84370640  1
  Li  Li45  1  0.64066445  0.95263437  0.34370640  1
  Li  Li46  1  0.14066445  0.54736563  0.15629360  1
  Li  Li47  1  0.35933555  0.45263437  0.65629360  1
  Li  Li48  1  0.14066445  0.95263437  0.15629360  1
  Li  Li49  1  0.35933555  0.04736563  0.65629360  1
  Li  Li50  1  0.85933555  0.45263437  0.84370640  1
  Li  Li51  1  0.64066445  0.54736563  0.34370640  1
  Li  Li52  1  0.75795706  0.25000000  0.94522898  1
  Li  Li53  1  0.74204294  0.75000000  0.44522898  1
  Li  Li54  1  0.24204294  0.75000000  0.05477102  1
  Li  Li55  1  0.25795706  0.25000000  0.55477102  1
