# generated using pymatgen
data_LiF
_symmetry_space_group_name_H-M   'P 1'
_cell_length_a   5.51565994
_cell_length_b   4.56880920
_cell_length_c   2.64304369
_cell_angle_alpha   90.00000000
_cell_angle_beta   90.00000000
_cell_angle_gamma   90.00000000
_symmetry_Int_Tables_number   1
_chemical_formula_structural   LiF
_chemical_formula_sum   'Li4 F4'
_cell_volume   66.60469536
_cell_formula_units_Z   4
loop_
 _symmetry_equiv_pos_site_id
 _symmetry_equiv_pos_as_xyz
  1  'x, y, z'
loop_
 _atom_site_type_symbol
 _atom_site_label
 _atom_site_symmetry_multiplicity
 _atom_site_fract_x
 _atom_site_fract_y
 _atom_site_fract_z
 _atom_site_occupancy
  F  F0  1  0.42561994  0.26186866  0.50000000  1
  F  F1  1  -0.42561994  -0.26186866  0.50000000  1
  F  F2  1  0.07438006  0.76186866  0.50000000  1
  F  F3  1  0.92561994  0.23813134  0.50000000  1
  Li  Li4  1  0.67537274  0.34327550  0.00000000  1
  Li  Li5  1  0.32462726  0.65672450  0.00000000  1
  Li  Li6  1  0.82462726  0.84327550  0.00000000  1
  Li  Li7  1  0.17537274  0.15672450  -0.00000000  1
