# generated using pymatgen
data_LiAlSiSnO6
_symmetry_space_group_name_H-M   'P 1'
_cell_length_a   9.38640888
_cell_length_b   9.38640888
_cell_length_c   17.75720118
_cell_angle_alpha   90.00000000
_cell_angle_beta   90.00000000
_cell_angle_gamma   120.00000000
_symmetry_Int_Tables_number   1
_chemical_formula_structural   LiAlSiSnO6
_chemical_formula_sum   'Li9 Al9 Si9 Sn9 O54'
_cell_volume   1354.89014605
_cell_formula_units_Z   9
loop_
 _symmetry_equiv_pos_site_id
 _symmetry_equiv_pos_as_xyz
  1  'x, y, z'
loop_
 _atom_site_type_symbol
 _atom_site_label
 _atom_site_symmetry_multiplicity
 _atom_site_fract_x
 _atom_site_fract_y
 _atom_site_fract_z
 _atom_site_occupancy
  Al  Al0  1  0.00000000  0.00000000  0.00000000  1
  Al  Al1  1  0.66666667  0.33333333  0.33333333  1
  Al  Al2  1  0.33333333  0.66666667  0.66666667  1
  Al  Al3  1  0.00000000  0.00000000  0.78608911  1
  Al  Al4  1  0.00000000  0.00000000  0.21391089  1
  Al  Al5  1  0.66666667  0.33333333  0.11942244  1
  Al  Al6  1  0.66666667  0.33333333  0.54724422  1
  Al  Al7  1  0.33333333  0.66666667  0.45275578  1
  Al  Al8  1  0.33333333  0.66666667  0.88057756  1
  Li  Li9  1  0.50000000  -0.00000000  -0.00000000  1
  Li  Li10  1  0.00000000  0.50000000  0.00000000  1
  Li  Li11  1  0.50000000  0.50000000  0.00000000  1
  Li  Li12  1  0.16666667  0.33333333  0.33333333  1
  Li  Li13  1  0.66666667  0.83333333  0.33333333  1
  Li  Li14  1  0.16666667  0.83333333  0.33333333  1
  Li  Li15  1  0.83333333  0.66666667  0.66666667  1
  Li  Li16  1  0.33333333  0.16666667  0.66666667  1
  Li  Li17  1  0.83333333  0.16666667  0.66666667  1
  O  O18  1  0.06229669  0.93770331  0.27590583  1
  O  O19  1  0.06229669  0.12459337  0.27590583  1
  O  O20  1  0.87540663  0.93770331  0.27590583  1
  O  O21  1  0.93770331  0.06229669  0.72409417  1
  O  O22  1  0.12459337  0.06229669  0.72409417  1
  O  O23  1  0.93770331  0.87540663  0.72409417  1
  O  O24  1  0.72896335  0.27103665  0.60923917  1
  O  O25  1  0.72896335  0.45792671  0.60923917  1
  O  O26  1  0.54207329  0.27103665  0.60923917  1
  O  O27  1  0.60436998  0.39563002  0.05742750  1
  O  O28  1  0.79126004  0.39563002  0.05742750  1
  O  O29  1  0.60436998  0.20873996  0.05742750  1
  O  O30  1  0.39563002  0.60436998  0.94257250  1
  O  O31  1  0.39563002  0.79126004  0.94257250  1
  O  O32  1  0.20873996  0.60436998  0.94257250  1
  O  O33  1  0.27103665  0.72896335  0.39076083  1
  O  O34  1  0.45792671  0.72896335  0.39076083  1
  O  O35  1  0.27103665  0.54207329  0.39076083  1
  O  O36  1  0.58708296  0.98019112  0.13860342  1
  O  O37  1  -0.98019112  -0.39310816  0.13860342  1
  O  O38  1  0.39310816  -0.58708296  0.13860342  1
  O  O39  1  0.98019112  0.58708296  -0.13860342  1
  O  O40  1  -0.39310816  -0.98019112  -0.13860342  1
  O  O41  1  -0.58708296  0.39310816  -0.13860342  1
  O  O42  1  -0.58708296  -0.98019112  -0.13860342  1
  O  O43  1  0.98019112  0.39310816  -0.13860342  1
  O  O44  1  -0.39310816  0.58708296  -0.13860342  1
  O  O45  1  -0.98019112  -0.58708296  0.13860342  1
  O  O46  1  0.39310816  0.98019112  0.13860342  1
  O  O47  1  0.58708296  -0.39310816  0.13860342  1
  O  O48  1  1.25374963  1.31352446  0.47193675  1
  O  O49  1  -0.31352446  -0.05977483  0.47193675  1
  O  O50  1  1.05977483  -0.25374963  0.47193675  1
  O  O51  1  1.64685779  0.92041630  0.19472991  1
  O  O52  1  0.27355851  -0.64685779  0.19472991  1
  O  O53  1  0.07958370  0.72644149  0.19472991  1
  O  O54  1  0.07958370  -0.64685779  0.19472991  1
  O  O55  1  1.64685779  0.72644149  0.19472991  1
  O  O56  1  0.27355851  0.92041630  0.19472991  1
  O  O57  1  -0.31352446  -0.25374963  0.47193675  1
  O  O58  1  1.05977483  1.31352446  0.47193675  1
  O  O59  1  1.25374963  -0.05977483  0.47193675  1
  O  O60  1  0.92041630  1.64685779  0.80527009  1
  O  O61  1  -0.64685779  0.27355851  0.80527009  1
  O  O62  1  0.72644149  0.07958370  0.80527009  1
  O  O63  1  1.31352446  1.25374963  0.52806325  1
  O  O64  1  -0.05977483  -0.31352446  0.52806325  1
  O  O65  1  -0.25374963  1.05977483  0.52806325  1
  O  O66  1  -0.25374963  -0.31352446  0.52806325  1
  O  O67  1  1.31352446  1.05977483  0.52806325  1
  O  O68  1  -0.05977483  1.25374963  0.52806325  1
  O  O69  1  -0.64685779  0.07958370  0.80527009  1
  O  O70  1  0.72644149  1.64685779  0.80527009  1
  O  O71  1  0.92041630  0.27355851  0.80527009  1
  Si  Si72  1  0.00000000  0.00000000  0.71948328  1
  Si  Si73  1  0.00000000  0.00000000  0.28051672  1
  Si  Si74  1  0.66666667  0.33333333  0.05281661  1
  Si  Si75  1  0.66666667  0.33333333  0.61385005  1
  Si  Si76  1  0.33333333  0.66666667  0.38614995  1
  Si  Si77  1  0.33333333  0.66666667  0.94718339  1
  Si  Si78  1  0.00000000  0.00000000  0.50000000  1
  Si  Si79  1  0.66666667  0.33333333  0.83333333  1
  Si  Si80  1  0.33333333  0.66666667  0.16666667  1
  Sn  Sn81  1  0.50000000  -0.00000000  0.50000000  1
  Sn  Sn82  1  0.00000000  0.50000000  0.50000000  1
  Sn  Sn83  1  0.50000000  0.50000000  0.50000000  1
  Sn  Sn84  1  0.16666667  0.33333333  0.83333333  1
  Sn  Sn85  1  0.66666667  0.83333333  0.83333333  1
  Sn  Sn86  1  0.16666667  0.83333333  0.83333333  1
  Sn  Sn87  1  0.83333333  0.66666667  0.16666667  1
  Sn  Sn88  1  0.33333333  0.16666667  0.16666667  1
  Sn  Sn89  1  0.83333333  0.16666667  0.16666667  1
