# generated using pymatgen
data_Li3ScF
_symmetry_space_group_name_H-M   'P 1'
_cell_length_a   3.20985089
_cell_length_b   3.05004781
_cell_length_c   5.97327649
_cell_angle_alpha   114.69759582
_cell_angle_beta   101.58090817
_cell_angle_gamma   104.95831251
_symmetry_Int_Tables_number   1
_chemical_formula_structural   Li3ScF
_chemical_formula_sum   'Li3 Sc1 F1'
_cell_volume   48.05271022
_cell_formula_units_Z   1
loop_
 _symmetry_equiv_pos_site_id
 _symmetry_equiv_pos_as_xyz
  1  'x, y, z'
loop_
 _atom_site_type_symbol
 _atom_site_label
 _atom_site_symmetry_multiplicity
 _atom_site_fract_x
 _atom_site_fract_y
 _atom_site_fract_z
 _atom_site_occupancy
  F  F0  1  0.00000000  0.00000000  0.00000000  1
  Li  Li1  1  0.50000000  0.50000000  0.50000000  1
  Li  Li2  1  0.50000000  0.50000000  0.00000000  1
  Li  Li3  1  0.50000000  0.00000000  0.50000000  1
  Sc  Sc4  1  0.00000000  0.50000000  0.50000000  1
