# generated using pymatgen
data_LiF
_symmetry_space_group_name_H-M   'P 1'
_cell_length_a   7.68261392
_cell_length_b   7.68261392
_cell_length_c   13.48620623
_cell_angle_alpha   90.00000000
_cell_angle_beta   90.00000000
_cell_angle_gamma   120.00000000
_symmetry_Int_Tables_number   1
_chemical_formula_structural   LiF
_chemical_formula_sum   'Li35 F35'
_cell_volume   689.34788321
_cell_formula_units_Z   35
loop_
 _symmetry_equiv_pos_site_id
 _symmetry_equiv_pos_as_xyz
  1  'x, y, z'
loop_
 _atom_site_type_symbol
 _atom_site_label
 _atom_site_symmetry_multiplicity
 _atom_site_fract_x
 _atom_site_fract_y
 _atom_site_fract_z
 _atom_site_occupancy
  F  F0  1  0.77058496  0.31100974  0.89775079  1
  F  F1  1  0.68899026  0.45957521  0.89775079  1
  F  F2  1  0.54042479  0.22941504  0.89775079  1
  F  F3  1  0.68899026  0.22941504  0.10224921  1
  F  F4  1  0.54042479  0.31100974  0.10224921  1
  F  F5  1  0.77058496  0.45957521  0.10224921  1
  F  F6  1  0.33333333  0.66666667  0.50000000  1
  F  F7  1  0.46294677  0.22741814  0.73909148  1
  F  F8  1  0.77258186  0.23552863  0.73909148  1
  F  F9  1  0.76447137  0.53705323  0.73909148  1
  F  F10  1  0.77258186  0.53705323  0.26090852  1
  F  F11  1  0.76447137  0.22741814  0.26090852  1
  F  F12  1  0.46294677  0.23552863  0.26090852  1
  F  F13  1  0.57252094  0.89113361  0.78616862  1
  F  F14  1  0.10886639  0.68138732  0.78616862  1
  F  F15  1  0.31861268  0.42747906  0.78616862  1
  F  F16  1  0.10886639  0.42747906  0.21383138  1
  F  F17  1  0.31861268  0.89113361  0.21383138  1
  F  F18  1  0.57252094  0.68138732  0.21383138  1
  F  F19  1  0.22683326  0.40484389  0.65293761  1
  F  F20  1  0.59515611  0.82198937  0.65293761  1
  F  F21  1  0.17801063  0.77316674  0.65293761  1
  F  F22  1  0.59515611  0.77316674  0.34706239  1
  F  F23  1  0.17801063  0.40484389  0.34706239  1
  F  F24  1  0.22683326  0.82198937  0.34706239  1
  F  F25  1  0.41392034  0.20054208  0.09798738  1
  F  F26  1  0.79945792  0.21337825  0.09798738  1
  F  F27  1  0.78662175  0.58607966  0.09798738  1
  F  F28  1  0.79945792  0.58607966  0.90201262  1
  F  F29  1  0.78662175  0.20054208  0.90201262  1
  F  F30  1  0.41392034  0.21337825  0.90201262  1
  F  F31  1  0.61541087  0.38458913  0.50000000  1
  F  F32  1  0.61541087  0.23082174  0.50000000  1
  F  F33  1  0.76917826  0.38458913  0.50000000  1
  F  F34  1  0.66666667  0.33333333  0.50000000  1
  Li  Li35  1  0.43393586  0.82106193  0.56447215  1
  Li  Li36  1  -0.82106193  -0.38712607  0.56447215  1
  Li  Li37  1  0.38712607  -0.43393586  0.56447215  1
  Li  Li38  1  -0.82106193  -0.43393586  -0.56447215  1
  Li  Li39  1  0.38712607  0.82106193  -0.56447215  1
  Li  Li40  1  0.43393586  -0.38712607  -0.56447215  1
  Li  Li41  1  0.00934603  0.54474716  0.04920874  1
  Li  Li42  1  0.45525284  0.46459887  0.04920874  1
  Li  Li43  1  0.53540113  0.99065397  0.04920874  1
  Li  Li44  1  0.45525284  0.99065397  0.95079126  1
  Li  Li45  1  0.53540113  0.54474716  0.95079126  1
  Li  Li46  1  0.00934603  0.46459887  0.95079126  1
  Li  Li47  1  0.38462050  0.98559173  0.78949475  1
  Li  Li48  1  0.01440827  0.39902876  0.78949475  1
  Li  Li49  1  0.60097124  0.61537950  0.78949475  1
  Li  Li50  1  0.01440827  0.61537950  0.21050525  1
  Li  Li51  1  0.60097124  0.98559173  0.21050525  1
  Li  Li52  1  0.38462050  0.39902876  0.21050525  1
  Li  Li53  1  0.80441154  0.23931343  0.64608964  1
  Li  Li54  1  0.76068657  0.56509811  0.64608964  1
  Li  Li55  1  0.43490189  0.19558846  0.64608964  1
  Li  Li56  1  0.76068657  0.19558846  0.35391036  1
  Li  Li57  1  0.43490189  0.23931343  0.35391036  1
  Li  Li58  1  0.80441154  0.56509811  0.35391036  1
  Li  Li59  1  0.03846847  0.35323539  0.39391629  1
  Li  Li60  1  0.64676461  0.68523309  0.39391629  1
  Li  Li61  1  0.31476691  0.96153153  0.39391629  1
  Li  Li62  1  0.64676461  0.96153153  0.60608371  1
  Li  Li63  1  0.31476691  0.35323539  0.60608371  1
  Li  Li64  1  0.03846847  0.68523309  0.60608371  1
  Li  Li65  1  0.66666667  0.33333333  0.00000000  1
  Li  Li66  1  0.33333333  0.66666667  0.00000000  1
  Li  Li67  1  0.76710726  0.23289274  0.50000000  1
  Li  Li68  1  0.76710726  0.53421452  0.50000000  1
  Li  Li69  1  0.46578548  0.23289274  0.50000000  1
