# generated using pymatgen
data_LiF
_symmetry_space_group_name_H-M   'P 1'
_cell_length_a   14.53408895
_cell_length_b   14.53408895
_cell_length_c   7.16327150
_cell_angle_alpha   90.00000000
_cell_angle_beta   90.00000000
_cell_angle_gamma   120.00000000
_symmetry_Int_Tables_number   1
_chemical_formula_structural   LiF
_chemical_formula_sum   'Li45 F45'
_cell_volume   1310.44159953
_cell_formula_units_Z   45
loop_
 _symmetry_equiv_pos_site_id
 _symmetry_equiv_pos_as_xyz
  1  'x, y, z'
loop_
 _atom_site_type_symbol
 _atom_site_label
 _atom_site_symmetry_multiplicity
 _atom_site_fract_x
 _atom_site_fract_y
 _atom_site_fract_z
 _atom_site_occupancy
  F  F0  1  0.71995755  0.59028501  0.33943486  1
  F  F1  1  0.40971499  0.12967254  0.33943486  1
  F  F2  1  0.87032746  0.28004245  0.33943486  1
  F  F3  1  0.40971499  0.28004245  0.66056514  1
  F  F4  1  0.87032746  0.59028501  0.66056514  1
  F  F5  1  0.71995755  0.12967254  0.66056514  1
  F  F6  1  0.98305180  0.35994447  0.39314148  1
  F  F7  1  0.64005553  0.62310733  0.39314148  1
  F  F8  1  0.37689267  0.01694820  0.39314148  1
  F  F9  1  0.64005553  0.01694820  0.60685852  1
  F  F10  1  0.37689267  0.35994447  0.60685852  1
  F  F11  1  0.98305180  0.62310733  0.60685852  1
  F  F12  1  0.94182679  0.76670354  0.75882733  1
  F  F13  1  0.23329646  0.17512325  0.75882733  1
  F  F14  1  0.82487675  0.05817321  0.75882733  1
  F  F15  1  0.23329646  0.05817321  0.24117267  1
  F  F16  1  0.82487675  0.76670354  0.24117267  1
  F  F17  1  0.94182679  0.17512325  0.24117267  1
  F  F18  1  0.42416389  0.57583611  0.50000000  1
  F  F19  1  0.42416389  0.84832777  0.50000000  1
  F  F20  1  0.15167223  0.57583611  0.50000000  1
  F  F21  1  0.15084568  0.73905290  0.75333245  1
  F  F22  1  0.26094710  0.41179278  0.75333245  1
  F  F23  1  0.58820722  0.84915432  0.75333245  1
  F  F24  1  0.26094710  0.84915432  0.24666755  1
  F  F25  1  0.58820722  0.73905290  0.24666755  1
  F  F26  1  0.15084568  0.41179278  0.24666755  1
  F  F27  1  0.18736844  0.26830833  0.74452849  1
  F  F28  1  0.73169167  0.91906011  0.74452849  1
  F  F29  1  0.08093989  0.81263156  0.74452849  1
  F  F30  1  0.73169167  0.81263156  0.25547151  1
  F  F31  1  0.08093989  0.26830833  0.25547151  1
  F  F32  1  0.18736844  0.91906011  0.25547151  1
  F  F33  1  0.33333333  0.66666667  0.50000000  1
  F  F34  1  0.66666667  0.33333333  0.28666124  1
  F  F35  1  0.66666667  0.33333333  0.71333876  1
  F  F36  1  0.00000000  0.00000000  0.50000000  1
  F  F37  1  0.46596656  0.05555005  0.02467811  1
  F  F38  1  0.94444995  0.41041651  0.02467811  1
  F  F39  1  0.58958349  0.53403344  0.02467811  1
  F  F40  1  0.94444995  0.53403344  0.97532189  1
  F  F41  1  0.58958349  0.05555005  0.97532189  1
  F  F42  1  0.46596656  0.41041651  0.97532189  1
  F  F43  1  0.00000000  0.00000000  0.80071423  1
  F  F44  1  0.00000000  0.00000000  0.19928577  1
  Li  Li45  1  0.30588860  0.80700816  0.16419969  1
  Li  Li46  1  -0.80700816  -0.50111955  0.16419969  1
  Li  Li47  1  0.50111955  -0.30588860  0.16419969  1
  Li  Li48  1  -0.80700816  -0.30588860  -0.16419969  1
  Li  Li49  1  0.50111955  0.80700816  -0.16419969  1
  Li  Li50  1  0.30588860  -0.50111955  -0.16419969  1
  Li  Li51  1  0.00000000  0.00000000  0.00000000  1
  Li  Li52  1  0.57332063  0.16982126  0.68681799  1
  Li  Li53  1  0.83017874  0.40349937  0.68681799  1
  Li  Li54  1  0.59650063  0.42667937  0.68681799  1
  Li  Li55  1  0.83017874  0.42667937  0.31318201  1
  Li  Li56  1  0.59650063  0.16982126  0.31318201  1
  Li  Li57  1  0.57332063  0.40349937  0.31318201  1
  Li  Li58  1  0.60875101  0.63994885  0.18334811  1
  Li  Li59  1  0.36005115  0.96880215  0.18334811  1
  Li  Li60  1  0.03119785  0.39124899  0.18334811  1
  Li  Li61  1  0.36005115  0.39124899  0.81665189  1
  Li  Li62  1  0.03119785  0.63994885  0.81665189  1
  Li  Li63  1  0.60875101  0.96880215  0.81665189  1
  Li  Li64  1  0.66666667  0.33333333  0.50000000  1
  Li  Li65  1  0.20268918  0.18475389  0.17719841  1
  Li  Li66  1  0.81524611  0.01793529  0.17719841  1
  Li  Li67  1  0.98206471  0.79731082  0.17719841  1
  Li  Li68  1  0.81524611  0.79731082  0.82280159  1
  Li  Li69  1  0.98206471  0.18475389  0.82280159  1
  Li  Li70  1  0.20268918  0.01793529  0.82280159  1
  Li  Li71  1  0.78513422  0.53496373  0.33235252  1
  Li  Li72  1  0.46503627  0.25017049  0.33235252  1
  Li  Li73  1  0.74982951  0.21486578  0.33235252  1
  Li  Li74  1  0.46503627  0.21486578  0.66764748  1
  Li  Li75  1  0.74982951  0.53496373  0.66764748  1
  Li  Li76  1  0.78513422  0.25017049  0.66764748  1
  Li  Li77  1  0.56560400  0.43439600  0.50000000  1
  Li  Li78  1  0.56560400  0.13120799  0.50000000  1
  Li  Li79  1  0.86879201  0.43439600  0.50000000  1
  Li  Li80  1  0.14568035  0.67583129  0.21752281  1
  Li  Li81  1  0.32416871  0.46984906  0.21752281  1
  Li  Li82  1  0.53015094  0.85431965  0.21752281  1
  Li  Li83  1  0.32416871  0.85431965  0.78247719  1
  Li  Li84  1  0.53015094  0.67583129  0.78247719  1
  Li  Li85  1  0.14568035  0.46984906  0.78247719  1
  Li  Li86  1  0.66666667  0.33333333  0.00000000  1
  Li  Li87  1  0.09297226  0.90702774  0.50000000  1
  Li  Li88  1  0.09297226  0.18594451  0.50000000  1
  Li  Li89  1  0.81405549  0.90702774  0.50000000  1
