# generated using pymatgen
data_K2Li9Mg2(AlTe4)3
_symmetry_space_group_name_H-M   'P 1'
_cell_length_a   16.84861299
_cell_length_b   16.84861299
_cell_length_c   3.54864706
_cell_angle_alpha   90.00000000
_cell_angle_beta   90.00000000
_cell_angle_gamma   120.00000000
_symmetry_Int_Tables_number   1
_chemical_formula_structural   K2Li9Mg2(AlTe4)3
_chemical_formula_sum   'K2 Li9 Mg2 Al3 Te12'
_cell_volume   872.41223741
_cell_formula_units_Z   1
loop_
 _symmetry_equiv_pos_site_id
 _symmetry_equiv_pos_as_xyz
  1  'x, y, z'
loop_
 _atom_site_type_symbol
 _atom_site_label
 _atom_site_symmetry_multiplicity
 _atom_site_fract_x
 _atom_site_fract_y
 _atom_site_fract_z
 _atom_site_occupancy
  Al  Al0  1  0.40521290  0.00000000  0.50000000  1
  Al  Al1  1  0.00000000  0.40521290  0.50000000  1
  Al  Al2  1  0.59478710  0.59478710  0.50000000  1
  K  K3  1  0.33333333  0.66666667  0.50000000  1
  K  K4  1  0.66666667  0.33333333  0.50000000  1
  Li  Li5  1  0.55750659  -0.00000000  0.00000000  1
  Li  Li6  1  0.00000000  0.55750659  0.00000000  1
  Li  Li7  1  0.44249341  0.44249341  0.00000000  1
  Li  Li8  1  0.13094079  0.00000000  0.50000000  1
  Li  Li9  1  0.00000000  0.13094079  0.50000000  1
  Li  Li10  1  0.86905921  0.86905921  0.50000000  1
  Li  Li11  1  0.65284088  0.00000000  0.00000000  1
  Li  Li12  1  0.00000000  0.65284088  0.00000000  1
  Li  Li13  1  0.34715912  0.34715912  -0.00000000  1
  Mg  Mg14  1  0.00000000  0.00000000  0.50000000  1
  Mg  Mg15  1  0.00000000  0.00000000  0.00000000  1
  Te  Te16  1  0.45920173  0.72652981  0.00000000  1
  Te  Te17  1  -0.72652981  -0.26732808  -0.00000000  1
  Te  Te18  1  0.26732808  -0.45920173  -0.00000000  1
  Te  Te19  1  0.72652981  0.45920173  0.00000000  1
  Te  Te20  1  -0.26732808  -0.72652981  0.00000000  1
  Te  Te21  1  -0.45920173  0.26732808  0.00000000  1
  Te  Te22  1  0.46289819  0.56673818  0.50000000  1
  Te  Te23  1  0.43326182  0.89616001  0.50000000  1
  Te  Te24  1  0.10383999  0.53710181  0.50000000  1
  Te  Te25  1  0.56673818  0.46289819  0.50000000  1
  Te  Te26  1  0.89616001  0.43326182  0.50000000  1
  Te  Te27  1  0.53710181  0.10383999  0.50000000  1
