# generated using pymatgen
data_LiF
_symmetry_space_group_name_H-M   'P 1'
_cell_length_a   11.27543293
_cell_length_b   9.90656681
_cell_length_c   13.81534328
_cell_angle_alpha   90.00000000
_cell_angle_beta   90.00000000
_cell_angle_gamma   90.00000000
_symmetry_Int_Tables_number   1
_chemical_formula_structural   LiF
_chemical_formula_sum   'Li40 F40'
_cell_volume   1543.18530604
_cell_formula_units_Z   40
loop_
 _symmetry_equiv_pos_site_id
 _symmetry_equiv_pos_as_xyz
  1  'x, y, z'
loop_
 _atom_site_type_symbol
 _atom_site_label
 _atom_site_symmetry_multiplicity
 _atom_site_fract_x
 _atom_site_fract_y
 _atom_site_fract_z
 _atom_site_occupancy
  F  F0  1  0.67429899  0.77924481  0.33771474  1
  F  F1  1  0.82570101  0.22075519  0.83771474  1
  F  F2  1  0.32570101  0.27924481  0.66228526  1
  F  F3  1  0.17429899  0.72075519  0.16228526  1
  F  F4  1  0.32570101  0.22075519  0.66228526  1
  F  F5  1  0.17429899  0.77924481  0.16228526  1
  F  F6  1  0.67429899  0.72075519  0.33771474  1
  F  F7  1  0.82570101  0.27924481  0.83771474  1
  F  F8  1  0.07514743  0.45018362  0.41206242  1
  F  F9  1  0.42485257  0.54981638  0.91206242  1
  F  F10  1  0.92485257  0.95018362  0.58793758  1
  F  F11  1  0.57514743  0.04981638  0.08793758  1
  F  F12  1  0.92485257  0.54981638  0.58793758  1
  F  F13  1  0.57514743  0.45018362  0.08793758  1
  F  F14  1  0.07514743  0.04981638  0.41206242  1
  F  F15  1  0.42485257  0.95018362  0.91206242  1
  F  F16  1  0.00000000  0.00000000  0.00000000  1
  F  F17  1  0.50000000  0.00000000  0.50000000  1
  F  F18  1  0.00000000  0.50000000  -0.00000000  1
  F  F19  1  0.50000000  0.50000000  0.50000000  1
  F  F20  1  0.35148078  0.02080338  0.31875081  1
  F  F21  1  0.14851922  0.97919662  0.81875081  1
  F  F22  1  0.64851922  0.52080338  0.68124919  1
  F  F23  1  0.85148078  0.47919662  0.18124919  1
  F  F24  1  0.64851922  0.97919662  0.68124919  1
  F  F25  1  0.85148078  0.02080338  0.18124919  1
  F  F26  1  0.35148078  0.47919662  0.31875081  1
  F  F27  1  0.14851922  0.52080338  0.81875081  1
  F  F28  1  0.95033354  0.34942339  0.29275674  1
  F  F29  1  0.54966646  0.65057661  0.79275674  1
  F  F30  1  0.04966646  0.84942339  0.70724326  1
  F  F31  1  0.45033354  0.15057661  0.20724326  1
  F  F32  1  0.04966646  0.65057661  0.70724326  1
  F  F33  1  0.45033354  0.34942339  0.20724326  1
  F  F34  1  0.95033354  0.15057661  0.29275674  1
  F  F35  1  0.54966646  0.84942339  0.79275674  1
  F  F36  1  0.35432871  0.25000000  0.09157796  1
  F  F37  1  0.14567129  0.75000000  0.59157796  1
  F  F38  1  0.64567129  0.75000000  0.90842204  1
  F  F39  1  0.85432871  0.25000000  0.40842204  1
  Li  Li40  1  0.00000000  0.00000000  0.50000000  1
  Li  Li41  1  0.50000000  0.00000000  0.00000000  1
  Li  Li42  1  0.00000000  0.50000000  0.50000000  1
  Li  Li43  1  0.50000000  0.50000000  0.00000000  1
  Li  Li44  1  0.82600113  0.60973384  0.01497807  1
  Li  Li45  1  -0.32600113  -0.60973384  0.51497807  1
  Li  Li46  1  -0.82600113  1.10973384  -0.01497807  1
  Li  Li47  1  1.32600113  -0.10973384  0.48502193  1
  Li  Li48  1  -0.82600113  -0.60973384  -0.01497807  1
  Li  Li49  1  1.32600113  0.60973384  0.48502193  1
  Li  Li50  1  0.82600113  -0.10973384  0.01497807  1
  Li  Li51  1  -0.32600113  1.10973384  0.51497807  1
  Li  Li52  1  0.55880566  0.25000000  0.07464161  1
  Li  Li53  1  0.94119434  0.75000000  0.57464161  1
  Li  Li54  1  0.44119434  0.75000000  0.92535839  1
  Li  Li55  1  0.05880566  0.25000000  0.42535839  1
  Li  Li56  1  0.25064395  0.25000000  0.19733524  1
  Li  Li57  1  0.24935605  0.75000000  0.69733524  1
  Li  Li58  1  0.74935605  0.75000000  0.80266476  1
  Li  Li59  1  0.75064395  0.25000000  0.30266476  1
  Li  Li60  1  0.16183922  0.85958254  0.45570331  1
  Li  Li61  1  0.33816078  0.14041746  0.95570331  1
  Li  Li62  1  0.83816078  0.35958254  0.54429669  1
  Li  Li63  1  0.66183922  0.64041746  0.04429669  1
  Li  Li64  1  0.83816078  0.14041746  0.54429669  1
  Li  Li65  1  0.66183922  0.85958254  0.04429669  1
  Li  Li66  1  0.16183922  0.64041746  0.45570331  1
  Li  Li67  1  0.33816078  0.35958254  0.95570331  1
  Li  Li68  1  0.42016036  0.25000000  0.54164304  1
  Li  Li69  1  0.07983964  0.75000000  0.04164304  1
  Li  Li70  1  0.57983964  0.75000000  0.45835696  1
  Li  Li71  1  0.92016036  0.25000000  0.95835696  1
  Li  Li72  1  0.39085151  0.37397214  0.11670821  1
  Li  Li73  1  0.10914849  0.62602786  0.61670821  1
  Li  Li74  1  0.60914849  0.87397214  0.88329179  1
  Li  Li75  1  0.89085151  0.12602786  0.38329179  1
  Li  Li76  1  0.60914849  0.62602786  0.88329179  1
  Li  Li77  1  0.89085151  0.37397214  0.38329179  1
  Li  Li78  1  0.39085151  0.12602786  0.11670821  1
  Li  Li79  1  0.10914849  0.87397214  0.61670821  1
