# generated using pymatgen
data_LiF
_symmetry_space_group_name_H-M   'P 1'
_cell_length_a   12.60044473
_cell_length_b   12.60044473
_cell_length_c   10.18439091
_cell_angle_alpha   90.00000000
_cell_angle_beta   90.00000000
_cell_angle_gamma   120.00000000
_symmetry_Int_Tables_number   1
_chemical_formula_structural   LiF
_chemical_formula_sum   'Li108 F108'
_cell_volume   1400.35272074
_cell_formula_units_Z   108
loop_
 _symmetry_equiv_pos_site_id
 _symmetry_equiv_pos_as_xyz
  1  'x, y, z'
loop_
 _atom_site_type_symbol
 _atom_site_label
 _atom_site_symmetry_multiplicity
 _atom_site_fract_x
 _atom_site_fract_y
 _atom_site_fract_z
 _atom_site_occupancy
  F  F0  1  0.00000000  0.00000000  0.25000000  1
  F  F1  1  0.00000000  0.00000000  0.75000000  1
  F  F2  1  0.66666667  0.33333333  0.58333333  1
  F  F3  1  0.66666667  0.33333333  0.08333333  1
  F  F4  1  0.33333333  0.66666667  0.91666667  1
  F  F5  1  0.33333333  0.66666667  0.41666667  1
  F  F6  1  0.00497233  0.05501362  0.45806687  1
  F  F7  1  -0.05501362  -0.05004129  0.45806687  1
  F  F8  1  0.05004129  -0.00497233  0.45806687  1
  F  F9  1  0.05501362  0.00497233  0.04193313  1
  F  F10  1  -0.05004129  -0.05501362  0.04193313  1
  F  F11  1  -0.00497233  0.05004129  0.04193313  1
  F  F12  1  -0.00497233  -0.05501362  -0.45806687  1
  F  F13  1  0.05501362  0.05004129  -0.45806687  1
  F  F14  1  -0.05004129  0.00497233  -0.45806687  1
  F  F15  1  -0.05501362  -0.00497233  0.95806687  1
  F  F16  1  0.05004129  0.05501362  0.95806687  1
  F  F17  1  0.00497233  -0.05004129  0.95806687  1
  F  F18  1  0.67163900  0.38834696  0.79140020  1
  F  F19  1  0.61165304  0.28329204  0.79140020  1
  F  F20  1  0.71670796  0.32836100  0.79140020  1
  F  F21  1  0.72168029  0.33830566  0.37526646  1
  F  F22  1  0.61662537  0.27831971  0.37526646  1
  F  F23  1  0.66169434  0.38337463  0.37526646  1
  F  F24  1  0.66169434  0.27831971  -0.12473354  1
  F  F25  1  0.72168029  0.38337463  -0.12473354  1
  F  F26  1  0.61662537  0.33830566  -0.12473354  1
  F  F27  1  0.61165304  0.32836100  1.29140020  1
  F  F28  1  0.71670796  0.38834696  1.29140020  1
  F  F29  1  0.67163900  0.28329204  1.29140020  1
  F  F30  1  0.33830566  0.72168029  1.12473354  1
  F  F31  1  0.27831971  0.61662537  1.12473354  1
  F  F32  1  0.38337463  0.66169434  1.12473354  1
  F  F33  1  0.38834696  0.67163900  0.70859980  1
  F  F34  1  0.28329204  0.61165304  0.70859980  1
  F  F35  1  0.32836100  0.71670796  0.70859980  1
  F  F36  1  0.32836100  0.61165304  0.20859980  1
  F  F37  1  0.38834696  0.71670796  0.20859980  1
  F  F38  1  0.28329204  0.67163900  0.20859980  1
  F  F39  1  0.27831971  0.66169434  1.62473354  1
  F  F40  1  0.38337463  0.72168029  1.62473354  1
  F  F41  1  0.33830566  0.61662537  1.62473354  1
  F  F42  1  0.00000000  0.00000000  0.43464389  1
  F  F43  1  0.00000000  0.00000000  0.06535611  1
  F  F44  1  0.00000000  0.00000000  0.56535611  1
  F  F45  1  0.00000000  0.00000000  0.93464389  1
  F  F46  1  0.66666667  0.33333333  0.76797722  1
  F  F47  1  0.66666667  0.33333333  0.39868945  1
  F  F48  1  0.66666667  0.33333333  0.89868945  1
  F  F49  1  0.66666667  0.33333333  0.26797722  1
  F  F50  1  0.33333333  0.66666667  0.10131055  1
  F  F51  1  0.33333333  0.66666667  0.73202278  1
  F  F52  1  0.33333333  0.66666667  0.23202278  1
  F  F53  1  0.33333333  0.66666667  0.60131055  1
  F  F54  1  0.96301277  0.21741459  0.63347901  1
  F  F55  1  0.78258541  0.74559818  0.63347901  1
  F  F56  1  0.25440182  0.03698723  0.63347901  1
  F  F57  1  0.21741459  0.96301277  0.86652099  1
  F  F58  1  0.74559818  0.78258541  0.86652099  1
  F  F59  1  0.03698723  0.25440182  0.86652099  1
  F  F60  1  0.03698723  0.78258541  0.36652099  1
  F  F61  1  0.21741459  0.25440182  0.36652099  1
  F  F62  1  0.74559818  0.96301277  0.36652099  1
  F  F63  1  0.78258541  0.03698723  0.13347901  1
  F  F64  1  0.25440182  0.21741459  0.13347901  1
  F  F65  1  0.96301277  0.74559818  0.13347901  1
  F  F66  1  0.62967944  0.55074792  0.96681234  1
  F  F67  1  0.44925208  0.07893152  0.96681234  1
  F  F68  1  0.92106848  0.37032056  0.96681234  1
  F  F69  1  0.88408125  0.29634610  0.19985433  1
  F  F70  1  0.41226485  0.11591875  0.19985433  1
  F  F71  1  0.70365390  0.58773515  0.19985433  1
  F  F72  1  0.70365390  0.11591875  0.69985433  1
  F  F73  1  0.88408125  0.58773515  0.69985433  1
  F  F74  1  0.41226485  0.29634610  0.69985433  1
  F  F75  1  0.44925208  0.37032056  0.46681234  1
  F  F76  1  0.92106848  0.55074792  0.46681234  1
  F  F77  1  0.62967944  0.07893152  0.46681234  1
  F  F78  1  0.29634610  0.88408125  0.30014567  1
  F  F79  1  0.11591875  0.41226485  0.30014567  1
  F  F80  1  0.58773515  0.70365390  0.30014567  1
  F  F81  1  0.55074792  0.62967944  0.53318766  1
  F  F82  1  0.07893152  0.44925208  0.53318766  1
  F  F83  1  0.37032056  0.92106848  0.53318766  1
  F  F84  1  0.37032056  0.44925208  0.03318766  1
  F  F85  1  0.55074792  0.92106848  0.03318766  1
  F  F86  1  0.07893152  0.62967944  0.03318766  1
  F  F87  1  0.11591875  0.70365390  0.80014567  1
  F  F88  1  0.58773515  0.88408125  0.80014567  1
  F  F89  1  0.29634610  0.41226485  0.80014567  1
  F  F90  1  0.00000000  0.00000000  0.33277624  1
  F  F91  1  0.00000000  0.00000000  0.16722376  1
  F  F92  1  0.00000000  0.00000000  0.66722376  1
  F  F93  1  0.00000000  0.00000000  0.83277624  1
  F  F94  1  0.66666667  0.33333333  0.66610957  1
  F  F95  1  0.66666667  0.33333333  0.50055709  1
  F  F96  1  0.66666667  0.33333333  0.00055709  1
  F  F97  1  0.66666667  0.33333333  0.16610957  1
  F  F98  1  0.33333333  0.66666667  0.99944291  1
  F  F99  1  0.33333333  0.66666667  0.83389043  1
  F  F100  1  0.33333333  0.66666667  0.33389043  1
  F  F101  1  0.33333333  0.66666667  0.49944291  1
  F  F102  1  0.00000000  0.00000000  0.00000000  1
  F  F103  1  0.00000000  0.00000000  0.50000000  1
  F  F104  1  0.66666667  0.33333333  0.33333333  1
  F  F105  1  0.66666667  0.33333333  0.83333333  1
  F  F106  1  0.33333333  0.66666667  0.66666667  1
  F  F107  1  0.33333333  0.66666667  0.16666667  1
  Li  Li108  1  0.15432081  0.70047670  0.05371998  1
  Li  Li109  1  0.29952330  0.45384411  0.05371998  1
  Li  Li110  1  0.54615589  0.84567919  0.05371998  1
  Li  Li111  1  0.70047670  0.15432081  0.44628002  1
  Li  Li112  1  0.45384411  0.29952330  0.44628002  1
  Li  Li113  1  0.84567919  0.54615589  0.44628002  1
  Li  Li114  1  0.84567919  0.29952330  0.94628002  1
  Li  Li115  1  0.70047670  0.54615589  0.94628002  1
  Li  Li116  1  0.45384411  0.15432081  0.94628002  1
  Li  Li117  1  0.29952330  0.84567919  0.55371998  1
  Li  Li118  1  0.54615589  0.70047670  0.55371998  1
  Li  Li119  1  0.15432081  0.45384411  0.55371998  1
  Li  Li120  1  0.82098748  0.03381003  0.38705332  1
  Li  Li121  1  0.96618997  0.78717745  0.38705332  1
  Li  Li122  1  0.21282255  0.17901252  0.38705332  1
  Li  Li123  1  0.36714337  0.48765415  0.77961335  1
  Li  Li124  1  0.12051078  0.63285663  0.77961335  1
  Li  Li125  1  0.51234585  0.87948922  0.77961335  1
  Li  Li126  1  0.51234585  0.63285663  0.27961335  1
  Li  Li127  1  0.36714337  0.87948922  0.27961335  1
  Li  Li128  1  0.12051078  0.48765415  0.27961335  1
  Li  Li129  1  0.96618997  0.17901252  0.88705332  1
  Li  Li130  1  0.21282255  0.03381003  0.88705332  1
  Li  Li131  1  0.82098748  0.78717745  0.88705332  1
  Li  Li132  1  0.48765415  0.36714337  0.72038665  1
  Li  Li133  1  0.63285663  0.12051078  0.72038665  1
  Li  Li134  1  0.87948922  0.51234585  0.72038665  1
  Li  Li135  1  0.03381003  0.82098748  0.11294668  1
  Li  Li136  1  0.78717745  0.96618997  0.11294668  1
  Li  Li137  1  0.17901252  0.21282255  0.11294668  1
  Li  Li138  1  0.17901252  0.96618997  0.61294668  1
  Li  Li139  1  0.03381003  0.21282255  0.61294668  1
  Li  Li140  1  0.78717745  0.82098748  0.61294668  1
  Li  Li141  1  0.63285663  0.51234585  0.22038665  1
  Li  Li142  1  0.87948922  0.36714337  0.22038665  1
  Li  Li143  1  0.48765415  0.12051078  0.22038665  1
  Li  Li144  1  0.08448081  0.00000000  0.25000000  1
  Li  Li145  1  0.00000000  0.08448081  0.25000000  1
  Li  Li146  1  0.91551919  0.91551919  0.25000000  1
  Li  Li147  1  0.91551919  0.00000000  0.75000000  1
  Li  Li148  1  0.00000000  0.91551919  0.75000000  1
  Li  Li149  1  0.08448081  0.08448081  0.75000000  1
  Li  Li150  1  0.75114748  0.33333333  0.58333333  1
  Li  Li151  1  0.66666667  0.41781414  0.58333333  1
  Li  Li152  1  0.58218586  0.24885252  0.58333333  1
  Li  Li153  1  0.58218586  0.33333333  0.08333333  1
  Li  Li154  1  0.66666667  0.24885252  0.08333333  1
  Li  Li155  1  0.75114748  0.41781414  0.08333333  1
  Li  Li156  1  0.41781414  0.66666667  0.91666667  1
  Li  Li157  1  0.33333333  0.75114748  0.91666667  1
  Li  Li158  1  0.24885252  0.58218586  0.91666667  1
  Li  Li159  1  0.24885252  0.66666667  0.41666667  1
  Li  Li160  1  0.33333333  0.58218586  0.41666667  1
  Li  Li161  1  0.41781414  0.75114748  0.41666667  1
  Li  Li162  1  0.22819746  0.12450688  0.61052225  1
  Li  Li163  1  0.87549312  0.10369059  0.61052225  1
  Li  Li164  1  0.89630941  0.77180254  0.61052225  1
  Li  Li165  1  0.12450688  0.22819746  0.88947775  1
  Li  Li166  1  0.10369059  0.87549312  0.88947775  1
  Li  Li167  1  0.77180254  0.89630941  0.88947775  1
  Li  Li168  1  0.77180254  0.87549312  0.38947775  1
  Li  Li169  1  0.12450688  0.89630941  0.38947775  1
  Li  Li170  1  0.10369059  0.22819746  0.38947775  1
  Li  Li171  1  0.87549312  0.77180254  0.11052225  1
  Li  Li172  1  0.89630941  0.12450688  0.11052225  1
  Li  Li173  1  0.22819746  0.10369059  0.11052225  1
  Li  Li174  1  0.89486413  0.45784021  0.94385558  1
  Li  Li175  1  0.54215979  0.43702392  0.94385558  1
  Li  Li176  1  0.56297608  0.10513587  0.94385558  1
  Li  Li177  1  0.79117354  0.56153080  0.22281109  1
  Li  Li178  1  0.77035726  0.20882646  0.22281109  1
  Li  Li179  1  0.43846920  0.22964274  0.22281109  1
  Li  Li180  1  0.43846920  0.20882646  0.72281109  1
  Li  Li181  1  0.79117354  0.22964274  0.72281109  1
  Li  Li182  1  0.77035726  0.56153080  0.72281109  1
  Li  Li183  1  0.54215979  0.10513587  0.44385558  1
  Li  Li184  1  0.56297608  0.45784021  0.44385558  1
  Li  Li185  1  0.89486413  0.43702392  0.44385558  1
  Li  Li186  1  0.56153080  0.79117354  0.27718891  1
  Li  Li187  1  0.20882646  0.77035726  0.27718891  1
  Li  Li188  1  0.22964274  0.43846920  0.27718891  1
  Li  Li189  1  0.45784021  0.89486413  0.55614442  1
  Li  Li190  1  0.43702392  0.54215979  0.55614442  1
  Li  Li191  1  0.10513587  0.56297608  0.55614442  1
  Li  Li192  1  0.10513587  0.54215979  0.05614442  1
  Li  Li193  1  0.45784021  0.56297608  0.05614442  1
  Li  Li194  1  0.43702392  0.89486413  0.05614442  1
  Li  Li195  1  0.20882646  0.43846920  0.77718891  1
  Li  Li196  1  0.22964274  0.79117354  0.77718891  1
  Li  Li197  1  0.56153080  0.77035726  0.77718891  1
  Li  Li198  1  0.50000000  -0.00000000  0.00000000  1
  Li  Li199  1  0.00000000  0.50000000  0.00000000  1
  Li  Li200  1  0.50000000  0.50000000  0.00000000  1
  Li  Li201  1  0.00000000  0.50000000  0.50000000  1
  Li  Li202  1  0.50000000  -0.00000000  0.50000000  1
  Li  Li203  1  0.50000000  0.50000000  0.50000000  1
  Li  Li204  1  0.16666667  0.33333333  0.33333333  1
  Li  Li205  1  0.66666667  0.83333333  0.33333333  1
  Li  Li206  1  0.16666667  0.83333333  0.33333333  1
  Li  Li207  1  0.66666667  0.83333333  0.83333333  1
  Li  Li208  1  0.16666667  0.33333333  0.83333333  1
  Li  Li209  1  0.16666667  0.83333333  0.83333333  1
  Li  Li210  1  0.83333333  0.66666667  0.66666667  1
  Li  Li211  1  0.33333333  0.16666667  0.66666667  1
  Li  Li212  1  0.83333333  0.16666667  0.66666667  1
  Li  Li213  1  0.33333333  0.16666667  0.16666667  1
  Li  Li214  1  0.83333333  0.66666667  0.16666667  1
  Li  Li215  1  0.83333333  0.16666667  0.16666667  1
