# generated using pymatgen
data_LiF
_symmetry_space_group_name_H-M   'P 1'
_cell_length_a   10.43479850
_cell_length_b   10.43479850
_cell_length_c   12.43581212
_cell_angle_alpha   90.00000000
_cell_angle_beta   90.00000000
_cell_angle_gamma   120.00000000
_symmetry_Int_Tables_number   1
_chemical_formula_structural   LiF
_chemical_formula_sum   'Li49 F49'
_cell_volume   1172.66217866
_cell_formula_units_Z   49
loop_
 _symmetry_equiv_pos_site_id
 _symmetry_equiv_pos_as_xyz
  1  'x, y, z'
loop_
 _atom_site_type_symbol
 _atom_site_label
 _atom_site_symmetry_multiplicity
 _atom_site_fract_x
 _atom_site_fract_y
 _atom_site_fract_z
 _atom_site_occupancy
  F  F0  1  0.66666667  0.33333333  0.39609610  1
  F  F1  1  0.66666667  0.33333333  0.60390390  1
  F  F2  1  0.11404944  0.30781610  0.51883710  1
  F  F3  1  0.69218390  0.80623334  0.51883710  1
  F  F4  1  0.19376666  0.88595056  0.51883710  1
  F  F5  1  0.69218390  0.88595056  0.48116290  1
  F  F6  1  0.19376666  0.30781610  0.48116290  1
  F  F7  1  0.11404944  0.80623334  0.48116290  1
  F  F8  1  0.39734101  0.81776118  0.35419496  1
  F  F9  1  0.18223882  0.57957983  0.35419496  1
  F  F10  1  0.42042017  0.60265899  0.35419496  1
  F  F11  1  0.18223882  0.60265899  0.64580504  1
  F  F12  1  0.42042017  0.81776118  0.64580504  1
  F  F13  1  0.39734101  0.57957983  0.64580504  1
  F  F14  1  0.64755466  0.78119686  0.79024275  1
  F  F15  1  0.21880314  0.86635781  0.79024275  1
  F  F16  1  0.13364219  0.35244534  0.79024275  1
  F  F17  1  0.21880314  0.35244534  0.20975725  1
  F  F18  1  0.13364219  0.78119686  0.20975725  1
  F  F19  1  0.64755466  0.86635781  0.20975725  1
  F  F20  1  0.92805487  0.52021229  0.60692070  1
  F  F21  1  0.47978771  0.40784257  0.60692070  1
  F  F22  1  0.59215743  0.07194513  0.60692070  1
  F  F23  1  0.47978771  0.07194513  0.39307930  1
  F  F24  1  0.59215743  0.52021229  0.39307930  1
  F  F25  1  0.92805487  0.40784257  0.39307930  1
  F  F26  1  0.66666667  0.33333333  0.50000000  1
  F  F27  1  0.20301732  0.59997771  0.80552977  1
  F  F28  1  0.40002229  0.60303961  0.80552977  1
  F  F29  1  0.39696039  0.79698268  0.80552977  1
  F  F30  1  0.40002229  0.79698268  0.19447023  1
  F  F31  1  0.39696039  0.59997771  0.19447023  1
  F  F32  1  0.20301732  0.60303961  0.19447023  1
  F  F33  1  0.33333333  0.66666667  0.50000000  1
  F  F34  1  0.82802273  0.23691711  0.78664288  1
  F  F35  1  0.76308289  0.59110561  0.78664288  1
  F  F36  1  0.40889439  0.17197727  0.78664288  1
  F  F37  1  0.76308289  0.17197727  0.21335712  1
  F  F38  1  0.40889439  0.23691711  0.21335712  1
  F  F39  1  0.82802273  0.59110561  0.21335712  1
  F  F40  1  0.33333333  0.66666667  0.00000000  1
  F  F41  1  0.66577404  0.03120501  0.51268778  1
  F  F42  1  0.96879499  0.63456903  0.51268778  1
  F  F43  1  0.36543097  0.33422596  0.51268778  1
  F  F44  1  0.96879499  0.33422596  0.48731222  1
  F  F45  1  0.36543097  0.03120501  0.48731222  1
  F  F46  1  0.66577404  0.63456903  0.48731222  1
  F  F47  1  0.00000000  0.00000000  0.80583418  1
  F  F48  1  0.00000000  0.00000000  0.19416582  1
  Li  Li49  1  0.33333333  0.66666667  0.83704806  1
  Li  Li50  1  0.33333333  0.66666667  0.16295194  1
  Li  Li51  1  0.66666667  0.33333333  0.72486529  1
  Li  Li52  1  0.66666667  0.33333333  0.27513471  1
  Li  Li53  1  0.78900082  0.83769312  0.04509544  1
  Li  Li54  1  -0.83769312  -0.04869230  0.04509544  1
  Li  Li55  1  0.04869230  -0.78900082  0.04509544  1
  Li  Li56  1  -0.83769312  -0.78900082  -0.04509544  1
  Li  Li57  1  0.04869230  0.83769312  -0.04509544  1
  Li  Li58  1  0.78900082  -0.04869230  -0.04509544  1
  Li  Li59  1  0.00000000  0.00000000  0.50000000  1
  Li  Li60  1  0.40258675  0.33885578  0.34165066  1
  Li  Li61  1  0.66114422  0.06373097  0.34165066  1
  Li  Li62  1  0.93626903  0.59741325  0.34165066  1
  Li  Li63  1  0.66114422  0.59741325  0.65834934  1
  Li  Li64  1  0.93626903  0.33885578  0.65834934  1
  Li  Li65  1  0.40258675  0.06373097  0.65834934  1
  Li  Li66  1  0.66666667  0.33333333  0.14798141  1
  Li  Li67  1  0.66666667  0.33333333  0.85201859  1
  Li  Li68  1  0.52666800  0.64477258  0.07912281  1
  Li  Li69  1  0.35522742  0.88189541  0.07912281  1
  Li  Li70  1  0.11810459  0.47333200  0.07912281  1
  Li  Li71  1  0.35522742  0.47333200  0.92087719  1
  Li  Li72  1  0.11810459  0.64477258  0.92087719  1
  Li  Li73  1  0.52666800  0.88189541  0.92087719  1
  Li  Li74  1  0.15302972  0.18998777  0.64557453  1
  Li  Li75  1  0.81001223  0.96304195  0.64557453  1
  Li  Li76  1  0.03695805  0.84697028  0.64557453  1
  Li  Li77  1  0.81001223  0.84697028  0.35442547  1
  Li  Li78  1  0.03695805  0.18998777  0.35442547  1
  Li  Li79  1  0.15302972  0.96304195  0.35442547  1
  Li  Li80  1  0.38934821  0.30551718  0.11507460  1
  Li  Li81  1  0.69448282  0.08383103  0.11507460  1
  Li  Li82  1  0.91616897  0.61065179  0.11507460  1
  Li  Li83  1  0.69448282  0.61065179  0.88492540  1
  Li  Li84  1  0.91616897  0.30551718  0.88492540  1
  Li  Li85  1  0.38934821  0.08383103  0.88492540  1
  Li  Li86  1  0.00000000  0.00000000  0.00000000  1
  Li  Li87  1  0.33333333  0.66666667  0.60248877  1
  Li  Li88  1  0.33333333  0.66666667  0.39751123  1
  Li  Li89  1  0.97741001  0.86917357  0.55031493  1
  Li  Li90  1  0.13082643  0.10823644  0.55031493  1
  Li  Li91  1  0.89176356  0.02258999  0.55031493  1
  Li  Li92  1  0.13082643  0.02258999  0.44968507  1
  Li  Li93  1  0.89176356  0.86917357  0.44968507  1
  Li  Li94  1  0.97741001  0.10823644  0.44968507  1
  Li  Li95  1  0.46322484  0.53677516  0.50000000  1
  Li  Li96  1  0.46322484  0.92644968  0.50000000  1
  Li  Li97  1  0.07355032  0.53677516  0.50000000  1
