# generated using pymatgen
data_LiCaF3
_symmetry_space_group_name_H-M   'P 1'
_cell_length_a   10.88340562
_cell_length_b   10.88340562
_cell_length_c   13.34067115
_cell_angle_alpha   90.00000000
_cell_angle_beta   90.00000000
_cell_angle_gamma   120.00000000
_symmetry_Int_Tables_number   1
_chemical_formula_structural   LiCaF3
_chemical_formula_sum   'Li18 Ca18 F54'
_cell_volume   1368.47838220
_cell_formula_units_Z   18
loop_
 _symmetry_equiv_pos_site_id
 _symmetry_equiv_pos_as_xyz
  1  'x, y, z'
loop_
 _atom_site_type_symbol
 _atom_site_label
 _atom_site_symmetry_multiplicity
 _atom_site_fract_x
 _atom_site_fract_y
 _atom_site_fract_z
 _atom_site_occupancy
  Ca  Ca0  1  0.00000000  0.00000000  0.87241865  1
  Ca  Ca1  1  0.00000000  0.00000000  0.37241865  1
  Ca  Ca2  1  0.00000000  0.00000000  0.12758135  1
  Ca  Ca3  1  0.00000000  0.00000000  0.62758135  1
  Ca  Ca4  1  0.16464201  0.99837605  0.25000000  1
  Ca  Ca5  1  0.00162395  0.16626596  0.25000000  1
  Ca  Ca6  1  0.83373404  0.83535799  0.25000000  1
  Ca  Ca7  1  0.83535799  0.00162395  0.75000000  1
  Ca  Ca8  1  0.99837605  0.83373404  0.75000000  1
  Ca  Ca9  1  0.16626596  0.16464201  0.75000000  1
  Ca  Ca10  1  0.99837605  0.16464201  0.75000000  1
  Ca  Ca11  1  0.16626596  0.00162395  0.75000000  1
  Ca  Ca12  1  0.83535799  0.83373404  0.75000000  1
  Ca  Ca13  1  0.00162395  0.83535799  0.25000000  1
  Ca  Ca14  1  0.83373404  0.99837605  0.25000000  1
  Ca  Ca15  1  0.16464201  0.16626596  0.25000000  1
  Ca  Ca16  1  0.33333333  0.66666667  0.75000000  1
  Ca  Ca17  1  0.66666667  0.33333333  0.25000000  1
  F  F18  1  0.71231942  0.81108896  0.82989028  1
  F  F19  1  -0.81108896  -0.09876954  0.82989028  1
  F  F20  1  0.09876954  -0.71231942  0.82989028  1
  F  F21  1  -0.71231942  -0.81108896  1.32989028  1
  F  F22  1  0.81108896  0.09876954  1.32989028  1
  F  F23  1  -0.09876954  0.71231942  1.32989028  1
  F  F24  1  0.81108896  0.71231942  -0.82989028  1
  F  F25  1  -0.09876954  -0.81108896  -0.82989028  1
  F  F26  1  -0.71231942  0.09876954  -0.82989028  1
  F  F27  1  -0.81108896  -0.71231942  -0.32989028  1
  F  F28  1  0.09876954  0.81108896  -0.32989028  1
  F  F29  1  0.71231942  -0.09876954  -0.32989028  1
  F  F30  1  -0.71231942  -0.81108896  -0.82989028  1
  F  F31  1  0.81108896  0.09876954  -0.82989028  1
  F  F32  1  -0.09876954  0.71231942  -0.82989028  1
  F  F33  1  0.71231942  0.81108896  -0.32989028  1
  F  F34  1  -0.81108896  -0.09876954  -0.32989028  1
  F  F35  1  0.09876954  -0.71231942  -0.32989028  1
  F  F36  1  -0.81108896  -0.71231942  0.82989028  1
  F  F37  1  0.09876954  0.81108896  0.82989028  1
  F  F38  1  0.71231942  -0.09876954  0.82989028  1
  F  F39  1  0.81108896  0.71231942  1.32989028  1
  F  F40  1  -0.09876954  -0.81108896  1.32989028  1
  F  F41  1  -0.71231942  0.09876954  1.32989028  1
  F  F42  1  0.13690274  0.00000000  0.00000000  1
  F  F43  1  0.00000000  0.13690274  0.00000000  1
  F  F44  1  0.86309726  0.86309726  0.00000000  1
  F  F45  1  0.86309726  0.00000000  0.50000000  1
  F  F46  1  0.00000000  0.86309726  0.50000000  1
  F  F47  1  0.13690274  0.13690274  0.50000000  1
  F  F48  1  0.86309726  0.00000000  0.00000000  1
  F  F49  1  0.00000000  0.86309726  0.00000000  1
  F  F50  1  0.13690274  0.13690274  0.00000000  1
  F  F51  1  0.13690274  0.00000000  0.50000000  1
  F  F52  1  0.00000000  0.13690274  0.50000000  1
  F  F53  1  0.86309726  0.86309726  0.50000000  1
  F  F54  1  0.76535846  0.53071693  0.25000000  1
  F  F55  1  0.46928307  0.23464154  0.25000000  1
  F  F56  1  0.76535846  0.23464154  0.25000000  1
  F  F57  1  0.23464154  0.46928307  0.75000000  1
  F  F58  1  0.53071693  0.76535846  0.75000000  1
  F  F59  1  0.23464154  0.76535846  0.75000000  1
  F  F60  1  0.52418959  0.04837917  0.52517336  1
  F  F61  1  0.95162083  0.47581041  0.52517336  1
  F  F62  1  0.52418959  0.47581041  0.52517336  1
  F  F63  1  0.47581041  0.95162083  0.02517336  1
  F  F64  1  0.04837917  0.52418959  0.02517336  1
  F  F65  1  0.47581041  0.52418959  0.02517336  1
  F  F66  1  0.04837917  0.52418959  0.47482664  1
  F  F67  1  0.47581041  0.95162083  0.47482664  1
  F  F68  1  0.47581041  0.52418959  0.47482664  1
  F  F69  1  0.95162083  0.47581041  0.97482664  1
  F  F70  1  0.52418959  0.04837917  0.97482664  1
  F  F71  1  0.52418959  0.47581041  0.97482664  1
  Li  Li72  1  0.34302598  0.43887980  0.25000000  1
  Li  Li73  1  0.56112020  0.90414619  0.25000000  1
  Li  Li74  1  0.09585381  0.65697402  0.25000000  1
  Li  Li75  1  0.65697402  0.56112020  0.75000000  1
  Li  Li76  1  0.43887980  0.09585381  0.75000000  1
  Li  Li77  1  0.90414619  0.34302598  0.75000000  1
  Li  Li78  1  0.43887980  0.34302598  0.75000000  1
  Li  Li79  1  0.90414619  0.56112020  0.75000000  1
  Li  Li80  1  0.65697402  0.09585381  0.75000000  1
  Li  Li81  1  0.56112020  0.65697402  0.25000000  1
  Li  Li82  1  0.09585381  0.43887980  0.25000000  1
  Li  Li83  1  0.34302598  0.90414619  0.25000000  1
  Li  Li84  1  0.23223384  0.46446769  0.25000000  1
  Li  Li85  1  0.53553231  0.76776616  0.25000000  1
  Li  Li86  1  0.23223384  0.76776616  0.25000000  1
  Li  Li87  1  0.76776616  0.53553231  0.75000000  1
  Li  Li88  1  0.46446769  0.23223384  0.75000000  1
  Li  Li89  1  0.76776616  0.23223384  0.75000000  1
