# generated using pymatgen
data_LiCaF3
_symmetry_space_group_name_H-M   'P 1'
_cell_length_a   12.18954858
_cell_length_b   12.18954858
_cell_length_c   12.65552343
_cell_angle_alpha   90.00000000
_cell_angle_beta   90.00000000
_cell_angle_gamma   120.00000000
_symmetry_Int_Tables_number   1
_chemical_formula_structural   LiCaF3
_chemical_formula_sum   'Li18 Ca18 F54'
_cell_volume   1628.49334719
_cell_formula_units_Z   18
loop_
 _symmetry_equiv_pos_site_id
 _symmetry_equiv_pos_as_xyz
  1  'x, y, z'
loop_
 _atom_site_type_symbol
 _atom_site_label
 _atom_site_symmetry_multiplicity
 _atom_site_fract_x
 _atom_site_fract_y
 _atom_site_fract_z
 _atom_site_occupancy
  Ca  Ca0  1  0.36038173  0.00000000  0.25000000  1
  Ca  Ca1  1  0.00000000  0.36038173  0.25000000  1
  Ca  Ca2  1  0.63961827  0.63961827  0.25000000  1
  Ca  Ca3  1  0.63961827  0.00000000  0.75000000  1
  Ca  Ca4  1  0.00000000  0.63961827  0.75000000  1
  Ca  Ca5  1  0.36038173  0.36038173  0.75000000  1
  Ca  Ca6  1  0.02704840  0.33333333  0.58333333  1
  Ca  Ca7  1  0.66666667  0.69371506  0.58333333  1
  Ca  Ca8  1  0.30628494  0.97295160  0.58333333  1
  Ca  Ca9  1  0.30628494  0.33333333  0.08333333  1
  Ca  Ca10  1  0.66666667  0.97295160  0.08333333  1
  Ca  Ca11  1  0.02704840  0.69371506  0.08333333  1
  Ca  Ca12  1  0.69371506  0.66666667  0.91666667  1
  Ca  Ca13  1  0.33333333  0.02704840  0.91666667  1
  Ca  Ca14  1  0.97295160  0.30628494  0.91666667  1
  Ca  Ca15  1  0.97295160  0.66666667  0.41666667  1
  Ca  Ca16  1  0.33333333  0.30628494  0.41666667  1
  Ca  Ca17  1  0.69371506  0.02704840  0.41666667  1
  F  F18  1  0.75782890  0.63620338  0.65573212  1
  F  F19  1  -0.63620338  0.12162552  0.65573212  1
  F  F20  1  -0.12162552  -0.75782890  0.65573212  1
  F  F21  1  0.63620338  0.75782890  -0.15573212  1
  F  F22  1  0.12162552  -0.63620338  -0.15573212  1
  F  F23  1  -0.75782890  -0.12162552  -0.15573212  1
  F  F24  1  -0.75782890  -0.63620338  -0.65573212  1
  F  F25  1  0.63620338  -0.12162552  -0.65573212  1
  F  F26  1  0.12162552  0.75782890  -0.65573212  1
  F  F27  1  -0.63620338  -0.75782890  1.15573212  1
  F  F28  1  -0.12162552  0.63620338  1.15573212  1
  F  F29  1  0.75782890  0.12162552  1.15573212  1
  F  F30  1  1.42449557  0.96953672  0.98906546  1
  F  F31  1  0.03046328  0.45495886  0.98906546  1
  F  F32  1  0.54504114  -0.42449557  0.98906546  1
  F  F33  1  1.30287005  1.09116224  0.17760121  1
  F  F34  1  0.78829219  -0.30287005  0.17760121  1
  F  F35  1  -0.09116224  0.21170781  0.17760121  1
  F  F36  1  -0.09116224  -0.30287005  -0.32239879  1
  F  F37  1  1.30287005  0.21170781  -0.32239879  1
  F  F38  1  0.78829219  1.09116224  -0.32239879  1
  F  F39  1  0.03046328  -0.42449557  1.48906546  1
  F  F40  1  0.54504114  0.96953672  1.48906546  1
  F  F41  1  1.42449557  0.45495886  1.48906546  1
  F  F42  1  1.09116224  1.30287005  1.32239879  1
  F  F43  1  -0.30287005  0.78829219  1.32239879  1
  F  F44  1  0.21170781  -0.09116224  1.32239879  1
  F  F45  1  0.96953672  1.42449557  0.51093454  1
  F  F46  1  0.45495886  0.03046328  0.51093454  1
  F  F47  1  -0.42449557  0.54504114  0.51093454  1
  F  F48  1  -0.42449557  0.03046328  0.01093454  1
  F  F49  1  0.96953672  0.54504114  0.01093454  1
  F  F50  1  0.45495886  1.42449557  0.01093454  1
  F  F51  1  -0.30287005  -0.09116224  1.82239879  1
  F  F52  1  0.21170781  1.30287005  1.82239879  1
  F  F53  1  1.09116224  0.78829219  1.82239879  1
  F  F54  1  0.00000000  0.00000000  0.00000000  1
  F  F55  1  0.00000000  0.00000000  0.50000000  1
  F  F56  1  0.66666667  0.33333333  0.33333333  1
  F  F57  1  0.66666667  0.33333333  0.83333333  1
  F  F58  1  0.33333333  0.66666667  0.66666667  1
  F  F59  1  0.33333333  0.66666667  0.16666667  1
  F  F60  1  0.00000000  0.00000000  0.32393492  1
  F  F61  1  0.00000000  0.00000000  0.17606508  1
  F  F62  1  0.00000000  0.00000000  0.67606508  1
  F  F63  1  0.00000000  0.00000000  0.82393492  1
  F  F64  1  0.66666667  0.33333333  0.65726825  1
  F  F65  1  0.66666667  0.33333333  0.50939842  1
  F  F66  1  0.66666667  0.33333333  0.00939842  1
  F  F67  1  0.66666667  0.33333333  0.15726825  1
  F  F68  1  0.33333333  0.66666667  0.99060158  1
  F  F69  1  0.33333333  0.66666667  0.84273175  1
  F  F70  1  0.33333333  0.66666667  0.34273175  1
  F  F71  1  0.33333333  0.66666667  0.49060158  1
  Li  Li72  1  0.00000000  0.00000000  0.25000000  1
  Li  Li73  1  0.00000000  0.00000000  0.75000000  1
  Li  Li74  1  0.66666667  0.33333333  0.58333333  1
  Li  Li75  1  0.66666667  0.33333333  0.08333333  1
  Li  Li76  1  0.33333333  0.66666667  0.91666667  1
  Li  Li77  1  0.33333333  0.66666667  0.41666667  1
  Li  Li78  1  0.00000000  0.00000000  0.09473266  1
  Li  Li79  1  0.00000000  0.00000000  0.40526734  1
  Li  Li80  1  0.00000000  0.00000000  0.90526734  1
  Li  Li81  1  0.00000000  0.00000000  0.59473266  1
  Li  Li82  1  0.66666667  0.33333333  0.42806599  1
  Li  Li83  1  0.66666667  0.33333333  0.73860068  1
  Li  Li84  1  0.66666667  0.33333333  0.23860068  1
  Li  Li85  1  0.66666667  0.33333333  0.92806599  1
  Li  Li86  1  0.33333333  0.66666667  0.76139932  1
  Li  Li87  1  0.33333333  0.66666667  0.07193401  1
  Li  Li88  1  0.33333333  0.66666667  0.57193401  1
  Li  Li89  1  0.33333333  0.66666667  0.26139932  1
