# generated using pymatgen
data_LiYAsP2
_symmetry_space_group_name_H-M   'P 1'
_cell_length_a   4.43687118
_cell_length_b   4.62715267
_cell_length_c   7.01169664
_cell_angle_alpha   95.77266792
_cell_angle_beta   102.57167062
_cell_angle_gamma   113.18651274
_symmetry_Int_Tables_number   1
_chemical_formula_structural   LiYAsP2
_chemical_formula_sum   'Li2 Y2 As2 P4'
_cell_volume   126.33655748
_cell_formula_units_Z   2
loop_
 _symmetry_equiv_pos_site_id
 _symmetry_equiv_pos_as_xyz
  1  'x, y, z'
loop_
 _atom_site_type_symbol
 _atom_site_label
 _atom_site_symmetry_multiplicity
 _atom_site_fract_x
 _atom_site_fract_y
 _atom_site_fract_z
 _atom_site_occupancy
  P  P0  1  0.12500000  0.12500000  0.12500000  1
  P  P1  1  0.50000000  0.50000000  0.50000000  1
  P  P2  1  0.25000000  0.25000000  0.25000000  1
  P  P3  1  0.75000000  0.75000000  0.75000000  1
  As  As4  1  0.57040671  0.28258692  0.64925043  1
  As  As5  1  0.73761670  0.04086271  0.40397288  1
  Li  Li6  1  0.53617048  0.74094560  0.18871994  1
  Li  Li7  1  0.83176592  0.25165890  0.17269520  1
  Y  Y8  1  0.48531893  0.46667837  0.91277438  1
  Y  Y9  1  0.63416389  0.22285110  0.22270383  1
