# generated using pymatgen
data_LiF
_symmetry_space_group_name_H-M   'P 1'
_cell_length_a   12.13627915
_cell_length_b   7.53559413
_cell_length_c   8.22456950
_cell_angle_alpha   90.00000000
_cell_angle_beta   90.00000000
_cell_angle_gamma   90.00000000
_symmetry_Int_Tables_number   1
_chemical_formula_structural   LiF
_chemical_formula_sum   'Li34 F34'
_cell_volume   752.17038657
_cell_formula_units_Z   34
loop_
 _symmetry_equiv_pos_site_id
 _symmetry_equiv_pos_as_xyz
  1  'x, y, z'
loop_
 _atom_site_type_symbol
 _atom_site_label
 _atom_site_symmetry_multiplicity
 _atom_site_fract_x
 _atom_site_fract_y
 _atom_site_fract_z
 _atom_site_occupancy
  F  F0  1  0.05334159  0.30856414  0.50000000  1
  F  F1  1  0.94665841  0.69143586  0.50000000  1
  F  F2  1  0.44665841  0.80856414  0.50000000  1
  F  F3  1  0.55334159  0.19143586  0.50000000  1
  F  F4  1  0.23758582  0.98897832  0.00000000  1
  F  F5  1  0.76241418  0.01102168  0.00000000  1
  F  F6  1  0.26241418  0.48897832  0.00000000  1
  F  F7  1  0.73758582  0.51102168  0.00000000  1
  F  F8  1  0.70131460  0.44107545  0.42319144  1
  F  F9  1  0.29868540  0.55892455  0.42319144  1
  F  F10  1  0.79868540  0.94107545  0.57680856  1
  F  F11  1  0.20131460  0.05892455  0.57680856  1
  F  F12  1  0.29868540  0.55892455  0.57680856  1
  F  F13  1  0.70131460  0.44107545  0.57680856  1
  F  F14  1  0.20131460  0.05892455  0.42319144  1
  F  F15  1  0.79868540  0.94107545  0.42319144  1
  F  F16  1  0.65163656  0.01175881  0.04029198  1
  F  F17  1  0.34836344  0.98824119  0.04029198  1
  F  F18  1  0.84836344  0.51175881  0.95970802  1
  F  F19  1  0.15163656  0.48824119  0.95970802  1
  F  F20  1  0.34836344  0.98824119  0.95970802  1
  F  F21  1  0.65163656  0.01175881  0.95970802  1
  F  F22  1  0.15163656  0.48824119  0.04029198  1
  F  F23  1  0.84836344  0.51175881  0.04029198  1
  F  F24  1  0.13061291  0.26909781  0.00000000  1
  F  F25  1  0.86938709  0.73090219  0.00000000  1
  F  F26  1  0.36938709  0.76909781  0.00000000  1
  F  F27  1  0.63061291  0.23090219  0.00000000  1
  F  F28  1  0.00000000  0.00000000  0.11017470  1
  F  F29  1  0.50000000  0.50000000  0.88982530  1
  F  F30  1  0.00000000  0.00000000  0.88982530  1
  F  F31  1  0.50000000  0.50000000  0.11017470  1
  F  F32  1  0.00000000  0.00000000  0.50000000  1
  F  F33  1  0.50000000  0.50000000  0.50000000  1
  Li  Li34  1  0.06599414  0.37904398  0.17206336  1
  Li  Li35  1  -0.06599414  -0.37904398  0.17206336  1
  Li  Li36  1  0.43400586  0.87904398  -0.17206336  1
  Li  Li37  1  0.56599414  0.12095602  -0.17206336  1
  Li  Li38  1  -0.06599414  -0.37904398  -0.17206336  1
  Li  Li39  1  0.06599414  0.37904398  -0.17206336  1
  Li  Li40  1  0.56599414  0.12095602  0.17206336  1
  Li  Li41  1  0.43400586  0.87904398  0.17206336  1
  Li  Li42  1  0.04442200  0.75129371  0.87752656  1
  Li  Li43  1  0.95557800  0.24870629  0.87752656  1
  Li  Li44  1  0.45557800  0.25129371  0.12247344  1
  Li  Li45  1  0.54442200  0.74870629  0.12247344  1
  Li  Li46  1  0.95557800  0.24870629  0.12247344  1
  Li  Li47  1  0.04442200  0.75129371  0.12247344  1
  Li  Li48  1  0.54442200  0.74870629  0.87752656  1
  Li  Li49  1  0.45557800  0.25129371  0.87752656  1
  Li  Li50  1  0.00000000  0.50000000  0.00000000  1
  Li  Li51  1  0.50000000  0.00000000  0.00000000  1
  Li  Li52  1  0.60974126  0.53759446  0.19116510  1
  Li  Li53  1  0.39025874  0.46240554  0.19116510  1
  Li  Li54  1  0.89025874  0.03759446  0.80883490  1
  Li  Li55  1  0.10974126  0.96240554  0.80883490  1
  Li  Li56  1  0.39025874  0.46240554  0.80883490  1
  Li  Li57  1  0.60974126  0.53759446  0.80883490  1
  Li  Li58  1  0.10974126  0.96240554  0.19116510  1
  Li  Li59  1  0.89025874  0.03759446  0.19116510  1
  Li  Li60  1  0.09666091  0.60560910  0.66297211  1
  Li  Li61  1  0.90333909  0.39439090  0.66297211  1
  Li  Li62  1  0.40333909  0.10560910  0.33702789  1
  Li  Li63  1  0.59666091  0.89439090  0.33702789  1
  Li  Li64  1  0.90333909  0.39439090  0.33702789  1
  Li  Li65  1  0.09666091  0.60560910  0.33702789  1
  Li  Li66  1  0.59666091  0.89439090  0.66297211  1
  Li  Li67  1  0.40333909  0.10560910  0.66297211  1
