# generated using pymatgen
data_LiCaF3
_symmetry_space_group_name_H-M   'P 1'
_cell_length_a   10.10922451
_cell_length_b   10.10922451
_cell_length_c   14.65365106
_cell_angle_alpha   90.00000000
_cell_angle_beta   90.00000000
_cell_angle_gamma   120.00000000
_symmetry_Int_Tables_number   1
_chemical_formula_structural   LiCaF3
_chemical_formula_sum   'Li18 Ca18 F54'
_cell_volume   1296.91693233
_cell_formula_units_Z   18
loop_
 _symmetry_equiv_pos_site_id
 _symmetry_equiv_pos_as_xyz
  1  'x, y, z'
loop_
 _atom_site_type_symbol
 _atom_site_label
 _atom_site_symmetry_multiplicity
 _atom_site_fract_x
 _atom_site_fract_y
 _atom_site_fract_z
 _atom_site_occupancy
  Ca  Ca0  1  0.39401245  0.15687627  0.59177081  1
  Ca  Ca1  1  -0.15687627  0.23713618  0.59177081  1
  Ca  Ca2  1  -0.23713618  -0.39401245  0.59177081  1
  Ca  Ca3  1  0.39401245  0.15687627  -0.59177081  1
  Ca  Ca4  1  -0.15687627  0.23713618  -0.59177081  1
  Ca  Ca5  1  -0.23713618  -0.39401245  -0.59177081  1
  Ca  Ca6  1  0.15687627  0.39401245  -0.59177081  1
  Ca  Ca7  1  0.23713618  -0.15687627  -0.59177081  1
  Ca  Ca8  1  -0.39401245  -0.23713618  -0.59177081  1
  Ca  Ca9  1  0.15687627  0.39401245  0.59177081  1
  Ca  Ca10  1  0.23713618  -0.15687627  0.59177081  1
  Ca  Ca11  1  -0.39401245  -0.23713618  0.59177081  1
  Ca  Ca12  1  0.86399669  0.75121970  0.00000000  1
  Ca  Ca13  1  0.24878030  0.11277699  0.00000000  1
  Ca  Ca14  1  0.88722301  0.13600331  0.00000000  1
  Ca  Ca15  1  0.75121970  0.86399669  0.00000000  1
  Ca  Ca16  1  0.11277699  0.24878030  0.00000000  1
  Ca  Ca17  1  0.13600331  0.88722301  0.00000000  1
  F  F18  1  0.11501562  0.00000000  0.20618375  1
  F  F19  1  0.00000000  0.11501562  0.20618375  1
  F  F20  1  0.88498438  0.88498438  0.20618375  1
  F  F21  1  0.11501562  0.00000000  0.79381625  1
  F  F22  1  0.00000000  0.11501562  0.79381625  1
  F  F23  1  0.88498438  0.88498438  0.79381625  1
  F  F24  1  0.81433202  0.00000000  0.00000000  1
  F  F25  1  0.00000000  0.81433202  0.00000000  1
  F  F26  1  0.18566798  0.18566798  0.00000000  1
  F  F27  1  0.10612071  0.91958505  0.53528177  1
  F  F28  1  0.08041495  0.18653566  0.53528177  1
  F  F29  1  0.81346434  0.89387929  0.53528177  1
  F  F30  1  0.10612071  0.91958505  0.46471823  1
  F  F31  1  0.08041495  0.18653566  0.46471823  1
  F  F32  1  0.81346434  0.89387929  0.46471823  1
  F  F33  1  0.91958505  0.10612071  0.46471823  1
  F  F34  1  0.18653566  0.08041495  0.46471823  1
  F  F35  1  0.89387929  0.81346434  0.46471823  1
  F  F36  1  0.91958505  0.10612071  0.53528177  1
  F  F37  1  0.18653566  0.08041495  0.53528177  1
  F  F38  1  0.89387929  0.81346434  0.53528177  1
  F  F39  1  0.66929942  0.14046654  0.06312529  1
  F  F40  1  0.85953346  0.52883288  0.06312529  1
  F  F41  1  0.47116712  0.33070058  0.06312529  1
  F  F42  1  0.66929942  0.14046654  0.93687471  1
  F  F43  1  0.85953346  0.52883288  0.93687471  1
  F  F44  1  0.47116712  0.33070058  0.93687471  1
  F  F45  1  0.14046654  0.66929942  0.93687471  1
  F  F46  1  0.52883288  0.85953346  0.93687471  1
  F  F47  1  0.33070058  0.47116712  0.93687471  1
  F  F48  1  0.14046654  0.66929942  0.06312529  1
  F  F49  1  0.52883288  0.85953346  0.06312529  1
  F  F50  1  0.33070058  0.47116712  0.06312529  1
  F  F51  1  0.86454831  -0.00000000  0.42220639  1
  F  F52  1  0.00000000  0.86454831  0.42220639  1
  F  F53  1  0.13545169  0.13545169  0.42220639  1
  F  F54  1  0.86454831  -0.00000000  0.57779361  1
  F  F55  1  0.00000000  0.86454831  0.57779361  1
  F  F56  1  0.13545169  0.13545169  0.57779361  1
  F  F57  1  0.07783527  0.85936676  0.29394334  1
  F  F58  1  0.14063324  0.21846851  0.29394334  1
  F  F59  1  0.78153149  0.92216473  0.29394334  1
  F  F60  1  0.07783527  0.85936676  0.70605666  1
  F  F61  1  0.14063324  0.21846851  0.70605666  1
  F  F62  1  0.78153149  0.92216473  0.70605666  1
  F  F63  1  0.85936676  0.07783527  0.70605666  1
  F  F64  1  0.21846851  0.14063324  0.70605666  1
  F  F65  1  0.92216473  0.78153149  0.70605666  1
  F  F66  1  0.85936676  0.07783527  0.29394334  1
  F  F67  1  0.21846851  0.14063324  0.29394334  1
  F  F68  1  0.92216473  0.78153149  0.29394334  1
  F  F69  1  0.00000000  0.00000000  0.95418972  1
  F  F70  1  0.00000000  0.00000000  0.04581028  1
  F  F71  1  0.00000000  0.00000000  0.00000000  1
  Li  Li72  1  0.30429820  0.00000000  0.50000000  1
  Li  Li73  1  0.00000000  0.30429820  0.50000000  1
  Li  Li74  1  0.69570180  0.69570180  0.50000000  1
  Li  Li75  1  0.28236652  0.44262286  0.00000000  1
  Li  Li76  1  0.55737714  0.83974366  0.00000000  1
  Li  Li77  1  0.16025634  0.71763348  -0.00000000  1
  Li  Li78  1  0.44262286  0.28236652  0.00000000  1
  Li  Li79  1  0.83974366  0.55737714  0.00000000  1
  Li  Li80  1  0.71763348  0.16025634  0.00000000  1
  Li  Li81  1  0.42366697  -0.00000000  0.15556874  1
  Li  Li82  1  0.00000000  0.42366697  0.15556874  1
  Li  Li83  1  0.57633303  0.57633303  0.15556874  1
  Li  Li84  1  0.42366697  -0.00000000  0.84443126  1
  Li  Li85  1  0.00000000  0.42366697  0.84443126  1
  Li  Li86  1  0.57633303  0.57633303  0.84443126  1
  Li  Li87  1  0.33333333  0.66666667  0.00000000  1
  Li  Li88  1  0.66666667  0.33333333  0.00000000  1
  Li  Li89  1  0.00000000  0.00000000  0.50000000  1
