# generated using pymatgen
data_Li3TiSb4AsP2
_symmetry_space_group_name_H-M   'P 1'
_cell_length_a   6.68483264
_cell_length_b   7.13330417
_cell_length_c   7.06328118
_cell_angle_alpha   96.16870408
_cell_angle_beta   93.84003395
_cell_angle_gamma   92.99955060
_symmetry_Int_Tables_number   1
_chemical_formula_structural   Li3TiSb4AsP2
_chemical_formula_sum   'Li3 Ti1 Sb4 As1 P2'
_cell_volume   333.50811103
_cell_formula_units_Z   1
loop_
 _symmetry_equiv_pos_site_id
 _symmetry_equiv_pos_as_xyz
  1  'x, y, z'
loop_
 _atom_site_type_symbol
 _atom_site_label
 _atom_site_symmetry_multiplicity
 _atom_site_fract_x
 _atom_site_fract_y
 _atom_site_fract_z
 _atom_site_occupancy
  P  P0  1  0.12500000  0.00000000  0.25000000  1
  P  P1  1  0.00000000  0.00000000  0.00000000  1
  As  As2  1  0.37500000  0.00000000  0.25000000  1
  Ti  Ti3  1  0.25000000  0.25000000  0.25000000  1
  Li  Li4  1  0.00000000  0.25000000  0.12500000  1
  Li  Li5  1  0.49543126  0.09170867  0.92063670  1
  Li  Li6  1  0.84120293  0.75043191  0.49291968  1
  Sb  Sb7  1  0.44401228  0.61720242  0.03062403  1
  Sb  Sb8  1  0.69027459  0.24663758  0.32755247  1
  Sb  Sb9  1  0.50732776  0.58252929  0.02735599  1
  Sb  Sb10  1  0.69013338  0.93737566  0.49206146  1
