# generated using pymatgen
data_LiF
_symmetry_space_group_name_H-M   'P 1'
_cell_length_a   8.97475329
_cell_length_b   8.97475329
_cell_length_c   3.64609405
_cell_angle_alpha   90.00000000
_cell_angle_beta   90.00000000
_cell_angle_gamma   120.00000000
_symmetry_Int_Tables_number   1
_chemical_formula_structural   LiF
_chemical_formula_sum   'Li7 F7'
_cell_volume   254.33348148
_cell_formula_units_Z   7
loop_
 _symmetry_equiv_pos_site_id
 _symmetry_equiv_pos_as_xyz
  1  'x, y, z'
loop_
 _atom_site_type_symbol
 _atom_site_label
 _atom_site_symmetry_multiplicity
 _atom_site_fract_x
 _atom_site_fract_y
 _atom_site_fract_z
 _atom_site_occupancy
  F  F0  1  0.33333333  0.66666667  0.50000000  1
  F  F1  1  0.41166637  0.79843208  0.22800999  1
  F  F2  1  0.20156792  0.61323428  0.22800999  1
  F  F3  1  0.38676572  0.58833363  0.22800999  1
  F  F4  1  0.20156792  0.58833363  0.77199001  1
  F  F5  1  0.38676572  0.79843208  0.77199001  1
  F  F6  1  0.41166637  0.61323428  0.77199001  1
  Li  Li7  1  0.34195716  0.88047132  0.36163369  1
  Li  Li8  1  -0.88047132  -0.53851416  0.36163369  1
  Li  Li9  1  0.53851416  -0.34195716  0.36163369  1
  Li  Li10  1  -0.88047132  -0.34195716  -0.36163369  1
  Li  Li11  1  0.53851416  0.88047132  -0.36163369  1
  Li  Li12  1  0.34195716  -0.53851416  -0.36163369  1
  Li  Li13  1  0.66666667  0.33333333  0.50000000  1
