# generated using pymatgen
data_Li3Y2(P2Se)2
_symmetry_space_group_name_H-M   'P 1'
_cell_length_a   5.03004640
_cell_length_b   5.35146580
_cell_length_c   7.20389940
_cell_angle_alpha   94.65641346
_cell_angle_beta   100.14070047
_cell_angle_gamma   108.70296223
_symmetry_Int_Tables_number   1
_chemical_formula_structural   Li3Y2(P2Se)2
_chemical_formula_sum   'Li3 Y2 P4 Se2'
_cell_volume   178.82535494
_cell_formula_units_Z   1
loop_
 _symmetry_equiv_pos_site_id
 _symmetry_equiv_pos_as_xyz
  1  'x, y, z'
loop_
 _atom_site_type_symbol
 _atom_site_label
 _atom_site_symmetry_multiplicity
 _atom_site_fract_x
 _atom_site_fract_y
 _atom_site_fract_z
 _atom_site_occupancy
  P  P0  1  0.00000000  0.00000000  0.00000000  1
  P  P1  1  0.50000000  0.50000000  0.50000000  1
  P  P2  1  0.50000000  0.50000000  0.00000000  1
  P  P3  1  0.50000000  0.00000000  0.50000000  1
  Se  Se4  1  0.00000000  0.50000000  0.50000000  1
  Se  Se5  1  0.36025948  0.42047473  0.61917488  1
  Li  Li6  1  0.12191563  0.57846943  0.06469274  1
  Li  Li7  1  0.22765304  0.06312456  0.79020373  1
  Li  Li8  1  0.69324175  0.19973088  0.08891194  1
  Y  Y9  1  0.43792459  0.68764650  0.81797412  1
  Y  Y10  1  0.71267733  0.51510207  0.62980767  1
