# generated using pymatgen
data_LiF
_symmetry_space_group_name_H-M   'P 1'
_cell_length_a   7.97426012
_cell_length_b   7.97426012
_cell_length_c   7.09034706
_cell_angle_alpha   90.00000000
_cell_angle_beta   90.00000000
_cell_angle_gamma   90.00000000
_symmetry_Int_Tables_number   1
_chemical_formula_structural   LiF
_chemical_formula_sum   'Li16 F16'
_cell_volume   450.86683416
_cell_formula_units_Z   16
loop_
 _symmetry_equiv_pos_site_id
 _symmetry_equiv_pos_as_xyz
  1  'x, y, z'
loop_
 _atom_site_type_symbol
 _atom_site_label
 _atom_site_symmetry_multiplicity
 _atom_site_fract_x
 _atom_site_fract_y
 _atom_site_fract_z
 _atom_site_occupancy
  F  F0  1  0.61196084  0.61196084  0.50000000  1
  F  F1  1  0.38803916  0.38803916  0.50000000  1
  F  F2  1  0.38803916  0.61196084  0.50000000  1
  F  F3  1  0.61196084  0.38803916  0.50000000  1
  F  F4  1  0.89185434  -0.00000000  0.20686347  1
  F  F5  1  -0.89185434  0.00000000  0.20686347  1
  F  F6  1  0.00000000  0.89185434  0.20686347  1
  F  F7  1  0.00000000  -0.89185434  0.20686347  1
  F  F8  1  -0.89185434  0.00000000  -0.20686347  1
  F  F9  1  0.89185434  -0.00000000  -0.20686347  1
  F  F10  1  0.00000000  0.89185434  -0.20686347  1
  F  F11  1  0.00000000  -0.89185434  -0.20686347  1
  F  F12  1  0.00000000  0.50000000  0.36100675  1
  F  F13  1  0.50000000  0.00000000  0.36100675  1
  F  F14  1  0.00000000  0.50000000  0.63899325  1
  F  F15  1  0.50000000  0.00000000  0.63899325  1
  Li  Li16  1  0.32481671  0.32481671  -0.00000000  1
  Li  Li17  1  0.67518329  0.67518329  -0.00000000  1
  Li  Li18  1  0.67518329  0.32481671  -0.00000000  1
  Li  Li19  1  0.32481671  0.67518329  -0.00000000  1
  Li  Li20  1  0.88339940  0.50000000  -0.00000000  1
  Li  Li21  1  0.11660060  0.50000000  -0.00000000  1
  Li  Li22  1  0.50000000  0.88339940  -0.00000000  1
  Li  Li23  1  0.50000000  0.11660060  -0.00000000  1
  Li  Li24  1  0.00000000  0.00000000  0.00000000  1
  Li  Li25  1  0.70221487  0.00000000  0.50000000  1
  Li  Li26  1  0.29778513  0.00000000  0.50000000  1
  Li  Li27  1  0.00000000  0.70221487  0.50000000  1
  Li  Li28  1  0.00000000  0.29778513  0.50000000  1
  Li  Li29  1  0.50000000  0.50000000  -0.00000000  1
  Li  Li30  1  0.00000000  0.50000000  0.50000000  1
  Li  Li31  1  0.50000000  0.00000000  0.50000000  1
