# generated using pymatgen
data_LiYP2
_symmetry_space_group_name_H-M   'P 1'
_cell_length_a   4.17774868
_cell_length_b   4.46776572
_cell_length_c   6.86428507
_cell_angle_alpha   96.18660639
_cell_angle_beta   103.47314255
_cell_angle_gamma   114.84913906
_symmetry_Int_Tables_number   1
_chemical_formula_structural   LiYP2
_chemical_formula_sum   'Li2 Y2 P4'
_cell_volume   109.94781265
_cell_formula_units_Z   2
loop_
 _symmetry_equiv_pos_site_id
 _symmetry_equiv_pos_as_xyz
  1  'x, y, z'
loop_
 _atom_site_type_symbol
 _atom_site_label
 _atom_site_symmetry_multiplicity
 _atom_site_fract_x
 _atom_site_fract_y
 _atom_site_fract_z
 _atom_site_occupancy
  Y  Y0  1  0.12500000  0.00000000  0.25000000  1
  Y  Y1  1  0.00000000  0.00000000  0.00000000  1
  P  P2  1  0.37500000  0.00000000  0.25000000  1
  P  P3  1  0.25000000  0.25000000  0.25000000  1
  P  P4  1  0.00000000  0.25000000  0.12500000  1
  P  P5  1  0.42816427  0.06203342  0.12951173  1
  Li  Li6  1  0.06798814  0.23993371  0.19332437  1
  Li  Li7  1  0.22115114  0.02567162  0.56869750  1
