# generated using pymatgen
data_Li2Si4Te3F12
_symmetry_space_group_name_H-M   'P 1'
_cell_length_a   11.66586492
_cell_length_b   11.66586492
_cell_length_c   9.09861218
_cell_angle_alpha   90.00000000
_cell_angle_beta   90.00000000
_cell_angle_gamma   90.00000000
_symmetry_Int_Tables_number   1
_chemical_formula_structural   Li2Si4Te3F12
_chemical_formula_sum   'Li8 Si16 Te12 F48'
_cell_volume   1238.25200765
_cell_formula_units_Z   4
loop_
 _symmetry_equiv_pos_site_id
 _symmetry_equiv_pos_as_xyz
  1  'x, y, z'
loop_
 _atom_site_type_symbol
 _atom_site_label
 _atom_site_symmetry_multiplicity
 _atom_site_fract_x
 _atom_site_fract_y
 _atom_site_fract_z
 _atom_site_occupancy
  F  F0  1  0.06821208  0.63466873  0.44052801  1
  F  F1  1  0.43178792  -0.63466873  0.94052801  1
  F  F2  1  -0.38466873  0.81821208  0.69052801  1
  F  F3  1  0.88466873  0.18178792  1.19052801  1
  F  F4  1  0.43178792  0.63466873  0.05947199  1
  F  F5  1  0.06821208  -0.63466873  -0.44052801  1
  F  F6  1  0.88466873  0.81821208  -0.19052801  1
  F  F7  1  -0.38466873  0.18178792  0.30947199  1
  F  F8  1  -0.06821208  -0.63466873  -0.44052801  1
  F  F9  1  0.56821208  0.63466873  0.05947199  1
  F  F10  1  1.38466873  0.18178792  0.30947199  1
  F  F11  1  0.11533127  0.81821208  -0.19052801  1
  F  F12  1  0.56821208  -0.63466873  0.94052801  1
  F  F13  1  -0.06821208  0.63466873  0.44052801  1
  F  F14  1  0.11533127  0.18178792  1.19052801  1
  F  F15  1  1.38466873  0.81821208  0.69052801  1
  F  F16  1  0.56821208  1.13466873  0.94052801  1
  F  F17  1  0.93178792  -0.13466873  1.44052801  1
  F  F18  1  0.11533127  1.31821208  1.19052801  1
  F  F19  1  1.38466873  0.68178792  1.69052801  1
  F  F20  1  0.93178792  1.13466873  0.55947199  1
  F  F21  1  0.56821208  -0.13466873  0.05947199  1
  F  F22  1  1.38466873  1.31821208  0.30947199  1
  F  F23  1  0.11533127  0.68178792  0.80947199  1
  F  F24  1  0.43178792  -0.13466873  0.05947199  1
  F  F25  1  1.06821208  1.13466873  0.55947199  1
  F  F26  1  1.88466873  0.68178792  0.80947199  1
  F  F27  1  0.61533127  1.31821208  0.30947199  1
  F  F28  1  1.06821208  -0.13466873  1.44052801  1
  F  F29  1  0.43178792  1.13466873  0.94052801  1
  F  F30  1  0.61533127  0.68178792  1.69052801  1
  F  F31  1  1.88466873  1.31821208  1.19052801  1
  F  F32  1  0.00000000  0.85016868  0.09907111  1
  F  F33  1  0.50000000  0.14983132  0.59907111  1
  F  F34  1  0.39983132  0.75000000  0.34907111  1
  F  F35  1  0.10016868  0.25000000  0.84907111  1
  F  F36  1  0.50000000  0.85016868  0.40092889  1
  F  F37  1  0.00000000  0.14983132  0.90092889  1
  F  F38  1  0.10016868  0.75000000  0.15092889  1
  F  F39  1  0.39983132  0.25000000  0.65092889  1
  F  F40  1  0.50000000  0.35016868  0.59907111  1
  F  F41  1  0.00000000  0.64983132  0.09907111  1
  F  F42  1  0.89983132  0.25000000  0.84907111  1
  F  F43  1  0.60016868  0.75000000  0.34907111  1
  F  F44  1  0.00000000  0.35016868  0.90092889  1
  F  F45  1  0.50000000  0.64983132  0.40092889  1
  F  F46  1  0.60016868  0.25000000  0.65092889  1
  F  F47  1  0.89983132  0.75000000  0.15092889  1
  Li  Li48  1  0.00000000  0.00000000  0.00000000  1
  Li  Li49  1  0.50000000  0.00000000  0.50000000  1
  Li  Li50  1  0.25000000  0.75000000  0.25000000  1
  Li  Li51  1  0.25000000  0.25000000  0.75000000  1
  Li  Li52  1  0.50000000  0.50000000  0.50000000  1
  Li  Li53  1  0.00000000  0.50000000  0.00000000  1
  Li  Li54  1  0.75000000  0.25000000  0.75000000  1
  Li  Li55  1  0.75000000  0.75000000  0.25000000  1
  Si  Si56  1  0.39525110  0.64525110  0.87500000  1
  Si  Si57  1  0.10474890  0.35474890  0.37500000  1
  Si  Si58  1  0.60474890  0.14525110  0.12500000  1
  Si  Si59  1  0.89525110  0.85474890  0.62500000  1
  Si  Si60  1  0.60474890  0.35474890  0.12500000  1
  Si  Si61  1  0.89525110  0.64525110  0.62500000  1
  Si  Si62  1  0.39525110  0.85474890  0.87500000  1
  Si  Si63  1  0.10474890  0.14525110  0.37500000  1
  Si  Si64  1  0.89525110  0.14525110  0.37500000  1
  Si  Si65  1  0.60474890  0.85474890  0.87500000  1
  Si  Si66  1  0.10474890  0.64525110  0.62500000  1
  Si  Si67  1  0.39525110  0.35474890  0.12500000  1
  Si  Si68  1  0.10474890  0.85474890  0.62500000  1
  Si  Si69  1  0.39525110  0.14525110  0.12500000  1
  Si  Si70  1  0.89525110  0.35474890  0.37500000  1
  Si  Si71  1  0.60474890  0.64525110  0.87500000  1
  Te  Te72  1  0.00000000  0.25000000  0.17960508  1
  Te  Te73  1  0.00000000  0.75000000  0.42960508  1
  Te  Te74  1  0.50000000  0.25000000  0.32039492  1
  Te  Te75  1  0.50000000  0.75000000  0.07039492  1
  Te  Te76  1  0.50000000  0.75000000  0.67960508  1
  Te  Te77  1  0.50000000  0.25000000  0.92960508  1
  Te  Te78  1  0.00000000  0.75000000  0.82039492  1
  Te  Te79  1  0.00000000  0.25000000  0.57039492  1
  Te  Te80  1  0.00000000  0.25000000  0.37500000  1
  Te  Te81  1  0.00000000  0.75000000  0.62500000  1
  Te  Te82  1  0.50000000  0.75000000  0.87500000  1
  Te  Te83  1  0.50000000  0.25000000  0.12500000  1
