# generated using pymatgen
data_LiF
_symmetry_space_group_name_H-M   'P 1'
_cell_length_a   4.27147196
_cell_length_b   4.27147196
_cell_length_c   18.70127511
_cell_angle_alpha   90.00000000
_cell_angle_beta   90.00000000
_cell_angle_gamma   120.00000000
_symmetry_Int_Tables_number   1
_chemical_formula_structural   LiF
_chemical_formula_sum   'Li15 F15'
_cell_volume   295.49964908
_cell_formula_units_Z   15
loop_
 _symmetry_equiv_pos_site_id
 _symmetry_equiv_pos_as_xyz
  1  'x, y, z'
loop_
 _atom_site_type_symbol
 _atom_site_label
 _atom_site_symmetry_multiplicity
 _atom_site_fract_x
 _atom_site_fract_y
 _atom_site_fract_z
 _atom_site_occupancy
  F  F0  1  0.18037689  0.66835832  0.69491179  1
  F  F1  1  0.33164168  0.51201857  0.69491179  1
  F  F2  1  0.48798143  0.81962311  0.69491179  1
  F  F3  1  0.33164168  0.81962311  0.30508821  1
  F  F4  1  0.48798143  0.66835832  0.30508821  1
  F  F5  1  0.18037689  0.51201857  0.30508821  1
  F  F6  1  0.33333333  0.66666667  0.00000000  1
  F  F7  1  0.50604521  0.48154953  0.42571123  1
  F  F8  1  0.51845047  0.02449569  0.42571123  1
  F  F9  1  0.97550431  0.49395479  0.42571123  1
  F  F10  1  0.51845047  0.49395479  0.57428877  1
  F  F11  1  0.97550431  0.48154953  0.57428877  1
  F  F12  1  0.50604521  0.02449569  0.57428877  1
  F  F13  1  0.33333333  0.66666667  0.50000000  1
  F  F14  1  0.66666667  0.33333333  0.50000000  1
  Li  Li15  1  0.00000000  0.00000000  0.38486034  1
  Li  Li16  1  0.00000000  0.00000000  0.61513966  1
  Li  Li17  1  0.25632612  0.03737630  0.20450789  1
  Li  Li18  1  -0.03737630  0.21894983  0.20450789  1
  Li  Li19  1  -0.21894983  -0.25632612  0.20450789  1
  Li  Li20  1  -0.03737630  -0.25632612  -0.20450789  1
  Li  Li21  1  -0.21894983  0.03737630  -0.20450789  1
  Li  Li22  1  0.25632612  0.21894983  -0.20450789  1
  Li  Li23  1  0.00000000  0.00000000  0.50000000  1
  Li  Li24  1  0.62585312  0.96855338  0.62859045  1
  Li  Li25  1  0.03144662  0.65729973  0.62859045  1
  Li  Li26  1  0.34270027  0.37414688  0.62859045  1
  Li  Li27  1  0.03144662  0.37414688  0.37140955  1
  Li  Li28  1  0.34270027  0.96855338  0.37140955  1
  Li  Li29  1  0.62585312  0.65729973  0.37140955  1
