# generated using pymatgen
data_LiF
_symmetry_space_group_name_H-M   'P 1'
_cell_length_a   7.03439154
_cell_length_b   7.03439154
_cell_length_c   30.72927795
_cell_angle_alpha   90.00000000
_cell_angle_beta   90.00000000
_cell_angle_gamma   120.00000000
_symmetry_Int_Tables_number   1
_chemical_formula_structural   LiF
_chemical_formula_sum   'Li48 F48'
_cell_volume   1316.84925882
_cell_formula_units_Z   48
loop_
 _symmetry_equiv_pos_site_id
 _symmetry_equiv_pos_as_xyz
  1  'x, y, z'
loop_
 _atom_site_type_symbol
 _atom_site_label
 _atom_site_symmetry_multiplicity
 _atom_site_fract_x
 _atom_site_fract_y
 _atom_site_fract_z
 _atom_site_occupancy
  F  F0  1  0.42361236  0.00000000  0.25000000  1
  F  F1  1  0.00000000  0.42361236  0.25000000  1
  F  F2  1  0.57638764  0.57638764  0.25000000  1
  F  F3  1  0.57638764  -0.00000000  0.75000000  1
  F  F4  1  0.00000000  0.57638764  0.75000000  1
  F  F5  1  0.42361236  0.42361236  0.75000000  1
  F  F6  1  0.09027903  0.33333333  0.58333333  1
  F  F7  1  0.66666667  0.75694570  0.58333333  1
  F  F8  1  0.24305430  0.90972097  0.58333333  1
  F  F9  1  0.24305430  0.33333333  0.08333333  1
  F  F10  1  0.66666667  0.90972097  0.08333333  1
  F  F11  1  0.09027903  0.75694570  0.08333333  1
  F  F12  1  0.75694570  0.66666667  0.91666667  1
  F  F13  1  0.33333333  0.09027903  0.91666667  1
  F  F14  1  0.90972097  0.24305430  0.91666667  1
  F  F15  1  0.90972097  0.66666667  0.41666667  1
  F  F16  1  0.33333333  0.24305430  0.41666667  1
  F  F17  1  0.75694570  0.09027903  0.41666667  1
  F  F18  1  0.65351075  -0.00000000  0.25000000  1
  F  F19  1  0.00000000  0.65351075  0.25000000  1
  F  F20  1  0.34648925  0.34648925  0.25000000  1
  F  F21  1  0.34648925  0.00000000  0.75000000  1
  F  F22  1  0.00000000  0.34648925  0.75000000  1
  F  F23  1  0.65351075  0.65351075  0.75000000  1
  F  F24  1  0.32017742  0.33333333  0.58333333  1
  F  F25  1  0.66666667  0.98684408  0.58333333  1
  F  F26  1  0.01315592  0.67982258  0.58333333  1
  F  F27  1  0.01315592  0.33333333  0.08333333  1
  F  F28  1  0.66666667  0.67982258  0.08333333  1
  F  F29  1  0.32017742  0.98684408  0.08333333  1
  F  F30  1  0.98684408  0.66666667  0.91666667  1
  F  F31  1  0.33333333  0.32017742  0.91666667  1
  F  F32  1  0.67982258  0.01315592  0.91666667  1
  F  F33  1  0.67982258  0.66666667  0.41666667  1
  F  F34  1  0.33333333  0.01315592  0.41666667  1
  F  F35  1  0.98684408  0.32017742  0.41666667  1
  F  F36  1  0.00000000  0.00000000  0.00000000  1
  F  F37  1  0.00000000  0.00000000  0.50000000  1
  F  F38  1  0.66666667  0.33333333  0.33333333  1
  F  F39  1  0.66666667  0.33333333  0.83333333  1
  F  F40  1  0.33333333  0.66666667  0.66666667  1
  F  F41  1  0.33333333  0.66666667  0.16666667  1
  F  F42  1  0.00000000  0.00000000  0.25000000  1
  F  F43  1  0.00000000  0.00000000  0.75000000  1
  F  F44  1  0.66666667  0.33333333  0.58333333  1
  F  F45  1  0.66666667  0.33333333  0.08333333  1
  F  F46  1  0.33333333  0.66666667  0.91666667  1
  F  F47  1  0.33333333  0.66666667  0.41666667  1
  Li  Li48  1  0.69979482  0.24659937  0.62408578  1
  Li  Li49  1  -0.24659937  0.45319545  0.62408578  1
  Li  Li50  1  -0.45319545  -0.69979482  0.62408578  1
  Li  Li51  1  0.24659937  0.69979482  -0.12408578  1
  Li  Li52  1  0.45319545  -0.24659937  -0.12408578  1
  Li  Li53  1  -0.69979482  -0.45319545  -0.12408578  1
  Li  Li54  1  -0.69979482  -0.24659937  -0.62408578  1
  Li  Li55  1  0.24659937  -0.45319545  -0.62408578  1
  Li  Li56  1  0.45319545  0.69979482  -0.62408578  1
  Li  Li57  1  -0.24659937  -0.69979482  1.12408578  1
  Li  Li58  1  -0.45319545  0.24659937  1.12408578  1
  Li  Li59  1  0.69979482  0.45319545  1.12408578  1
  Li  Li60  1  1.36646149  0.57993270  0.95741911  1
  Li  Li61  1  0.42006730  0.78652879  0.95741911  1
  Li  Li62  1  0.21347121  -0.36646149  0.95741911  1
  Li  Li63  1  0.91326603  1.03312815  0.20924756  1
  Li  Li64  1  1.11986212  0.08673397  0.20924756  1
  Li  Li65  1  -0.03312815  -0.11986212  0.20924756  1
  Li  Li66  1  -0.03312815  0.08673397  -0.29075244  1
  Li  Li67  1  0.91326603  -0.11986212  -0.29075244  1
  Li  Li68  1  1.11986212  1.03312815  -0.29075244  1
  Li  Li69  1  0.42006730  -0.36646149  1.45741911  1
  Li  Li70  1  0.21347121  0.57993270  1.45741911  1
  Li  Li71  1  1.36646149  0.78652879  1.45741911  1
  Li  Li72  1  1.03312815  0.91326603  1.29075244  1
  Li  Li73  1  0.08673397  1.11986212  1.29075244  1
  Li  Li74  1  -0.11986212  -0.03312815  1.29075244  1
  Li  Li75  1  0.57993270  1.36646149  0.54258089  1
  Li  Li76  1  0.78652879  0.42006730  0.54258089  1
  Li  Li77  1  -0.36646149  0.21347121  0.54258089  1
  Li  Li78  1  -0.36646149  0.42006730  0.04258089  1
  Li  Li79  1  0.57993270  0.21347121  0.04258089  1
  Li  Li80  1  0.78652879  1.36646149  0.04258089  1
  Li  Li81  1  0.08673397  -0.03312815  1.79075244  1
  Li  Li82  1  -0.11986212  0.91326603  1.79075244  1
  Li  Li83  1  1.03312815  1.11986212  1.79075244  1
  Li  Li84  1  0.00000000  0.00000000  0.04700610  1
  Li  Li85  1  0.00000000  0.00000000  0.45299390  1
  Li  Li86  1  0.00000000  0.00000000  0.95299390  1
  Li  Li87  1  0.00000000  0.00000000  0.54700610  1
  Li  Li88  1  0.66666667  0.33333333  0.38033944  1
  Li  Li89  1  0.66666667  0.33333333  0.78632723  1
  Li  Li90  1  0.66666667  0.33333333  0.28632723  1
  Li  Li91  1  0.66666667  0.33333333  0.88033944  1
  Li  Li92  1  0.33333333  0.66666667  0.71367277  1
  Li  Li93  1  0.33333333  0.66666667  0.11966056  1
  Li  Li94  1  0.33333333  0.66666667  0.61966056  1
  Li  Li95  1  0.33333333  0.66666667  0.21367277  1
