# generated using pymatgen
data_LiF
_symmetry_space_group_name_H-M   'P 1'
_cell_length_a   6.97605743
_cell_length_b   10.51583060
_cell_length_c   10.46666950
_cell_angle_alpha   90.00000000
_cell_angle_beta   90.00000000
_cell_angle_gamma   90.00000000
_symmetry_Int_Tables_number   1
_chemical_formula_structural   LiF
_chemical_formula_sum   'Li24 F24'
_cell_volume   767.82480761
_cell_formula_units_Z   24
loop_
 _symmetry_equiv_pos_site_id
 _symmetry_equiv_pos_as_xyz
  1  'x, y, z'
loop_
 _atom_site_type_symbol
 _atom_site_label
 _atom_site_symmetry_multiplicity
 _atom_site_fract_x
 _atom_site_fract_y
 _atom_site_fract_z
 _atom_site_occupancy
  F  F0  1  0.38673587  0.25000000  0.33820192  1
  F  F1  1  0.11326413  0.75000000  0.83820192  1
  F  F2  1  0.61326413  0.75000000  0.66179808  1
  F  F3  1  0.88673587  0.25000000  0.16179808  1
  F  F4  1  0.08502464  0.25000000  0.18427553  1
  F  F5  1  0.41497536  0.75000000  0.68427553  1
  F  F6  1  0.91497536  0.75000000  0.81572447  1
  F  F7  1  0.58502464  0.25000000  0.31572447  1
  F  F8  1  0.29403255  0.82696607  0.71450769  1
  F  F9  1  0.20596745  0.17303393  0.21450769  1
  F  F10  1  0.70596745  0.32696607  0.28549231  1
  F  F11  1  0.79403255  0.67303393  0.78549231  1
  F  F12  1  0.70596745  0.17303393  0.28549231  1
  F  F13  1  0.79403255  0.82696607  0.78549231  1
  F  F14  1  0.29403255  0.67303393  0.71450769  1
  F  F15  1  0.20596745  0.32696607  0.21450769  1
  F  F16  1  0.02517982  0.25000000  0.37825481  1
  F  F17  1  0.47482018  0.75000000  0.87825481  1
  F  F18  1  0.97482018  0.75000000  0.62174519  1
  F  F19  1  0.52517982  0.25000000  0.12174519  1
  F  F20  1  0.84362078  0.25000000  0.67157472  1
  F  F21  1  0.65637922  0.75000000  0.17157472  1
  F  F22  1  0.15637922  0.75000000  0.32842528  1
  F  F23  1  0.34362078  0.25000000  0.82842528  1
  Li  Li24  1  0.66285187  0.18385944  0.38900292  1
  Li  Li25  1  -0.16285187  -0.18385944  0.88900292  1
  Li  Li26  1  -0.66285187  0.68385944  -0.38900292  1
  Li  Li27  1  1.16285187  0.31614056  0.11099708  1
  Li  Li28  1  -0.66285187  -0.18385944  -0.38900292  1
  Li  Li29  1  1.16285187  0.18385944  0.11099708  1
  Li  Li30  1  0.66285187  0.31614056  0.38900292  1
  Li  Li31  1  -0.16285187  0.68385944  0.88900292  1
  Li  Li32  1  0.00000000  0.00000000  0.50000000  1
  Li  Li33  1  0.50000000  0.00000000  0.00000000  1
  Li  Li34  1  0.00000000  0.50000000  0.50000000  1
  Li  Li35  1  0.50000000  0.50000000  0.00000000  1
  Li  Li36  1  0.61521181  0.05520760  0.60762838  1
  Li  Li37  1  0.88478819  0.94479240  0.10762838  1
  Li  Li38  1  0.38478819  0.55520760  0.39237162  1
  Li  Li39  1  0.11521181  0.44479240  0.89237162  1
  Li  Li40  1  0.38478819  0.94479240  0.39237162  1
  Li  Li41  1  0.11521181  0.05520760  0.89237162  1
  Li  Li42  1  0.61521181  0.44479240  0.60762838  1
  Li  Li43  1  0.88478819  0.55520760  0.10762838  1
  Li  Li44  1  0.00000000  0.00000000  0.00000000  1
  Li  Li45  1  0.50000000  0.00000000  0.50000000  1
  Li  Li46  1  0.00000000  0.50000000  0.00000000  1
  Li  Li47  1  0.50000000  0.50000000  0.50000000  1
