# generated using pymatgen
data_Li2Y2Ti3(P2O)2
_symmetry_space_group_name_H-M   'P 1'
_cell_length_a   3.62663178
_cell_length_b   4.05171740
_cell_length_c   6.43151138
_cell_angle_alpha   102.10002496
_cell_angle_beta   109.45641177
_cell_angle_gamma   109.94624495
_symmetry_Int_Tables_number   1
_chemical_formula_structural   Li2Y2Ti3(P2O)2
_chemical_formula_sum   'Li2 Y2 Ti3 P4 O2'
_cell_volume   77.99386223
_cell_formula_units_Z   1
loop_
 _symmetry_equiv_pos_site_id
 _symmetry_equiv_pos_as_xyz
  1  'x, y, z'
loop_
 _atom_site_type_symbol
 _atom_site_label
 _atom_site_symmetry_multiplicity
 _atom_site_fract_x
 _atom_site_fract_y
 _atom_site_fract_z
 _atom_site_occupancy
  Y  Y0  1  0.12500000  0.00000000  0.25000000  1
  Y  Y1  1  0.00000000  0.00000000  0.00000000  1
  P  P2  1  0.37500000  0.00000000  0.25000000  1
  P  P3  1  0.25000000  0.25000000  0.25000000  1
  P  P4  1  0.00000000  0.25000000  0.12500000  1
  P  P5  1  0.58552113  0.75247052  0.90892546  1
  Ti  Ti6  1  0.20030182  0.47271531  0.07243295  1
  Ti  Ti7  1  0.90598343  0.46192856  0.60009031  1
  Ti  Ti8  1  0.44853033  0.15567097  0.93299096  1
  O  O9  1  0.38156659  0.72259901  0.36904991  1
  O  O10  1  0.54032444  0.41912341  0.46492636  1
  Li  Li11  1  0.10324128  0.64390593  0.33405321  1
  Li  Li12  1  0.18053124  0.04367749  0.40626827  1
