# generated using pymatgen
data_Li2YAs3P2
_symmetry_space_group_name_H-M   'P 1'
_cell_length_a   5.71658970
_cell_length_b   5.65339008
_cell_length_c   7.09491128
_cell_angle_alpha   93.75241433
_cell_angle_beta   97.99106782
_cell_angle_gamma   104.19279071
_symmetry_Int_Tables_number   1
_chemical_formula_structural   Li2YAs3P2
_chemical_formula_sum   'Li2 Y1 As3 P2'
_cell_volume   218.95049358
_cell_formula_units_Z   1
loop_
 _symmetry_equiv_pos_site_id
 _symmetry_equiv_pos_as_xyz
  1  'x, y, z'
loop_
 _atom_site_type_symbol
 _atom_site_label
 _atom_site_symmetry_multiplicity
 _atom_site_fract_x
 _atom_site_fract_y
 _atom_site_fract_z
 _atom_site_occupancy
  P  P0  1  0.00000000  0.00000000  0.00000000  1
  P  P1  1  0.33300000  0.66700000  0.25000000  1
  As  As2  1  0.66700000  0.33300000  0.50000000  1
  As  As3  1  0.00000000  0.00000000  0.75000000  1
  As  As4  1  0.00764426  0.50443326  0.35646823  1
  Li  Li5  1  0.87321994  0.39168177  0.44484128  1
  Li  Li6  1  0.91253828  0.57856190  0.39413208  1
  Y  Y7  1  0.83616115  0.89262254  0.24537163  1
