# generated using pymatgen
data_Li2Y2Mo(PSe)2
_symmetry_space_group_name_H-M   'P 1'
_cell_length_a   5.01722470
_cell_length_b   5.17219893
_cell_length_c   7.03783015
_cell_angle_alpha   94.73423732
_cell_angle_beta   100.31018465
_cell_angle_gamma   109.01554972
_symmetry_Int_Tables_number   1
_chemical_formula_structural   Li2Y2Mo(PSe)2
_chemical_formula_sum   'Li2 Y2 Mo1 P2 Se2'
_cell_volume   167.91919766
_cell_formula_units_Z   1
loop_
 _symmetry_equiv_pos_site_id
 _symmetry_equiv_pos_as_xyz
  1  'x, y, z'
loop_
 _atom_site_type_symbol
 _atom_site_label
 _atom_site_symmetry_multiplicity
 _atom_site_fract_x
 _atom_site_fract_y
 _atom_site_fract_z
 _atom_site_occupancy
  Y  Y0  1  0.00000000  0.00000000  0.00000000  1
  Y  Y1  1  0.50000000  0.50000000  0.50000000  1
  P  P2  1  0.25000000  0.25000000  0.25000000  1
  P  P3  1  0.75000000  0.25000000  0.00000000  1
  Mo  Mo4  1  0.25000000  0.75000000  0.50000000  1
  Se  Se5  1  0.21799449  0.82155423  0.45088154  1
  Se  Se6  1  0.19859736  0.20755691  0.75694564  1
  Li  Li7  1  0.64504186  0.64378150  0.97588316  1
  Li  Li8  1  0.93253865  0.98710972  0.01633479  1
