# generated using pymatgen
data_Li2YP2Se
_symmetry_space_group_name_H-M   'P 1'
_cell_length_a   5.34230938
_cell_length_b   5.50257667
_cell_length_c   7.02734681
_cell_angle_alpha   94.14726733
_cell_angle_beta   98.83606346
_cell_angle_gamma   105.09825576
_symmetry_Int_Tables_number   1
_chemical_formula_structural   Li2YP2Se
_chemical_formula_sum   'Li2 Y1 P2 Se1'
_cell_volume   195.71017704
_cell_formula_units_Z   1
loop_
 _symmetry_equiv_pos_site_id
 _symmetry_equiv_pos_as_xyz
  1  'x, y, z'
loop_
 _atom_site_type_symbol
 _atom_site_label
 _atom_site_symmetry_multiplicity
 _atom_site_fract_x
 _atom_site_fract_y
 _atom_site_fract_z
 _atom_site_occupancy
  P  P0  1  0.12500000  0.00000000  0.25000000  1
  P  P1  1  0.00000000  0.00000000  0.00000000  1
  Se  Se2  1  0.37500000  0.00000000  0.25000000  1
  Li  Li3  1  0.25000000  0.25000000  0.25000000  1
  Li  Li4  1  0.00000000  0.25000000  0.12500000  1
  Y  Y5  1  0.09277780  0.12637381  0.74646733  1
