# generated using pymatgen
data_LiY2Al3P4Se
_symmetry_space_group_name_H-M   'P 1'
_cell_length_a   6.39750083
_cell_length_b   5.62178711
_cell_length_c   8.21247892
_cell_angle_alpha   92.73981807
_cell_angle_beta   95.96675416
_cell_angle_gamma   101.00476028
_symmetry_Int_Tables_number   1
_chemical_formula_structural   LiY2Al3P4Se
_chemical_formula_sum   'Li1 Y2 Al3 P4 Se1'
_cell_volume   287.66987504
_cell_formula_units_Z   1
loop_
 _symmetry_equiv_pos_site_id
 _symmetry_equiv_pos_as_xyz
  1  'x, y, z'
loop_
 _atom_site_type_symbol
 _atom_site_label
 _atom_site_symmetry_multiplicity
 _atom_site_fract_x
 _atom_site_fract_y
 _atom_site_fract_z
 _atom_site_occupancy
  Al  Al0  1  0.00000000  0.00000000  0.00000000  1
  Al  Al1  1  0.50000000  0.50000000  0.50000000  1
  Al  Al2  1  0.50000000  0.50000000  0.00000000  1
  Y  Y3  1  0.50000000  0.00000000  0.50000000  1
  Y  Y4  1  0.00000000  0.50000000  0.50000000  1
  P  P5  1  0.67781097  0.75406019  0.43910514  1
  P  P6  1  0.52428629  0.45417672  0.05225022  1
  P  P7  1  0.06547396  0.16619847  0.85969279  1
  P  P8  1  0.76922211  0.89910089  0.20927007  1
  Se  Se9  1  0.75815648  0.81310961  0.88297394  1
  Li  Li10  1  0.60090383  0.40080163  0.77960797  1
