# generated using pymatgen
data_LiF
_symmetry_space_group_name_H-M   'P 1'
_cell_length_a   15.83308304
_cell_length_b   8.56217217
_cell_length_c   10.08727867
_cell_angle_alpha   90.00000000
_cell_angle_beta   90.00000000
_cell_angle_gamma   90.00000000
_symmetry_Int_Tables_number   1
_chemical_formula_structural   LiF
_chemical_formula_sum   'Li44 F44'
_cell_volume   1367.48781281
_cell_formula_units_Z   44
loop_
 _symmetry_equiv_pos_site_id
 _symmetry_equiv_pos_as_xyz
  1  'x, y, z'
loop_
 _atom_site_type_symbol
 _atom_site_label
 _atom_site_symmetry_multiplicity
 _atom_site_fract_x
 _atom_site_fract_y
 _atom_site_fract_z
 _atom_site_occupancy
  F  F0  1  0.87649678  0.38092677  0.02688199  1
  F  F1  1  0.62350322  0.61907323  0.52688199  1
  F  F2  1  0.12350322  0.88092677  0.97311801  1
  F  F3  1  0.37649678  0.11907323  0.47311801  1
  F  F4  1  0.12350322  0.61907323  0.97311801  1
  F  F5  1  0.37649678  0.38092677  0.47311801  1
  F  F6  1  0.87649678  0.11907323  0.02688199  1
  F  F7  1  0.62350322  0.88092677  0.52688199  1
  F  F8  1  0.36596347  0.00601646  0.12779222  1
  F  F9  1  0.13403653  0.99398354  0.62779222  1
  F  F10  1  0.63403653  0.50601646  0.87220778  1
  F  F11  1  0.86596347  0.49398354  0.37220778  1
  F  F12  1  0.63403653  0.99398354  0.87220778  1
  F  F13  1  0.86596347  0.00601646  0.37220778  1
  F  F14  1  0.36596347  0.49398354  0.12779222  1
  F  F15  1  0.13403653  0.50601646  0.62779222  1
  F  F16  1  0.24350576  0.33838980  0.14108806  1
  F  F17  1  0.25649424  0.66161020  0.64108806  1
  F  F18  1  0.75649424  0.83838980  0.85891194  1
  F  F19  1  0.74350576  0.16161020  0.35891194  1
  F  F20  1  0.75649424  0.66161020  0.85891194  1
  F  F21  1  0.74350576  0.33838980  0.35891194  1
  F  F22  1  0.24350576  0.16161020  0.14108806  1
  F  F23  1  0.25649424  0.83838980  0.64108806  1
  F  F24  1  0.49727727  0.41393176  0.76263010  1
  F  F25  1  0.00272273  0.58606824  0.26263010  1
  F  F26  1  0.50272273  0.91393176  0.23736990  1
  F  F27  1  0.99727727  0.08606824  0.73736990  1
  F  F28  1  0.50272273  0.58606824  0.23736990  1
  F  F29  1  0.99727727  0.41393176  0.73736990  1
  F  F30  1  0.49727727  0.08606824  0.76263010  1
  F  F31  1  0.00272273  0.91393176  0.26263010  1
  F  F32  1  0.96883296  0.70898991  0.99634860  1
  F  F33  1  0.53116704  0.29101009  0.49634860  1
  F  F34  1  0.03116704  0.20898991  0.00365140  1
  F  F35  1  0.46883296  0.79101009  0.50365140  1
  F  F36  1  0.03116704  0.29101009  0.00365140  1
  F  F37  1  0.46883296  0.70898991  0.50365140  1
  F  F38  1  0.96883296  0.79101009  0.99634860  1
  F  F39  1  0.53116704  0.20898991  0.49634860  1
  F  F40  1  0.57058839  0.25000000  0.79276496  1
  F  F41  1  0.92941161  0.75000000  0.29276496  1
  F  F42  1  0.42941161  0.75000000  0.20723504  1
  F  F43  1  0.07058839  0.25000000  0.70723504  1
  Li  Li44  1  0.27661352  0.50342124  0.64249292  1
  Li  Li45  1  0.22338648  -0.50342124  1.14249292  1
  Li  Li46  1  -0.27661352  1.00342124  -0.64249292  1
  Li  Li47  1  0.77661352  -0.00342124  -0.14249292  1
  Li  Li48  1  -0.27661352  -0.50342124  -0.64249292  1
  Li  Li49  1  0.77661352  0.50342124  -0.14249292  1
  Li  Li50  1  0.27661352  -0.00342124  0.64249292  1
  Li  Li51  1  0.22338648  1.00342124  1.14249292  1
  Li  Li52  1  0.73289221  0.60728106  0.70264597  1
  Li  Li53  1  0.76710779  0.39271894  0.20264597  1
  Li  Li54  1  0.26710779  0.10728106  0.29735403  1
  Li  Li55  1  0.23289221  0.89271894  0.79735403  1
  Li  Li56  1  0.26710779  0.39271894  0.29735403  1
  Li  Li57  1  0.23289221  0.60728106  0.79735403  1
  Li  Li58  1  0.73289221  0.89271894  0.70264597  1
  Li  Li59  1  0.76710779  0.10728106  0.20264597  1
  Li  Li60  1  0.00000000  0.00000000  0.00000000  1
  Li  Li61  1  0.50000000  0.00000000  0.50000000  1
  Li  Li62  1  0.00000000  0.50000000  -0.00000000  1
  Li  Li63  1  0.50000000  0.50000000  0.50000000  1
  Li  Li64  1  0.00000000  0.00000000  0.50000000  1
  Li  Li65  1  0.50000000  0.00000000  0.00000000  1
  Li  Li66  1  0.00000000  0.50000000  0.50000000  1
  Li  Li67  1  0.50000000  0.50000000  0.00000000  1
  Li  Li68  1  0.30698439  0.43815470  0.44547921  1
  Li  Li69  1  0.19301561  0.56184530  0.94547921  1
  Li  Li70  1  0.69301561  0.93815470  0.55452079  1
  Li  Li71  1  0.80698439  0.06184530  0.05452079  1
  Li  Li72  1  0.69301561  0.56184530  0.55452079  1
  Li  Li73  1  0.80698439  0.43815470  0.05452079  1
  Li  Li74  1  0.30698439  0.06184530  0.44547921  1
  Li  Li75  1  0.19301561  0.93815470  0.94547921  1
  Li  Li76  1  0.50309610  0.46330079  0.17718597  1
  Li  Li77  1  0.99690390  0.53669921  0.67718597  1
  Li  Li78  1  0.49690390  0.96330079  0.82281403  1
  Li  Li79  1  0.00309610  0.03669921  0.32281403  1
  Li  Li80  1  0.49690390  0.53669921  0.82281403  1
  Li  Li81  1  0.00309610  0.46330079  0.32281403  1
  Li  Li82  1  0.50309610  0.03669921  0.17718597  1
  Li  Li83  1  0.99690390  0.96330079  0.67718597  1
  Li  Li84  1  0.82941705  0.25000000  0.27284411  1
  Li  Li85  1  0.67058295  0.75000000  0.77284411  1
  Li  Li86  1  0.17058295  0.75000000  0.72715589  1
  Li  Li87  1  0.32941705  0.25000000  0.22715589  1
