# generated using pymatgen
data_Li3Y2As4P3Se
_symmetry_space_group_name_H-M   'P 1'
_cell_length_a   5.80157425
_cell_length_b   6.01484804
_cell_length_c   7.18342314
_cell_angle_alpha   92.73438506
_cell_angle_beta   96.26550702
_cell_angle_gamma   101.35795145
_symmetry_Int_Tables_number   1
_chemical_formula_structural   Li3Y2As4P3Se
_chemical_formula_sum   'Li3 Y2 As4 P3 Se1'
_cell_volume   243.67606782
_cell_formula_units_Z   1
loop_
 _symmetry_equiv_pos_site_id
 _symmetry_equiv_pos_as_xyz
  1  'x, y, z'
loop_
 _atom_site_type_symbol
 _atom_site_label
 _atom_site_symmetry_multiplicity
 _atom_site_fract_x
 _atom_site_fract_y
 _atom_site_fract_z
 _atom_site_occupancy
  Se  Se0  1  0.12500000  0.00000000  0.25000000  1
  P  P1  1  0.00000000  0.00000000  0.00000000  1
  P  P2  1  0.37500000  0.00000000  0.25000000  1
  P  P3  1  0.25000000  0.25000000  0.25000000  1
  As  As4  1  0.00000000  0.25000000  0.12500000  1
  As  As5  1  0.98736822  0.71194491  0.84395842  1
  As  As6  1  0.56748094  0.08004098  0.75327954  1
  As  As7  1  0.60963632  0.44991015  0.01285140  1
  Li  Li8  1  0.04449070  0.18871252  0.15662089  1
  Li  Li9  1  0.66962666  0.66228125  0.99763355  1
  Li  Li10  1  0.65121777  0.24563613  0.67097465  1
  Y  Y11  1  0.93437369  0.92425088  0.57241213  1
  Y  Y12  1  0.75726593  0.05931682  0.24824681  1
