# generated using pymatgen
data_Li2Y2MoP3Se2
_symmetry_space_group_name_H-M   'P 1'
_cell_length_a   5.28548735
_cell_length_b   5.55025653
_cell_length_c   7.29230317
_cell_angle_alpha   94.31200713
_cell_angle_beta   99.39065508
_cell_angle_gamma   107.31961886
_symmetry_Int_Tables_number   1
_chemical_formula_structural   Li2Y2MoP3Se2
_chemical_formula_sum   'Li2 Y2 Mo1 P3 Se2'
_cell_volume   199.74207243
_cell_formula_units_Z   1
loop_
 _symmetry_equiv_pos_site_id
 _symmetry_equiv_pos_as_xyz
  1  'x, y, z'
loop_
 _atom_site_type_symbol
 _atom_site_label
 _atom_site_symmetry_multiplicity
 _atom_site_fract_x
 _atom_site_fract_y
 _atom_site_fract_z
 _atom_site_occupancy
  Se  Se0  1  0.00000000  0.00000000  0.00000000  1
  Se  Se1  1  0.50000000  0.50000000  0.50000000  1
  Y  Y2  1  0.25000000  0.25000000  0.25000000  1
  Y  Y3  1  0.75000000  0.25000000  0.00000000  1
  P  P4  1  0.25000000  0.75000000  0.50000000  1
  P  P5  1  0.03810574  0.65681999  0.65024374  1
  P  P6  1  0.71635809  0.73736602  0.00572543  1
  Mo  Mo7  1  0.59250809  0.79081994  0.57966968  1
  Li  Li8  1  0.28414341  0.68766579  0.03529765  1
  Li  Li9  1  0.16249128  0.84105380  0.74450827  1
