# generated using pymatgen
data_K4Li6Ti(Se2F3)2
_symmetry_space_group_name_H-M   'P 1'
_cell_length_a   12.79121822
_cell_length_b   14.94217742
_cell_length_c   10.96271067
_cell_angle_alpha   90.00000000
_cell_angle_beta   90.00000000
_cell_angle_gamma   90.00000000
_symmetry_Int_Tables_number   1
_chemical_formula_structural   K4Li6Ti(Se2F3)2
_chemical_formula_sum   'K16 Li24 Ti4 Se16 F24'
_cell_volume   2095.28811390
_cell_formula_units_Z   4
loop_
 _symmetry_equiv_pos_site_id
 _symmetry_equiv_pos_as_xyz
  1  'x, y, z'
loop_
 _atom_site_type_symbol
 _atom_site_label
 _atom_site_symmetry_multiplicity
 _atom_site_fract_x
 _atom_site_fract_y
 _atom_site_fract_z
 _atom_site_occupancy
  F  F0  1  0.18733778  0.19099993  0.19433507  1
  F  F1  1  0.31266222  0.80900007  0.69433507  1
  F  F2  1  0.81266222  0.69099993  0.80566493  1
  F  F3  1  0.68733778  0.30900007  0.30566493  1
  F  F4  1  0.81266222  0.80900007  0.80566493  1
  F  F5  1  0.68733778  0.19099993  0.30566493  1
  F  F6  1  0.18733778  0.30900007  0.19433507  1
  F  F7  1  0.31266222  0.69099993  0.69433507  1
  F  F8  1  0.85833563  0.10512717  0.58058937  1
  F  F9  1  0.64166437  0.89487283  0.08058937  1
  F  F10  1  0.14166437  0.60512717  0.41941063  1
  F  F11  1  0.35833563  0.39487283  0.91941063  1
  F  F12  1  0.14166437  0.89487283  0.41941063  1
  F  F13  1  0.35833563  0.10512717  0.91941063  1
  F  F14  1  0.85833563  0.39487283  0.58058937  1
  F  F15  1  0.64166437  0.60512717  0.08058937  1
  F  F16  1  0.45258467  0.28582781  0.13264964  1
  F  F17  1  0.04741533  0.71417219  0.63264964  1
  F  F18  1  0.54741533  0.78582781  0.86735036  1
  F  F19  1  0.95258467  0.21417219  0.36735036  1
  F  F20  1  0.54741533  0.71417219  0.86735036  1
  F  F21  1  0.95258467  0.28582781  0.36735036  1
  F  F22  1  0.45258467  0.21417219  0.13264964  1
  F  F23  1  0.04741533  0.78582781  0.63264964  1
  K  K24  1  0.77824825  0.15905385  0.51680816  1
  K  K25  1  0.72175175  0.84094615  0.01680816  1
  K  K26  1  0.22175175  0.65905385  0.48319184  1
  K  K27  1  0.27824825  0.34094615  0.98319184  1
  K  K28  1  0.22175175  0.84094615  0.48319184  1
  K  K29  1  0.27824825  0.15905385  0.98319184  1
  K  K30  1  0.77824825  0.34094615  0.51680816  1
  K  K31  1  0.72175175  0.65905385  0.01680816  1
  K  K32  1  0.77892304  0.25000000  0.09708212  1
  K  K33  1  0.72107696  0.75000000  0.59708212  1
  K  K34  1  0.22107696  0.75000000  0.90291788  1
  K  K35  1  0.27892304  0.25000000  0.40291788  1
  K  K36  1  0.02796680  0.25000000  0.83657995  1
  K  K37  1  0.47203320  0.75000000  0.33657995  1
  K  K38  1  0.97203320  0.75000000  0.16342005  1
  K  K39  1  0.52796680  0.25000000  0.66342005  1
  Li  Li40  1  0.00000000  0.00000000  0.50000000  1
  Li  Li41  1  0.50000000  -0.00000000  0.00000000  1
  Li  Li42  1  0.00000000  0.50000000  0.50000000  1
  Li  Li43  1  0.50000000  0.50000000  0.00000000  1
  Li  Li44  1  0.68031550  0.64227181  0.22225589  1
  Li  Li45  1  -0.18031550  -0.64227181  0.72225589  1
  Li  Li46  1  -0.68031550  1.14227181  -0.22225589  1
  Li  Li47  1  1.18031550  -0.14227181  0.27774411  1
  Li  Li48  1  -0.68031550  -0.64227181  -0.22225589  1
  Li  Li49  1  1.18031550  0.64227181  0.27774411  1
  Li  Li50  1  0.68031550  -0.14227181  0.22225589  1
  Li  Li51  1  -0.18031550  1.14227181  0.72225589  1
  Li  Li52  1  0.42924971  0.52770791  0.83608615  1
  Li  Li53  1  0.07075029  0.47229209  0.33608615  1
  Li  Li54  1  0.57075029  0.02770791  0.16391385  1
  Li  Li55  1  0.92924971  0.97229209  0.66391385  1
  Li  Li56  1  0.57075029  0.47229209  0.16391385  1
  Li  Li57  1  0.92924971  0.52770791  0.66391385  1
  Li  Li58  1  0.42924971  0.97229209  0.83608615  1
  Li  Li59  1  0.07075029  0.02770791  0.33608615  1
  Li  Li60  1  0.00000000  0.00000000  0.00000000  1
  Li  Li61  1  0.50000000  -0.00000000  0.50000000  1
  Li  Li62  1  0.00000000  0.50000000  0.00000000  1
  Li  Li63  1  0.50000000  0.50000000  0.50000000  1
  Se  Se64  1  0.12404139  0.25000000  0.18303584  1
  Se  Se65  1  0.37595861  0.75000000  0.68303584  1
  Se  Se66  1  0.87595861  0.75000000  0.81696416  1
  Se  Se67  1  0.62404139  0.25000000  0.31696416  1
  Se  Se68  1  0.41479572  0.38470449  0.20421357  1
  Se  Se69  1  0.08520428  0.61529551  0.70421357  1
  Se  Se70  1  0.58520428  0.88470449  0.79578643  1
  Se  Se71  1  0.91479572  0.11529551  0.29578643  1
  Se  Se72  1  0.58520428  0.61529551  0.79578643  1
  Se  Se73  1  0.91479572  0.38470449  0.29578643  1
  Se  Se74  1  0.41479572  0.11529551  0.20421357  1
  Se  Se75  1  0.08520428  0.88470449  0.70421357  1
  Se  Se76  1  0.52061854  0.25000000  0.83850149  1
  Se  Se77  1  0.97938146  0.75000000  0.33850149  1
  Se  Se78  1  0.47938146  0.75000000  0.16149851  1
  Se  Se79  1  0.02061854  0.25000000  0.66149851  1
  Ti  Ti80  1  0.96904523  0.25000000  0.46179783  1
  Ti  Ti81  1  0.53095477  0.75000000  0.96179783  1
  Ti  Ti82  1  0.03095477  0.75000000  0.53820217  1
  Ti  Ti83  1  0.46904523  0.25000000  0.03820217  1
