# generated using pymatgen
data_Li3(YP2)2
_symmetry_space_group_name_H-M   'P 1'
_cell_length_a   4.69951800
_cell_length_b   5.00875930
_cell_length_c   7.07219404
_cell_angle_alpha   95.24983546
_cell_angle_beta   101.43305021
_cell_angle_gamma   111.08650254
_symmetry_Int_Tables_number   1
_chemical_formula_structural   Li3(YP2)2
_chemical_formula_sum   'Li3 Y2 P4'
_cell_volume   149.80929174
_cell_formula_units_Z   1
loop_
 _symmetry_equiv_pos_site_id
 _symmetry_equiv_pos_as_xyz
  1  'x, y, z'
loop_
 _atom_site_type_symbol
 _atom_site_label
 _atom_site_symmetry_multiplicity
 _atom_site_fract_x
 _atom_site_fract_y
 _atom_site_fract_z
 _atom_site_occupancy
  Y  Y0  1  0.12500000  0.00000000  0.25000000  1
  Y  Y1  1  0.00000000  0.00000000  0.00000000  1
  P  P2  1  0.37500000  0.00000000  0.25000000  1
  P  P3  1  0.25000000  0.25000000  0.25000000  1
  P  P4  1  0.00000000  0.25000000  0.12500000  1
  P  P5  1  0.76887720  0.80898727  0.52170756  1
  Li  Li6  1  0.09675351  0.03554800  0.74519575  1
  Li  Li7  1  0.04636478  0.71428501  0.41045961  1
  Li  Li8  1  0.26115140  0.12264979  0.82582195  1
