# generated using pymatgen
data_LiF
_symmetry_space_group_name_H-M   'P 1'
_cell_length_a   4.48298774
_cell_length_b   4.48298774
_cell_length_c   18.74004661
_cell_angle_alpha   90.00000000
_cell_angle_beta   90.00000000
_cell_angle_gamma   120.00000000
_symmetry_Int_Tables_number   1
_chemical_formula_structural   LiF
_chemical_formula_sum   'Li12 F12'
_cell_volume   326.16428299
_cell_formula_units_Z   12
loop_
 _symmetry_equiv_pos_site_id
 _symmetry_equiv_pos_as_xyz
  1  'x, y, z'
loop_
 _atom_site_type_symbol
 _atom_site_label
 _atom_site_symmetry_multiplicity
 _atom_site_fract_x
 _atom_site_fract_y
 _atom_site_fract_z
 _atom_site_occupancy
  F  F0  1  0.00000000  0.00000000  0.00000000  1
  F  F1  1  0.00000000  0.00000000  0.50000000  1
  F  F2  1  0.41558543  0.83117085  0.25000000  1
  F  F3  1  0.16882915  0.58441457  0.25000000  1
  F  F4  1  0.41558543  0.58441457  0.25000000  1
  F  F5  1  0.58441457  0.16882915  0.75000000  1
  F  F6  1  0.83117085  0.41558543  0.75000000  1
  F  F7  1  0.58441457  0.41558543  0.75000000  1
  F  F8  1  0.33333333  0.66666667  0.10091160  1
  F  F9  1  0.66666667  0.33333333  0.60091160  1
  F  F10  1  0.66666667  0.33333333  0.89908840  1
  F  F11  1  0.33333333  0.66666667  0.39908840  1
  Li  Li12  1  0.44292127  0.88584254  0.90547625  1
  Li  Li13  1  -0.88584254  -0.44292127  0.90547625  1
  Li  Li14  1  0.44292127  -0.44292127  0.90547625  1
  Li  Li15  1  -0.44292127  -0.88584254  1.40547625  1
  Li  Li16  1  0.88584254  0.44292127  1.40547625  1
  Li  Li17  1  -0.44292127  0.44292127  1.40547625  1
  Li  Li18  1  0.88584254  0.44292127  -0.90547625  1
  Li  Li19  1  -0.44292127  -0.88584254  -0.90547625  1
  Li  Li20  1  -0.44292127  0.44292127  -0.90547625  1
  Li  Li21  1  -0.88584254  -0.44292127  -0.40547625  1
  Li  Li22  1  0.44292127  0.88584254  -0.40547625  1
  Li  Li23  1  0.44292127  -0.44292127  -0.40547625  1
