# generated using pymatgen
data_Li2Y2As3P2Se
_symmetry_space_group_name_H-M   'P 1'
_cell_length_a   5.23666753
_cell_length_b   5.31434997
_cell_length_c   7.03178765
_cell_angle_alpha   94.44640024
_cell_angle_beta   99.68333533
_cell_angle_gamma   107.85942256
_symmetry_Int_Tables_number   1
_chemical_formula_structural   Li2Y2As3P2Se
_chemical_formula_sum   'Li2 Y2 As3 P2 Se1'
_cell_volume   181.86055336
_cell_formula_units_Z   1
loop_
 _symmetry_equiv_pos_site_id
 _symmetry_equiv_pos_as_xyz
  1  'x, y, z'
loop_
 _atom_site_type_symbol
 _atom_site_label
 _atom_site_symmetry_multiplicity
 _atom_site_fract_x
 _atom_site_fract_y
 _atom_site_fract_z
 _atom_site_occupancy
  Se  Se0  1  0.12500000  0.00000000  0.25000000  1
  P  P1  1  0.00000000  0.00000000  0.00000000  1
  P  P2  1  0.37500000  0.00000000  0.25000000  1
  As  As3  1  0.25000000  0.25000000  0.25000000  1
  As  As4  1  0.00000000  0.25000000  0.12500000  1
  As  As5  1  0.19450037  0.54521191  0.09944597  1
  Li  Li6  1  0.94016970  0.79548386  0.41948163  1
  Li  Li7  1  0.13343468  0.15607854  0.52482397  1
  Y  Y8  1  0.37811078  0.24954899  0.78914116  1
  Y  Y9  1  0.36245842  0.09621478  0.04151595  1
