# generated using pymatgen
data_LiY2Sb2PSe
_symmetry_space_group_name_H-M   'P 1'
_cell_length_a   4.72107576
_cell_length_b   4.78319698
_cell_length_c   6.41081186
_cell_angle_alpha   94.76410535
_cell_angle_beta   98.58418375
_cell_angle_gamma   106.32668162
_symmetry_Int_Tables_number   1
_chemical_formula_structural   LiY2Sb2PSe
_chemical_formula_sum   'Li1 Y2 Sb2 P1 Se1'
_cell_volume   136.17636470
_cell_formula_units_Z   1
loop_
 _symmetry_equiv_pos_site_id
 _symmetry_equiv_pos_as_xyz
  1  'x, y, z'
loop_
 _atom_site_type_symbol
 _atom_site_label
 _atom_site_symmetry_multiplicity
 _atom_site_fract_x
 _atom_site_fract_y
 _atom_site_fract_z
 _atom_site_occupancy
  Se  Se0  1  0.12500000  0.00000000  0.25000000  1
  P  P1  1  0.00000000  0.00000000  0.00000000  1
  Li  Li2  1  0.37500000  0.00000000  0.25000000  1
  Y  Y3  1  0.25000000  0.25000000  0.25000000  1
  Y  Y4  1  0.00000000  0.25000000  0.12500000  1
  Sb  Sb5  1  0.70426035  0.24404584  0.90852792  1
  Sb  Sb6  1  0.79524651  0.70175318  0.75099703  1
