# generated using pymatgen
data_Li2YP3(PbSe)2
_symmetry_space_group_name_H-M   'P 1'
_cell_length_a   5.36345732
_cell_length_b   5.43229680
_cell_length_c   7.37173265
_cell_angle_alpha   95.64799378
_cell_angle_beta   101.11988960
_cell_angle_gamma   106.95003279
_symmetry_Int_Tables_number   1
_chemical_formula_structural   Li2YP3(PbSe)2
_chemical_formula_sum   'Li2 Y1 P3 Pb2 Se2'
_cell_volume   198.83951145
_cell_formula_units_Z   1
loop_
 _symmetry_equiv_pos_site_id
 _symmetry_equiv_pos_as_xyz
  1  'x, y, z'
loop_
 _atom_site_type_symbol
 _atom_site_label
 _atom_site_symmetry_multiplicity
 _atom_site_fract_x
 _atom_site_fract_y
 _atom_site_fract_z
 _atom_site_occupancy
  Pb  Pb0  1  0.12500000  0.00000000  0.25000000  1
  Pb  Pb1  1  0.00000000  0.00000000  0.00000000  1
  Se  Se2  1  0.37500000  0.00000000  0.25000000  1
  Se  Se3  1  0.25000000  0.25000000  0.25000000  1
  Y  Y4  1  0.00000000  0.25000000  0.12500000  1
  P  P5  1  0.32747255  0.54253839  0.32788157  1
  P  P6  1  0.80666515  0.72074731  0.47962905  1
  P  P7  1  0.52778680  0.77817055  0.47152856  1
  Li  Li8  1  0.75118779  0.09714149  0.90862376  1
  Li  Li9  1  0.70402693  0.26867478  0.18380518  1
