# generated using pymatgen
data_Li2Te4P3Se
_symmetry_space_group_name_H-M   'P 1'
_cell_length_a   5.66249584
_cell_length_b   5.96251859
_cell_length_c   7.12589290
_cell_angle_alpha   92.83330805
_cell_angle_beta   96.60812634
_cell_angle_gamma   101.90885514
_symmetry_Int_Tables_number   1
_chemical_formula_structural   Li2Te4P3Se
_chemical_formula_sum   'Li2 Te4 P3 Se1'
_cell_volume   233.18380877
_cell_formula_units_Z   1
loop_
 _symmetry_equiv_pos_site_id
 _symmetry_equiv_pos_as_xyz
  1  'x, y, z'
loop_
 _atom_site_type_symbol
 _atom_site_label
 _atom_site_symmetry_multiplicity
 _atom_site_fract_x
 _atom_site_fract_y
 _atom_site_fract_z
 _atom_site_occupancy
  Se  Se0  1  0.00000000  0.00000000  0.00000000  1
  Te  Te1  1  0.50000000  0.50000000  0.50000000  1
  Te  Te2  1  0.25000000  0.25000000  0.25000000  1
  Te  Te3  1  0.75000000  0.25000000  0.00000000  1
  Te  Te4  1  0.25000000  0.75000000  0.50000000  1
  P  P5  1  0.23857494  0.59565541  0.32325984  1
  P  P6  1  0.80081456  0.37091556  0.89586152  1
  P  P7  1  0.11612939  0.29824570  0.43853925  1
  Li  Li8  1  0.81682749  0.13307312  0.56770466  1
  Li  Li9  1  0.37354575  0.55068233  0.21303722  1
