# generated using pymatgen
data_Li2Hf4(Se2S)3
_symmetry_space_group_name_H-M   'P 1'
_cell_length_a   15.84136949
_cell_length_b   15.84136949
_cell_length_c   26.04111895
_cell_angle_alpha   90.00000000
_cell_angle_beta   90.00000000
_cell_angle_gamma   90.00000000
_symmetry_Int_Tables_number   1
_chemical_formula_structural   Li2Hf4(Se2S)3
_chemical_formula_sum   'Li48 Hf96 Se144 S72'
_cell_volume   6534.99242862
_cell_formula_units_Z   24
loop_
 _symmetry_equiv_pos_site_id
 _symmetry_equiv_pos_as_xyz
  1  'x, y, z'
loop_
 _atom_site_type_symbol
 _atom_site_label
 _atom_site_symmetry_multiplicity
 _atom_site_fract_x
 _atom_site_fract_y
 _atom_site_fract_z
 _atom_site_occupancy
  Hf  Hf0  1  0.52213134  0.06903136  0.07354470  1
  Hf  Hf1  1  -0.02213134  -0.06903136  0.57354470  1
  Hf  Hf2  1  0.18096864  1.27213134  0.32354470  1
  Hf  Hf3  1  0.31903136  -0.27213134  0.82354470  1
  Hf  Hf4  1  -0.02213134  0.06903136  -0.07354470  1
  Hf  Hf5  1  0.52213134  -0.06903136  0.42645530  1
  Hf  Hf6  1  0.31903136  1.27213134  0.67645530  1
  Hf  Hf7  1  0.18096864  -0.27213134  0.17645530  1
  Hf  Hf8  1  -0.52213134  -0.06903136  -0.07354470  1
  Hf  Hf9  1  1.02213134  0.06903136  0.42645530  1
  Hf  Hf10  1  0.81903136  -0.27213134  0.67645530  1
  Hf  Hf11  1  0.68096864  1.27213134  0.17645530  1
  Hf  Hf12  1  1.02213134  -0.06903136  0.07354470  1
  Hf  Hf13  1  -0.52213134  0.06903136  0.57354470  1
  Hf  Hf14  1  0.68096864  -0.27213134  0.32354470  1
  Hf  Hf15  1  0.81903136  1.27213134  0.82354470  1
  Hf  Hf16  1  1.02213134  0.56903136  0.57354470  1
  Hf  Hf17  1  0.47786866  0.43096864  1.07354470  1
  Hf  Hf18  1  0.68096864  1.77213134  0.82354470  1
  Hf  Hf19  1  0.81903136  0.22786866  1.32354470  1
  Hf  Hf20  1  0.47786866  0.56903136  0.42645530  1
  Hf  Hf21  1  1.02213134  0.43096864  0.92645530  1
  Hf  Hf22  1  0.81903136  1.77213134  1.17645530  1
  Hf  Hf23  1  0.68096864  0.22786866  0.67645530  1
  Hf  Hf24  1  -0.02213134  0.43096864  0.42645530  1
  Hf  Hf25  1  1.52213134  0.56903136  0.92645530  1
  Hf  Hf26  1  1.31903136  0.22786866  1.17645530  1
  Hf  Hf27  1  1.18096864  1.77213134  0.67645530  1
  Hf  Hf28  1  1.52213134  0.43096864  0.57354470  1
  Hf  Hf29  1  -0.02213134  0.56903136  1.07354470  1
  Hf  Hf30  1  1.18096864  0.22786866  0.82354470  1
  Hf  Hf31  1  1.31903136  1.77213134  1.32354470  1
  Hf  Hf32  1  0.30995040  0.82924689  0.87026122  1
  Hf  Hf33  1  0.19004960  0.17075311  0.37026122  1
  Hf  Hf34  1  0.42075311  0.05995040  0.12026122  1
  Hf  Hf35  1  0.07924689  0.94004960  0.62026122  1
  Hf  Hf36  1  0.19004960  0.82924689  0.12973878  1
  Hf  Hf37  1  0.30995040  0.17075311  0.62973878  1
  Hf  Hf38  1  0.07924689  0.05995040  0.87973878  1
  Hf  Hf39  1  0.42075311  0.94004960  0.37973878  1
  Hf  Hf40  1  0.69004960  0.17075311  0.12973878  1
  Hf  Hf41  1  0.80995040  0.82924689  0.62973878  1
  Hf  Hf42  1  0.57924689  0.94004960  0.87973878  1
  Hf  Hf43  1  0.92075311  0.05995040  0.37973878  1
  Hf  Hf44  1  0.80995040  0.17075311  0.87026122  1
  Hf  Hf45  1  0.69004960  0.82924689  0.37026122  1
  Hf  Hf46  1  0.92075311  0.94004960  0.12026122  1
  Hf  Hf47  1  0.57924689  0.05995040  0.62026122  1
  Hf  Hf48  1  0.80995040  0.32924689  0.37026122  1
  Hf  Hf49  1  0.69004960  0.67075311  0.87026122  1
  Hf  Hf50  1  0.92075311  0.55995040  0.62026122  1
  Hf  Hf51  1  0.57924689  0.44004960  0.12026122  1
  Hf  Hf52  1  0.69004960  0.32924689  0.62973878  1
  Hf  Hf53  1  0.80995040  0.67075311  0.12973878  1
  Hf  Hf54  1  0.57924689  0.55995040  0.37973878  1
  Hf  Hf55  1  0.92075311  0.44004960  0.87973878  1
  Hf  Hf56  1  0.19004960  0.67075311  0.62973878  1
  Hf  Hf57  1  0.30995040  0.32924689  0.12973878  1
  Hf  Hf58  1  0.07924689  0.44004960  0.37973878  1
  Hf  Hf59  1  0.42075311  0.55995040  0.87973878  1
  Hf  Hf60  1  0.30995040  0.67075311  0.37026122  1
  Hf  Hf61  1  0.19004960  0.32924689  0.87026122  1
  Hf  Hf62  1  0.42075311  0.44004960  0.62026122  1
  Hf  Hf63  1  0.07924689  0.55995040  0.12026122  1
  Hf  Hf64  1  0.97736820  0.00000000  0.25000000  1
  Hf  Hf65  1  0.52263180  -0.00000000  0.75000000  1
  Hf  Hf66  1  0.25000000  0.72736820  0.50000000  1
  Hf  Hf67  1  0.25000000  0.27263180  0.00000000  1
  Hf  Hf68  1  0.02263180  -0.00000000  0.75000000  1
  Hf  Hf69  1  0.47736820  -0.00000000  0.25000000  1
  Hf  Hf70  1  0.75000000  0.27263180  0.50000000  1
  Hf  Hf71  1  0.75000000  0.72736820  -0.00000000  1
  Hf  Hf72  1  0.47736820  0.50000000  0.75000000  1
  Hf  Hf73  1  0.02263180  0.50000000  0.25000000  1
  Hf  Hf74  1  0.75000000  0.22736820  -0.00000000  1
  Hf  Hf75  1  0.75000000  0.77263180  0.50000000  1
  Hf  Hf76  1  0.52263180  0.50000000  0.25000000  1
  Hf  Hf77  1  0.97736820  0.50000000  0.75000000  1
  Hf  Hf78  1  0.25000000  0.77263180  -0.00000000  1
  Hf  Hf79  1  0.25000000  0.22736820  0.50000000  1
  Hf  Hf80  1  0.00000000  0.00000000  0.00000000  1
  Hf  Hf81  1  0.50000000  0.00000000  0.50000000  1
  Hf  Hf82  1  0.25000000  0.75000000  0.25000000  1
  Hf  Hf83  1  0.25000000  0.25000000  0.75000000  1
  Hf  Hf84  1  0.50000000  0.00000000  -0.00000000  1
  Hf  Hf85  1  0.00000000  0.00000000  0.50000000  1
  Hf  Hf86  1  0.25000000  0.75000000  0.75000000  1
  Hf  Hf87  1  0.25000000  0.25000000  0.25000000  1
  Hf  Hf88  1  0.50000000  0.50000000  0.50000000  1
  Hf  Hf89  1  0.00000000  0.50000000  -0.00000000  1
  Hf  Hf90  1  0.75000000  0.25000000  0.75000000  1
  Hf  Hf91  1  0.75000000  0.75000000  0.25000000  1
  Hf  Hf92  1  0.00000000  0.50000000  0.50000000  1
  Hf  Hf93  1  0.50000000  0.50000000  -0.00000000  1
  Hf  Hf94  1  0.75000000  0.25000000  0.25000000  1
  Hf  Hf95  1  0.75000000  0.75000000  0.75000000  1
  Li  Li96  1  0.62046104  0.67639775  0.21706886  1
  Li  Li97  1  0.87953896  0.32360225  0.71706886  1
  Li  Li98  1  0.57360225  0.37046104  0.46706886  1
  Li  Li99  1  0.92639775  0.62953896  0.96706886  1
  Li  Li100  1  0.87953896  0.67639775  0.78293114  1
  Li  Li101  1  0.62046104  0.32360225  0.28293114  1
  Li  Li102  1  0.92639775  0.37046104  0.53293114  1
  Li  Li103  1  0.57360225  0.62953896  0.03293114  1
  Li  Li104  1  0.37953896  0.32360225  0.78293114  1
  Li  Li105  1  0.12046104  0.67639775  0.28293114  1
  Li  Li106  1  0.42639775  0.62953896  0.53293114  1
  Li  Li107  1  0.07360225  0.37046104  0.03293114  1
  Li  Li108  1  0.12046104  0.32360225  0.21706886  1
  Li  Li109  1  0.37953896  0.67639775  0.71706886  1
  Li  Li110  1  0.07360225  0.62953896  0.46706886  1
  Li  Li111  1  0.42639775  0.37046104  0.96706886  1
  Li  Li112  1  0.12046104  0.17639775  0.71706886  1
  Li  Li113  1  0.37953896  0.82360225  0.21706886  1
  Li  Li114  1  0.07360225  0.87046104  0.96706886  1
  Li  Li115  1  0.42639775  0.12953896  0.46706886  1
  Li  Li116  1  0.37953896  0.17639775  0.28293114  1
  Li  Li117  1  0.12046104  0.82360225  0.78293114  1
  Li  Li118  1  0.42639775  0.87046104  0.03293114  1
  Li  Li119  1  0.07360225  0.12953896  0.53293114  1
  Li  Li120  1  0.87953896  0.82360225  0.28293114  1
  Li  Li121  1  0.62046104  0.17639775  0.78293114  1
  Li  Li122  1  0.92639775  0.12953896  0.03293114  1
  Li  Li123  1  0.57360225  0.87046104  0.53293114  1
  Li  Li124  1  0.62046104  0.82360225  0.71706886  1
  Li  Li125  1  0.87953896  0.17639775  0.21706886  1
  Li  Li126  1  0.57360225  0.12953896  0.96706886  1
  Li  Li127  1  0.92639775  0.87046104  0.46706886  1
  Li  Li128  1  0.00000000  0.25000000  0.99703791  1
  Li  Li129  1  0.00000000  0.75000000  0.24703791  1
  Li  Li130  1  0.50000000  0.25000000  0.00296209  1
  Li  Li131  1  0.50000000  0.75000000  0.75296209  1
  Li  Li132  1  0.00000000  0.75000000  0.00296209  1
  Li  Li133  1  0.00000000  0.25000000  0.75296209  1
  Li  Li134  1  0.50000000  0.75000000  0.99703791  1
  Li  Li135  1  0.50000000  0.25000000  0.24703791  1
  Li  Li136  1  0.50000000  0.75000000  0.49703791  1
  Li  Li137  1  0.50000000  0.25000000  0.74703791  1
  Li  Li138  1  0.00000000  0.75000000  0.50296209  1
  Li  Li139  1  0.00000000  0.25000000  0.25296209  1
  Li  Li140  1  0.50000000  0.25000000  0.50296209  1
  Li  Li141  1  0.50000000  0.75000000  0.25296209  1
  Li  Li142  1  0.00000000  0.25000000  0.49703791  1
  Li  Li143  1  0.00000000  0.75000000  0.74703791  1
  S  S144  1  0.17556512  0.81451168  0.38553851  1
  S  S145  1  0.32443488  0.18548832  0.88553851  1
  S  S146  1  0.43548832  0.92556512  0.63553851  1
  S  S147  1  0.06451168  0.07443488  0.13553851  1
  S  S148  1  0.32443488  0.81451168  0.61446149  1
  S  S149  1  0.17556512  0.18548832  0.11446149  1
  S  S150  1  0.06451168  0.92556512  0.36446149  1
  S  S151  1  0.43548832  0.07443488  0.86446149  1
  S  S152  1  0.82443488  0.18548832  0.61446149  1
  S  S153  1  0.67556512  0.81451168  0.11446149  1
  S  S154  1  0.56451168  0.07443488  0.36446149  1
  S  S155  1  0.93548832  0.92556512  0.86446149  1
  S  S156  1  0.67556512  0.18548832  0.38553851  1
  S  S157  1  0.82443488  0.81451168  0.88553851  1
  S  S158  1  0.93548832  0.07443488  0.63553851  1
  S  S159  1  0.56451168  0.92556512  0.13553851  1
  S  S160  1  0.67556512  0.31451168  0.88553851  1
  S  S161  1  0.82443488  0.68548832  0.38553851  1
  S  S162  1  0.93548832  0.42556512  0.13553851  1
  S  S163  1  0.56451168  0.57443488  0.63553851  1
  S  S164  1  0.82443488  0.31451168  0.11446149  1
  S  S165  1  0.67556512  0.68548832  0.61446149  1
  S  S166  1  0.56451168  0.42556512  0.86446149  1
  S  S167  1  0.93548832  0.57443488  0.36446149  1
  S  S168  1  0.32443488  0.68548832  0.11446149  1
  S  S169  1  0.17556512  0.31451168  0.61446149  1
  S  S170  1  0.06451168  0.57443488  0.86446149  1
  S  S171  1  0.43548832  0.42556512  0.36446149  1
  S  S172  1  0.17556512  0.68548832  0.88553851  1
  S  S173  1  0.32443488  0.31451168  0.38553851  1
  S  S174  1  0.43548832  0.57443488  0.13553851  1
  S  S175  1  0.06451168  0.42556512  0.63553851  1
  S  S176  1  0.31467476  0.90779271  0.28025810  1
  S  S177  1  0.18532524  0.09220729  0.78025810  1
  S  S178  1  0.34220729  0.06467476  0.53025810  1
  S  S179  1  0.15779271  0.93532524  0.03025810  1
  S  S180  1  0.18532524  0.90779271  0.71974190  1
  S  S181  1  0.31467476  0.09220729  0.21974190  1
  S  S182  1  0.15779271  0.06467476  0.46974190  1
  S  S183  1  0.34220729  0.93532524  0.96974190  1
  S  S184  1  0.68532524  0.09220729  0.71974190  1
  S  S185  1  0.81467476  0.90779271  0.21974190  1
  S  S186  1  0.65779271  0.93532524  0.46974190  1
  S  S187  1  0.84220729  0.06467476  0.96974190  1
  S  S188  1  0.81467476  0.09220729  0.28025810  1
  S  S189  1  0.68532524  0.90779271  0.78025810  1
  S  S190  1  0.84220729  0.93532524  0.53025810  1
  S  S191  1  0.65779271  0.06467476  0.03025810  1
  S  S192  1  0.81467476  0.40779271  0.78025810  1
  S  S193  1  0.68532524  0.59220729  0.28025810  1
  S  S194  1  0.84220729  0.56467476  0.03025810  1
  S  S195  1  0.65779271  0.43532524  0.53025810  1
  S  S196  1  0.68532524  0.40779271  0.21974190  1
  S  S197  1  0.81467476  0.59220729  0.71974190  1
  S  S198  1  0.65779271  0.56467476  0.96974190  1
  S  S199  1  0.84220729  0.43532524  0.46974190  1
  S  S200  1  0.18532524  0.59220729  0.21974190  1
  S  S201  1  0.31467476  0.40779271  0.71974190  1
  S  S202  1  0.15779271  0.43532524  0.96974190  1
  S  S203  1  0.34220729  0.56467476  0.46974190  1
  S  S204  1  0.31467476  0.59220729  0.78025810  1
  S  S205  1  0.18532524  0.40779271  0.28025810  1
  S  S206  1  0.34220729  0.43532524  0.03025810  1
  S  S207  1  0.15779271  0.56467476  0.53025810  1
  S  S208  1  0.00000000  0.25000000  0.37500000  1
  S  S209  1  0.00000000  0.75000000  0.62500000  1
  S  S210  1  0.50000000  0.25000000  0.62500000  1
  S  S211  1  0.50000000  0.75000000  0.37500000  1
  S  S212  1  0.50000000  0.75000000  0.87500000  1
  S  S213  1  0.50000000  0.25000000  0.12500000  1
  S  S214  1  0.00000000  0.75000000  0.12500000  1
  S  S215  1  0.00000000  0.25000000  0.87500000  1
  Se  Se216  1  0.39418983  0.64418983  0.12500000  1
  Se  Se217  1  0.10581017  0.35581017  0.62500000  1
  Se  Se218  1  0.60581017  0.14418983  0.37500000  1
  Se  Se219  1  0.89418983  0.85581017  0.87500000  1
  Se  Se220  1  0.60581017  0.35581017  0.87500000  1
  Se  Se221  1  0.89418983  0.64418983  0.37500000  1
  Se  Se222  1  0.39418983  0.85581017  0.62500000  1
  Se  Se223  1  0.10581017  0.14418983  0.12500000  1
  Se  Se224  1  0.89418983  0.14418983  0.62500000  1
  Se  Se225  1  0.60581017  0.85581017  0.12500000  1
  Se  Se226  1  0.10581017  0.64418983  0.87500000  1
  Se  Se227  1  0.39418983  0.35581017  0.37500000  1
  Se  Se228  1  0.10581017  0.85581017  0.37500000  1
  Se  Se229  1  0.39418983  0.14418983  0.87500000  1
  Se  Se230  1  0.89418983  0.35581017  0.12500000  1
  Se  Se231  1  0.60581017  0.64418983  0.62500000  1
  Se  Se232  1  0.19454915  -0.00000000  0.25000000  1
  Se  Se233  1  0.30545085  -0.00000000  0.75000000  1
  Se  Se234  1  0.25000000  0.94454915  0.50000000  1
  Se  Se235  1  0.25000000  0.05545085  -0.00000000  1
  Se  Se236  1  0.80545085  -0.00000000  0.75000000  1
  Se  Se237  1  0.69454915  -0.00000000  0.25000000  1
  Se  Se238  1  0.75000000  0.05545085  0.50000000  1
  Se  Se239  1  0.75000000  0.94454915  -0.00000000  1
  Se  Se240  1  0.69454915  0.50000000  0.75000000  1
  Se  Se241  1  0.80545085  0.50000000  0.25000000  1
  Se  Se242  1  0.75000000  0.44454915  0.00000000  1
  Se  Se243  1  0.75000000  0.55545085  0.50000000  1
  Se  Se244  1  0.30545085  0.50000000  0.25000000  1
  Se  Se245  1  0.19454915  0.50000000  0.75000000  1
  Se  Se246  1  0.25000000  0.55545085  -0.00000000  1
  Se  Se247  1  0.25000000  0.44454915  0.50000000  1
  Se  Se248  1  0.44926752  0.69926752  0.12500000  1
  Se  Se249  1  0.05073248  0.30073248  0.62500000  1
  Se  Se250  1  0.55073248  0.19926752  0.37500000  1
  Se  Se251  1  0.94926752  0.80073248  0.87500000  1
  Se  Se252  1  0.55073248  0.30073248  0.87500000  1
  Se  Se253  1  0.94926752  0.69926752  0.37500000  1
  Se  Se254  1  0.44926752  0.80073248  0.62500000  1
  Se  Se255  1  0.05073248  0.19926752  0.12500000  1
  Se  Se256  1  0.94926752  0.19926752  0.62500000  1
  Se  Se257  1  0.55073248  0.80073248  0.12500000  1
  Se  Se258  1  0.05073248  0.69926752  0.87500000  1
  Se  Se259  1  0.44926752  0.30073248  0.37500000  1
  Se  Se260  1  0.05073248  0.80073248  0.37500000  1
  Se  Se261  1  0.44926752  0.19926752  0.87500000  1
  Se  Se262  1  0.94926752  0.30073248  0.12500000  1
  Se  Se263  1  0.55073248  0.69926752  0.62500000  1
  Se  Se264  1  0.83254646  0.53355746  0.98487196  1
  Se  Se265  1  0.66745354  0.46644254  0.48487196  1
  Se  Se266  1  0.71644254  0.58254646  0.23487196  1
  Se  Se267  1  0.78355746  0.41745354  0.73487196  1
  Se  Se268  1  0.66745354  0.53355746  0.01512804  1
  Se  Se269  1  0.83254646  0.46644254  0.51512804  1
  Se  Se270  1  0.78355746  0.58254646  0.76512804  1
  Se  Se271  1  0.71644254  0.41745354  0.26512804  1
  Se  Se272  1  0.16745354  0.46644254  0.01512804  1
  Se  Se273  1  0.33254646  0.53355746  0.51512804  1
  Se  Se274  1  0.28355746  0.41745354  0.76512804  1
  Se  Se275  1  0.21644254  0.58254646  0.26512804  1
  Se  Se276  1  0.33254646  0.46644254  0.98487196  1
  Se  Se277  1  0.16745354  0.53355746  0.48487196  1
  Se  Se278  1  0.21644254  0.41745354  0.23487196  1
  Se  Se279  1  0.28355746  0.58254646  0.73487196  1
  Se  Se280  1  0.33254646  0.03355746  0.48487196  1
  Se  Se281  1  0.16745354  0.96644254  0.98487196  1
  Se  Se282  1  0.21644254  0.08254646  0.73487196  1
  Se  Se283  1  0.28355746  0.91745354  0.23487196  1
  Se  Se284  1  0.16745354  0.03355746  0.51512804  1
  Se  Se285  1  0.33254646  0.96644254  0.01512804  1
  Se  Se286  1  0.28355746  0.08254646  0.26512804  1
  Se  Se287  1  0.21644254  0.91745354  0.76512804  1
  Se  Se288  1  0.66745354  0.96644254  0.51512804  1
  Se  Se289  1  0.83254646  0.03355746  0.01512804  1
  Se  Se290  1  0.78355746  0.91745354  0.26512804  1
  Se  Se291  1  0.71644254  0.08254646  0.76512804  1
  Se  Se292  1  0.83254646  0.96644254  0.48487196  1
  Se  Se293  1  0.66745354  0.03355746  0.98487196  1
  Se  Se294  1  0.71644254  0.91745354  0.73487196  1
  Se  Se295  1  0.78355746  0.08254646  0.23487196  1
  Se  Se296  1  0.57888007  0.76148260  0.49943305  1
  Se  Se297  1  0.92111993  0.23851740  0.99943305  1
  Se  Se298  1  0.48851740  0.32888007  0.74943305  1
  Se  Se299  1  0.01148260  0.67111993  0.24943305  1
  Se  Se300  1  0.92111993  0.76148260  0.50056695  1
  Se  Se301  1  0.57888007  0.23851740  0.00056695  1
  Se  Se302  1  0.01148260  0.32888007  0.25056695  1
  Se  Se303  1  0.48851740  0.67111993  0.75056695  1
  Se  Se304  1  0.42111993  0.23851740  0.50056695  1
  Se  Se305  1  0.07888007  0.76148260  0.00056695  1
  Se  Se306  1  0.51148260  0.67111993  0.25056695  1
  Se  Se307  1  0.98851740  0.32888007  0.75056695  1
  Se  Se308  1  0.07888007  0.23851740  0.49943305  1
  Se  Se309  1  0.42111993  0.76148260  0.99943305  1
  Se  Se310  1  0.98851740  0.67111993  0.74943305  1
  Se  Se311  1  0.51148260  0.32888007  0.24943305  1
  Se  Se312  1  0.07888007  0.26148260  0.99943305  1
  Se  Se313  1  0.42111993  0.73851740  0.49943305  1
  Se  Se314  1  0.98851740  0.82888007  0.24943305  1
  Se  Se315  1  0.51148260  0.17111993  0.74943305  1
  Se  Se316  1  0.42111993  0.26148260  0.00056695  1
  Se  Se317  1  0.07888007  0.73851740  0.50056695  1
  Se  Se318  1  0.51148260  0.82888007  0.75056695  1
  Se  Se319  1  0.98851740  0.17111993  0.25056695  1
  Se  Se320  1  0.92111993  0.73851740  0.00056695  1
  Se  Se321  1  0.57888007  0.26148260  0.50056695  1
  Se  Se322  1  0.01148260  0.17111993  0.75056695  1
  Se  Se323  1  0.48851740  0.82888007  0.25056695  1
  Se  Se324  1  0.57888007  0.73851740  0.99943305  1
  Se  Se325  1  0.92111993  0.26148260  0.49943305  1
  Se  Se326  1  0.48851740  0.17111993  0.24943305  1
  Se  Se327  1  0.01148260  0.82888007  0.74943305  1
  Se  Se328  1  0.00000000  0.25000000  0.92685371  1
  Se  Se329  1  0.00000000  0.75000000  0.17685371  1
  Se  Se330  1  0.50000000  0.25000000  0.07314629  1
  Se  Se331  1  0.50000000  0.75000000  0.82314629  1
  Se  Se332  1  0.00000000  0.75000000  0.07314629  1
  Se  Se333  1  0.00000000  0.25000000  0.82314629  1
  Se  Se334  1  0.50000000  0.75000000  0.92685371  1
  Se  Se335  1  0.50000000  0.25000000  0.17685371  1
  Se  Se336  1  0.50000000  0.75000000  0.42685371  1
  Se  Se337  1  0.50000000  0.25000000  0.67685371  1
  Se  Se338  1  0.00000000  0.75000000  0.57314629  1
  Se  Se339  1  0.00000000  0.25000000  0.32314629  1
  Se  Se340  1  0.50000000  0.25000000  0.57314629  1
  Se  Se341  1  0.50000000  0.75000000  0.32314629  1
  Se  Se342  1  0.00000000  0.25000000  0.42685371  1
  Se  Se343  1  0.00000000  0.75000000  0.67685371  1
  Se  Se344  1  0.95899421  0.20899421  0.12500000  1
  Se  Se345  1  0.54100579  0.79100579  0.62500000  1
  Se  Se346  1  0.04100579  0.70899421  0.37500000  1
  Se  Se347  1  0.45899421  0.29100579  0.87500000  1
  Se  Se348  1  0.04100579  0.79100579  0.87500000  1
  Se  Se349  1  0.45899421  0.20899421  0.37500000  1
  Se  Se350  1  0.95899421  0.29100579  0.62500000  1
  Se  Se351  1  0.54100579  0.70899421  0.12500000  1
  Se  Se352  1  0.45899421  0.70899421  0.62500000  1
  Se  Se353  1  0.04100579  0.29100579  0.12500000  1
  Se  Se354  1  0.54100579  0.20899421  0.87500000  1
  Se  Se355  1  0.95899421  0.79100579  0.37500000  1
  Se  Se356  1  0.54100579  0.29100579  0.37500000  1
  Se  Se357  1  0.95899421  0.70899421  0.87500000  1
  Se  Se358  1  0.45899421  0.79100579  0.12500000  1
  Se  Se359  1  0.04100579  0.20899421  0.62500000  1
