# generated using pymatgen
data_Li2YP4
_symmetry_space_group_name_H-M   'P 1'
_cell_length_a   5.58719380
_cell_length_b   5.87218069
_cell_length_c   7.44331441
_cell_angle_alpha   93.97916984
_cell_angle_beta   98.46989361
_cell_angle_gamma   105.03067954
_symmetry_Int_Tables_number   1
_chemical_formula_structural   Li2YP4
_chemical_formula_sum   'Li2 Y1 P4'
_cell_volume   231.79598392
_cell_formula_units_Z   1
loop_
 _symmetry_equiv_pos_site_id
 _symmetry_equiv_pos_as_xyz
  1  'x, y, z'
loop_
 _atom_site_type_symbol
 _atom_site_label
 _atom_site_symmetry_multiplicity
 _atom_site_fract_x
 _atom_site_fract_y
 _atom_site_fract_z
 _atom_site_occupancy
  P  P0  1  0.00000000  0.00000000  0.00000000  1
  P  P1  1  0.50000000  0.50000000  0.50000000  1
  P  P2  1  0.25000000  0.25000000  0.25000000  1
  P  P3  1  0.75000000  0.25000000  0.00000000  1
  Li  Li4  1  0.25000000  0.75000000  0.50000000  1
  Li  Li5  1  0.88293037  0.28103216  0.08792163  1
  Y  Y6  1  0.41260493  0.45153649  0.98228655  1
