# generated using pymatgen
data_Li2Y2As4P3
_symmetry_space_group_name_H-M   'P 1'
_cell_length_a   5.00821732
_cell_length_b   5.02074499
_cell_length_c   6.86707635
_cell_angle_alpha   94.68286033
_cell_angle_beta   100.19829624
_cell_angle_gamma   108.80918876
_symmetry_Int_Tables_number   1
_chemical_formula_structural   Li2Y2As4P3
_chemical_formula_sum   'Li2 Y2 As4 P3'
_cell_volume   159.07554350
_cell_formula_units_Z   1
loop_
 _symmetry_equiv_pos_site_id
 _symmetry_equiv_pos_as_xyz
  1  'x, y, z'
loop_
 _atom_site_type_symbol
 _atom_site_label
 _atom_site_symmetry_multiplicity
 _atom_site_fract_x
 _atom_site_fract_y
 _atom_site_fract_z
 _atom_site_occupancy
  P  P0  1  0.12500000  0.12500000  0.12500000  1
  P  P1  1  0.50000000  0.50000000  0.50000000  1
  P  P2  1  0.25000000  0.25000000  0.25000000  1
  As  As3  1  0.75000000  0.75000000  0.75000000  1
  As  As4  1  0.86870986  0.88866690  0.23277935  1
  As  As5  1  0.29904263  0.30889726  0.52385993  1
  As  As6  1  0.31686618  0.87441154  0.25334651  1
  Li  Li7  1  0.59050651  0.12599358  0.44852459  1
  Li  Li8  1  0.34907533  0.73576447  0.41350074  1
  Y  Y9  1  0.00429496  0.13449163  0.47021753  1
  Y  Y10  1  0.14010139  0.50521850  0.82199171  1
