# generated using pymatgen
data_LiF
_symmetry_space_group_name_H-M   'P 1'
_cell_length_a   6.47952267
_cell_length_b   6.47952267
_cell_length_c   14.88954170
_cell_angle_alpha   90.00000000
_cell_angle_beta   90.00000000
_cell_angle_gamma   120.00000000
_symmetry_Int_Tables_number   1
_chemical_formula_structural   LiF
_chemical_formula_sum   'Li36 F36'
_cell_volume   541.37474093
_cell_formula_units_Z   36
loop_
 _symmetry_equiv_pos_site_id
 _symmetry_equiv_pos_as_xyz
  1  'x, y, z'
loop_
 _atom_site_type_symbol
 _atom_site_label
 _atom_site_symmetry_multiplicity
 _atom_site_fract_x
 _atom_site_fract_y
 _atom_site_fract_z
 _atom_site_occupancy
  F  F0  1  0.66666667  0.33333333  0.25000000  1
  F  F1  1  0.33333333  0.66666667  0.75000000  1
  F  F2  1  0.00000000  0.00000000  0.00000000  1
  F  F3  1  0.00000000  0.00000000  0.50000000  1
  F  F4  1  0.50000000  0.00000000  0.00000000  1
  F  F5  1  0.00000000  0.50000000  0.00000000  1
  F  F6  1  0.50000000  0.50000000  0.00000000  1
  F  F7  1  0.50000000  0.00000000  0.50000000  1
  F  F8  1  0.00000000  0.50000000  0.50000000  1
  F  F9  1  0.50000000  0.50000000  0.50000000  1
  F  F10  1  0.78267438  0.25049309  0.25000000  1
  F  F11  1  0.74950691  0.53218129  0.25000000  1
  F  F12  1  0.46781871  0.21732562  0.25000000  1
  F  F13  1  0.21732562  0.74950691  0.75000000  1
  F  F14  1  0.25049309  0.46781871  0.75000000  1
  F  F15  1  0.53218129  0.78267438  0.75000000  1
  F  F16  1  0.68891317  0.48455217  0.08912501  1
  F  F17  1  -0.48455217  0.20436100  0.08912501  1
  F  F18  1  -0.20436100  -0.68891317  0.08912501  1
  F  F19  1  -0.68891317  -0.48455217  0.58912501  1
  F  F20  1  0.48455217  -0.20436100  0.58912501  1
  F  F21  1  0.20436100  0.68891317  0.58912501  1
  F  F22  1  -0.68891317  -0.48455217  -0.08912501  1
  F  F23  1  0.48455217  -0.20436100  -0.08912501  1
  F  F24  1  0.20436100  0.68891317  -0.08912501  1
  F  F25  1  0.68891317  0.48455217  0.41087499  1
  F  F26  1  -0.48455217  0.20436100  0.41087499  1
  F  F27  1  -0.20436100  -0.68891317  0.41087499  1
  F  F28  1  0.86770666  0.84189099  0.25000000  1
  F  F29  1  0.15810901  0.02581567  0.25000000  1
  F  F30  1  0.97418433  0.13229334  0.25000000  1
  F  F31  1  0.13229334  0.15810901  0.75000000  1
  F  F32  1  0.84189099  0.97418433  0.75000000  1
  F  F33  1  0.02581567  0.86770666  0.75000000  1
  F  F34  1  0.33333333  0.66666667  0.25000000  1
  F  F35  1  0.66666667  0.33333333  0.75000000  1
  Li  Li36  1  0.34698813  0.55668059  0.35302891  1
  Li  Li37  1  0.44331941  0.79030754  0.35302891  1
  Li  Li38  1  0.20969246  0.65301187  0.35302891  1
  Li  Li39  1  0.65301187  0.44331941  0.85302891  1
  Li  Li40  1  0.55668059  0.20969246  0.85302891  1
  Li  Li41  1  0.79030754  0.34698813  0.85302891  1
  Li  Li42  1  0.65301187  0.44331941  0.64697109  1
  Li  Li43  1  0.55668059  0.20969246  0.64697109  1
  Li  Li44  1  0.79030754  0.34698813  0.64697109  1
  Li  Li45  1  0.34698813  0.55668059  0.14697109  1
  Li  Li46  1  0.44331941  0.79030754  0.14697109  1
  Li  Li47  1  0.20969246  0.65301187  0.14697109  1
  Li  Li48  1  0.97491965  0.65315965  0.10600662  1
  Li  Li49  1  0.34684035  0.32176000  0.10600662  1
  Li  Li50  1  0.67824000  0.02508035  0.10600662  1
  Li  Li51  1  0.02508035  0.34684035  0.60600662  1
  Li  Li52  1  0.65315965  0.67824000  0.60600662  1
  Li  Li53  1  0.32176000  0.97491965  0.60600662  1
  Li  Li54  1  0.02508035  0.34684035  0.89399338  1
  Li  Li55  1  0.65315965  0.67824000  0.89399338  1
  Li  Li56  1  0.32176000  0.97491965  0.89399338  1
  Li  Li57  1  0.97491965  0.65315965  0.39399338  1
  Li  Li58  1  0.34684035  0.32176000  0.39399338  1
  Li  Li59  1  0.67824000  0.02508035  0.39399338  1
  Li  Li60  1  0.00000000  0.00000000  0.25000000  1
  Li  Li61  1  0.00000000  0.00000000  0.75000000  1
  Li  Li62  1  0.62094583  0.02827256  0.25000000  1
  Li  Li63  1  0.97172744  0.59267327  0.25000000  1
  Li  Li64  1  0.40732673  0.37905417  0.25000000  1
  Li  Li65  1  0.37905417  0.97172744  0.75000000  1
  Li  Li66  1  0.02827256  0.40732673  0.75000000  1
  Li  Li67  1  0.59267327  0.62094583  0.75000000  1
  Li  Li68  1  0.33333333  0.66666667  0.56728362  1
  Li  Li69  1  0.66666667  0.33333333  0.06728362  1
  Li  Li70  1  0.66666667  0.33333333  0.43271638  1
  Li  Li71  1  0.33333333  0.66666667  0.93271638  1
