# generated using pymatgen
data_Li2Y2As3P2Se
_symmetry_space_group_name_H-M   'P 1'
_cell_length_a   4.88694941
_cell_length_b   4.91234506
_cell_length_c   6.98996190
_cell_angle_alpha   94.94207865
_cell_angle_beta   100.76281986
_cell_angle_gamma   109.85036574
_symmetry_Int_Tables_number   1
_chemical_formula_structural   Li2Y2As3P2Se
_chemical_formula_sum   'Li2 Y2 As3 P2 Se1'
_cell_volume   153.01223745
_cell_formula_units_Z   1
loop_
 _symmetry_equiv_pos_site_id
 _symmetry_equiv_pos_as_xyz
  1  'x, y, z'
loop_
 _atom_site_type_symbol
 _atom_site_label
 _atom_site_symmetry_multiplicity
 _atom_site_fract_x
 _atom_site_fract_y
 _atom_site_fract_z
 _atom_site_occupancy
  Se  Se0  1  0.12500000  0.00000000  0.25000000  1
  P  P1  1  0.00000000  0.00000000  0.00000000  1
  P  P2  1  0.37500000  0.00000000  0.25000000  1
  As  As3  1  0.25000000  0.25000000  0.25000000  1
  As  As4  1  0.00000000  0.25000000  0.12500000  1
  As  As5  1  0.50171988  0.60165197  0.50440145  1
  Li  Li6  1  0.98367856  0.70782758  0.31910693  1
  Li  Li7  1  0.07009687  0.84168850  0.72702085  1
  Y  Y8  1  0.69250698  0.79004950  0.95516304  1
  Y  Y9  1  0.28624685  0.14186529  0.06806183  1
