# generated using pymatgen
data_LiF
_symmetry_space_group_name_H-M   'P 1'
_cell_length_a   7.46148074
_cell_length_b   10.33766389
_cell_length_c   8.91766287
_cell_angle_alpha   90.00000000
_cell_angle_beta   90.00000000
_cell_angle_gamma   90.00000000
_symmetry_Int_Tables_number   1
_chemical_formula_structural   LiF
_chemical_formula_sum   'Li20 F20'
_cell_volume   687.85750571
_cell_formula_units_Z   20
loop_
 _symmetry_equiv_pos_site_id
 _symmetry_equiv_pos_as_xyz
  1  'x, y, z'
loop_
 _atom_site_type_symbol
 _atom_site_label
 _atom_site_symmetry_multiplicity
 _atom_site_fract_x
 _atom_site_fract_y
 _atom_site_fract_z
 _atom_site_occupancy
  F  F0  1  0.56172428  0.84772259  0.54823248  1
  F  F1  1  -0.56172428  -0.84772259  0.54823248  1
  F  F2  1  -0.06172428  1.34772259  -0.54823248  1
  F  F3  1  1.06172428  -0.34772259  -0.54823248  1
  F  F4  1  -0.56172428  -0.84772259  -0.54823248  1
  F  F5  1  0.56172428  0.84772259  -0.54823248  1
  F  F6  1  1.06172428  -0.34772259  0.54823248  1
  F  F7  1  -0.06172428  1.34772259  0.54823248  1
  F  F8  1  0.54602617  0.81986423  0.62549740  1
  F  F9  1  0.45397383  0.18013577  0.62549740  1
  F  F10  1  0.95397383  0.31986423  0.37450260  1
  F  F11  1  0.04602617  0.68013577  0.37450260  1
  F  F12  1  0.45397383  0.18013577  0.37450260  1
  F  F13  1  0.54602617  0.81986423  0.37450260  1
  F  F14  1  0.04602617  0.68013577  0.62549740  1
  F  F15  1  0.95397383  0.31986423  0.62549740  1
  F  F16  1  0.00000000  0.50000000  0.00000000  1
  F  F17  1  0.50000000  0.00000000  0.00000000  1
  F  F18  1  0.00000000  0.00000000  0.50000000  1
  F  F19  1  0.50000000  0.50000000  0.50000000  1
  Li  Li20  1  0.95377857  0.92991297  0.64185457  1
  Li  Li21  1  0.04622143  0.07008703  0.64185457  1
  Li  Li22  1  0.54622143  0.42991297  0.35814543  1
  Li  Li23  1  0.45377857  0.57008703  0.35814543  1
  Li  Li24  1  0.04622143  0.07008703  0.35814543  1
  Li  Li25  1  0.95377857  0.92991297  0.35814543  1
  Li  Li26  1  0.45377857  0.57008703  0.64185457  1
  Li  Li27  1  0.54622143  0.42991297  0.64185457  1
  Li  Li28  1  0.70201980  0.36586500  0.21234333  1
  Li  Li29  1  0.29798020  0.63413500  0.21234333  1
  Li  Li30  1  0.79798020  0.86586500  0.78765667  1
  Li  Li31  1  0.20201980  0.13413500  0.78765667  1
  Li  Li32  1  0.29798020  0.63413500  0.78765667  1
  Li  Li33  1  0.70201980  0.36586500  0.78765667  1
  Li  Li34  1  0.20201980  0.13413500  0.21234333  1
  Li  Li35  1  0.79798020  0.86586500  0.21234333  1
  Li  Li36  1  0.49470479  0.19722246  0.00000000  1
  Li  Li37  1  0.50529521  0.80277754  0.00000000  1
  Li  Li38  1  0.00529521  0.69722246  0.00000000  1
  Li  Li39  1  0.99470479  0.30277754  0.00000000  1
