# generated using pymatgen
data_LiCaF3
_symmetry_space_group_name_H-M   'P 1'
_cell_length_a   8.07040924
_cell_length_b   8.07040924
_cell_length_c   23.47071751
_cell_angle_alpha   90.00000000
_cell_angle_beta   90.00000000
_cell_angle_gamma   120.00000000
_symmetry_Int_Tables_number   1
_chemical_formula_structural   LiCaF3
_chemical_formula_sum   'Li18 Ca18 F54'
_cell_volume   1323.87845334
_cell_formula_units_Z   18
loop_
 _symmetry_equiv_pos_site_id
 _symmetry_equiv_pos_as_xyz
  1  'x, y, z'
loop_
 _atom_site_type_symbol
 _atom_site_label
 _atom_site_symmetry_multiplicity
 _atom_site_fract_x
 _atom_site_fract_y
 _atom_site_fract_z
 _atom_site_occupancy
  Ca  Ca0  1  0.50000000  0.00000000  -0.00000000  1
  Ca  Ca1  1  0.00000000  0.50000000  -0.00000000  1
  Ca  Ca2  1  0.50000000  0.50000000  -0.00000000  1
  Ca  Ca3  1  0.00000000  0.50000000  0.50000000  1
  Ca  Ca4  1  0.50000000  0.00000000  0.50000000  1
  Ca  Ca5  1  0.50000000  0.50000000  0.50000000  1
  Ca  Ca6  1  0.16666667  0.33333333  0.33333333  1
  Ca  Ca7  1  0.66666667  0.83333333  0.33333333  1
  Ca  Ca8  1  0.16666667  0.83333333  0.33333333  1
  Ca  Ca9  1  0.66666667  0.83333333  0.83333333  1
  Ca  Ca10  1  0.16666667  0.33333333  0.83333333  1
  Ca  Ca11  1  0.16666667  0.83333333  0.83333333  1
  Ca  Ca12  1  0.83333333  0.66666667  0.66666667  1
  Ca  Ca13  1  0.33333333  0.16666667  0.66666667  1
  Ca  Ca14  1  0.83333333  0.16666667  0.66666667  1
  Ca  Ca15  1  0.33333333  0.16666667  0.16666667  1
  Ca  Ca16  1  0.83333333  0.66666667  0.16666667  1
  Ca  Ca17  1  0.83333333  0.16666667  0.16666667  1
  F  F18  1  0.09556110  0.00000000  0.25000000  1
  F  F19  1  0.00000000  0.09556110  0.25000000  1
  F  F20  1  0.90443890  0.90443890  0.25000000  1
  F  F21  1  0.90443890  0.00000000  0.75000000  1
  F  F22  1  0.00000000  0.90443890  0.75000000  1
  F  F23  1  0.09556110  0.09556110  0.75000000  1
  F  F24  1  0.76222776  0.33333333  0.58333333  1
  F  F25  1  0.66666667  0.42889443  0.58333333  1
  F  F26  1  0.57110557  0.23777224  0.58333333  1
  F  F27  1  0.57110557  0.33333333  0.08333333  1
  F  F28  1  0.66666667  0.23777224  0.08333333  1
  F  F29  1  0.76222776  0.42889443  0.08333333  1
  F  F30  1  0.42889443  0.66666667  0.91666667  1
  F  F31  1  0.33333333  0.76222776  0.91666667  1
  F  F32  1  0.23777224  0.57110557  0.91666667  1
  F  F33  1  0.23777224  0.66666667  0.41666667  1
  F  F34  1  0.33333333  0.57110557  0.41666667  1
  F  F35  1  0.42889443  0.76222776  0.41666667  1
  F  F36  1  0.21800969  0.39499844  0.15123194  1
  F  F37  1  -0.39499844  -0.17698875  0.15123194  1
  F  F38  1  0.17698875  -0.21800969  0.15123194  1
  F  F39  1  0.39499844  0.21800969  0.34876806  1
  F  F40  1  -0.17698875  -0.39499844  0.34876806  1
  F  F41  1  -0.21800969  0.17698875  0.34876806  1
  F  F42  1  -0.21800969  -0.39499844  -0.15123194  1
  F  F43  1  0.39499844  0.17698875  -0.15123194  1
  F  F44  1  -0.17698875  0.21800969  -0.15123194  1
  F  F45  1  -0.39499844  -0.21800969  0.65123194  1
  F  F46  1  0.17698875  0.39499844  0.65123194  1
  F  F47  1  0.21800969  -0.17698875  0.65123194  1
  F  F48  1  0.88467636  0.72833177  0.48456528  1
  F  F49  1  0.27166823  0.15634459  0.48456528  1
  F  F50  1  0.84365541  0.11532364  0.48456528  1
  F  F51  1  1.06166511  0.55134303  0.68210139  1
  F  F52  1  0.48967792  -0.06166511  0.68210139  1
  F  F53  1  0.44865697  0.51032208  0.68210139  1
  F  F54  1  0.44865697  -0.06166511  0.18210139  1
  F  F55  1  1.06166511  0.51032208  0.18210139  1
  F  F56  1  0.48967792  0.55134303  0.18210139  1
  F  F57  1  0.27166823  0.11532364  0.98456528  1
  F  F58  1  0.84365541  0.72833177  0.98456528  1
  F  F59  1  0.88467636  0.15634459  0.98456528  1
  F  F60  1  0.55134303  1.06166511  0.81789861  1
  F  F61  1  -0.06166511  0.48967792  0.81789861  1
  F  F62  1  0.51032208  0.44865697  0.81789861  1
  F  F63  1  0.72833177  0.88467636  1.01543472  1
  F  F64  1  0.15634459  0.27166823  1.01543472  1
  F  F65  1  0.11532364  0.84365541  1.01543472  1
  F  F66  1  0.11532364  0.27166823  0.51543472  1
  F  F67  1  0.72833177  0.84365541  0.51543472  1
  F  F68  1  0.15634459  0.88467636  0.51543472  1
  F  F69  1  -0.06166511  0.44865697  1.31789861  1
  F  F70  1  0.51032208  1.06166511  1.31789861  1
  F  F71  1  0.55134303  0.48967792  1.31789861  1
  Li  Li72  1  0.81139144  0.00000000  0.25000000  1
  Li  Li73  1  0.00000000  0.81139144  0.25000000  1
  Li  Li74  1  0.18860856  0.18860856  0.25000000  1
  Li  Li75  1  0.18860856  0.00000000  0.75000000  1
  Li  Li76  1  0.00000000  0.18860856  0.75000000  1
  Li  Li77  1  0.81139144  0.81139144  0.75000000  1
  Li  Li78  1  0.47805811  0.33333333  0.58333333  1
  Li  Li79  1  0.66666667  0.14472478  0.58333333  1
  Li  Li80  1  0.85527522  0.52194189  0.58333333  1
  Li  Li81  1  0.85527522  0.33333333  0.08333333  1
  Li  Li82  1  0.66666667  0.52194189  0.08333333  1
  Li  Li83  1  0.47805811  0.14472478  0.08333333  1
  Li  Li84  1  0.14472478  0.66666667  0.91666667  1
  Li  Li85  1  0.33333333  0.47805811  0.91666667  1
  Li  Li86  1  0.52194189  0.85527522  0.91666667  1
  Li  Li87  1  0.52194189  0.66666667  0.41666667  1
  Li  Li88  1  0.33333333  0.85527522  0.41666667  1
  Li  Li89  1  0.14472478  0.47805811  0.41666667  1
