# generated using pymatgen
data_Li4TeF2
_symmetry_space_group_name_H-M   'P 1'
_cell_length_a   16.94220147
_cell_length_b   16.94220147
_cell_length_c   10.95732144
_cell_angle_alpha   90.00000000
_cell_angle_beta   90.00000000
_cell_angle_gamma   120.00000000
_symmetry_Int_Tables_number   1
_chemical_formula_structural   Li4TeF2
_chemical_formula_sum   'Li96 Te24 F48'
_cell_volume   2723.79687722
_cell_formula_units_Z   24
loop_
 _symmetry_equiv_pos_site_id
 _symmetry_equiv_pos_as_xyz
  1  'x, y, z'
loop_
 _atom_site_type_symbol
 _atom_site_label
 _atom_site_symmetry_multiplicity
 _atom_site_fract_x
 _atom_site_fract_y
 _atom_site_fract_z
 _atom_site_occupancy
  F  F0  1  0.12143942  0.28211718  0.78850792  1
  F  F1  1  -0.28211718  -0.16067776  0.78850792  1
  F  F2  1  0.16067776  -0.12143942  0.78850792  1
  F  F3  1  0.28211718  0.12143942  -0.28850792  1
  F  F4  1  -0.16067776  -0.28211718  -0.28850792  1
  F  F5  1  -0.12143942  0.16067776  -0.28850792  1
  F  F6  1  -0.12143942  -0.28211718  -0.78850792  1
  F  F7  1  0.28211718  0.16067776  -0.78850792  1
  F  F8  1  -0.16067776  0.12143942  -0.78850792  1
  F  F9  1  -0.28211718  -0.12143942  1.28850792  1
  F  F10  1  0.16067776  0.28211718  1.28850792  1
  F  F11  1  0.12143942  -0.16067776  1.28850792  1
  F  F12  1  0.78810608  0.61545051  1.12184125  1
  F  F13  1  0.38454949  0.17265558  1.12184125  1
  F  F14  1  0.82734442  0.21189392  1.12184125  1
  F  F15  1  0.94878384  0.45477275  0.04482541  1
  F  F16  1  0.50598891  0.05121616  0.04482541  1
  F  F17  1  0.54522725  0.49401109  0.04482541  1
  F  F18  1  0.54522725  0.05121616  -0.45517459  1
  F  F19  1  0.94878384  0.49401109  -0.45517459  1
  F  F20  1  0.50598891  0.45477275  -0.45517459  1
  F  F21  1  0.38454949  0.21189392  1.62184125  1
  F  F22  1  0.82734442  0.61545051  1.62184125  1
  F  F23  1  0.78810608  0.17265558  1.62184125  1
  F  F24  1  0.45477275  0.94878384  1.45517459  1
  F  F25  1  0.05121616  0.50598891  1.45517459  1
  F  F26  1  0.49401109  0.54522725  1.45517459  1
  F  F27  1  0.61545051  0.78810608  0.37815875  1
  F  F28  1  0.17265558  0.38454949  0.37815875  1
  F  F29  1  0.21189392  0.82734442  0.37815875  1
  F  F30  1  0.21189392  0.38454949  -0.12184125  1
  F  F31  1  0.61545051  0.82734442  -0.12184125  1
  F  F32  1  0.17265558  0.78810608  -0.12184125  1
  F  F33  1  0.05121616  0.54522725  1.95517459  1
  F  F34  1  0.49401109  0.94878384  1.95517459  1
  F  F35  1  0.45477275  0.50598891  1.95517459  1
  F  F36  1  0.00000000  0.00000000  0.65822403  1
  F  F37  1  0.00000000  0.00000000  0.84177597  1
  F  F38  1  0.00000000  0.00000000  0.34177597  1
  F  F39  1  0.00000000  0.00000000  0.15822403  1
  F  F40  1  0.66666667  0.33333333  0.99155737  1
  F  F41  1  0.66666667  0.33333333  0.17510930  1
  F  F42  1  0.66666667  0.33333333  0.67510930  1
  F  F43  1  0.66666667  0.33333333  0.49155737  1
  F  F44  1  0.33333333  0.66666667  0.32489070  1
  F  F45  1  0.33333333  0.66666667  0.50844263  1
  F  F46  1  0.33333333  0.66666667  0.00844263  1
  F  F47  1  0.33333333  0.66666667  0.82489070  1
  Li  Li48  1  0.00000000  0.00000000  0.25000000  1
  Li  Li49  1  0.00000000  0.00000000  0.75000000  1
  Li  Li50  1  0.66666667  0.33333333  0.58333333  1
  Li  Li51  1  0.66666667  0.33333333  0.08333333  1
  Li  Li52  1  0.33333333  0.66666667  0.91666667  1
  Li  Li53  1  0.33333333  0.66666667  0.41666667  1
  Li  Li54  1  0.39008420  0.14748951  0.22042074  1
  Li  Li55  1  0.85251049  0.24259469  0.22042074  1
  Li  Li56  1  0.75740531  0.60991580  0.22042074  1
  Li  Li57  1  0.14748951  0.39008420  0.27957926  1
  Li  Li58  1  0.24259469  0.85251049  0.27957926  1
  Li  Li59  1  0.60991580  0.75740531  0.27957926  1
  Li  Li60  1  0.60991580  0.85251049  0.77957926  1
  Li  Li61  1  0.14748951  0.75740531  0.77957926  1
  Li  Li62  1  0.24259469  0.39008420  0.77957926  1
  Li  Li63  1  0.85251049  0.60991580  0.72042074  1
  Li  Li64  1  0.75740531  0.14748951  0.72042074  1
  Li  Li65  1  0.39008420  0.24259469  0.72042074  1
  Li  Li66  1  0.05675086  0.48082284  0.55375407  1
  Li  Li67  1  0.51917716  0.57592802  0.55375407  1
  Li  Li68  1  0.42407198  0.94324914  0.55375407  1
  Li  Li69  1  0.81415618  0.72341753  0.61291260  1
  Li  Li70  1  0.90926136  0.18584382  0.61291260  1
  Li  Li71  1  0.27658247  0.09073864  0.61291260  1
  Li  Li72  1  0.27658247  0.18584382  0.11291260  1
  Li  Li73  1  0.81415618  0.09073864  0.11291260  1
  Li  Li74  1  0.90926136  0.72341753  0.11291260  1
  Li  Li75  1  0.51917716  0.94324914  0.05375407  1
  Li  Li76  1  0.42407198  0.48082284  0.05375407  1
  Li  Li77  1  0.05675086  0.57592802  0.05375407  1
  Li  Li78  1  0.72341753  0.81415618  0.88708740  1
  Li  Li79  1  0.18584382  0.90926136  0.88708740  1
  Li  Li80  1  0.09073864  0.27658247  0.88708740  1
  Li  Li81  1  0.48082284  0.05675086  0.94624593  1
  Li  Li82  1  0.57592802  0.51917716  0.94624593  1
  Li  Li83  1  0.94324914  0.42407198  0.94624593  1
  Li  Li84  1  0.94324914  0.51917716  0.44624593  1
  Li  Li85  1  0.48082284  0.42407198  0.44624593  1
  Li  Li86  1  0.57592802  0.05675086  0.44624593  1
  Li  Li87  1  0.18584382  0.27658247  0.38708740  1
  Li  Li88  1  0.09073864  0.81415618  0.38708740  1
  Li  Li89  1  0.72341753  0.90926136  0.38708740  1
  Li  Li90  1  0.25681729  0.21982325  0.65138887  1
  Li  Li91  1  0.78017675  0.03699405  0.65138887  1
  Li  Li92  1  0.96300595  0.74318271  0.65138887  1
  Li  Li93  1  0.21982325  0.25681729  0.84861113  1
  Li  Li94  1  0.03699405  0.78017675  0.84861113  1
  Li  Li95  1  0.74318271  0.96300595  0.84861113  1
  Li  Li96  1  0.74318271  0.78017675  0.34861113  1
  Li  Li97  1  0.21982325  0.96300595  0.34861113  1
  Li  Li98  1  0.03699405  0.25681729  0.34861113  1
  Li  Li99  1  0.78017675  0.74318271  0.15138887  1
  Li  Li100  1  0.96300595  0.21982325  0.15138887  1
  Li  Li101  1  0.25681729  0.03699405  0.15138887  1
  Li  Li102  1  0.92348396  0.55315658  0.98472220  1
  Li  Li103  1  0.44684342  0.37032738  0.98472220  1
  Li  Li104  1  0.62967262  0.07651604  0.98472220  1
  Li  Li105  1  0.88648991  0.59015063  0.18194446  1
  Li  Li106  1  0.70366071  0.11351009  0.18194446  1
  Li  Li107  1  0.40984937  0.29633929  0.18194446  1
  Li  Li108  1  0.40984937  0.11351009  0.68194446  1
  Li  Li109  1  0.88648991  0.29633929  0.68194446  1
  Li  Li110  1  0.70366071  0.59015063  0.68194446  1
  Li  Li111  1  0.44684342  0.07651604  0.48472220  1
  Li  Li112  1  0.62967262  0.55315658  0.48472220  1
  Li  Li113  1  0.92348396  0.37032738  0.48472220  1
  Li  Li114  1  0.59015063  0.88648991  0.31805554  1
  Li  Li115  1  0.11351009  0.70366071  0.31805554  1
  Li  Li116  1  0.29633929  0.40984937  0.31805554  1
  Li  Li117  1  0.55315658  0.92348396  0.51527780  1
  Li  Li118  1  0.37032738  0.44684342  0.51527780  1
  Li  Li119  1  0.07651604  0.62967262  0.51527780  1
  Li  Li120  1  0.07651604  0.44684342  0.01527780  1
  Li  Li121  1  0.55315658  0.62967262  0.01527780  1
  Li  Li122  1  0.37032738  0.92348396  0.01527780  1
  Li  Li123  1  0.11351009  0.40984937  0.81805554  1
  Li  Li124  1  0.29633929  0.88648991  0.81805554  1
  Li  Li125  1  0.59015063  0.70366071  0.81805554  1
  Li  Li126  1  0.59195334  0.00000000  0.25000000  1
  Li  Li127  1  0.00000000  0.59195334  0.25000000  1
  Li  Li128  1  0.40804666  0.40804666  0.25000000  1
  Li  Li129  1  0.40804666  0.00000000  0.75000000  1
  Li  Li130  1  0.00000000  0.40804666  0.75000000  1
  Li  Li131  1  0.59195334  0.59195334  0.75000000  1
  Li  Li132  1  0.25862001  0.33333333  0.58333333  1
  Li  Li133  1  0.66666667  0.92528668  0.58333333  1
  Li  Li134  1  0.07471332  0.74137999  0.58333333  1
  Li  Li135  1  0.07471332  0.33333333  0.08333333  1
  Li  Li136  1  0.66666667  0.74137999  0.08333333  1
  Li  Li137  1  0.25862001  0.92528668  0.08333333  1
  Li  Li138  1  0.92528668  0.66666667  0.91666667  1
  Li  Li139  1  0.33333333  0.25862001  0.91666667  1
  Li  Li140  1  0.74137999  0.07471332  0.91666667  1
  Li  Li141  1  0.74137999  0.66666667  0.41666667  1
  Li  Li142  1  0.33333333  0.07471332  0.41666667  1
  Li  Li143  1  0.92528668  0.25862001  0.41666667  1
  Te  Te144  1  0.80861779  0.00000000  0.25000000  1
  Te  Te145  1  0.00000000  0.80861779  0.25000000  1
  Te  Te146  1  0.19138221  0.19138221  0.25000000  1
  Te  Te147  1  0.19138221  0.00000000  0.75000000  1
  Te  Te148  1  0.00000000  0.19138221  0.75000000  1
  Te  Te149  1  0.80861779  0.80861779  0.75000000  1
  Te  Te150  1  0.47528445  0.33333333  0.58333333  1
  Te  Te151  1  0.66666667  0.14195112  0.58333333  1
  Te  Te152  1  0.85804888  0.52471555  0.58333333  1
  Te  Te153  1  0.85804888  0.33333333  0.08333333  1
  Te  Te154  1  0.66666667  0.52471555  0.08333333  1
  Te  Te155  1  0.47528445  0.14195112  0.08333333  1
  Te  Te156  1  0.14195112  0.66666667  0.91666667  1
  Te  Te157  1  0.33333333  0.47528445  0.91666667  1
  Te  Te158  1  0.52471555  0.85804888  0.91666667  1
  Te  Te159  1  0.52471555  0.66666667  0.41666667  1
  Te  Te160  1  0.33333333  0.85804888  0.41666667  1
  Te  Te161  1  0.14195112  0.47528445  0.41666667  1
  Te  Te162  1  0.00000000  0.00000000  0.00000000  1
  Te  Te163  1  0.00000000  0.00000000  0.50000000  1
  Te  Te164  1  0.66666667  0.33333333  0.33333333  1
  Te  Te165  1  0.66666667  0.33333333  0.83333333  1
  Te  Te166  1  0.33333333  0.66666667  0.66666667  1
  Te  Te167  1  0.33333333  0.66666667  0.16666667  1
