# generated using pymatgen
data_Li2Y2AsP3
_symmetry_space_group_name_H-M   'P 1'
_cell_length_a   4.14918240
_cell_length_b   4.36902196
_cell_length_c   6.63050916
_cell_angle_alpha   96.22928998
_cell_angle_beta   102.99253731
_cell_angle_gamma   112.23326037
_symmetry_Int_Tables_number   1
_chemical_formula_structural   Li2Y2AsP3
_chemical_formula_sum   'Li2 Y2 As1 P3'
_cell_volume   105.88591757
_cell_formula_units_Z   1
loop_
 _symmetry_equiv_pos_site_id
 _symmetry_equiv_pos_as_xyz
  1  'x, y, z'
loop_
 _atom_site_type_symbol
 _atom_site_label
 _atom_site_symmetry_multiplicity
 _atom_site_fract_x
 _atom_site_fract_y
 _atom_site_fract_z
 _atom_site_occupancy
  P  P0  1  0.00000000  0.00000000  0.00000000  1
  P  P1  1  0.33300000  0.66700000  0.25000000  1
  P  P2  1  0.66700000  0.33300000  0.50000000  1
  As  As3  1  0.00000000  0.00000000  0.75000000  1
  Li  Li4  1  0.58084420  0.08186119  0.21272489  1
  Li  Li5  1  0.53994910  0.32368341  0.47261753  1
  Y  Y6  1  0.92495964  0.16776922  0.56285462  1
  Y  Y7  1  0.11504862  0.00966796  0.14958645  1
