# generated using pymatgen
data_Li2O
_symmetry_space_group_name_H-M   'P 1'
_cell_length_a   6.38771568
_cell_length_b   5.53581629
_cell_length_c   8.49300881
_cell_angle_alpha   90.00000000
_cell_angle_beta   90.00000000
_cell_angle_gamma   90.00000000
_symmetry_Int_Tables_number   1
_chemical_formula_structural   Li2O
_chemical_formula_sum   'Li16 O8'
_cell_volume   300.32315723
_cell_formula_units_Z   8
loop_
 _symmetry_equiv_pos_site_id
 _symmetry_equiv_pos_as_xyz
  1  'x, y, z'
loop_
 _atom_site_type_symbol
 _atom_site_label
 _atom_site_symmetry_multiplicity
 _atom_site_fract_x
 _atom_site_fract_y
 _atom_site_fract_z
 _atom_site_occupancy
  Li  Li0  1  0.24451363  0.21040374  0.80129528  1
  Li  Li1  1  0.75548637  0.78959626  0.80129528  1
  Li  Li2  1  0.25548637  0.71040374  0.19870472  1
  Li  Li3  1  0.74451363  0.28959626  0.19870472  1
  Li  Li4  1  0.75548637  0.78959626  0.19870472  1
  Li  Li5  1  0.24451363  0.21040374  0.19870472  1
  Li  Li6  1  0.74451363  0.28959626  0.80129528  1
  Li  Li7  1  0.25548637  0.71040374  0.80129528  1
  Li  Li8  1  0.00000000  0.50000000  0.50000000  1
  Li  Li9  1  0.50000000  0.00000000  0.50000000  1
  Li  Li10  1  0.22171216  0.32509863  0.00000000  1
  Li  Li11  1  0.77828784  0.67490137  0.00000000  1
  Li  Li12  1  0.27828784  0.82509863  0.00000000  1
  Li  Li13  1  0.72171216  0.17490137  0.00000000  1
  Li  Li14  1  0.00000000  0.50000000  0.00000000  1
  Li  Li15  1  0.50000000  0.00000000  0.00000000  1
  O  O16  1  0.20224460  0.06837685  0.65764489  1
  O  O17  1  -0.20224460  -0.06837685  0.65764489  1
  O  O18  1  0.29775540  0.56837685  -0.65764489  1
  O  O19  1  0.70224460  0.43162315  -0.65764489  1
  O  O20  1  -0.20224460  -0.06837685  -0.65764489  1
  O  O21  1  0.20224460  0.06837685  -0.65764489  1
  O  O22  1  0.70224460  0.43162315  0.65764489  1
  O  O23  1  0.29775540  0.56837685  0.65764489  1
