# generated using pymatgen
data_LiF
_symmetry_space_group_name_H-M   'P 1'
_cell_length_a   4.57819162
_cell_length_b   4.55340112
_cell_length_c   14.17773235
_cell_angle_alpha   90.00000000
_cell_angle_beta   90.00000000
_cell_angle_gamma   90.00000000
_symmetry_Int_Tables_number   1
_chemical_formula_structural   LiF
_chemical_formula_sum   'Li12 F12'
_cell_volume   295.55386911
_cell_formula_units_Z   12
loop_
 _symmetry_equiv_pos_site_id
 _symmetry_equiv_pos_as_xyz
  1  'x, y, z'
loop_
 _atom_site_type_symbol
 _atom_site_label
 _atom_site_symmetry_multiplicity
 _atom_site_fract_x
 _atom_site_fract_y
 _atom_site_fract_z
 _atom_site_occupancy
  F  F0  1  0.47790389  0.12361109  0.58942114  1
  F  F1  1  0.02209611  0.87638891  0.08942114  1
  F  F2  1  0.52209611  0.62361109  0.41057886  1
  F  F3  1  0.97790389  0.37638891  0.91057886  1
  F  F4  1  0.52209611  0.87638891  0.41057886  1
  F  F5  1  0.97790389  0.12361109  0.91057886  1
  F  F6  1  0.47790389  0.37638891  0.58942114  1
  F  F7  1  0.02209611  0.62361109  0.08942114  1
  F  F8  1  0.45572494  0.25000000  0.58763832  1
  F  F9  1  0.04427506  0.75000000  0.08763832  1
  F  F10  1  0.54427506  0.75000000  0.41236168  1
  F  F11  1  0.95572494  0.25000000  0.91236168  1
  Li  Li12  1  0.60768516  0.25000000  0.81701211  1
  Li  Li13  1  0.89231484  0.75000000  0.31701211  1
  Li  Li14  1  0.39231484  0.75000000  0.18298789  1
  Li  Li15  1  0.10768516  0.25000000  0.68298789  1
  Li  Li16  1  0.55188350  0.45644562  0.15941217  1
  Li  Li17  1  -0.05188350  -0.45644562  0.65941217  1
  Li  Li18  1  -0.55188350  0.95644562  -0.15941217  1
  Li  Li19  1  1.05188350  0.04355438  0.34058783  1
  Li  Li20  1  -0.55188350  -0.45644562  -0.15941217  1
  Li  Li21  1  1.05188350  0.45644562  0.34058783  1
  Li  Li22  1  0.55188350  0.04355438  0.15941217  1
  Li  Li23  1  -0.05188350  0.95644562  0.65941217  1
