# generated using pymatgen
data_LiF
_symmetry_space_group_name_H-M   'P 1'
_cell_length_a   9.59186948
_cell_length_b   9.59186948
_cell_length_c   20.61414039
_cell_angle_alpha   90.00000000
_cell_angle_beta   90.00000000
_cell_angle_gamma   120.00000000
_symmetry_Int_Tables_number   1
_chemical_formula_structural   LiF
_chemical_formula_sum   'Li60 F60'
_cell_volume   1642.48866765
_cell_formula_units_Z   60
loop_
 _symmetry_equiv_pos_site_id
 _symmetry_equiv_pos_as_xyz
  1  'x, y, z'
loop_
 _atom_site_type_symbol
 _atom_site_label
 _atom_site_symmetry_multiplicity
 _atom_site_fract_x
 _atom_site_fract_y
 _atom_site_fract_z
 _atom_site_occupancy
  F  F0  1  0.09598624  0.60690704  0.21626914  1
  F  F1  1  0.39309296  0.48907920  0.21626914  1
  F  F2  1  0.51092080  0.90401376  0.21626914  1
  F  F3  1  0.60690704  0.09598624  0.28373086  1
  F  F4  1  0.48907920  0.39309296  0.28373086  1
  F  F5  1  0.90401376  0.51092080  0.28373086  1
  F  F6  1  0.90401376  0.39309296  0.78373086  1
  F  F7  1  0.60690704  0.51092080  0.78373086  1
  F  F8  1  0.48907920  0.09598624  0.78373086  1
  F  F9  1  0.39309296  0.90401376  0.71626914  1
  F  F10  1  0.51092080  0.60690704  0.71626914  1
  F  F11  1  0.09598624  0.48907920  0.71626914  1
  F  F12  1  0.76265291  0.94024037  0.54960247  1
  F  F13  1  0.05975963  0.82241254  0.54960247  1
  F  F14  1  0.17758746  0.23734709  0.54960247  1
  F  F15  1  0.27357371  0.42931958  0.61706419  1
  F  F16  1  0.15574587  0.72642629  0.61706419  1
  F  F17  1  0.57068042  0.84425413  0.61706419  1
  F  F18  1  0.57068042  0.72642629  0.11706419  1
  F  F19  1  0.27357371  0.84425413  0.11706419  1
  F  F20  1  0.15574587  0.42931958  0.11706419  1
  F  F21  1  0.05975963  0.23734709  0.04960247  1
  F  F22  1  0.17758746  0.94024037  0.04960247  1
  F  F23  1  0.76265291  0.82241254  0.04960247  1
  F  F24  1  0.42931958  0.27357371  0.88293581  1
  F  F25  1  0.72642629  0.15574587  0.88293581  1
  F  F26  1  0.84425413  0.57068042  0.88293581  1
  F  F27  1  0.94024037  0.76265291  0.95039753  1
  F  F28  1  0.82241254  0.05975963  0.95039753  1
  F  F29  1  0.23734709  0.17758746  0.95039753  1
  F  F30  1  0.23734709  0.05975963  0.45039753  1
  F  F31  1  0.94024037  0.17758746  0.45039753  1
  F  F32  1  0.82241254  0.76265291  0.45039753  1
  F  F33  1  0.72642629  0.57068042  0.38293581  1
  F  F34  1  0.84425413  0.27357371  0.38293581  1
  F  F35  1  0.42931958  0.15574587  0.38293581  1
  F  F36  1  0.50000000  0.00000000  0.00000000  1
  F  F37  1  0.00000000  0.50000000  0.00000000  1
  F  F38  1  0.50000000  0.50000000  0.00000000  1
  F  F39  1  0.00000000  0.50000000  0.50000000  1
  F  F40  1  0.50000000  0.00000000  0.50000000  1
  F  F41  1  0.50000000  0.50000000  0.50000000  1
  F  F42  1  0.16666667  0.33333333  0.33333333  1
  F  F43  1  0.66666667  0.83333333  0.33333333  1
  F  F44  1  0.16666667  0.83333333  0.33333333  1
  F  F45  1  0.66666667  0.83333333  0.83333333  1
  F  F46  1  0.16666667  0.33333333  0.83333333  1
  F  F47  1  0.16666667  0.83333333  0.83333333  1
  F  F48  1  0.83333333  0.66666667  0.66666667  1
  F  F49  1  0.33333333  0.16666667  0.66666667  1
  F  F50  1  0.83333333  0.16666667  0.66666667  1
  F  F51  1  0.33333333  0.16666667  0.16666667  1
  F  F52  1  0.83333333  0.66666667  0.16666667  1
  F  F53  1  0.83333333  0.16666667  0.16666667  1
  F  F54  1  0.00000000  0.00000000  0.25000000  1
  F  F55  1  0.00000000  0.00000000  0.75000000  1
  F  F56  1  0.66666667  0.33333333  0.58333333  1
  F  F57  1  0.66666667  0.33333333  0.08333333  1
  F  F58  1  0.33333333  0.66666667  0.91666667  1
  F  F59  1  0.33333333  0.66666667  0.41666667  1
  Li  Li60  1  0.92455279  0.89681299  0.18041157  1
  Li  Li61  1  -0.89681299  0.02773979  0.18041157  1
  Li  Li62  1  -0.02773979  -0.92455279  0.18041157  1
  Li  Li63  1  0.89681299  0.92455279  0.31958843  1
  Li  Li64  1  0.02773979  -0.89681299  0.31958843  1
  Li  Li65  1  -0.92455279  -0.02773979  0.31958843  1
  Li  Li66  1  -0.92455279  -0.89681299  -0.18041157  1
  Li  Li67  1  0.89681299  -0.02773979  -0.18041157  1
  Li  Li68  1  0.02773979  0.92455279  -0.18041157  1
  Li  Li69  1  -0.89681299  -0.92455279  0.68041157  1
  Li  Li70  1  -0.02773979  0.89681299  0.68041157  1
  Li  Li71  1  0.92455279  0.02773979  0.68041157  1
  Li  Li72  1  1.59121946  1.23014633  0.51374490  1
  Li  Li73  1  -0.23014633  0.36107313  0.51374490  1
  Li  Li74  1  0.63892687  -0.59121946  0.51374490  1
  Li  Li75  1  1.56347966  1.25788612  0.65292177  1
  Li  Li76  1  0.69440646  -0.56347966  0.65292177  1
  Li  Li77  1  -0.25788612  0.30559354  0.65292177  1
  Li  Li78  1  -0.25788612  -0.56347966  0.15292177  1
  Li  Li79  1  1.56347966  0.30559354  0.15292177  1
  Li  Li80  1  0.69440646  1.25788612  0.15292177  1
  Li  Li81  1  -0.23014633  -0.59121946  1.01374490  1
  Li  Li82  1  0.63892687  1.23014633  1.01374490  1
  Li  Li83  1  1.59121946  0.36107313  1.01374490  1
  Li  Li84  1  1.25788612  1.56347966  0.84707823  1
  Li  Li85  1  -0.56347966  0.69440646  0.84707823  1
  Li  Li86  1  0.30559354  -0.25788612  0.84707823  1
  Li  Li87  1  1.23014633  1.59121946  0.98625510  1
  Li  Li88  1  0.36107313  -0.23014633  0.98625510  1
  Li  Li89  1  -0.59121946  0.63892687  0.98625510  1
  Li  Li90  1  -0.59121946  -0.23014633  0.48625510  1
  Li  Li91  1  1.23014633  0.63892687  0.48625510  1
  Li  Li92  1  0.36107313  1.59121946  0.48625510  1
  Li  Li93  1  -0.56347966  -0.25788612  1.34707823  1
  Li  Li94  1  0.30559354  1.56347966  1.34707823  1
  Li  Li95  1  1.25788612  0.69440646  1.34707823  1
  Li  Li96  1  0.00000000  0.00000000  0.00000000  1
  Li  Li97  1  0.00000000  0.00000000  0.50000000  1
  Li  Li98  1  0.66666667  0.33333333  0.33333333  1
  Li  Li99  1  0.66666667  0.33333333  0.83333333  1
  Li  Li100  1  0.33333333  0.66666667  0.66666667  1
  Li  Li101  1  0.33333333  0.66666667  0.16666667  1
  Li  Li102  1  0.44907223  -0.00000000  0.25000000  1
  Li  Li103  1  0.00000000  0.44907223  0.25000000  1
  Li  Li104  1  0.55092777  0.55092777  0.25000000  1
  Li  Li105  1  0.55092777  0.00000000  0.75000000  1
  Li  Li106  1  0.00000000  0.55092777  0.75000000  1
  Li  Li107  1  0.44907223  0.44907223  0.75000000  1
  Li  Li108  1  0.11573890  0.33333333  0.58333333  1
  Li  Li109  1  0.66666667  0.78240557  0.58333333  1
  Li  Li110  1  0.21759443  0.88426110  0.58333333  1
  Li  Li111  1  0.21759443  0.33333333  0.08333333  1
  Li  Li112  1  0.66666667  0.88426110  0.08333333  1
  Li  Li113  1  0.11573890  0.78240557  0.08333333  1
  Li  Li114  1  0.78240557  0.66666667  0.91666667  1
  Li  Li115  1  0.33333333  0.11573890  0.91666667  1
  Li  Li116  1  0.88426110  0.21759443  0.91666667  1
  Li  Li117  1  0.88426110  0.66666667  0.41666667  1
  Li  Li118  1  0.33333333  0.21759443  0.41666667  1
  Li  Li119  1  0.78240557  0.11573890  0.41666667  1
