# generated using pymatgen
data_LiY2(Te2P)2
_symmetry_space_group_name_H-M   'P 1'
_cell_length_a   5.16721290
_cell_length_b   5.12849158
_cell_length_c   7.13943120
_cell_angle_alpha   94.55218490
_cell_angle_beta   99.59545580
_cell_angle_gamma   107.78520704
_symmetry_Int_Tables_number   1
_chemical_formula_structural   LiY2(Te2P)2
_chemical_formula_sum   'Li1 Y2 Te4 P2'
_cell_volume   175.91407331
_cell_formula_units_Z   1
loop_
 _symmetry_equiv_pos_site_id
 _symmetry_equiv_pos_as_xyz
  1  'x, y, z'
loop_
 _atom_site_type_symbol
 _atom_site_label
 _atom_site_symmetry_multiplicity
 _atom_site_fract_x
 _atom_site_fract_y
 _atom_site_fract_z
 _atom_site_occupancy
  Te  Te0  1  0.00000000  0.00000000  0.00000000  1
  Te  Te1  1  0.50000000  0.50000000  0.50000000  1
  Te  Te2  1  0.50000000  0.50000000  0.00000000  1
  Te  Te3  1  0.50000000  0.00000000  0.50000000  1
  Y  Y4  1  0.00000000  0.50000000  0.50000000  1
  Y  Y5  1  0.08205491  0.08848986  0.20267182  1
  P  P6  1  0.35944377  0.31975319  0.57326296  1
  P  P7  1  0.56175856  0.82419361  0.64924938  1
  Li  Li8  1  0.85959583  0.05290032  0.38890437  1
