# generated using pymatgen
data_LiY2P3
_symmetry_space_group_name_H-M   'P 1'
_cell_length_a   4.08141726
_cell_length_b   4.30940115
_cell_length_c   6.82657167
_cell_angle_alpha   96.43467236
_cell_angle_beta   104.01337866
_cell_angle_gamma   115.84552147
_symmetry_Int_Tables_number   1
_chemical_formula_structural   LiY2P3
_chemical_formula_sum   'Li1 Y2 P3'
_cell_volume   101.53415929
_cell_formula_units_Z   1
loop_
 _symmetry_equiv_pos_site_id
 _symmetry_equiv_pos_as_xyz
  1  'x, y, z'
loop_
 _atom_site_type_symbol
 _atom_site_label
 _atom_site_symmetry_multiplicity
 _atom_site_fract_x
 _atom_site_fract_y
 _atom_site_fract_z
 _atom_site_occupancy
  P  P0  1  0.00000000  0.00000000  0.00000000  1
  P  P1  1  0.33300000  0.66700000  0.25000000  1
  P  P2  1  0.66700000  0.33300000  0.50000000  1
  Li  Li3  1  0.00000000  0.00000000  0.75000000  1
  Y  Y4  1  0.85409541  0.97053742  0.29468814  1
  Y  Y5  1  0.96414240  0.10809651  0.66427396  1
