# generated using pymatgen
data_Li4TeF2
_symmetry_space_group_name_H-M   'P 1'
_cell_length_a   14.07624899
_cell_length_b   14.07624899
_cell_length_c   13.72786085
_cell_angle_alpha   90.00000000
_cell_angle_beta   90.00000000
_cell_angle_gamma   120.00000000
_symmetry_Int_Tables_number   1
_chemical_formula_structural   Li4TeF2
_chemical_formula_sum   'Li96 Te24 F48'
_cell_volume   2355.63165029
_cell_formula_units_Z   24
loop_
 _symmetry_equiv_pos_site_id
 _symmetry_equiv_pos_as_xyz
  1  'x, y, z'
loop_
 _atom_site_type_symbol
 _atom_site_label
 _atom_site_symmetry_multiplicity
 _atom_site_fract_x
 _atom_site_fract_y
 _atom_site_fract_z
 _atom_site_occupancy
  F  F0  1  0.40182831  0.86843245  0.90583054  1
  F  F1  1  -0.86843245  -0.46660414  0.90583054  1
  F  F2  1  0.46660414  -0.40182831  0.90583054  1
  F  F3  1  0.86843245  0.40182831  -0.40583054  1
  F  F4  1  -0.46660414  -0.86843245  -0.40583054  1
  F  F5  1  -0.40182831  0.46660414  -0.40583054  1
  F  F6  1  -0.40182831  -0.86843245  -0.90583054  1
  F  F7  1  0.86843245  0.46660414  -0.90583054  1
  F  F8  1  -0.46660414  0.40182831  -0.90583054  1
  F  F9  1  -0.86843245  -0.40182831  1.40583054  1
  F  F10  1  0.46660414  0.86843245  1.40583054  1
  F  F11  1  0.40182831  -0.46660414  1.40583054  1
  F  F12  1  1.06849498  1.20176579  1.23916387  1
  F  F13  1  -0.20176579  -0.13327081  1.23916387  1
  F  F14  1  1.13327081  -0.06849498  1.23916387  1
  F  F15  1  1.53509912  0.73516164  -0.07249720  1
  F  F16  1  0.20006252  -0.53509912  -0.07249720  1
  F  F17  1  0.26483836  0.79993748  -0.07249720  1
  F  F18  1  0.26483836  -0.53509912  -0.57249720  1
  F  F19  1  1.53509912  0.79993748  -0.57249720  1
  F  F20  1  0.20006252  0.73516164  -0.57249720  1
  F  F21  1  -0.20176579  -0.06849498  1.73916387  1
  F  F22  1  1.13327081  1.20176579  1.73916387  1
  F  F23  1  1.06849498  -0.13327081  1.73916387  1
  F  F24  1  0.73516164  1.53509912  1.57249720  1
  F  F25  1  -0.53509912  0.20006252  1.57249720  1
  F  F26  1  0.79993748  0.26483836  1.57249720  1
  F  F27  1  1.20176579  1.06849498  0.26083613  1
  F  F28  1  -0.13327081  -0.20176579  0.26083613  1
  F  F29  1  -0.06849498  1.13327081  0.26083613  1
  F  F30  1  -0.06849498  -0.20176579  -0.23916387  1
  F  F31  1  1.20176579  1.13327081  -0.23916387  1
  F  F32  1  -0.13327081  1.06849498  -0.23916387  1
  F  F33  1  -0.53509912  0.26483836  2.07249720  1
  F  F34  1  0.79993748  1.53509912  2.07249720  1
  F  F35  1  0.73516164  0.20006252  2.07249720  1
  F  F36  1  0.00000000  0.00000000  0.09919678  1
  F  F37  1  0.00000000  0.00000000  0.40080322  1
  F  F38  1  0.00000000  0.00000000  0.90080322  1
  F  F39  1  0.00000000  0.00000000  0.59919678  1
  F  F40  1  0.66666667  0.33333333  0.43253012  1
  F  F41  1  0.66666667  0.33333333  0.73413655  1
  F  F42  1  0.66666667  0.33333333  0.23413655  1
  F  F43  1  0.66666667  0.33333333  0.93253012  1
  F  F44  1  0.33333333  0.66666667  0.76586345  1
  F  F45  1  0.33333333  0.66666667  0.06746988  1
  F  F46  1  0.33333333  0.66666667  0.56746988  1
  F  F47  1  0.33333333  0.66666667  0.26586345  1
  Li  Li48  1  0.43478693  0.00000000  0.25000000  1
  Li  Li49  1  0.00000000  0.43478693  0.25000000  1
  Li  Li50  1  0.56521307  0.56521307  0.25000000  1
  Li  Li51  1  0.56521307  0.00000000  0.75000000  1
  Li  Li52  1  0.00000000  0.56521307  0.75000000  1
  Li  Li53  1  0.43478693  0.43478693  0.75000000  1
  Li  Li54  1  0.10145359  0.33333333  0.58333333  1
  Li  Li55  1  0.66666667  0.76812026  0.58333333  1
  Li  Li56  1  0.23187974  0.89854641  0.58333333  1
  Li  Li57  1  0.23187974  0.33333333  0.08333333  1
  Li  Li58  1  0.66666667  0.89854641  0.08333333  1
  Li  Li59  1  0.10145359  0.76812026  0.08333333  1
  Li  Li60  1  0.76812026  0.66666667  0.91666667  1
  Li  Li61  1  0.33333333  0.10145359  0.91666667  1
  Li  Li62  1  0.89854641  0.23187974  0.91666667  1
  Li  Li63  1  0.89854641  0.66666667  0.41666667  1
  Li  Li64  1  0.33333333  0.23187974  0.41666667  1
  Li  Li65  1  0.76812026  0.10145359  0.41666667  1
  Li  Li66  1  0.99241656  0.09097707  0.51529881  1
  Li  Li67  1  0.90902293  0.90143949  0.51529881  1
  Li  Li68  1  0.09856051  0.00758344  0.51529881  1
  Li  Li69  1  0.09097707  0.99241656  0.98470119  1
  Li  Li70  1  0.90143949  0.90902293  0.98470119  1
  Li  Li71  1  0.00758344  0.09856051  0.98470119  1
  Li  Li72  1  0.00758344  0.90902293  0.48470119  1
  Li  Li73  1  0.09097707  0.09856051  0.48470119  1
  Li  Li74  1  0.90143949  0.99241656  0.48470119  1
  Li  Li75  1  0.90902293  0.00758344  0.01529881  1
  Li  Li76  1  0.09856051  0.09097707  0.01529881  1
  Li  Li77  1  0.99241656  0.90143949  0.01529881  1
  Li  Li78  1  0.65908323  0.42431041  0.84863214  1
  Li  Li79  1  0.57568959  0.23477282  0.84863214  1
  Li  Li80  1  0.76522718  0.34091677  0.84863214  1
  Li  Li81  1  0.75764374  0.32574989  0.31803453  1
  Li  Li82  1  0.56810615  0.24235626  0.31803453  1
  Li  Li83  1  0.67425011  0.43189385  0.31803453  1
  Li  Li84  1  0.67425011  0.24235626  0.81803453  1
  Li  Li85  1  0.75764374  0.43189385  0.81803453  1
  Li  Li86  1  0.56810615  0.32574989  0.81803453  1
  Li  Li87  1  0.57568959  0.34091677  0.34863214  1
  Li  Li88  1  0.76522718  0.42431041  0.34863214  1
  Li  Li89  1  0.65908323  0.23477282  0.34863214  1
  Li  Li90  1  0.32574989  0.75764374  0.18196547  1
  Li  Li91  1  0.24235626  0.56810615  0.18196547  1
  Li  Li92  1  0.43189385  0.67425011  0.18196547  1
  Li  Li93  1  0.42431041  0.65908323  0.65136786  1
  Li  Li94  1  0.23477282  0.57568959  0.65136786  1
  Li  Li95  1  0.34091677  0.76522718  0.65136786  1
  Li  Li96  1  0.34091677  0.57568959  0.15136786  1
  Li  Li97  1  0.42431041  0.76522718  0.15136786  1
  Li  Li98  1  0.23477282  0.65908323  0.15136786  1
  Li  Li99  1  0.24235626  0.67425011  0.68196547  1
  Li  Li100  1  0.43189385  0.75764374  0.68196547  1
  Li  Li101  1  0.32574989  0.56810615  0.68196547  1
  Li  Li102  1  0.18125751  0.97873633  0.39244758  1
  Li  Li103  1  0.02126367  0.20252117  0.39244758  1
  Li  Li104  1  0.79747883  0.81874249  0.39244758  1
  Li  Li105  1  0.97873633  0.18125751  0.10755242  1
  Li  Li106  1  0.20252117  0.02126367  0.10755242  1
  Li  Li107  1  0.81874249  0.79747883  0.10755242  1
  Li  Li108  1  0.81874249  0.02126367  0.60755242  1
  Li  Li109  1  0.97873633  0.79747883  0.60755242  1
  Li  Li110  1  0.20252117  0.18125751  0.60755242  1
  Li  Li111  1  0.02126367  0.81874249  0.89244758  1
  Li  Li112  1  0.79747883  0.97873633  0.89244758  1
  Li  Li113  1  0.18125751  0.20252117  0.89244758  1
  Li  Li114  1  0.84792417  0.31206967  0.72578091  1
  Li  Li115  1  0.68793033  0.53585451  0.72578091  1
  Li  Li116  1  0.46414549  0.15207583  0.72578091  1
  Li  Li117  1  0.64540300  0.51459084  0.44088575  1
  Li  Li118  1  0.86918784  0.35459700  0.44088575  1
  Li  Li119  1  0.48540916  0.13081216  0.44088575  1
  Li  Li120  1  0.48540916  0.35459700  0.94088575  1
  Li  Li121  1  0.64540300  0.13081216  0.94088575  1
  Li  Li122  1  0.86918784  0.51459084  0.94088575  1
  Li  Li123  1  0.68793033  0.15207583  0.22578091  1
  Li  Li124  1  0.46414549  0.31206967  0.22578091  1
  Li  Li125  1  0.84792417  0.53585451  0.22578091  1
  Li  Li126  1  0.51459084  0.64540300  0.05911425  1
  Li  Li127  1  0.35459700  0.86918784  0.05911425  1
  Li  Li128  1  0.13081216  0.48540916  0.05911425  1
  Li  Li129  1  0.31206967  0.84792417  0.77421909  1
  Li  Li130  1  0.53585451  0.68793033  0.77421909  1
  Li  Li131  1  0.15207583  0.46414549  0.77421909  1
  Li  Li132  1  0.15207583  0.68793033  0.27421909  1
  Li  Li133  1  0.31206967  0.46414549  0.27421909  1
  Li  Li134  1  0.53585451  0.84792417  0.27421909  1
  Li  Li135  1  0.35459700  0.48540916  0.55911425  1
  Li  Li136  1  0.13081216  0.64540300  0.55911425  1
  Li  Li137  1  0.51459084  0.86918784  0.55911425  1
  Li  Li138  1  0.00000000  0.00000000  0.00000000  1
  Li  Li139  1  0.00000000  0.00000000  0.50000000  1
  Li  Li140  1  0.66666667  0.33333333  0.33333333  1
  Li  Li141  1  0.66666667  0.33333333  0.83333333  1
  Li  Li142  1  0.33333333  0.66666667  0.66666667  1
  Li  Li143  1  0.33333333  0.66666667  0.16666667  1
  Te  Te144  1  0.32893856  0.00000000  0.25000000  1
  Te  Te145  1  0.00000000  0.32893856  0.25000000  1
  Te  Te146  1  0.67106144  0.67106144  0.25000000  1
  Te  Te147  1  0.67106144  0.00000000  0.75000000  1
  Te  Te148  1  0.00000000  0.67106144  0.75000000  1
  Te  Te149  1  0.32893856  0.32893856  0.75000000  1
  Te  Te150  1  0.99560523  0.33333333  0.58333333  1
  Te  Te151  1  0.66666667  0.66227189  0.58333333  1
  Te  Te152  1  0.33772811  0.00439477  0.58333333  1
  Te  Te153  1  0.33772811  0.33333333  0.08333333  1
  Te  Te154  1  0.66666667  0.00439477  0.08333333  1
  Te  Te155  1  0.99560523  0.66227189  0.08333333  1
  Te  Te156  1  0.66227189  0.66666667  0.91666667  1
  Te  Te157  1  0.33333333  0.99560523  0.91666667  1
  Te  Te158  1  0.00439477  0.33772811  0.91666667  1
  Te  Te159  1  0.00439477  0.66666667  0.41666667  1
  Te  Te160  1  0.33333333  0.33772811  0.41666667  1
  Te  Te161  1  0.66227189  0.99560523  0.41666667  1
  Te  Te162  1  0.00000000  0.00000000  0.25000000  1
  Te  Te163  1  0.00000000  0.00000000  0.75000000  1
  Te  Te164  1  0.66666667  0.33333333  0.58333333  1
  Te  Te165  1  0.66666667  0.33333333  0.08333333  1
  Te  Te166  1  0.33333333  0.66666667  0.91666667  1
  Te  Te167  1  0.33333333  0.66666667  0.41666667  1
