# generated using pymatgen
data_LiF
_symmetry_space_group_name_H-M   'P 1'
_cell_length_a   8.31209096
_cell_length_b   8.31209096
_cell_length_c   5.03830791
_cell_angle_alpha   90.00000000
_cell_angle_beta   90.00000000
_cell_angle_gamma   90.00000000
_symmetry_Int_Tables_number   1
_chemical_formula_structural   LiF
_chemical_formula_sum   'Li21 F21'
_cell_volume   348.10100643
_cell_formula_units_Z   21
loop_
 _symmetry_equiv_pos_site_id
 _symmetry_equiv_pos_as_xyz
  1  'x, y, z'
loop_
 _atom_site_type_symbol
 _atom_site_label
 _atom_site_symmetry_multiplicity
 _atom_site_fract_x
 _atom_site_fract_y
 _atom_site_fract_z
 _atom_site_occupancy
  F  F0  1  0.15568878  0.33651637  0.50000000  1
  F  F1  1  -0.15568878  -0.33651637  0.50000000  1
  F  F2  1  -0.33651637  0.15568878  0.50000000  1
  F  F3  1  0.33651637  -0.15568878  0.50000000  1
  F  F4  1  -0.15568878  0.33651637  0.50000000  1
  F  F5  1  0.15568878  -0.33651637  0.50000000  1
  F  F6  1  0.33651637  0.15568878  0.50000000  1
  F  F7  1  -0.33651637  -0.15568878  0.50000000  1
  F  F8  1  0.44309841  0.50000000  0.70803709  1
  F  F9  1  0.55690159  0.50000000  0.70803709  1
  F  F10  1  0.50000000  0.44309841  0.70803709  1
  F  F11  1  0.50000000  0.55690159  0.70803709  1
  F  F12  1  0.55690159  0.50000000  0.29196291  1
  F  F13  1  0.44309841  0.50000000  0.29196291  1
  F  F14  1  0.50000000  0.44309841  0.29196291  1
  F  F15  1  0.50000000  0.55690159  0.29196291  1
  F  F16  1  0.64150331  0.64150331  0.00000000  1
  F  F17  1  0.35849669  0.35849669  0.00000000  1
  F  F18  1  0.35849669  0.64150331  0.00000000  1
  F  F19  1  0.64150331  0.35849669  -0.00000000  1
  F  F20  1  0.50000000  0.50000000  0.50000000  1
  Li  Li21  1  0.67580259  0.67580259  0.50000000  1
  Li  Li22  1  0.32419741  0.32419741  0.50000000  1
  Li  Li23  1  0.32419741  0.67580259  0.50000000  1
  Li  Li24  1  0.67580259  0.32419741  0.50000000  1
  Li  Li25  1  0.21366316  0.21366316  0.00000000  1
  Li  Li26  1  0.78633684  0.78633684  0.00000000  1
  Li  Li27  1  0.78633684  0.21366316  0.00000000  1
  Li  Li28  1  0.21366316  0.78633684  0.00000000  1
  Li  Li29  1  0.00000000  0.50000000  0.50000000  1
  Li  Li30  1  0.50000000  0.00000000  0.50000000  1
  Li  Li31  1  0.00000000  0.50000000  0.00000000  1
  Li  Li32  1  0.50000000  0.00000000  0.00000000  1
  Li  Li33  1  0.87720435  0.37878368  0.00000000  1
  Li  Li34  1  0.12279565  0.62121632  0.00000000  1
  Li  Li35  1  0.62121632  0.87720435  0.00000000  1
  Li  Li36  1  0.37878368  0.12279565  -0.00000000  1
  Li  Li37  1  0.12279565  0.37878368  -0.00000000  1
  Li  Li38  1  0.87720435  0.62121632  0.00000000  1
  Li  Li39  1  0.37878368  0.87720435  0.00000000  1
  Li  Li40  1  0.62121632  0.12279565  0.00000000  1
  Li  Li41  1  0.00000000  0.00000000  0.00000000  1
