# generated using pymatgen
data_Li3ScAlOF
_symmetry_space_group_name_H-M   'P 1'
_cell_length_a   3.39719253
_cell_length_b   3.29947422
_cell_length_c   5.79545731
_cell_angle_alpha   110.14219750
_cell_angle_beta   103.86449295
_cell_angle_gamma   105.14612894
_symmetry_Int_Tables_number   1
_chemical_formula_structural   Li3ScAlOF
_chemical_formula_sum   'Li3 Sc1 Al1 O1 F1'
_cell_volume   54.83775462
_cell_formula_units_Z   1
loop_
 _symmetry_equiv_pos_site_id
 _symmetry_equiv_pos_as_xyz
  1  'x, y, z'
loop_
 _atom_site_type_symbol
 _atom_site_label
 _atom_site_symmetry_multiplicity
 _atom_site_fract_x
 _atom_site_fract_y
 _atom_site_fract_z
 _atom_site_occupancy
  F  F0  1  0.00000000  0.00000000  0.00000000  1
  Al  Al1  1  0.50000000  0.50000000  0.50000000  1
  Li  Li2  1  0.50000000  0.50000000  0.00000000  1
  Li  Li3  1  0.50000000  0.00000000  0.50000000  1
  Li  Li4  1  0.00000000  0.50000000  0.50000000  1
  O  O5  1  0.99644873  0.15440468  0.52601183  1
  Sc  Sc6  1  0.94286758  0.22606912  0.28671939  1
