# generated using pymatgen
data_LiF
_symmetry_space_group_name_H-M   'P 1'
_cell_length_a   9.20954812
_cell_length_b   9.20954812
_cell_length_c   14.31866611
_cell_angle_alpha   90.00000000
_cell_angle_beta   90.00000000
_cell_angle_gamma   120.00000000
_symmetry_Int_Tables_number   1
_chemical_formula_structural   LiF
_chemical_formula_sum   'Li37 F37'
_cell_volume   1051.74349955
_cell_formula_units_Z   37
loop_
 _symmetry_equiv_pos_site_id
 _symmetry_equiv_pos_as_xyz
  1  'x, y, z'
loop_
 _atom_site_type_symbol
 _atom_site_label
 _atom_site_symmetry_multiplicity
 _atom_site_fract_x
 _atom_site_fract_y
 _atom_site_fract_z
 _atom_site_occupancy
  F  F0  1  0.00000000  0.00000000  0.34556036  1
  F  F1  1  0.00000000  0.00000000  0.65443964  1
  F  F2  1  0.18562509  0.59551961  0.14670933  1
  F  F3  1  0.40448039  0.59010548  0.14670933  1
  F  F4  1  0.40989452  0.81437491  0.14670933  1
  F  F5  1  0.40448039  0.81437491  0.85329067  1
  F  F6  1  0.40989452  0.59551961  0.85329067  1
  F  F7  1  0.18562509  0.59010548  0.85329067  1
  F  F8  1  0.43290412  0.55730857  0.71953435  1
  F  F9  1  0.44269143  0.87559555  0.71953435  1
  F  F10  1  0.12440445  0.56709588  0.71953435  1
  F  F11  1  0.44269143  0.56709588  0.28046565  1
  F  F12  1  0.12440445  0.55730857  0.28046565  1
  F  F13  1  0.43290412  0.87559555  0.28046565  1
  F  F14  1  0.68636895  0.60157672  0.52689185  1
  F  F15  1  0.39842328  0.08479223  0.52689185  1
  F  F16  1  0.91520777  0.31363105  0.52689185  1
  F  F17  1  0.39842328  0.31363105  0.47310815  1
  F  F18  1  0.91520777  0.60157672  0.47310815  1
  F  F19  1  0.68636895  0.08479223  0.47310815  1
  F  F20  1  0.66670630  0.10535798  0.00271373  1
  F  F21  1  0.89464202  0.56134832  0.00271373  1
  F  F22  1  0.43865168  0.33329370  0.00271373  1
  F  F23  1  0.89464202  0.33329370  0.99728627  1
  F  F24  1  0.43865168  0.10535798  0.99728627  1
  F  F25  1  0.66670630  0.56134832  0.99728627  1
  F  F26  1  0.00000000  0.00000000  0.92325990  1
  F  F27  1  0.00000000  0.00000000  0.07674010  1
  F  F28  1  0.83935989  0.48766826  0.21987175  1
  F  F29  1  0.51233174  0.35169162  0.21987175  1
  F  F30  1  0.64830838  0.16064011  0.21987175  1
  F  F31  1  0.51233174  0.16064011  0.78012825  1
  F  F32  1  0.64830838  0.48766826  0.78012825  1
  F  F33  1  0.83935989  0.35169162  0.78012825  1
  F  F34  1  0.33333333  0.66666667  0.00000000  1
  F  F35  1  0.33333333  0.66666667  0.33759016  1
  F  F36  1  0.33333333  0.66666667  0.66240984  1
  Li  Li37  1  0.66666667  0.33333333  0.00000000  1
  Li  Li38  1  0.25417114  0.41569499  0.07750237  1
  Li  Li39  1  -0.41569499  -0.16152385  0.07750237  1
  Li  Li40  1  0.16152385  -0.25417114  0.07750237  1
  Li  Li41  1  -0.41569499  -0.25417114  -0.07750237  1
  Li  Li42  1  0.16152385  0.41569499  -0.07750237  1
  Li  Li43  1  0.25417114  -0.16152385  -0.07750237  1
  Li  Li44  1  0.66666667  0.33333333  0.69416642  1
  Li  Li45  1  0.66666667  0.33333333  0.30583358  1
  Li  Li46  1  0.25599693  0.45292512  0.77612168  1
  Li  Li47  1  0.54707488  0.80307181  0.77612168  1
  Li  Li48  1  0.19692819  0.74400307  0.77612168  1
  Li  Li49  1  0.54707488  0.74400307  0.22387832  1
  Li  Li50  1  0.19692819  0.45292512  0.22387832  1
  Li  Li51  1  0.25599693  0.80307181  0.22387832  1
  Li  Li52  1  0.33333333  0.66666667  0.50000000  1
  Li  Li53  1  0.06339625  0.31489222  0.09178414  1
  Li  Li54  1  0.68510778  0.74850404  0.09178414  1
  Li  Li55  1  0.25149596  0.93660375  0.09178414  1
  Li  Li56  1  0.68510778  0.93660375  0.90821586  1
  Li  Li57  1  0.25149596  0.31489222  0.90821586  1
  Li  Li58  1  0.06339625  0.74850404  0.90821586  1
  Li  Li59  1  0.24864846  0.91277266  0.82972456  1
  Li  Li60  1  0.08722734  0.33587580  0.82972456  1
  Li  Li61  1  0.66412420  0.75135154  0.82972456  1
  Li  Li62  1  0.08722734  0.75135154  0.17027544  1
  Li  Li63  1  0.66412420  0.91277266  0.17027544  1
  Li  Li64  1  0.24864846  0.33587580  0.17027544  1
  Li  Li65  1  0.25129319  0.96212291  0.66057874  1
  Li  Li66  1  0.03787709  0.28917028  0.66057874  1
  Li  Li67  1  0.71082972  0.74870681  0.66057874  1
  Li  Li68  1  0.03787709  0.74870681  0.33942126  1
  Li  Li69  1  0.71082972  0.96212291  0.33942126  1
  Li  Li70  1  0.25129319  0.28917028  0.33942126  1
  Li  Li71  1  0.00000000  0.00000000  0.50000000  1
  Li  Li72  1  0.33333333  0.66666667  0.91892226  1
  Li  Li73  1  0.33333333  0.66666667  0.08107774  1
