# generated using pymatgen
data_Li2Ca3F8
_symmetry_space_group_name_H-M   'P 1'
_cell_length_a   10.59835252
_cell_length_b   10.59835252
_cell_length_c   16.41360935
_cell_angle_alpha   90.00000000
_cell_angle_beta   90.00000000
_cell_angle_gamma   120.00000000
_symmetry_Int_Tables_number   1
_chemical_formula_structural   Li2Ca3F8
_chemical_formula_sum   'Li16 Ca24 F64'
_cell_volume   1596.65632535
_cell_formula_units_Z   8
loop_
 _symmetry_equiv_pos_site_id
 _symmetry_equiv_pos_as_xyz
  1  'x, y, z'
loop_
 _atom_site_type_symbol
 _atom_site_label
 _atom_site_symmetry_multiplicity
 _atom_site_fract_x
 _atom_site_fract_y
 _atom_site_fract_z
 _atom_site_occupancy
  Ca  Ca0  1  0.35895928  0.15419156  0.21443246  1
  Ca  Ca1  1  0.84580844  0.20476772  0.21443246  1
  Ca  Ca2  1  0.79523228  0.64104072  0.21443246  1
  Ca  Ca3  1  0.84580844  0.64104072  0.78556754  1
  Ca  Ca4  1  0.79523228  0.15419156  0.78556754  1
  Ca  Ca5  1  0.35895928  0.20476772  0.78556754  1
  Ca  Ca6  1  0.02217440  0.60312311  0.00555877  1
  Ca  Ca7  1  0.39687689  0.41905130  0.00555877  1
  Ca  Ca8  1  0.58094870  0.97782560  0.00555877  1
  Ca  Ca9  1  0.39687689  0.97782560  0.99444123  1
  Ca  Ca10  1  0.58094870  0.60312311  0.99444123  1
  Ca  Ca11  1  0.02217440  0.41905130  0.99444123  1
  Ca  Ca12  1  0.78993016  0.22534984  0.94109785  1
  Ca  Ca13  1  0.77465016  0.56458031  0.94109785  1
  Ca  Ca14  1  0.43541969  0.21006984  0.94109785  1
  Ca  Ca15  1  0.77465016  0.21006984  0.05890215  1
  Ca  Ca16  1  0.43541969  0.22534984  0.05890215  1
  Ca  Ca17  1  0.78993016  0.56458031  0.05890215  1
  Ca  Ca18  1  0.28280732  0.96422410  0.12289430  1
  Ca  Ca19  1  0.03577590  0.31858321  0.12289430  1
  Ca  Ca20  1  0.68141679  0.71719268  0.12289430  1
  Ca  Ca21  1  0.03577590  0.71719268  0.87710570  1
  Ca  Ca22  1  0.68141679  0.96422410  0.87710570  1
  Ca  Ca23  1  0.28280732  0.31858321  0.87710570  1
  F  F24  1  0.61519194  0.38480806  0.50000000  1
  F  F25  1  0.61519194  0.23038389  0.50000000  1
  F  F26  1  0.76961611  0.38480806  0.50000000  1
  F  F27  1  0.53364761  0.89430605  0.15570234  1
  F  F28  1  -0.89430605  -0.36065844  0.15570234  1
  F  F29  1  0.36065844  -0.53364761  0.15570234  1
  F  F30  1  -0.89430605  -0.53364761  -0.15570234  1
  F  F31  1  0.36065844  0.89430605  -0.15570234  1
  F  F32  1  0.53364761  -0.36065844  -0.15570234  1
  F  F33  1  0.33333333  0.66666667  0.50000000  1
  F  F34  1  0.19366203  0.19467496  0.15920125  1
  F  F35  1  0.80532504  0.99898707  0.15920125  1
  F  F36  1  0.00101293  0.80633797  0.15920125  1
  F  F37  1  0.80532504  0.80633797  0.84079875  1
  F  F38  1  0.00101293  0.19467496  0.84079875  1
  F  F39  1  0.19366203  0.99898707  0.84079875  1
  F  F40  1  0.30934918  0.50565677  0.10469959  1
  F  F41  1  0.49434323  0.80369241  0.10469959  1
  F  F42  1  0.19630759  0.69065082  0.10469959  1
  F  F43  1  0.49434323  0.69065082  0.89530041  1
  F  F44  1  0.19630759  0.50565677  0.89530041  1
  F  F45  1  0.30934918  0.80369241  0.89530041  1
  F  F46  1  0.62927506  0.03475020  0.84082786  1
  F  F47  1  0.96524980  0.59452487  0.84082786  1
  F  F48  1  0.40547513  0.37072494  0.84082786  1
  F  F49  1  0.96524980  0.37072494  0.15917214  1
  F  F50  1  0.40547513  0.03475020  0.15917214  1
  F  F51  1  0.62927506  0.59452487  0.15917214  1
  F  F52  1  0.35496885  0.59131384  0.34007208  1
  F  F53  1  0.40868616  0.76365502  0.34007208  1
  F  F54  1  0.23634498  0.64503115  0.34007208  1
  F  F55  1  0.40868616  0.64503115  0.65992792  1
  F  F56  1  0.23634498  0.59131384  0.65992792  1
  F  F57  1  0.35496885  0.76365502  0.65992792  1
  F  F58  1  0.44485453  0.84297407  0.86075133  1
  F  F59  1  0.15702593  0.60188046  0.86075133  1
  F  F60  1  0.39811954  0.55514547  0.86075133  1
  F  F61  1  0.15702593  0.55514547  0.13924867  1
  F  F62  1  0.39811954  0.84297407  0.13924867  1
  F  F63  1  0.44485453  0.60188046  0.13924867  1
  F  F64  1  0.74915677  0.79282559  0.90317453  1
  F  F65  1  0.20717441  0.95633118  0.90317453  1
  F  F66  1  0.04366882  0.25084323  0.90317453  1
  F  F67  1  0.20717441  0.25084323  0.09682547  1
  F  F68  1  0.04366882  0.79282559  0.09682547  1
  F  F69  1  0.74915677  0.95633118  0.09682547  1
  F  F70  1  0.41496418  0.41453115  0.39309603  1
  F  F71  1  0.58546885  0.00043303  0.39309603  1
  F  F72  1  0.99956697  0.58503582  0.39309603  1
  F  F73  1  0.58546885  0.58503582  0.60690397  1
  F  F74  1  0.99956697  0.41453115  0.60690397  1
  F  F75  1  0.41496418  0.00043303  0.60690397  1
  F  F76  1  0.07752744  0.63223239  0.89084950  1
  F  F77  1  0.36776761  0.44529504  0.89084950  1
  F  F78  1  0.55470496  0.92247256  0.89084950  1
  F  F79  1  0.36776761  0.92247256  0.10915050  1
  F  F80  1  0.55470496  0.63223239  0.10915050  1
  F  F81  1  0.07752744  0.44529504  0.10915050  1
  F  F82  1  0.33333333  0.66666667  0.23825748  1
  F  F83  1  0.33333333  0.66666667  0.76174252  1
  F  F84  1  0.66666667  0.33333333  0.50000000  1
  F  F85  1  0.66666667  0.33333333  0.00000000  1
  F  F86  1  0.00000000  0.00000000  0.72460554  1
  F  F87  1  0.00000000  0.00000000  0.27539446  1
  Li  Li88  1  0.66666667  0.33333333  0.39051528  1
  Li  Li89  1  0.66666667  0.33333333  0.60948472  1
  Li  Li90  1  0.41552862  0.58447138  0.50000000  1
  Li  Li91  1  0.41552862  0.83105725  0.50000000  1
  Li  Li92  1  0.16894275  0.58447138  0.50000000  1
  Li  Li93  1  0.23491997  0.73381383  0.65332400  1
  Li  Li94  1  0.26618617  0.50110614  0.65332400  1
  Li  Li95  1  0.49889386  0.76508003  0.65332400  1
  Li  Li96  1  0.26618617  0.76508003  0.34667600  1
  Li  Li97  1  0.49889386  0.73381383  0.34667600  1
  Li  Li98  1  0.23491997  0.50110614  0.34667600  1
  Li  Li99  1  0.09400637  0.90599363  0.50000000  1
  Li  Li100  1  0.09400637  0.18801274  0.50000000  1
  Li  Li101  1  0.81198726  0.90599363  0.50000000  1
  Li  Li102  1  0.00000000  0.00000000  0.50000000  1
  Li  Li103  1  0.00000000  0.00000000  0.00000000  1
