# generated using pymatgen
data_LiF
_symmetry_space_group_name_H-M   'P 1'
_cell_length_a   15.42291038
_cell_length_b   5.96474601
_cell_length_c   5.53899607
_cell_angle_alpha   90.00000000
_cell_angle_beta   90.00000000
_cell_angle_gamma   90.00000000
_symmetry_Int_Tables_number   1
_chemical_formula_structural   LiF
_chemical_formula_sum   'Li24 F24'
_cell_volume   509.55298181
_cell_formula_units_Z   24
loop_
 _symmetry_equiv_pos_site_id
 _symmetry_equiv_pos_as_xyz
  1  'x, y, z'
loop_
 _atom_site_type_symbol
 _atom_site_label
 _atom_site_symmetry_multiplicity
 _atom_site_fract_x
 _atom_site_fract_y
 _atom_site_fract_z
 _atom_site_occupancy
  F  F0  1  0.59533981  0.25000000  0.57322302  1
  F  F1  1  0.90466019  0.75000000  0.07322302  1
  F  F2  1  0.40466019  0.75000000  0.42677698  1
  F  F3  1  0.09533981  0.25000000  0.92677698  1
  F  F4  1  0.29331439  0.37227433  0.78198181  1
  F  F5  1  0.20668561  0.62772567  0.28198181  1
  F  F6  1  0.70668561  0.87227433  0.21801819  1
  F  F7  1  0.79331439  0.12772567  0.71801819  1
  F  F8  1  0.70668561  0.62772567  0.21801819  1
  F  F9  1  0.79331439  0.37227433  0.71801819  1
  F  F10  1  0.29331439  0.12772567  0.78198181  1
  F  F11  1  0.20668561  0.87227433  0.28198181  1
  F  F12  1  0.23504949  0.87766461  0.85838278  1
  F  F13  1  0.26495051  0.12233539  0.35838278  1
  F  F14  1  0.76495051  0.37766461  0.14161722  1
  F  F15  1  0.73504949  0.62233539  0.64161722  1
  F  F16  1  0.76495051  0.12233539  0.14161722  1
  F  F17  1  0.73504949  0.87766461  0.64161722  1
  F  F18  1  0.23504949  0.62233539  0.85838278  1
  F  F19  1  0.26495051  0.37766461  0.35838278  1
  F  F20  1  0.98878264  0.25000000  0.74097523  1
  F  F21  1  0.51121736  0.75000000  0.24097523  1
  F  F22  1  0.01121736  0.75000000  0.25902477  1
  F  F23  1  0.48878264  0.25000000  0.75902477  1
  Li  Li24  1  0.08331085  0.25000000  0.59349148  1
  Li  Li25  1  0.41668915  0.75000000  0.09349148  1
  Li  Li26  1  0.91668915  0.75000000  0.40650852  1
  Li  Li27  1  0.58331085  0.25000000  0.90650852  1
  Li  Li28  1  0.36573650  0.25000000  0.11173434  1
  Li  Li29  1  0.13426350  0.75000000  0.61173434  1
  Li  Li30  1  0.63426350  0.75000000  0.88826566  1
  Li  Li31  1  0.86573650  0.25000000  0.38826566  1
  Li  Li32  1  0.16848597  0.54886862  0.52147974  1
  Li  Li33  1  0.33151403  -0.54886862  1.02147974  1
  Li  Li34  1  -0.16848597  1.04886862  -0.52147974  1
  Li  Li35  1  0.66848597  -0.04886862  -0.02147974  1
  Li  Li36  1  -0.16848597  -0.54886862  -0.52147974  1
  Li  Li37  1  0.66848597  0.54886862  -0.02147974  1
  Li  Li38  1  0.16848597  -0.04886862  0.52147974  1
  Li  Li39  1  0.33151403  1.04886862  1.02147974  1
  Li  Li40  1  0.00000000  0.00000000  0.50000000  1
  Li  Li41  1  0.50000000  0.00000000  0.00000000  1
  Li  Li42  1  0.00000000  0.50000000  0.50000000  1
  Li  Li43  1  0.50000000  0.50000000  0.00000000  1
  Li  Li44  1  0.00000000  0.00000000  0.00000000  1
  Li  Li45  1  0.50000000  0.00000000  0.50000000  1
  Li  Li46  1  0.00000000  0.50000000  0.00000000  1
  Li  Li47  1  0.50000000  0.50000000  0.50000000  1
