# generated using pymatgen
data_LiF
_symmetry_space_group_name_H-M   'P 1'
_cell_length_a   15.54308627
_cell_length_b   5.11513659
_cell_length_c   7.48728082
_cell_angle_alpha   90.00000000
_cell_angle_beta   90.00000000
_cell_angle_gamma   90.00000000
_symmetry_Int_Tables_number   1
_chemical_formula_structural   LiF
_chemical_formula_sum   'Li24 F24'
_cell_volume   595.27633176
_cell_formula_units_Z   24
loop_
 _symmetry_equiv_pos_site_id
 _symmetry_equiv_pos_as_xyz
  1  'x, y, z'
loop_
 _atom_site_type_symbol
 _atom_site_label
 _atom_site_symmetry_multiplicity
 _atom_site_fract_x
 _atom_site_fract_y
 _atom_site_fract_z
 _atom_site_occupancy
  F  F0  1  0.00000000  0.00000000  0.50000000  1
  F  F1  1  0.50000000  0.50000000  0.50000000  1
  F  F2  1  0.53422422  0.28536063  0.23926837  1
  F  F3  1  -0.53422422  -0.28536063  0.23926837  1
  F  F4  1  -0.03422422  0.78536063  -0.23926837  1
  F  F5  1  1.03422422  0.21463937  -0.23926837  1
  F  F6  1  -0.53422422  -0.28536063  -0.23926837  1
  F  F7  1  0.53422422  0.28536063  -0.23926837  1
  F  F8  1  1.03422422  0.21463937  0.23926837  1
  F  F9  1  -0.03422422  0.78536063  0.23926837  1
  F  F10  1  0.57165072  0.74898649  0.50000000  1
  F  F11  1  0.42834928  0.25101351  0.50000000  1
  F  F12  1  0.92834928  0.24898649  0.50000000  1
  F  F13  1  0.07165072  0.75101351  0.50000000  1
  F  F14  1  0.45006626  0.48617407  0.62306815  1
  F  F15  1  0.54993374  0.51382593  0.62306815  1
  F  F16  1  0.04993374  0.98617407  0.37693185  1
  F  F17  1  0.95006626  0.01382593  0.37693185  1
  F  F18  1  0.54993374  0.51382593  0.37693185  1
  F  F19  1  0.45006626  0.48617407  0.37693185  1
  F  F20  1  0.95006626  0.01382593  0.62306815  1
  F  F21  1  0.04993374  0.98617407  0.62306815  1
  F  F22  1  0.00000000  0.50000000  0.00000000  1
  F  F23  1  0.50000000  0.00000000  0.00000000  1
  Li  Li24  1  0.06685153  0.53044806  0.50000000  1
  Li  Li25  1  0.93314847  0.46955194  0.50000000  1
  Li  Li26  1  0.43314847  0.03044806  0.50000000  1
  Li  Li27  1  0.56685153  0.96955194  0.50000000  1
  Li  Li28  1  0.90374215  0.95267492  0.50000000  1
  Li  Li29  1  0.09625785  0.04732508  0.50000000  1
  Li  Li30  1  0.59625785  0.45267492  0.50000000  1
  Li  Li31  1  0.40374215  0.54732508  0.50000000  1
  Li  Li32  1  0.16230831  0.43311943  0.32313642  1
  Li  Li33  1  0.83769169  0.56688057  0.32313642  1
  Li  Li34  1  0.33769169  0.93311943  0.67686358  1
  Li  Li35  1  0.66230831  0.06688057  0.67686358  1
  Li  Li36  1  0.83769169  0.56688057  0.67686358  1
  Li  Li37  1  0.16230831  0.43311943  0.67686358  1
  Li  Li38  1  0.66230831  0.06688057  0.32313642  1
  Li  Li39  1  0.33769169  0.93311943  0.32313642  1
  Li  Li40  1  0.22100228  0.85425023  -0.00000000  1
  Li  Li41  1  0.77899772  0.14574977  0.00000000  1
  Li  Li42  1  0.27899772  0.35425023  0.00000000  1
  Li  Li43  1  0.72100228  0.64574977  0.00000000  1
  Li  Li44  1  0.00000000  0.50000000  0.71066707  1
  Li  Li45  1  0.50000000  0.00000000  0.28933293  1
  Li  Li46  1  0.00000000  0.50000000  0.28933293  1
  Li  Li47  1  0.50000000  0.00000000  0.71066707  1
