# generated using pymatgen
data_Li4Al3Te4I3O
_symmetry_space_group_name_H-M   'P 1'
_cell_length_a   12.77601750
_cell_length_b   12.77601750
_cell_length_c   3.44747006
_cell_angle_alpha   90.00000000
_cell_angle_beta   90.00000000
_cell_angle_gamma   120.00000000
_symmetry_Int_Tables_number   1
_chemical_formula_structural   Li4Al3Te4I3O
_chemical_formula_sum   'Li8 Al6 Te8 I6 O2'
_cell_volume   487.32885978
_cell_formula_units_Z   2
loop_
 _symmetry_equiv_pos_site_id
 _symmetry_equiv_pos_as_xyz
  1  'x, y, z'
loop_
 _atom_site_type_symbol
 _atom_site_label
 _atom_site_symmetry_multiplicity
 _atom_site_fract_x
 _atom_site_fract_y
 _atom_site_fract_z
 _atom_site_occupancy
  Al  Al0  1  0.41975146  0.51182734  0.67402684  1
  Al  Al1  1  -0.51182734  -0.09207588  0.67402684  1
  Al  Al2  1  0.09207588  -0.41975146  0.67402684  1
  Al  Al3  1  -0.51182734  -0.41975146  -0.67402684  1
  Al  Al4  1  0.09207588  0.51182734  -0.67402684  1
  Al  Al5  1  0.41975146  -0.09207588  -0.67402684  1
  I  I6  1  0.64968550  0.16996413  0.41255775  1
  I  I7  1  0.83003587  0.47972137  0.41255775  1
  I  I8  1  0.52027863  0.35031450  0.41255775  1
  I  I9  1  0.83003587  0.35031450  0.58744225  1
  I  I10  1  0.52027863  0.16996413  0.58744225  1
  I  I11  1  0.64968550  0.47972137  0.58744225  1
  Li  Li12  1  0.00000000  0.00000000  0.50000000  1
  Li  Li13  1  0.49012156  0.04947124  0.64664141  1
  Li  Li14  1  0.95052876  0.44065032  0.64664141  1
  Li  Li15  1  0.55934968  0.50987844  0.64664141  1
  Li  Li16  1  0.95052876  0.50987844  0.35335859  1
  Li  Li17  1  0.55934968  0.04947124  0.35335859  1
  Li  Li18  1  0.49012156  0.44065032  0.35335859  1
  Li  Li19  1  0.66666667  0.33333333  -0.00000000  1
  O  O20  1  0.33333333  0.66666667  0.61279489  1
  O  O21  1  0.33333333  0.66666667  0.38720511  1
  Te  Te22  1  0.84153845  0.84924805  0.22007013  1
  Te  Te23  1  0.15075195  0.99229040  0.22007013  1
  Te  Te24  1  0.00770960  0.15846155  0.22007013  1
  Te  Te25  1  0.15075195  0.15846155  0.77992987  1
  Te  Te26  1  0.00770960  0.84924805  0.77992987  1
  Te  Te27  1  0.84153845  0.99229040  0.77992987  1
  Te  Te28  1  0.00000000  0.00000000  0.00000000  1
  Te  Te29  1  0.66666667  0.33333333  0.50000000  1
