# generated using pymatgen
data_LiF
_symmetry_space_group_name_H-M   'P 1'
_cell_length_a   6.48413086
_cell_length_b   8.43869467
_cell_length_c   5.82754246
_cell_angle_alpha   90.00000000
_cell_angle_beta   90.00000000
_cell_angle_gamma   90.00000000
_symmetry_Int_Tables_number   1
_chemical_formula_structural   LiF
_chemical_formula_sum   'Li24 F24'
_cell_volume   318.86914069
_cell_formula_units_Z   24
loop_
 _symmetry_equiv_pos_site_id
 _symmetry_equiv_pos_as_xyz
  1  'x, y, z'
loop_
 _atom_site_type_symbol
 _atom_site_label
 _atom_site_symmetry_multiplicity
 _atom_site_fract_x
 _atom_site_fract_y
 _atom_site_fract_z
 _atom_site_occupancy
  F  F0  1  0.52332066  0.65338691  0.37840131  1
  F  F1  1  0.97667934  0.34661309  0.87840131  1
  F  F2  1  0.47667934  0.15338691  0.62159869  1
  F  F3  1  0.02332066  0.84661309  0.12159869  1
  F  F4  1  0.47667934  0.34661309  0.62159869  1
  F  F5  1  0.02332066  0.65338691  0.12159869  1
  F  F6  1  0.52332066  0.84661309  0.37840131  1
  F  F7  1  0.97667934  0.15338691  0.87840131  1
  F  F8  1  0.00000000  0.00000000  0.50000000  1
  F  F9  1  0.50000000  0.00000000  0.00000000  1
  F  F10  1  0.00000000  0.50000000  0.50000000  1
  F  F11  1  0.50000000  0.50000000  0.00000000  1
  F  F12  1  0.71402321  0.25000000  0.74239856  1
  F  F13  1  0.78597679  0.75000000  0.24239856  1
  F  F14  1  0.28597679  0.75000000  0.25760144  1
  F  F15  1  0.21402321  0.25000000  0.75760144  1
  F  F16  1  0.10722529  0.98022627  0.14345892  1
  F  F17  1  0.39277471  0.01977373  0.64345892  1
  F  F18  1  0.89277471  0.48022627  0.85654108  1
  F  F19  1  0.60722529  0.51977373  0.35654108  1
  F  F20  1  0.89277471  0.01977373  0.85654108  1
  F  F21  1  0.60722529  0.98022627  0.35654108  1
  F  F22  1  0.10722529  0.51977373  0.14345892  1
  F  F23  1  0.39277471  0.48022627  0.64345892  1
  Li  Li24  1  0.00000000  0.00000000  0.00000000  1
  Li  Li25  1  0.50000000  0.00000000  0.50000000  1
  Li  Li26  1  0.00000000  0.50000000  0.00000000  1
  Li  Li27  1  0.50000000  0.50000000  0.50000000  1
  Li  Li28  1  0.06175337  0.92359038  0.60526078  1
  Li  Li29  1  0.43824663  -0.92359038  1.10526078  1
  Li  Li30  1  -0.06175337  1.42359038  -0.60526078  1
  Li  Li31  1  0.56175337  -0.42359038  -0.10526078  1
  Li  Li32  1  -0.06175337  -0.92359038  -0.60526078  1
  Li  Li33  1  0.56175337  0.92359038  -0.10526078  1
  Li  Li34  1  0.06175337  -0.42359038  0.60526078  1
  Li  Li35  1  0.43824663  1.42359038  1.10526078  1
  Li  Li36  1  0.66793759  0.07547820  0.94713139  1
  Li  Li37  1  0.83206241  0.92452180  0.44713139  1
  Li  Li38  1  0.33206241  0.57547820  0.05286861  1
  Li  Li39  1  0.16793759  0.42452180  0.55286861  1
  Li  Li40  1  0.33206241  0.92452180  0.05286861  1
  Li  Li41  1  0.16793759  0.07547820  0.55286861  1
  Li  Li42  1  0.66793759  0.42452180  0.94713139  1
  Li  Li43  1  0.83206241  0.57547820  0.44713139  1
  Li  Li44  1  0.14281980  0.25000000  0.42520119  1
  Li  Li45  1  0.35718020  0.75000000  0.92520119  1
  Li  Li46  1  0.85718020  0.75000000  0.57479881  1
  Li  Li47  1  0.64281980  0.25000000  0.07479881  1
