# generated using pymatgen
data_Li2O
_symmetry_space_group_name_H-M   'P 1'
_cell_length_a   7.80975628
_cell_length_b   7.80975628
_cell_length_c   8.34489743
_cell_angle_alpha   90.00000000
_cell_angle_beta   90.00000000
_cell_angle_gamma   120.00000000
_symmetry_Int_Tables_number   1
_chemical_formula_structural   Li2O
_chemical_formula_sum   'Li16 O8'
_cell_volume   440.78478635
_cell_formula_units_Z   8
loop_
 _symmetry_equiv_pos_site_id
 _symmetry_equiv_pos_as_xyz
  1  'x, y, z'
loop_
 _atom_site_type_symbol
 _atom_site_label
 _atom_site_symmetry_multiplicity
 _atom_site_fract_x
 _atom_site_fract_y
 _atom_site_fract_z
 _atom_site_occupancy
  Li  Li0  1  0.00000000  0.00000000  0.38843938  1
  Li  Li1  1  0.00000000  0.00000000  0.88843938  1
  Li  Li2  1  0.00000000  0.00000000  0.61156062  1
  Li  Li3  1  0.00000000  0.00000000  0.11156062  1
  Li  Li4  1  0.40561335  0.80846592  0.25000000  1
  Li  Li5  1  0.19153408  0.59714743  0.25000000  1
  Li  Li6  1  0.40285257  0.59438665  0.25000000  1
  Li  Li7  1  0.59438665  0.19153408  0.75000000  1
  Li  Li8  1  0.80846592  0.40285257  0.75000000  1
  Li  Li9  1  0.59714743  0.40561335  0.75000000  1
  Li  Li10  1  0.96045522  0.71429601  0.25000000  1
  Li  Li11  1  0.28570399  0.24615921  0.25000000  1
  Li  Li12  1  0.75384079  0.03954478  0.25000000  1
  Li  Li13  1  0.03954478  0.28570399  0.75000000  1
  Li  Li14  1  0.71429601  0.75384079  0.75000000  1
  Li  Li15  1  0.24615921  0.96045522  0.75000000  1
  O  O16  1  0.50000000  0.00000000  -0.00000000  1
  O  O17  1  0.00000000  0.50000000  0.00000000  1
  O  O18  1  0.50000000  0.50000000  -0.00000000  1
  O  O19  1  0.50000000  0.00000000  0.50000000  1
  O  O20  1  0.00000000  0.50000000  0.50000000  1
  O  O21  1  0.50000000  0.50000000  0.50000000  1
  O  O22  1  0.66666667  0.33333333  0.25000000  1
  O  O23  1  0.33333333  0.66666667  0.75000000  1
