# generated using pymatgen
data_LiF
_symmetry_space_group_name_H-M   'P 1'
_cell_length_a   7.06992307
_cell_length_b   7.06992307
_cell_length_c   6.16050035
_cell_angle_alpha   90.00000000
_cell_angle_beta   90.00000000
_cell_angle_gamma   90.00000000
_symmetry_Int_Tables_number   1
_chemical_formula_structural   LiF
_chemical_formula_sum   'Li15 F15'
_cell_volume   307.92529282
_cell_formula_units_Z   15
loop_
 _symmetry_equiv_pos_site_id
 _symmetry_equiv_pos_as_xyz
  1  'x, y, z'
loop_
 _atom_site_type_symbol
 _atom_site_label
 _atom_site_symmetry_multiplicity
 _atom_site_fract_x
 _atom_site_fract_y
 _atom_site_fract_z
 _atom_site_occupancy
  F  F0  1  0.88749571  0.60100008  0.00000000  1
  F  F1  1  -0.88749571  -0.60100008  -0.00000000  1
  F  F2  1  -0.60100008  0.88749571  0.00000000  1
  F  F3  1  0.60100008  -0.88749571  0.00000000  1
  F  F4  1  -0.88749571  0.60100008  0.00000000  1
  F  F5  1  0.88749571  -0.60100008  0.00000000  1
  F  F6  1  0.60100008  0.88749571  0.00000000  1
  F  F7  1  -0.60100008  -0.88749571  -0.00000000  1
  F  F8  1  0.00000000  0.00000000  0.50000000  1
  F  F9  1  0.50000000  0.50000000  0.50000000  1
  F  F10  1  0.04993975  0.50000000  0.00000000  1
  F  F11  1  0.95006025  0.50000000  0.00000000  1
  F  F12  1  0.50000000  0.04993975  0.00000000  1
  F  F13  1  0.50000000  0.95006025  0.00000000  1
  F  F14  1  0.50000000  0.50000000  0.00000000  1
  Li  Li15  1  0.33743461  0.33743461  0.00000000  1
  Li  Li16  1  0.66256539  0.66256539  0.00000000  1
  Li  Li17  1  0.66256539  0.33743461  -0.00000000  1
  Li  Li18  1  0.33743461  0.66256539  -0.00000000  1
  Li  Li19  1  0.16346781  0.16346781  0.50000000  1
  Li  Li20  1  0.83653219  0.83653219  0.50000000  1
  Li  Li21  1  0.83653219  0.16346781  0.50000000  1
  Li  Li22  1  0.16346781  0.83653219  0.50000000  1
  Li  Li23  1  0.86587341  0.86587341  0.00000000  1
  Li  Li24  1  0.13412659  0.13412659  -0.00000000  1
  Li  Li25  1  0.13412659  0.86587341  0.00000000  1
  Li  Li26  1  0.86587341  0.13412659  -0.00000000  1
  Li  Li27  1  0.50000000  0.50000000  0.30760434  1
  Li  Li28  1  0.50000000  0.50000000  0.69239566  1
  Li  Li29  1  0.00000000  0.00000000  0.00000000  1
