# generated using pymatgen
data_LiYAsP2
_symmetry_space_group_name_H-M   'P 1'
_cell_length_a   4.34626066
_cell_length_b   4.44856940
_cell_length_c   7.00979036
_cell_angle_alpha   95.97506410
_cell_angle_beta   103.01244740
_cell_angle_gamma   113.99945772
_symmetry_Int_Tables_number   1
_chemical_formula_structural   LiYAsP2
_chemical_formula_sum   'Li2 Y2 As2 P4'
_cell_volume   117.68437025
_cell_formula_units_Z   2
loop_
 _symmetry_equiv_pos_site_id
 _symmetry_equiv_pos_as_xyz
  1  'x, y, z'
loop_
 _atom_site_type_symbol
 _atom_site_label
 _atom_site_symmetry_multiplicity
 _atom_site_fract_x
 _atom_site_fract_y
 _atom_site_fract_z
 _atom_site_occupancy
  P  P0  1  0.00000000  0.00000000  0.00000000  1
  P  P1  1  0.50000000  0.50000000  0.50000000  1
  P  P2  1  0.25000000  0.25000000  0.25000000  1
  P  P3  1  0.75000000  0.25000000  0.00000000  1
  As  As4  1  0.25000000  0.75000000  0.50000000  1
  As  As5  1  0.43108449  0.12653152  0.31898131  1
  Li  Li6  1  0.26573798  0.69221288  0.32244343  1
  Li  Li7  1  0.42897739  0.01252063  0.20406067  1
  Y  Y8  1  0.14159992  0.89883325  0.09413462  1
  Y  Y9  1  0.18117994  0.95963089  0.94468259  1
