# generated using pymatgen
data_LiF
_symmetry_space_group_name_H-M   'P 1'
_cell_length_a   12.17834928
_cell_length_b   12.17834928
_cell_length_c   11.32058277
_cell_angle_alpha   90.00000000
_cell_angle_beta   90.00000000
_cell_angle_gamma   120.00000000
_symmetry_Int_Tables_number   1
_chemical_formula_structural   LiF
_chemical_formula_sum   'Li42 F42'
_cell_volume   1454.03970888
_cell_formula_units_Z   42
loop_
 _symmetry_equiv_pos_site_id
 _symmetry_equiv_pos_as_xyz
  1  'x, y, z'
loop_
 _atom_site_type_symbol
 _atom_site_label
 _atom_site_symmetry_multiplicity
 _atom_site_fract_x
 _atom_site_fract_y
 _atom_site_fract_z
 _atom_site_occupancy
  F  F0  1  0.12319412  0.90109149  0.25000000  1
  F  F1  1  0.09890851  0.22210263  0.25000000  1
  F  F2  1  0.77789737  0.87680588  0.25000000  1
  F  F3  1  0.87680588  0.09890851  0.75000000  1
  F  F4  1  0.90109149  0.77789737  0.75000000  1
  F  F5  1  0.22210263  0.12319412  0.75000000  1
  F  F6  1  0.27884394  0.22708072  0.25000000  1
  F  F7  1  0.77291928  0.05176323  0.25000000  1
  F  F8  1  0.94823677  0.72115606  0.25000000  1
  F  F9  1  0.72115606  0.77291928  0.75000000  1
  F  F10  1  0.22708072  0.94823677  0.75000000  1
  F  F11  1  0.05176323  0.27884394  0.75000000  1
  F  F12  1  0.33333333  0.66666667  0.08059364  1
  F  F13  1  0.66666667  0.33333333  0.58059364  1
  F  F14  1  0.66666667  0.33333333  0.91940636  1
  F  F15  1  0.33333333  0.66666667  0.41940636  1
  F  F16  1  0.72848805  0.28798204  0.52812389  1
  F  F17  1  0.71201796  0.44050602  0.52812389  1
  F  F18  1  0.55949398  0.27151195  0.52812389  1
  F  F19  1  0.27151195  0.71201796  0.02812389  1
  F  F20  1  0.28798204  0.55949398  0.02812389  1
  F  F21  1  0.44050602  0.72848805  0.02812389  1
  F  F22  1  0.27151195  0.71201796  0.47187611  1
  F  F23  1  0.28798204  0.55949398  0.47187611  1
  F  F24  1  0.44050602  0.72848805  0.47187611  1
  F  F25  1  0.72848805  0.28798204  0.97187611  1
  F  F26  1  0.71201796  0.44050602  0.97187611  1
  F  F27  1  0.55949398  0.27151195  0.97187611  1
  F  F28  1  0.33333333  0.66666667  0.51226395  1
  F  F29  1  0.66666667  0.33333333  0.01226395  1
  F  F30  1  0.66666667  0.33333333  0.48773605  1
  F  F31  1  0.33333333  0.66666667  0.98773605  1
  F  F32  1  0.19708265  0.01312803  0.25000000  1
  F  F33  1  0.98687197  0.18395462  0.25000000  1
  F  F34  1  0.81604538  0.80291735  0.25000000  1
  F  F35  1  0.80291735  0.98687197  0.75000000  1
  F  F36  1  0.01312803  0.81604538  0.75000000  1
  F  F37  1  0.18395462  0.19708265  0.75000000  1
  F  F38  1  0.33333333  0.66666667  0.25000000  1
  F  F39  1  0.66666667  0.33333333  0.75000000  1
  F  F40  1  0.00000000  0.00000000  0.00000000  1
  F  F41  1  0.00000000  0.00000000  0.50000000  1
  Li  Li42  1  0.98467754  0.28462554  0.16096106  1
  Li  Li43  1  -0.28462554  0.70005200  0.16096106  1
  Li  Li44  1  -0.70005200  -0.98467754  0.16096106  1
  Li  Li45  1  -0.98467754  -0.28462554  0.66096106  1
  Li  Li46  1  0.28462554  -0.70005200  0.66096106  1
  Li  Li47  1  0.70005200  0.98467754  0.66096106  1
  Li  Li48  1  -0.98467754  -0.28462554  -0.16096106  1
  Li  Li49  1  0.28462554  -0.70005200  -0.16096106  1
  Li  Li50  1  0.70005200  0.98467754  -0.16096106  1
  Li  Li51  1  0.98467754  0.28462554  0.33903894  1
  Li  Li52  1  -0.28462554  0.70005200  0.33903894  1
  Li  Li53  1  -0.70005200  -0.98467754  0.33903894  1
  Li  Li54  1  0.89380466  0.11849071  0.48151608  1
  Li  Li55  1  0.88150929  0.77531395  0.48151608  1
  Li  Li56  1  0.22468605  0.10619534  0.48151608  1
  Li  Li57  1  0.10619534  0.88150929  0.98151608  1
  Li  Li58  1  0.11849071  0.22468605  0.98151608  1
  Li  Li59  1  0.77531395  0.89380466  0.98151608  1
  Li  Li60  1  0.10619534  0.88150929  0.51848392  1
  Li  Li61  1  0.11849071  0.22468605  0.51848392  1
  Li  Li62  1  0.77531395  0.89380466  0.51848392  1
  Li  Li63  1  0.89380466  0.11849071  0.01848392  1
  Li  Li64  1  0.88150929  0.77531395  0.01848392  1
  Li  Li65  1  0.22468605  0.10619534  0.01848392  1
  Li  Li66  1  0.33333333  0.66666667  0.88747898  1
  Li  Li67  1  0.66666667  0.33333333  0.38747898  1
  Li  Li68  1  0.66666667  0.33333333  0.11252102  1
  Li  Li69  1  0.33333333  0.66666667  0.61252102  1
  Li  Li70  1  0.50000000  0.00000000  0.00000000  1
  Li  Li71  1  0.00000000  0.50000000  0.00000000  1
  Li  Li72  1  0.50000000  0.50000000  0.00000000  1
  Li  Li73  1  0.50000000  0.00000000  0.50000000  1
  Li  Li74  1  0.00000000  0.50000000  0.50000000  1
  Li  Li75  1  0.50000000  0.50000000  0.50000000  1
  Li  Li76  1  0.00316063  0.80812538  0.25000000  1
  Li  Li77  1  0.19187462  0.19503525  0.25000000  1
  Li  Li78  1  0.80496475  0.99683937  0.25000000  1
  Li  Li79  1  0.99683937  0.19187462  0.75000000  1
  Li  Li80  1  0.80812538  0.80496475  0.75000000  1
  Li  Li81  1  0.19503525  0.00316063  0.75000000  1
  Li  Li82  1  0.00000000  0.00000000  0.25000000  1
  Li  Li83  1  0.00000000  0.00000000  0.75000000  1
