# generated using pymatgen
data_LiLaTiO2F
_symmetry_space_group_name_H-M   'P 1'
_cell_length_a   3.59717965
_cell_length_b   3.14871217
_cell_length_c   3.45223334
_cell_angle_alpha   91.80578971
_cell_angle_beta   91.39027325
_cell_angle_gamma   91.37330666
_symmetry_Int_Tables_number   1
_chemical_formula_structural   LiLaTiO2F
_chemical_formula_sum   'Li1 La1 Ti1 O2 F1'
_cell_volume   39.05877085
_cell_formula_units_Z   1
loop_
 _symmetry_equiv_pos_site_id
 _symmetry_equiv_pos_as_xyz
  1  'x, y, z'
loop_
 _atom_site_type_symbol
 _atom_site_label
 _atom_site_symmetry_multiplicity
 _atom_site_fract_x
 _atom_site_fract_y
 _atom_site_fract_z
 _atom_site_occupancy
  F  F0  1  0.12500000  0.00000000  0.25000000  1
  Li  Li1  1  0.00000000  0.00000000  0.00000000  1
  O  O2  1  0.37500000  0.00000000  0.25000000  1
  O  O3  1  0.25000000  0.25000000  0.25000000  1
  Ti  Ti4  1  0.00000000  0.25000000  0.12500000  1
  La  La5  1  0.30372361  0.95338697  0.29180043  1
