# generated using pymatgen
data_LiF
_symmetry_space_group_name_H-M   'P 1'
_cell_length_a   8.43547679
_cell_length_b   7.46247923
_cell_length_c   13.26072717
_cell_angle_alpha   90.00000000
_cell_angle_beta   90.00000000
_cell_angle_gamma   90.00000000
_symmetry_Int_Tables_number   1
_chemical_formula_structural   LiF
_chemical_formula_sum   'Li24 F24'
_cell_volume   834.75707746
_cell_formula_units_Z   24
loop_
 _symmetry_equiv_pos_site_id
 _symmetry_equiv_pos_as_xyz
  1  'x, y, z'
loop_
 _atom_site_type_symbol
 _atom_site_label
 _atom_site_symmetry_multiplicity
 _atom_site_fract_x
 _atom_site_fract_y
 _atom_site_fract_z
 _atom_site_occupancy
  F  F0  1  0.36598308  0.91194811  0.89582641  1
  F  F1  1  0.13401692  0.08805189  0.39582641  1
  F  F2  1  0.63401692  0.41194811  0.10417359  1
  F  F3  1  0.86598308  0.58805189  0.60417359  1
  F  F4  1  0.63401692  0.08805189  0.10417359  1
  F  F5  1  0.86598308  0.91194811  0.60417359  1
  F  F6  1  0.36598308  0.58805189  0.89582641  1
  F  F7  1  0.13401692  0.41194811  0.39582641  1
  F  F8  1  0.77388285  0.81201637  0.18394715  1
  F  F9  1  0.72611715  0.18798363  0.68394715  1
  F  F10  1  0.22611715  0.31201637  0.81605285  1
  F  F11  1  0.27388285  0.68798363  0.31605285  1
  F  F12  1  0.22611715  0.18798363  0.81605285  1
  F  F13  1  0.27388285  0.81201637  0.31605285  1
  F  F14  1  0.77388285  0.68798363  0.18394715  1
  F  F15  1  0.72611715  0.31201637  0.68394715  1
  F  F16  1  0.14376508  0.00489614  0.92652764  1
  F  F17  1  0.35623492  0.99510386  0.42652764  1
  F  F18  1  0.85623492  0.50489614  0.07347236  1
  F  F19  1  0.64376508  0.49510386  0.57347236  1
  F  F20  1  0.85623492  0.99510386  0.07347236  1
  F  F21  1  0.64376508  0.00489614  0.57347236  1
  F  F22  1  0.14376508  0.49510386  0.92652764  1
  F  F23  1  0.35623492  0.50489614  0.42652764  1
  Li  Li24  1  0.05636288  0.25000000  0.35023343  1
  Li  Li25  1  0.44363712  0.75000000  0.85023343  1
  Li  Li26  1  0.94363712  0.75000000  0.64976657  1
  Li  Li27  1  0.55636288  0.25000000  0.14976657  1
  Li  Li28  1  0.00000000  0.00000000  0.50000000  1
  Li  Li29  1  0.50000000  0.00000000  0.00000000  1
  Li  Li30  1  0.00000000  0.50000000  0.50000000  1
  Li  Li31  1  0.50000000  0.50000000  0.00000000  1
  Li  Li32  1  0.05642644  0.33959223  0.06852651  1
  Li  Li33  1  0.44357356  -0.33959223  0.56852651  1
  Li  Li34  1  -0.05642644  0.83959223  -0.06852651  1
  Li  Li35  1  0.55642644  0.16040777  0.43147349  1
  Li  Li36  1  -0.05642644  -0.33959223  -0.06852651  1
  Li  Li37  1  0.55642644  0.33959223  0.43147349  1
  Li  Li38  1  0.05642644  0.16040777  0.06852651  1
  Li  Li39  1  0.44357356  0.83959223  0.56852651  1
  Li  Li40  1  0.60864541  0.25000000  0.90236329  1
  Li  Li41  1  0.89135459  0.75000000  0.40236329  1
  Li  Li42  1  0.39135459  0.75000000  0.09763671  1
  Li  Li43  1  0.10864541  0.25000000  0.59763671  1
  Li  Li44  1  0.00000000  0.00000000  0.00000000  1
  Li  Li45  1  0.50000000  0.00000000  0.50000000  1
  Li  Li46  1  0.00000000  0.50000000  0.00000000  1
  Li  Li47  1  0.50000000  0.50000000  0.50000000  1
