# generated using pymatgen
data_LiF
_symmetry_space_group_name_H-M   'P 1'
_cell_length_a   7.41033778
_cell_length_b   7.41033778
_cell_length_c   14.57905431
_cell_angle_alpha   90.00000000
_cell_angle_beta   90.00000000
_cell_angle_gamma   120.00000000
_symmetry_Int_Tables_number   1
_chemical_formula_structural   LiF
_chemical_formula_sum   'Li39 F39'
_cell_volume   693.32361778
_cell_formula_units_Z   39
loop_
 _symmetry_equiv_pos_site_id
 _symmetry_equiv_pos_as_xyz
  1  'x, y, z'
loop_
 _atom_site_type_symbol
 _atom_site_label
 _atom_site_symmetry_multiplicity
 _atom_site_fract_x
 _atom_site_fract_y
 _atom_site_fract_z
 _atom_site_occupancy
  F  F0  1  0.00000000  0.00000000  0.50000000  1
  F  F1  1  0.87197076  0.85323172  0.50937484  1
  F  F2  1  0.14676828  0.01873904  0.50937484  1
  F  F3  1  0.98126096  0.12802924  0.50937484  1
  F  F4  1  0.14676828  0.12802924  0.49062516  1
  F  F5  1  0.98126096  0.85323172  0.49062516  1
  F  F6  1  0.87197076  0.01873904  0.49062516  1
  F  F7  1  0.33002240  0.95264204  0.76829008  1
  F  F8  1  0.04735796  0.37738036  0.76829008  1
  F  F9  1  0.62261964  0.66997760  0.76829008  1
  F  F10  1  0.04735796  0.66997760  0.23170992  1
  F  F11  1  0.62261964  0.95264204  0.23170992  1
  F  F12  1  0.33002240  0.37738036  0.23170992  1
  F  F13  1  0.29170936  0.69252777  0.16410780  1
  F  F14  1  0.30747223  0.59918158  0.16410780  1
  F  F15  1  0.40081842  0.70829064  0.16410780  1
  F  F16  1  0.30747223  0.70829064  0.83589220  1
  F  F17  1  0.40081842  0.69252777  0.83589220  1
  F  F18  1  0.29170936  0.59918158  0.83589220  1
  F  F19  1  0.79164125  0.71670763  0.84833041  1
  F  F20  1  0.28329237  0.07493362  0.84833041  1
  F  F21  1  0.92506638  0.20835875  0.84833041  1
  F  F22  1  0.28329237  0.20835875  0.15166959  1
  F  F23  1  0.92506638  0.71670763  0.15166959  1
  F  F24  1  0.79164125  0.07493362  0.15166959  1
  F  F25  1  0.39034419  0.99453760  0.30029401  1
  F  F26  1  0.00546240  0.39580659  0.30029401  1
  F  F27  1  0.60419341  0.60965581  0.30029401  1
  F  F28  1  0.00546240  0.60965581  0.69970599  1
  F  F29  1  0.60419341  0.99453760  0.69970599  1
  F  F30  1  0.39034419  0.39580659  0.69970599  1
  F  F31  1  0.52903032  0.98223307  0.80537655  1
  F  F32  1  0.01776693  0.54679725  0.80537655  1
  F  F33  1  0.45320275  0.47096968  0.80537655  1
  F  F34  1  0.01776693  0.47096968  0.19462345  1
  F  F35  1  0.45320275  0.98223307  0.19462345  1
  F  F36  1  0.52903032  0.54679725  0.19462345  1
  F  F37  1  0.66666667  0.33333333  0.27784242  1
  F  F38  1  0.66666667  0.33333333  0.72215758  1
  Li  Li39  1  0.41191459  0.49288114  0.13251109  1
  Li  Li40  1  -0.49288114  -0.08096654  0.13251109  1
  Li  Li41  1  0.08096654  -0.41191459  0.13251109  1
  Li  Li42  1  -0.49288114  -0.41191459  -0.13251109  1
  Li  Li43  1  0.08096654  0.49288114  -0.13251109  1
  Li  Li44  1  0.41191459  -0.08096654  -0.13251109  1
  Li  Li45  1  0.96754804  0.79486752  0.89682942  1
  Li  Li46  1  0.20513248  0.17268052  0.89682942  1
  Li  Li47  1  0.82731948  0.03245196  0.89682942  1
  Li  Li48  1  0.20513248  0.03245196  0.10317058  1
  Li  Li49  1  0.82731948  0.79486752  0.10317058  1
  Li  Li50  1  0.96754804  0.17268052  0.10317058  1
  Li  Li51  1  0.06032535  0.93967465  0.00000000  1
  Li  Li52  1  0.06032535  0.12065070  -0.00000000  1
  Li  Li53  1  0.87934930  0.93967465  -0.00000000  1
  Li  Li54  1  0.77598086  0.55256099  0.93196926  1
  Li  Li55  1  0.44743901  0.22341987  0.93196926  1
  Li  Li56  1  0.77658013  0.22401914  0.93196926  1
  Li  Li57  1  0.44743901  0.22401914  0.06803074  1
  Li  Li58  1  0.77658013  0.55256099  0.06803074  1
  Li  Li59  1  0.77598086  0.22341987  0.06803074  1
  Li  Li60  1  0.80116577  0.19883423  0.50000000  1
  Li  Li61  1  0.80116577  0.60233154  0.50000000  1
  Li  Li62  1  0.39766846  0.19883423  0.50000000  1
  Li  Li63  1  0.66666667  0.33333333  -0.00000000  1
  Li  Li64  1  0.85480935  0.37115673  0.28390698  1
  Li  Li65  1  0.62884327  0.48365262  0.28390698  1
  Li  Li66  1  0.51634738  0.14519065  0.28390698  1
  Li  Li67  1  0.62884327  0.14519065  0.71609302  1
  Li  Li68  1  0.51634738  0.37115673  0.71609302  1
  Li  Li69  1  0.85480935  0.48365262  0.71609302  1
  Li  Li70  1  0.59796140  0.83258946  0.72634281  1
  Li  Li71  1  0.16741054  0.76537193  0.72634281  1
  Li  Li72  1  0.23462807  0.40203860  0.72634281  1
  Li  Li73  1  0.16741054  0.40203860  0.27365719  1
  Li  Li74  1  0.23462807  0.83258946  0.27365719  1
  Li  Li75  1  0.59796140  0.76537193  0.27365719  1
  Li  Li76  1  0.66666667  0.33333333  0.80927363  1
  Li  Li77  1  0.66666667  0.33333333  0.19072637  1
