# generated using pymatgen
data_Li4SiP4(S3Cl)4
_symmetry_space_group_name_H-M   'P 1'
_cell_length_a   7.75547598
_cell_length_b   7.75547598
_cell_length_c   17.58799199
_cell_angle_alpha   90.00000000
_cell_angle_beta   90.00000000
_cell_angle_gamma   120.00000000
_symmetry_Int_Tables_number   1
_chemical_formula_structural   Li4SiP4(S3Cl)4
_chemical_formula_sum   'Li8 Si2 P8 S24 Cl8'
_cell_volume   916.14413383
_cell_formula_units_Z   2
loop_
 _symmetry_equiv_pos_site_id
 _symmetry_equiv_pos_as_xyz
  1  'x, y, z'
loop_
 _atom_site_type_symbol
 _atom_site_label
 _atom_site_symmetry_multiplicity
 _atom_site_fract_x
 _atom_site_fract_y
 _atom_site_fract_z
 _atom_site_occupancy
  Cl  Cl0  1  0.26944876  0.00000000  0.50000000  1
  Cl  Cl1  1  0.00000000  0.26944876  0.50000000  1
  Cl  Cl2  1  0.73055124  0.73055124  0.50000000  1
  Cl  Cl3  1  0.33333333  0.66666667  0.70038243  1
  Cl  Cl4  1  0.33333333  0.66666667  0.29961757  1
  Cl  Cl5  1  0.66666667  0.33333333  0.29961757  1
  Cl  Cl6  1  0.66666667  0.33333333  0.70038243  1
  Cl  Cl7  1  0.00000000  0.00000000  0.50000000  1
  Li  Li8  1  0.00000000  0.00000000  0.68299157  1
  Li  Li9  1  0.00000000  0.00000000  0.31700843  1
  Li  Li10  1  0.00000000  0.00000000  0.77857653  1
  Li  Li11  1  0.00000000  0.00000000  0.22142347  1
  Li  Li12  1  0.33333333  0.66666667  0.93061110  1
  Li  Li13  1  0.33333333  0.66666667  0.06938890  1
  Li  Li14  1  0.66666667  0.33333333  0.06938890  1
  Li  Li15  1  0.66666667  0.33333333  0.93061110  1
  P  P16  1  0.00000000  0.00000000  0.86651405  1
  P  P17  1  0.00000000  0.00000000  0.13348595  1
  P  P18  1  0.50352099  0.00000000  0.50000000  1
  P  P19  1  0.00000000  0.50352099  0.50000000  1
  P  P20  1  0.49647901  0.49647901  0.50000000  1
  P  P21  1  0.10304892  0.00000000  -0.00000000  1
  P  P22  1  0.00000000  0.10304892  -0.00000000  1
  P  P23  1  0.89695108  0.89695108  0.00000000  1
  S  S24  1  0.32427490  0.00000000  0.10017350  1
  S  S25  1  0.00000000  0.32427490  0.10017350  1
  S  S26  1  0.67572510  0.67572510  0.10017350  1
  S  S27  1  0.32427490  0.00000000  0.89982650  1
  S  S28  1  0.00000000  0.32427490  0.89982650  1
  S  S29  1  0.67572510  0.67572510  0.89982650  1
  S  S30  1  0.19845735  0.55047295  0.86527276  1
  S  S31  1  -0.55047295  -0.35201560  0.86527276  1
  S  S32  1  0.35201560  -0.19845735  0.86527276  1
  S  S33  1  0.19845735  0.55047295  -0.86527276  1
  S  S34  1  -0.55047295  -0.35201560  -0.86527276  1
  S  S35  1  0.35201560  -0.19845735  -0.86527276  1
  S  S36  1  0.55047295  0.19845735  -0.86527276  1
  S  S37  1  -0.35201560  -0.55047295  -0.86527276  1
  S  S38  1  -0.19845735  0.35201560  -0.86527276  1
  S  S39  1  0.55047295  0.19845735  0.86527276  1
  S  S40  1  -0.35201560  -0.55047295  0.86527276  1
  S  S41  1  -0.19845735  0.35201560  0.86527276  1
  S  S42  1  0.12496837  0.81829159  0.50000000  1
  S  S43  1  0.18170841  0.30667678  0.50000000  1
  S  S44  1  0.69332322  0.87503163  0.50000000  1
  S  S45  1  0.81829159  0.12496837  0.50000000  1
  S  S46  1  0.30667678  0.18170841  0.50000000  1
  S  S47  1  0.87503163  0.69332322  0.50000000  1
  Si  Si48  1  0.33333333  0.66666667  0.50000000  1
  Si  Si49  1  0.66666667  0.33333333  0.50000000  1
