# generated using pymatgen
data_LiF
_symmetry_space_group_name_H-M   'P 1'
_cell_length_a   6.00864270
_cell_length_b   8.04563210
_cell_length_c   16.03755367
_cell_angle_alpha   90.00000000
_cell_angle_beta   90.00000000
_cell_angle_gamma   90.00000000
_symmetry_Int_Tables_number   1
_chemical_formula_structural   LiF
_chemical_formula_sum   'Li34 F34'
_cell_volume   775.30872776
_cell_formula_units_Z   34
loop_
 _symmetry_equiv_pos_site_id
 _symmetry_equiv_pos_as_xyz
  1  'x, y, z'
loop_
 _atom_site_type_symbol
 _atom_site_label
 _atom_site_symmetry_multiplicity
 _atom_site_fract_x
 _atom_site_fract_y
 _atom_site_fract_z
 _atom_site_occupancy
  F  F0  1  0.00000000  0.50000000  0.42668862  1
  F  F1  1  0.50000000  0.00000000  0.57331138  1
  F  F2  1  0.00000000  0.50000000  0.57331138  1
  F  F3  1  0.50000000  0.00000000  0.42668862  1
  F  F4  1  0.00000000  0.00000000  0.00000000  1
  F  F5  1  0.50000000  0.50000000  -0.00000000  1
  F  F6  1  0.05070235  0.13145120  0.00000000  1
  F  F7  1  0.94929765  0.86854880  -0.00000000  1
  F  F8  1  0.44929765  0.63145120  0.00000000  1
  F  F9  1  0.55070235  0.36854880  -0.00000000  1
  F  F10  1  0.40317707  0.34494772  0.50000000  1
  F  F11  1  0.59682293  0.65505228  0.50000000  1
  F  F12  1  0.09682293  0.84494772  0.50000000  1
  F  F13  1  0.90317707  0.15505228  0.50000000  1
  F  F14  1  0.55502152  0.35513459  0.90105552  1
  F  F15  1  0.44497848  0.64486541  0.90105552  1
  F  F16  1  0.94497848  0.85513459  0.09894448  1
  F  F17  1  0.05502152  0.14486541  0.09894448  1
  F  F18  1  0.44497848  0.64486541  0.09894448  1
  F  F19  1  0.55502152  0.35513459  0.09894448  1
  F  F20  1  0.05502152  0.14486541  0.90105552  1
  F  F21  1  0.94497848  0.85513459  0.90105552  1
  F  F22  1  0.00000000  0.00000000  0.83701451  1
  F  F23  1  0.50000000  0.50000000  0.16298549  1
  F  F24  1  0.00000000  0.00000000  0.16298549  1
  F  F25  1  0.50000000  0.50000000  0.83701451  1
  F  F26  1  0.77194996  0.35351013  0.63327890  1
  F  F27  1  0.22805004  0.64648987  0.63327890  1
  F  F28  1  0.72805004  0.85351013  0.36672110  1
  F  F29  1  0.27194996  0.14648987  0.36672110  1
  F  F30  1  0.22805004  0.64648987  0.36672110  1
  F  F31  1  0.77194996  0.35351013  0.36672110  1
  F  F32  1  0.27194996  0.14648987  0.63327890  1
  F  F33  1  0.72805004  0.85351013  0.63327890  1
  Li  Li34  1  0.00000000  0.50000000  0.00000000  1
  Li  Li35  1  0.50000000  0.00000000  -0.00000000  1
  Li  Li36  1  0.00000000  0.50000000  0.90371669  1
  Li  Li37  1  0.50000000  0.00000000  0.09628331  1
  Li  Li38  1  0.00000000  0.50000000  0.09628331  1
  Li  Li39  1  0.50000000  0.00000000  0.90371669  1
  Li  Li40  1  0.31614351  0.32295348  0.67265126  1
  Li  Li41  1  -0.31614351  -0.32295348  0.67265126  1
  Li  Li42  1  0.18385649  0.82295348  -0.67265126  1
  Li  Li43  1  0.81614351  0.17704652  -0.67265126  1
  Li  Li44  1  -0.31614351  -0.32295348  -0.67265126  1
  Li  Li45  1  0.31614351  0.32295348  -0.67265126  1
  Li  Li46  1  0.81614351  0.17704652  0.67265126  1
  Li  Li47  1  0.18385649  0.82295348  0.67265126  1
  Li  Li48  1  0.06905001  0.86291888  0.76216867  1
  Li  Li49  1  0.93094999  0.13708112  0.76216867  1
  Li  Li50  1  0.43094999  0.36291888  0.23783133  1
  Li  Li51  1  0.56905001  0.63708112  0.23783133  1
  Li  Li52  1  0.93094999  0.13708112  0.23783133  1
  Li  Li53  1  0.06905001  0.86291888  0.23783133  1
  Li  Li54  1  0.56905001  0.63708112  0.76216867  1
  Li  Li55  1  0.43094999  0.36291888  0.76216867  1
  Li  Li56  1  0.86313682  0.98446227  0.50000000  1
  Li  Li57  1  0.13686318  0.01553773  0.50000000  1
  Li  Li58  1  0.63686318  0.48446227  0.50000000  1
  Li  Li59  1  0.36313682  0.51553773  0.50000000  1
  Li  Li60  1  0.74987799  0.50037810  0.57595074  1
  Li  Li61  1  0.25012201  0.49962190  0.57595074  1
  Li  Li62  1  0.75012201  0.00037810  0.42404926  1
  Li  Li63  1  0.24987799  0.99962190  0.42404926  1
  Li  Li64  1  0.25012201  0.49962190  0.42404926  1
  Li  Li65  1  0.74987799  0.50037810  0.42404926  1
  Li  Li66  1  0.24987799  0.99962190  0.57595074  1
  Li  Li67  1  0.75012201  0.00037810  0.57595074  1
