# generated using pymatgen
data_NaLi2F3
_symmetry_space_group_name_H-M   'P 1'
_cell_length_a   11.76908171
_cell_length_b   11.76908171
_cell_length_c   6.54247145
_cell_angle_alpha   90.00000000
_cell_angle_beta   90.00000000
_cell_angle_gamma   120.00000000
_symmetry_Int_Tables_number   1
_chemical_formula_structural   NaLi2F3
_chemical_formula_sum   'Na12 Li24 F36'
_cell_volume   784.79752441
_cell_formula_units_Z   12
loop_
 _symmetry_equiv_pos_site_id
 _symmetry_equiv_pos_as_xyz
  1  'x, y, z'
loop_
 _atom_site_type_symbol
 _atom_site_label
 _atom_site_symmetry_multiplicity
 _atom_site_fract_x
 _atom_site_fract_y
 _atom_site_fract_z
 _atom_site_occupancy
  F  F0  1  0.81318775  0.62637551  0.13092155  1
  F  F1  1  0.37362449  0.18681225  0.13092155  1
  F  F2  1  0.81318775  0.18681225  0.13092155  1
  F  F3  1  0.18681225  0.37362449  0.63092155  1
  F  F4  1  0.62637551  0.81318775  0.63092155  1
  F  F5  1  0.18681225  0.81318775  0.63092155  1
  F  F6  1  0.62637551  0.81318775  0.86907845  1
  F  F7  1  0.18681225  0.37362449  0.86907845  1
  F  F8  1  0.18681225  0.81318775  0.86907845  1
  F  F9  1  0.37362449  0.18681225  0.36907845  1
  F  F10  1  0.81318775  0.62637551  0.36907845  1
  F  F11  1  0.81318775  0.18681225  0.36907845  1
  F  F12  1  0.46721060  0.93442120  0.25000000  1
  F  F13  1  0.06557880  0.53278940  0.25000000  1
  F  F14  1  0.46721060  0.53278940  0.25000000  1
  F  F15  1  0.53278940  0.06557880  0.75000000  1
  F  F16  1  0.93442120  0.46721060  0.75000000  1
  F  F17  1  0.53278940  0.46721060  0.75000000  1
  F  F18  1  0.83888920  -0.00000000  0.00000000  1
  F  F19  1  0.00000000  0.83888920  0.00000000  1
  F  F20  1  0.16111080  0.16111080  0.00000000  1
  F  F21  1  0.16111080  0.00000000  0.50000000  1
  F  F22  1  0.00000000  0.16111080  0.50000000  1
  F  F23  1  0.83888920  0.83888920  0.50000000  1
  F  F24  1  0.16111080  0.00000000  0.00000000  1
  F  F25  1  0.00000000  0.16111080  0.00000000  1
  F  F26  1  0.83888920  0.83888920  0.00000000  1
  F  F27  1  0.83888920  -0.00000000  0.50000000  1
  F  F28  1  0.00000000  0.83888920  0.50000000  1
  F  F29  1  0.16111080  0.16111080  0.50000000  1
  F  F30  1  0.50000000  0.00000000  0.00000000  1
  F  F31  1  0.00000000  0.50000000  0.00000000  1
  F  F32  1  0.50000000  0.50000000  0.00000000  1
  F  F33  1  0.50000000  0.00000000  0.50000000  1
  F  F34  1  0.00000000  0.50000000  0.50000000  1
  F  F35  1  0.50000000  0.50000000  0.50000000  1
  Li  Li36  1  0.20984543  0.41969087  0.25000000  1
  Li  Li37  1  0.58030913  0.79015457  0.25000000  1
  Li  Li38  1  0.20984543  0.79015457  0.25000000  1
  Li  Li39  1  0.79015457  0.58030913  0.75000000  1
  Li  Li40  1  0.41969087  0.20984543  0.75000000  1
  Li  Li41  1  0.79015457  0.20984543  0.75000000  1
  Li  Li42  1  0.33333333  0.66666667  0.25000000  1
  Li  Li43  1  0.66666667  0.33333333  0.75000000  1
  Li  Li44  1  0.88001885  1.76003770  0.35562140  1
  Li  Li45  1  -1.76003770  -0.88001885  0.35562140  1
  Li  Li46  1  0.88001885  -0.88001885  0.35562140  1
  Li  Li47  1  -0.88001885  -1.76003770  0.85562140  1
  Li  Li48  1  1.76003770  0.88001885  0.85562140  1
  Li  Li49  1  -0.88001885  0.88001885  0.85562140  1
  Li  Li50  1  1.76003770  0.88001885  -0.35562140  1
  Li  Li51  1  -0.88001885  -1.76003770  -0.35562140  1
  Li  Li52  1  -0.88001885  0.88001885  -0.35562140  1
  Li  Li53  1  -1.76003770  -0.88001885  0.14437860  1
  Li  Li54  1  0.88001885  1.76003770  0.14437860  1
  Li  Li55  1  0.88001885  -0.88001885  0.14437860  1
  Li  Li56  1  0.00000000  0.00000000  0.35038249  1
  Li  Li57  1  0.00000000  0.00000000  0.85038249  1
  Li  Li58  1  0.00000000  0.00000000  0.64961751  1
  Li  Li59  1  0.00000000  0.00000000  0.14961751  1
  Na  Na60  1  0.39879858  0.00000000  0.00000000  1
  Na  Na61  1  0.00000000  0.39879858  -0.00000000  1
  Na  Na62  1  0.60120142  0.60120142  0.00000000  1
  Na  Na63  1  0.60120142  0.00000000  0.50000000  1
  Na  Na64  1  0.00000000  0.60120142  0.50000000  1
  Na  Na65  1  0.39879858  0.39879858  0.50000000  1
  Na  Na66  1  0.60120142  0.00000000  0.00000000  1
  Na  Na67  1  0.00000000  0.60120142  0.00000000  1
  Na  Na68  1  0.39879858  0.39879858  0.00000000  1
  Na  Na69  1  0.39879858  0.00000000  0.50000000  1
  Na  Na70  1  0.00000000  0.39879858  0.50000000  1
  Na  Na71  1  0.60120142  0.60120142  0.50000000  1
