# generated using pymatgen
data_LiF
_symmetry_space_group_name_H-M   'P 1'
_cell_length_a   12.06302302
_cell_length_b   12.06302302
_cell_length_c   6.30528621
_cell_angle_alpha   90.00000000
_cell_angle_beta   90.00000000
_cell_angle_gamma   90.00000000
_symmetry_Int_Tables_number   1
_chemical_formula_structural   LiF
_chemical_formula_sum   'Li24 F24'
_cell_volume   917.52333514
_cell_formula_units_Z   24
loop_
 _symmetry_equiv_pos_site_id
 _symmetry_equiv_pos_as_xyz
  1  'x, y, z'
loop_
 _atom_site_type_symbol
 _atom_site_label
 _atom_site_symmetry_multiplicity
 _atom_site_fract_x
 _atom_site_fract_y
 _atom_site_fract_z
 _atom_site_occupancy
  F  F0  1  0.00000000  0.87921318  0.90274987  1
  F  F1  1  0.50000000  0.12078682  0.40274987  1
  F  F2  1  0.37078682  0.75000000  0.15274987  1
  F  F3  1  0.12921318  0.25000000  0.65274987  1
  F  F4  1  0.50000000  0.87921318  0.59725013  1
  F  F5  1  0.00000000  0.12078682  0.09725013  1
  F  F6  1  0.12921318  0.75000000  0.34725013  1
  F  F7  1  0.37078682  0.25000000  0.84725013  1
  F  F8  1  0.50000000  0.37921318  0.40274987  1
  F  F9  1  0.00000000  0.62078682  0.90274987  1
  F  F10  1  0.87078682  0.25000000  0.65274987  1
  F  F11  1  0.62921318  0.75000000  0.15274987  1
  F  F12  1  0.00000000  0.37921318  0.09725013  1
  F  F13  1  0.50000000  0.62078682  0.59725013  1
  F  F14  1  0.62921318  0.25000000  0.84725013  1
  F  F15  1  0.87078682  0.75000000  0.34725013  1
  F  F16  1  0.00000000  0.25000000  0.00180036  1
  F  F17  1  0.00000000  0.75000000  0.25180036  1
  F  F18  1  0.50000000  0.25000000  0.49819964  1
  F  F19  1  0.50000000  0.75000000  0.24819964  1
  F  F20  1  0.50000000  0.75000000  0.50180036  1
  F  F21  1  0.50000000  0.25000000  0.75180036  1
  F  F22  1  0.00000000  0.75000000  0.99819964  1
  F  F23  1  0.00000000  0.25000000  0.74819964  1
  Li  Li24  1  0.10185711  0.00000000  0.00000000  1
  Li  Li25  1  0.39814289  0.00000000  0.50000000  1
  Li  Li26  1  0.25000000  0.85185711  0.25000000  1
  Li  Li27  1  0.25000000  0.14814289  0.75000000  1
  Li  Li28  1  -0.10185711  -0.00000000  -0.00000000  1
  Li  Li29  1  0.60185711  0.00000000  0.50000000  1
  Li  Li30  1  0.75000000  0.14814289  0.75000000  1
  Li  Li31  1  0.75000000  0.85185711  0.25000000  1
  Li  Li32  1  0.60185711  0.50000000  0.50000000  1
  Li  Li33  1  0.89814289  0.50000000  1.00000000  1
  Li  Li34  1  0.75000000  1.35185711  0.75000000  1
  Li  Li35  1  0.75000000  0.64814289  1.25000000  1
  Li  Li36  1  0.39814289  0.50000000  0.50000000  1
  Li  Li37  1  1.10185711  0.50000000  1.00000000  1
  Li  Li38  1  1.25000000  0.64814289  1.25000000  1
  Li  Li39  1  1.25000000  1.35185711  0.75000000  1
  Li  Li40  1  0.00000000  0.00000000  0.50000000  1
  Li  Li41  1  0.50000000  0.00000000  0.00000000  1
  Li  Li42  1  0.25000000  0.75000000  0.75000000  1
  Li  Li43  1  0.25000000  0.25000000  0.25000000  1
  Li  Li44  1  0.50000000  0.50000000  0.00000000  1
  Li  Li45  1  0.00000000  0.50000000  0.50000000  1
  Li  Li46  1  0.75000000  0.25000000  0.25000000  1
  Li  Li47  1  0.75000000  0.75000000  0.75000000  1
