# generated using pymatgen
data_LiF
_symmetry_space_group_name_H-M   'P 1'
_cell_length_a   13.11315335
_cell_length_b   13.11315335
_cell_length_c   10.61025111
_cell_angle_alpha   90.00000000
_cell_angle_beta   90.00000000
_cell_angle_gamma   90.00000000
_symmetry_Int_Tables_number   1
_chemical_formula_structural   LiF
_chemical_formula_sum   'Li64 F64'
_cell_volume   1824.48350885
_cell_formula_units_Z   64
loop_
 _symmetry_equiv_pos_site_id
 _symmetry_equiv_pos_as_xyz
  1  'x, y, z'
loop_
 _atom_site_type_symbol
 _atom_site_label
 _atom_site_symmetry_multiplicity
 _atom_site_fract_x
 _atom_site_fract_y
 _atom_site_fract_z
 _atom_site_occupancy
  F  F0  1  0.02466435  0.24899012  0.50000000  1
  F  F1  1  0.97533565  0.75100988  0.50000000  1
  F  F2  1  0.75100988  0.02466435  0.50000000  1
  F  F3  1  0.24899012  0.97533565  0.50000000  1
  F  F4  1  0.97533565  0.24899012  0.50000000  1
  F  F5  1  0.02466435  0.75100988  0.50000000  1
  F  F6  1  0.24899012  0.02466435  0.50000000  1
  F  F7  1  0.75100988  0.97533565  0.50000000  1
  F  F8  1  0.88871590  0.83139573  0.13098288  1
  F  F9  1  -0.88871590  -0.83139573  0.13098288  1
  F  F10  1  -0.83139573  0.88871590  0.13098288  1
  F  F11  1  0.83139573  -0.88871590  0.13098288  1
  F  F12  1  -0.88871590  0.83139573  -0.13098288  1
  F  F13  1  0.88871590  -0.83139573  -0.13098288  1
  F  F14  1  0.83139573  0.88871590  -0.13098288  1
  F  F15  1  -0.83139573  -0.88871590  -0.13098288  1
  F  F16  1  -0.88871590  -0.83139573  -0.13098288  1
  F  F17  1  0.88871590  0.83139573  -0.13098288  1
  F  F18  1  0.83139573  -0.88871590  -0.13098288  1
  F  F19  1  -0.83139573  0.88871590  -0.13098288  1
  F  F20  1  0.88871590  -0.83139573  0.13098288  1
  F  F21  1  -0.88871590  0.83139573  0.13098288  1
  F  F22  1  -0.83139573  -0.88871590  0.13098288  1
  F  F23  1  0.83139573  0.88871590  0.13098288  1
  F  F24  1  0.09880806  0.69865349  -0.00000000  1
  F  F25  1  0.90119194  0.30134651  -0.00000000  1
  F  F26  1  0.30134651  0.09880806  -0.00000000  1
  F  F27  1  0.69865349  0.90119194  -0.00000000  1
  F  F28  1  0.90119194  0.69865349  -0.00000000  1
  F  F29  1  0.09880806  0.30134651  0.00000000  1
  F  F30  1  0.69865349  0.09880806  -0.00000000  1
  F  F31  1  0.30134651  0.90119194  -0.00000000  1
  F  F32  1  0.11631325  0.25320494  0.00000000  1
  F  F33  1  0.88368675  0.74679506  0.00000000  1
  F  F34  1  0.74679506  0.11631325  0.00000000  1
  F  F35  1  0.25320494  0.88368675  0.00000000  1
  F  F36  1  0.88368675  0.25320494  0.00000000  1
  F  F37  1  0.11631325  0.74679506  0.00000000  1
  F  F38  1  0.25320494  0.11631325  0.00000000  1
  F  F39  1  0.74679506  0.88368675  0.00000000  1
  F  F40  1  0.67252563  0.37686550  0.14136607  1
  F  F41  1  0.32747437  0.62313450  0.14136607  1
  F  F42  1  0.62313450  0.67252563  0.14136607  1
  F  F43  1  0.37686550  0.32747437  0.14136607  1
  F  F44  1  0.32747437  0.37686550  0.85863393  1
  F  F45  1  0.67252563  0.62313450  0.85863393  1
  F  F46  1  0.37686550  0.67252563  0.85863393  1
  F  F47  1  0.62313450  0.32747437  0.85863393  1
  F  F48  1  0.32747437  0.62313450  0.85863393  1
  F  F49  1  0.67252563  0.37686550  0.85863393  1
  F  F50  1  0.37686550  0.32747437  0.85863393  1
  F  F51  1  0.62313450  0.67252563  0.85863393  1
  F  F52  1  0.67252563  0.62313450  0.14136607  1
  F  F53  1  0.32747437  0.37686550  0.14136607  1
  F  F54  1  0.62313450  0.32747437  0.14136607  1
  F  F55  1  0.37686550  0.67252563  0.14136607  1
  F  F56  1  0.11899205  0.50000000  -0.00000000  1
  F  F57  1  0.88100795  0.50000000  0.00000000  1
  F  F58  1  0.50000000  0.11899205  -0.00000000  1
  F  F59  1  0.50000000  0.88100795  0.00000000  1
  F  F60  1  0.00000000  0.50000000  0.50000000  1
  F  F61  1  0.50000000  0.00000000  0.50000000  1
  F  F62  1  0.50000000  0.50000000  0.00000000  1
  F  F63  1  0.00000000  0.00000000  0.00000000  1
  Li  Li64  1  0.57237440  0.21265666  0.15401029  1
  Li  Li65  1  0.42762560  0.78734334  0.15401029  1
  Li  Li66  1  0.78734334  0.57237440  0.15401029  1
  Li  Li67  1  0.21265666  0.42762560  0.15401029  1
  Li  Li68  1  0.42762560  0.21265666  0.84598971  1
  Li  Li69  1  0.57237440  0.78734334  0.84598971  1
  Li  Li70  1  0.21265666  0.57237440  0.84598971  1
  Li  Li71  1  0.78734334  0.42762560  0.84598971  1
  Li  Li72  1  0.42762560  0.78734334  0.84598971  1
  Li  Li73  1  0.57237440  0.21265666  0.84598971  1
  Li  Li74  1  0.21265666  0.42762560  0.84598971  1
  Li  Li75  1  0.78734334  0.57237440  0.84598971  1
  Li  Li76  1  0.57237440  0.78734334  0.15401029  1
  Li  Li77  1  0.42762560  0.21265666  0.15401029  1
  Li  Li78  1  0.78734334  0.42762560  0.15401029  1
  Li  Li79  1  0.21265666  0.57237440  0.15401029  1
  Li  Li80  1  0.39331234  0.00000000  0.50000000  1
  Li  Li81  1  0.60668766  0.00000000  0.50000000  1
  Li  Li82  1  0.00000000  0.39331234  0.50000000  1
  Li  Li83  1  0.00000000  0.60668766  0.50000000  1
  Li  Li84  1  0.70919702  0.50000000  0.25057581  1
  Li  Li85  1  0.29080298  0.50000000  0.25057581  1
  Li  Li86  1  0.50000000  0.70919702  0.25057581  1
  Li  Li87  1  0.50000000  0.29080298  0.25057581  1
  Li  Li88  1  0.29080298  0.50000000  0.74942419  1
  Li  Li89  1  0.70919702  0.50000000  0.74942419  1
  Li  Li90  1  0.50000000  0.70919702  0.74942419  1
  Li  Li91  1  0.50000000  0.29080298  0.74942419  1
  Li  Li92  1  0.57569019  0.20815060  0.41318017  1
  Li  Li93  1  0.42430981  0.79184940  0.41318017  1
  Li  Li94  1  0.79184940  0.57569019  0.41318017  1
  Li  Li95  1  0.20815060  0.42430981  0.41318017  1
  Li  Li96  1  0.42430981  0.20815060  0.58681983  1
  Li  Li97  1  0.57569019  0.79184940  0.58681983  1
  Li  Li98  1  0.20815060  0.57569019  0.58681983  1
  Li  Li99  1  0.79184940  0.42430981  0.58681983  1
  Li  Li100  1  0.42430981  0.79184940  0.58681983  1
  Li  Li101  1  0.57569019  0.20815060  0.58681983  1
  Li  Li102  1  0.20815060  0.42430981  0.58681983  1
  Li  Li103  1  0.79184940  0.57569019  0.58681983  1
  Li  Li104  1  0.57569019  0.79184940  0.41318017  1
  Li  Li105  1  0.42430981  0.20815060  0.41318017  1
  Li  Li106  1  0.79184940  0.42430981  0.41318017  1
  Li  Li107  1  0.20815060  0.57569019  0.41318017  1
  Li  Li108  1  0.30845181  0.50000000  0.41561372  1
  Li  Li109  1  0.69154819  0.50000000  0.41561372  1
  Li  Li110  1  0.50000000  0.30845181  0.41561372  1
  Li  Li111  1  0.50000000  0.69154819  0.41561372  1
  Li  Li112  1  0.69154819  0.50000000  0.58438628  1
  Li  Li113  1  0.30845181  0.50000000  0.58438628  1
  Li  Li114  1  0.50000000  0.30845181  0.58438628  1
  Li  Li115  1  0.50000000  0.69154819  0.58438628  1
  Li  Li116  1  0.19522840  0.19522840  0.50000000  1
  Li  Li117  1  0.80477160  0.80477160  0.50000000  1
  Li  Li118  1  0.80477160  0.19522840  0.50000000  1
  Li  Li119  1  0.19522840  0.80477160  0.50000000  1
  Li  Li120  1  0.79066376  0.70448652  0.00000000  1
  Li  Li121  1  0.20933624  0.29551348  0.00000000  1
  Li  Li122  1  0.29551348  0.79066376  -0.00000000  1
  Li  Li123  1  0.70448652  0.20933624  -0.00000000  1
  Li  Li124  1  0.20933624  0.70448652  -0.00000000  1
  Li  Li125  1  0.79066376  0.29551348  -0.00000000  1
  Li  Li126  1  0.70448652  0.79066376  0.00000000  1
  Li  Li127  1  0.29551348  0.20933624  -0.00000000  1
