# generated using pymatgen
data_LiCu3Sb2P
_symmetry_space_group_name_H-M   'P 1'
_cell_length_a   4.25018721
_cell_length_b   4.43805837
_cell_length_c   6.35166628
_cell_angle_alpha   95.61508283
_cell_angle_beta   100.43350947
_cell_angle_gamma   109.73856243
_symmetry_Int_Tables_number   1
_chemical_formula_structural   LiCu3Sb2P
_chemical_formula_sum   'Li1 Cu3 Sb2 P1'
_cell_volume   109.25629814
_cell_formula_units_Z   1
loop_
 _symmetry_equiv_pos_site_id
 _symmetry_equiv_pos_as_xyz
  1  'x, y, z'
loop_
 _atom_site_type_symbol
 _atom_site_label
 _atom_site_symmetry_multiplicity
 _atom_site_fract_x
 _atom_site_fract_y
 _atom_site_fract_z
 _atom_site_occupancy
  P  P0  1  0.00000000  0.00000000  0.00000000  1
  Sb  Sb1  1  0.33300000  0.66700000  0.25000000  1
  Sb  Sb2  1  0.66700000  0.33300000  0.50000000  1
  Li  Li3  1  0.00000000  0.00000000  0.75000000  1
  Cu  Cu4  1  0.89858766  0.73180759  0.99161741  1
  Cu  Cu5  1  0.90323065  0.00770900  0.67958936  1
  Cu  Cu6  1  0.63330321  0.37533259  0.35526125  1
