# generated using pymatgen
data_Li3Hf3B(SeF)6
_symmetry_space_group_name_H-M   'P 1'
_cell_length_a   17.29174466
_cell_length_b   17.29174466
_cell_length_c   17.29174466
_cell_angle_alpha   90.00000000
_cell_angle_beta   90.00000000
_cell_angle_gamma   90.00000000
_symmetry_Int_Tables_number   1
_chemical_formula_structural   Li3Hf3B(SeF)6
_chemical_formula_sum   'Li48 Hf48 B16 Se96 F96'
_cell_volume   5170.30831880
_cell_formula_units_Z   16
loop_
 _symmetry_equiv_pos_site_id
 _symmetry_equiv_pos_as_xyz
  1  'x, y, z'
loop_
 _atom_site_type_symbol
 _atom_site_label
 _atom_site_symmetry_multiplicity
 _atom_site_fract_x
 _atom_site_fract_y
 _atom_site_fract_z
 _atom_site_occupancy
  B  B0  1  0.08022141  0.08022141  0.08022141  1
  B  B1  1  0.41977859  0.91977859  0.58022141  1
  B  B2  1  0.91977859  0.58022141  0.41977859  1
  B  B3  1  0.58022141  0.41977859  0.91977859  1
  B  B4  1  0.83022141  0.33022141  0.16977859  1
  B  B5  1  0.66977859  0.66977859  0.66977859  1
  B  B6  1  0.33022141  0.16977859  0.83022141  1
  B  B7  1  0.16977859  0.83022141  0.33022141  1
  B  B8  1  0.58022141  0.58022141  0.58022141  1
  B  B9  1  0.91977859  0.41977859  0.08022141  1
  B  B10  1  0.41977859  0.08022141  0.91977859  1
  B  B11  1  0.08022141  0.91977859  0.41977859  1
  B  B12  1  0.33022141  0.83022141  0.66977859  1
  B  B13  1  0.16977859  0.16977859  0.16977859  1
  B  B14  1  0.83022141  0.66977859  0.33022141  1
  B  B15  1  0.66977859  0.33022141  0.83022141  1
  F  F16  1  0.47269171  0.70407428  0.22915960  1
  F  F17  1  0.02730829  -0.70407428  0.72915960  1
  F  F18  1  -0.47269171  1.20407428  0.27084040  1
  F  F19  1  0.97269171  -0.20407428  -0.22915960  1
  F  F20  1  0.22915960  0.47269171  0.70407428  1
  F  F21  1  0.72915960  0.02730829  -0.70407428  1
  F  F22  1  0.27084040  -0.47269171  1.20407428  1
  F  F23  1  -0.22915960  0.97269171  -0.20407428  1
  F  F24  1  0.70407428  0.22915960  0.47269171  1
  F  F25  1  -0.70407428  0.72915960  0.02730829  1
  F  F26  1  1.20407428  0.27084040  -0.47269171  1
  F  F27  1  -0.20407428  -0.22915960  0.97269171  1
  F  F28  1  1.45407428  0.72269171  0.02084040  1
  F  F29  1  0.04592572  0.27730829  0.52084040  1
  F  F30  1  0.95407428  -0.22269171  0.97915960  1
  F  F31  1  -0.45407428  1.22269171  0.47915960  1
  F  F32  1  1.22269171  0.47915960  -0.45407428  1
  F  F33  1  -0.22269171  0.97915960  0.95407428  1
  F  F34  1  0.27730829  0.52084040  0.04592572  1
  F  F35  1  0.72269171  0.02084040  1.45407428  1
  F  F36  1  0.97915960  0.95407428  -0.22269171  1
  F  F37  1  0.47915960  -0.45407428  1.22269171  1
  F  F38  1  0.02084040  1.45407428  0.72269171  1
  F  F39  1  0.52084040  0.04592572  0.27730829  1
  F  F40  1  0.97269171  1.20407428  0.72915960  1
  F  F41  1  0.52730829  -0.20407428  1.22915960  1
  F  F42  1  0.02730829  1.70407428  0.77084040  1
  F  F43  1  1.47269171  0.29592572  0.27084040  1
  F  F44  1  0.72915960  0.97269171  1.20407428  1
  F  F45  1  1.22915960  0.52730829  -0.20407428  1
  F  F46  1  0.77084040  0.02730829  1.70407428  1
  F  F47  1  0.27084040  1.47269171  0.29592572  1
  F  F48  1  1.20407428  0.72915960  0.97269171  1
  F  F49  1  -0.20407428  1.22915960  0.52730829  1
  F  F50  1  1.70407428  0.77084040  0.02730829  1
  F  F51  1  0.29592572  0.27084040  1.47269171  1
  F  F52  1  1.95407428  1.22269171  0.52084040  1
  F  F53  1  0.54592572  0.77730829  1.02084040  1
  F  F54  1  1.45407428  0.27730829  1.47915960  1
  F  F55  1  0.04592572  1.72269171  0.97915960  1
  F  F56  1  1.72269171  0.97915960  0.04592572  1
  F  F57  1  0.27730829  1.47915960  1.45407428  1
  F  F58  1  0.77730829  1.02084040  0.54592572  1
  F  F59  1  1.22269171  0.52084040  1.95407428  1
  F  F60  1  1.47915960  1.45407428  0.27730829  1
  F  F61  1  0.97915960  0.04592572  1.72269171  1
  F  F62  1  0.52084040  1.95407428  1.22269171  1
  F  F63  1  1.02084040  0.54592572  0.77730829  1
  F  F64  1  0.33117445  -0.00000000  0.25000000  1
  F  F65  1  0.16882555  -0.00000000  0.75000000  1
  F  F66  1  0.25000000  0.33117445  0.00000000  1
  F  F67  1  0.75000000  0.16882555  -0.00000000  1
  F  F68  1  0.00000000  0.25000000  0.33117445  1
  F  F69  1  0.00000000  0.75000000  0.16882555  1
  F  F70  1  0.75000000  0.58117445  -0.00000000  1
  F  F71  1  0.75000000  0.41882555  0.50000000  1
  F  F72  1  0.08117445  0.50000000  0.25000000  1
  F  F73  1  0.91882555  -0.00000000  0.25000000  1
  F  F74  1  0.00000000  0.25000000  0.91882555  1
  F  F75  1  0.50000000  0.25000000  0.08117445  1
  F  F76  1  0.83117445  0.50000000  0.75000000  1
  F  F77  1  0.66882555  0.50000000  0.25000000  1
  F  F78  1  0.75000000  0.83117445  0.50000000  1
  F  F79  1  0.25000000  0.66882555  0.50000000  1
  F  F80  1  0.50000000  0.75000000  0.83117445  1
  F  F81  1  0.50000000  0.25000000  0.66882555  1
  F  F82  1  0.25000000  0.08117445  0.50000000  1
  F  F83  1  0.25000000  0.91882555  -0.00000000  1
  F  F84  1  0.58117445  0.00000000  0.75000000  1
  F  F85  1  0.41882555  0.50000000  0.75000000  1
  F  F86  1  0.50000000  0.75000000  0.41882555  1
  F  F87  1  0.00000000  0.75000000  0.58117445  1
  F  F88  1  0.12500000  0.12500000  0.12500000  1
  F  F89  1  0.37500000  0.87500000  0.62500000  1
  F  F90  1  0.87500000  0.62500000  0.37500000  1
  F  F91  1  0.62500000  0.37500000  0.87500000  1
  F  F92  1  0.62500000  0.62500000  0.62500000  1
  F  F93  1  0.87500000  0.37500000  0.12500000  1
  F  F94  1  0.37500000  0.12500000  0.87500000  1
  F  F95  1  0.12500000  0.87500000  0.37500000  1
  F  F96  1  0.31848813  0.31848813  0.31848813  1
  F  F97  1  0.18151187  0.68151187  0.81848813  1
  F  F98  1  0.68151187  0.81848813  0.18151187  1
  F  F99  1  0.81848813  0.18151187  0.68151187  1
  F  F100  1  0.06848813  0.56848813  0.93151187  1
  F  F101  1  0.43151187  0.43151187  0.43151187  1
  F  F102  1  0.56848813  0.93151187  0.06848813  1
  F  F103  1  0.93151187  0.06848813  0.56848813  1
  F  F104  1  0.81848813  0.81848813  0.81848813  1
  F  F105  1  0.68151187  0.18151187  0.31848813  1
  F  F106  1  0.18151187  0.31848813  0.68151187  1
  F  F107  1  0.31848813  0.68151187  0.18151187  1
  F  F108  1  0.56848813  0.06848813  0.43151187  1
  F  F109  1  0.93151187  0.93151187  0.93151187  1
  F  F110  1  0.06848813  0.43151187  0.56848813  1
  F  F111  1  0.43151187  0.56848813  0.06848813  1
  Hf  Hf112  1  0.12500000  0.82709958  0.42290042  1
  Hf  Hf113  1  0.37500000  0.17290042  0.92290042  1
  Hf  Hf114  1  0.87500000  0.32709958  0.07709958  1
  Hf  Hf115  1  0.62500000  0.67290042  0.57709958  1
  Hf  Hf116  1  0.42290042  0.12500000  0.82709958  1
  Hf  Hf117  1  0.92290042  0.37500000  0.17290042  1
  Hf  Hf118  1  0.07709958  0.87500000  0.32709958  1
  Hf  Hf119  1  0.57709958  0.62500000  0.67290042  1
  Hf  Hf120  1  0.82709958  0.42290042  0.12500000  1
  Hf  Hf121  1  0.17290042  0.92290042  0.37500000  1
  Hf  Hf122  1  0.32709958  0.07709958  0.87500000  1
  Hf  Hf123  1  0.67290042  0.57709958  0.62500000  1
  Hf  Hf124  1  0.62500000  0.32709958  0.92290042  1
  Hf  Hf125  1  0.87500000  0.67290042  0.42290042  1
  Hf  Hf126  1  0.37500000  0.82709958  0.57709958  1
  Hf  Hf127  1  0.12500000  0.17290042  0.07709958  1
  Hf  Hf128  1  0.92290042  0.62500000  0.32709958  1
  Hf  Hf129  1  0.42290042  0.87500000  0.67290042  1
  Hf  Hf130  1  0.57709958  0.37500000  0.82709958  1
  Hf  Hf131  1  0.07709958  0.12500000  0.17290042  1
  Hf  Hf132  1  0.32709958  0.92290042  0.62500000  1
  Hf  Hf133  1  0.67290042  0.42290042  0.87500000  1
  Hf  Hf134  1  0.82709958  0.57709958  0.37500000  1
  Hf  Hf135  1  0.17290042  0.07709958  0.12500000  1
  Hf  Hf136  1  0.87500000  0.87500000  0.87500000  1
  Hf  Hf137  1  0.62500000  0.12500000  0.37500000  1
  Hf  Hf138  1  0.12500000  0.37500000  0.62500000  1
  Hf  Hf139  1  0.37500000  0.62500000  0.12500000  1
  Hf  Hf140  1  0.37500000  0.37500000  0.37500000  1
  Hf  Hf141  1  0.12500000  0.62500000  0.87500000  1
  Hf  Hf142  1  0.62500000  0.87500000  0.12500000  1
  Hf  Hf143  1  0.87500000  0.12500000  0.62500000  1
  Hf  Hf144  1  0.00910799  0.00910799  0.00910799  1
  Hf  Hf145  1  0.49089201  0.99089201  0.50910799  1
  Hf  Hf146  1  0.99089201  0.50910799  0.49089201  1
  Hf  Hf147  1  0.50910799  0.49089201  0.99089201  1
  Hf  Hf148  1  0.75910799  0.25910799  0.24089201  1
  Hf  Hf149  1  0.74089201  0.74089201  0.74089201  1
  Hf  Hf150  1  0.25910799  0.24089201  0.75910799  1
  Hf  Hf151  1  0.24089201  0.75910799  0.25910799  1
  Hf  Hf152  1  0.50910799  0.50910799  0.50910799  1
  Hf  Hf153  1  0.99089201  0.49089201  0.00910799  1
  Hf  Hf154  1  0.49089201  0.00910799  0.99089201  1
  Hf  Hf155  1  0.00910799  0.99089201  0.49089201  1
  Hf  Hf156  1  0.25910799  0.75910799  0.74089201  1
  Hf  Hf157  1  0.24089201  0.24089201  0.24089201  1
  Hf  Hf158  1  0.75910799  0.74089201  0.25910799  1
  Hf  Hf159  1  0.74089201  0.25910799  0.75910799  1
  Li  Li160  1  0.53881536  0.62034494  0.09905447  1
  Li  Li161  1  0.96118464  0.37965506  0.59905447  1
  Li  Li162  1  0.46118464  0.12034494  0.40094553  1
  Li  Li163  1  0.03881536  0.87965506  0.90094553  1
  Li  Li164  1  0.09905447  0.53881536  0.62034494  1
  Li  Li165  1  0.59905447  0.96118464  0.37965506  1
  Li  Li166  1  0.40094553  0.46118464  0.12034494  1
  Li  Li167  1  0.90094553  0.03881536  0.87965506  1
  Li  Li168  1  0.62034494  0.09905447  0.53881536  1
  Li  Li169  1  0.37965506  0.59905447  0.96118464  1
  Li  Li170  1  0.12034494  0.40094553  0.46118464  1
  Li  Li171  1  0.87965506  0.90094553  0.03881536  1
  Li  Li172  1  0.37034494  0.78881536  0.15094553  1
  Li  Li173  1  0.12965506  0.21118464  0.65094553  1
  Li  Li174  1  0.87034494  0.71118464  0.84905447  1
  Li  Li175  1  0.62965506  0.28881536  0.34905447  1
  Li  Li176  1  0.28881536  0.34905447  0.62965506  1
  Li  Li177  1  0.71118464  0.84905447  0.87034494  1
  Li  Li178  1  0.21118464  0.65094553  0.12965506  1
  Li  Li179  1  0.78881536  0.15094553  0.37034494  1
  Li  Li180  1  0.84905447  0.87034494  0.71118464  1
  Li  Li181  1  0.34905447  0.62965506  0.28881536  1
  Li  Li182  1  0.15094553  0.37034494  0.78881536  1
  Li  Li183  1  0.65094553  0.12965506  0.21118464  1
  Li  Li184  1  0.03881536  0.12034494  0.59905447  1
  Li  Li185  1  0.46118464  0.87965506  0.09905447  1
  Li  Li186  1  0.96118464  0.62034494  0.90094553  1
  Li  Li187  1  0.53881536  0.37965506  0.40094553  1
  Li  Li188  1  0.59905447  0.03881536  0.12034494  1
  Li  Li189  1  0.09905447  0.46118464  0.87965506  1
  Li  Li190  1  0.90094553  0.96118464  0.62034494  1
  Li  Li191  1  0.40094553  0.53881536  0.37965506  1
  Li  Li192  1  0.12034494  0.59905447  0.03881536  1
  Li  Li193  1  0.87965506  0.09905447  0.46118464  1
  Li  Li194  1  0.62034494  0.90094553  0.96118464  1
  Li  Li195  1  0.37965506  0.40094553  0.53881536  1
  Li  Li196  1  0.87034494  0.28881536  0.65094553  1
  Li  Li197  1  0.62965506  0.71118464  0.15094553  1
  Li  Li198  1  0.37034494  0.21118464  0.34905447  1
  Li  Li199  1  0.12965506  0.78881536  0.84905447  1
  Li  Li200  1  0.78881536  0.84905447  0.12965506  1
  Li  Li201  1  0.21118464  0.34905447  0.37034494  1
  Li  Li202  1  0.71118464  0.15094553  0.62965506  1
  Li  Li203  1  0.28881536  0.65094553  0.87034494  1
  Li  Li204  1  0.34905447  0.37034494  0.21118464  1
  Li  Li205  1  0.84905447  0.12965506  0.78881536  1
  Li  Li206  1  0.65094553  0.87034494  0.28881536  1
  Li  Li207  1  0.15094553  0.62965506  0.71118464  1
  Se  Se208  1  0.12500000  0.00000000  0.25000000  1
  Se  Se209  1  0.37500000  -0.00000000  0.75000000  1
  Se  Se210  1  0.25000000  0.12500000  -0.00000000  1
  Se  Se211  1  0.75000000  0.37500000  -0.00000000  1
  Se  Se212  1  0.00000000  0.25000000  0.12500000  1
  Se  Se213  1  0.00000000  0.75000000  0.37500000  1
  Se  Se214  1  0.62500000  0.50000000  0.75000000  1
  Se  Se215  1  0.87500000  0.50000000  0.25000000  1
  Se  Se216  1  0.75000000  0.62500000  0.50000000  1
  Se  Se217  1  0.25000000  0.87500000  0.50000000  1
  Se  Se218  1  0.50000000  0.75000000  0.62500000  1
  Se  Se219  1  0.50000000  0.25000000  0.87500000  1
  Se  Se220  1  0.97933394  0.12752948  0.44373786  1
  Se  Se221  1  0.52066606  0.87247052  0.94373786  1
  Se  Se222  1  0.02066606  0.62752948  0.05626214  1
  Se  Se223  1  0.47933394  0.37247052  0.55626214  1
  Se  Se224  1  0.44373786  0.97933394  0.12752948  1
  Se  Se225  1  0.94373786  0.52066606  0.87247052  1
  Se  Se226  1  0.05626214  0.02066606  0.62752948  1
  Se  Se227  1  0.55626214  0.47933394  0.37247052  1
  Se  Se228  1  0.12752948  0.44373786  0.97933394  1
  Se  Se229  1  0.87247052  0.94373786  0.52066606  1
  Se  Se230  1  0.62752948  0.05626214  0.02066606  1
  Se  Se231  1  0.37247052  0.55626214  0.47933394  1
  Se  Se232  1  0.87752948  0.22933394  0.80626214  1
  Se  Se233  1  0.62247052  0.77066606  0.30626214  1
  Se  Se234  1  0.37752948  0.27066606  0.19373786  1
  Se  Se235  1  0.12247052  0.72933394  0.69373786  1
  Se  Se236  1  0.72933394  0.69373786  0.12247052  1
  Se  Se237  1  0.27066606  0.19373786  0.37752948  1
  Se  Se238  1  0.77066606  0.30626214  0.62247052  1
  Se  Se239  1  0.22933394  0.80626214  0.87752948  1
  Se  Se240  1  0.19373786  0.37752948  0.27066606  1
  Se  Se241  1  0.69373786  0.12247052  0.72933394  1
  Se  Se242  1  0.80626214  0.87752948  0.22933394  1
  Se  Se243  1  0.30626214  0.62247052  0.77066606  1
  Se  Se244  1  0.47933394  0.62752948  0.94373786  1
  Se  Se245  1  0.02066606  0.37247052  0.44373786  1
  Se  Se246  1  0.52066606  0.12752948  0.55626214  1
  Se  Se247  1  0.97933394  0.87247052  0.05626214  1
  Se  Se248  1  0.94373786  0.47933394  0.62752948  1
  Se  Se249  1  0.44373786  0.02066606  0.37247052  1
  Se  Se250  1  0.55626214  0.52066606  0.12752948  1
  Se  Se251  1  0.05626214  0.97933394  0.87247052  1
  Se  Se252  1  0.62752948  0.94373786  0.47933394  1
  Se  Se253  1  0.37247052  0.44373786  0.02066606  1
  Se  Se254  1  0.12752948  0.55626214  0.52066606  1
  Se  Se255  1  0.87247052  0.05626214  0.97933394  1
  Se  Se256  1  0.37752948  0.72933394  0.30626214  1
  Se  Se257  1  0.12247052  0.27066606  0.80626214  1
  Se  Se258  1  0.87752948  0.77066606  0.69373786  1
  Se  Se259  1  0.62247052  0.22933394  0.19373786  1
  Se  Se260  1  0.22933394  0.19373786  0.62247052  1
  Se  Se261  1  0.77066606  0.69373786  0.87752948  1
  Se  Se262  1  0.27066606  0.80626214  0.12247052  1
  Se  Se263  1  0.72933394  0.30626214  0.37752948  1
  Se  Se264  1  0.69373786  0.87752948  0.77066606  1
  Se  Se265  1  0.19373786  0.62247052  0.22933394  1
  Se  Se266  1  0.30626214  0.37752948  0.72933394  1
  Se  Se267  1  0.80626214  0.12247052  0.27066606  1
  Se  Se268  1  0.12500000  0.94180861  0.19180861  1
  Se  Se269  1  0.37500000  0.05819139  0.69180861  1
  Se  Se270  1  0.87500000  0.44180861  0.30819139  1
  Se  Se271  1  0.62500000  0.55819139  0.80819139  1
  Se  Se272  1  0.19180861  0.12500000  0.94180861  1
  Se  Se273  1  0.69180861  0.37500000  0.05819139  1
  Se  Se274  1  0.30819139  0.87500000  0.44180861  1
  Se  Se275  1  0.80819139  0.62500000  0.55819139  1
  Se  Se276  1  0.94180861  0.19180861  0.12500000  1
  Se  Se277  1  0.05819139  0.69180861  0.37500000  1
  Se  Se278  1  0.44180861  0.30819139  0.87500000  1
  Se  Se279  1  0.55819139  0.80819139  0.62500000  1
  Se  Se280  1  0.62500000  0.44180861  0.69180861  1
  Se  Se281  1  0.87500000  0.55819139  0.19180861  1
  Se  Se282  1  0.37500000  0.94180861  0.80819139  1
  Se  Se283  1  0.12500000  0.05819139  0.30819139  1
  Se  Se284  1  0.69180861  0.62500000  0.44180861  1
  Se  Se285  1  0.19180861  0.87500000  0.55819139  1
  Se  Se286  1  0.80819139  0.37500000  0.94180861  1
  Se  Se287  1  0.30819139  0.12500000  0.05819139  1
  Se  Se288  1  0.44180861  0.69180861  0.62500000  1
  Se  Se289  1  0.55819139  0.19180861  0.87500000  1
  Se  Se290  1  0.94180861  0.80819139  0.37500000  1
  Se  Se291  1  0.05819139  0.30819139  0.12500000  1
  Se  Se292  1  0.62500000  -0.00000000  0.25000000  1
  Se  Se293  1  0.87500000  -0.00000000  0.75000000  1
  Se  Se294  1  0.25000000  0.62500000  0.00000000  1
  Se  Se295  1  0.75000000  0.87500000  -0.00000000  1
  Se  Se296  1  0.00000000  0.25000000  0.62500000  1
  Se  Se297  1  0.00000000  0.75000000  0.87500000  1
  Se  Se298  1  0.12500000  0.50000000  0.75000000  1
  Se  Se299  1  0.37500000  0.50000000  0.25000000  1
  Se  Se300  1  0.75000000  0.12500000  0.50000000  1
  Se  Se301  1  0.25000000  0.37500000  0.50000000  1
  Se  Se302  1  0.50000000  0.75000000  0.12500000  1
  Se  Se303  1  0.50000000  0.25000000  0.37500000  1
