# generated using pymatgen
data_K24Sr8Li2(S3O4)3
_symmetry_space_group_name_H-M   'P 1'
_cell_length_a   22.05129655
_cell_length_b   22.05129655
_cell_length_c   35.64139400
_cell_angle_alpha   90.00000000
_cell_angle_beta   90.00000000
_cell_angle_gamma   120.00000000
_symmetry_Int_Tables_number   1
_chemical_formula_structural   K24Sr8Li2(S3O4)3
_chemical_formula_sum   'K144 Sr48 Li12 S54 O72'
_cell_volume   15009.06274442
_cell_formula_units_Z   6
loop_
 _symmetry_equiv_pos_site_id
 _symmetry_equiv_pos_as_xyz
  1  'x, y, z'
loop_
 _atom_site_type_symbol
 _atom_site_label
 _atom_site_symmetry_multiplicity
 _atom_site_fract_x
 _atom_site_fract_y
 _atom_site_fract_z
 _atom_site_occupancy
  K  K0  1  0.81991059  -0.00000000  0.25000000  1
  K  K1  1  0.00000000  0.81991059  0.25000000  1
  K  K2  1  0.18008941  0.18008941  0.25000000  1
  K  K3  1  0.18008941  -0.00000000  0.75000000  1
  K  K4  1  0.00000000  0.18008941  0.75000000  1
  K  K5  1  0.81991059  0.81991059  0.75000000  1
  K  K6  1  0.48657726  0.33333333  0.58333333  1
  K  K7  1  0.66666667  0.15324392  0.58333333  1
  K  K8  1  0.84675608  0.51342274  0.58333333  1
  K  K9  1  0.84675608  0.33333333  0.08333333  1
  K  K10  1  0.66666667  0.51342274  0.08333333  1
  K  K11  1  0.48657726  0.15324392  0.08333333  1
  K  K12  1  0.15324392  0.66666667  0.91666667  1
  K  K13  1  0.33333333  0.48657726  0.91666667  1
  K  K14  1  0.51342274  0.84675608  0.91666667  1
  K  K15  1  0.51342274  0.66666667  0.41666667  1
  K  K16  1  0.33333333  0.84675608  0.41666667  1
  K  K17  1  0.15324392  0.48657726  0.41666667  1
  K  K18  1  0.53188250  0.34452649  0.19518472  1
  K  K19  1  0.65547351  0.18735601  0.19518472  1
  K  K20  1  0.81264399  0.46811750  0.19518472  1
  K  K21  1  0.34452649  0.53188250  0.30481528  1
  K  K22  1  0.18735601  0.65547351  0.30481528  1
  K  K23  1  0.46811750  0.81264399  0.30481528  1
  K  K24  1  0.46811750  0.65547351  0.80481528  1
  K  K25  1  0.34452649  0.81264399  0.80481528  1
  K  K26  1  0.18735601  0.53188250  0.80481528  1
  K  K27  1  0.65547351  0.46811750  0.69518472  1
  K  K28  1  0.81264399  0.34452649  0.69518472  1
  K  K29  1  0.53188250  0.18735601  0.69518472  1
  K  K30  1  0.19854917  0.67785982  0.52851805  1
  K  K31  1  0.32214018  0.52068935  0.52851805  1
  K  K32  1  0.47931065  0.80145083  0.52851805  1
  K  K33  1  0.01119316  0.86521584  0.63814862  1
  K  K34  1  0.85402268  0.98880684  0.63814862  1
  K  K35  1  0.13478416  0.14597732  0.63814862  1
  K  K36  1  0.13478416  0.98880684  0.13814862  1
  K  K37  1  0.01119316  0.14597732  0.13814862  1
  K  K38  1  0.85402268  0.86521584  0.13814862  1
  K  K39  1  0.32214018  0.80145083  0.02851805  1
  K  K40  1  0.47931065  0.67785982  0.02851805  1
  K  K41  1  0.19854917  0.52068935  0.02851805  1
  K  K42  1  0.86521584  0.01119316  0.86185138  1
  K  K43  1  0.98880684  0.85402268  0.86185138  1
  K  K44  1  0.14597732  0.13478416  0.86185138  1
  K  K45  1  0.67785982  0.19854917  0.97148195  1
  K  K46  1  0.52068935  0.32214018  0.97148195  1
  K  K47  1  0.80145083  0.47931065  0.97148195  1
  K  K48  1  0.80145083  0.32214018  0.47148195  1
  K  K49  1  0.67785982  0.47931065  0.47148195  1
  K  K50  1  0.52068935  0.19854917  0.47148195  1
  K  K51  1  0.98880684  0.13478416  0.36185138  1
  K  K52  1  0.14597732  0.01119316  0.36185138  1
  K  K53  1  0.86521584  0.85402268  0.36185138  1
  K  K54  1  0.65618275  0.00000000  0.25000000  1
  K  K55  1  0.00000000  0.65618275  0.25000000  1
  K  K56  1  0.34381725  0.34381725  0.25000000  1
  K  K57  1  0.34381725  0.00000000  0.75000000  1
  K  K58  1  0.00000000  0.34381725  0.75000000  1
  K  K59  1  0.65618275  0.65618275  0.75000000  1
  K  K60  1  0.32284941  0.33333333  0.58333333  1
  K  K61  1  0.66666667  0.98951608  0.58333333  1
  K  K62  1  0.01048392  0.67715059  0.58333333  1
  K  K63  1  0.01048392  0.33333333  0.08333333  1
  K  K64  1  0.66666667  0.67715059  0.08333333  1
  K  K65  1  0.32284941  0.98951608  0.08333333  1
  K  K66  1  0.98951608  0.66666667  0.91666667  1
  K  K67  1  0.33333333  0.32284941  0.91666667  1
  K  K68  1  0.67715059  0.01048392  0.91666667  1
  K  K69  1  0.67715059  0.66666667  0.41666667  1
  K  K70  1  0.33333333  0.01048392  0.41666667  1
  K  K71  1  0.98951608  0.32284941  0.41666667  1
  K  K72  1  0.10289939  -0.00000000  0.25000000  1
  K  K73  1  0.00000000  0.10289939  0.25000000  1
  K  K74  1  0.89710061  0.89710061  0.25000000  1
  K  K75  1  0.89710061  -0.00000000  0.75000000  1
  K  K76  1  0.00000000  0.89710061  0.75000000  1
  K  K77  1  0.10289939  0.10289939  0.75000000  1
  K  K78  1  0.76956606  0.33333333  0.58333333  1
  K  K79  1  0.66666667  0.43623273  0.58333333  1
  K  K80  1  0.56376727  0.23043394  0.58333333  1
  K  K81  1  0.56376727  0.33333333  0.08333333  1
  K  K82  1  0.66666667  0.23043394  0.08333333  1
  K  K83  1  0.76956606  0.43623273  0.08333333  1
  K  K84  1  0.43623273  0.66666667  0.91666667  1
  K  K85  1  0.33333333  0.76956606  0.91666667  1
  K  K86  1  0.23043394  0.56376727  0.91666667  1
  K  K87  1  0.23043394  0.66666667  0.41666667  1
  K  K88  1  0.33333333  0.56376727  0.41666667  1
  K  K89  1  0.43623273  0.76956606  0.41666667  1
  K  K90  1  0.45444856  0.10335780  0.86961777  1
  K  K91  1  0.89664220  0.35109076  0.86961777  1
  K  K92  1  0.64890924  0.54555144  0.86961777  1
  K  K93  1  0.10335780  0.45444856  0.63038223  1
  K  K94  1  0.35109076  0.89664220  0.63038223  1
  K  K95  1  0.54555144  0.64890924  0.63038223  1
  K  K96  1  0.54555144  0.89664220  0.13038223  1
  K  K97  1  0.10335780  0.64890924  0.13038223  1
  K  K98  1  0.35109076  0.45444856  0.13038223  1
  K  K99  1  0.89664220  0.54555144  0.36961777  1
  K  K100  1  0.64890924  0.10335780  0.36961777  1
  K  K101  1  0.45444856  0.35109076  0.36961777  1
  K  K102  1  0.12111522  0.43669113  0.20295110  1
  K  K103  1  0.56330887  0.68442409  0.20295110  1
  K  K104  1  0.31557591  0.87888478  0.20295110  1
  K  K105  1  0.77002447  0.78778189  0.96371557  1
  K  K106  1  0.01775742  0.22997553  0.96371557  1
  K  K107  1  0.21221811  0.98224258  0.96371557  1
  K  K108  1  0.21221811  0.22997553  0.46371557  1
  K  K109  1  0.77002447  0.98224258  0.46371557  1
  K  K110  1  0.01775742  0.78778189  0.46371557  1
  K  K111  1  0.56330887  0.87888478  0.70295110  1
  K  K112  1  0.31557591  0.43669113  0.70295110  1
  K  K113  1  0.12111522  0.68442409  0.70295110  1
  K  K114  1  0.78778189  0.77002447  0.53628443  1
  K  K115  1  0.22997553  0.01775742  0.53628443  1
  K  K116  1  0.98224258  0.21221811  0.53628443  1
  K  K117  1  0.43669113  0.12111522  0.29704890  1
  K  K118  1  0.68442409  0.56330887  0.29704890  1
  K  K119  1  0.87888478  0.31557591  0.29704890  1
  K  K120  1  0.87888478  0.56330887  0.79704890  1
  K  K121  1  0.43669113  0.31557591  0.79704890  1
  K  K122  1  0.68442409  0.12111522  0.79704890  1
  K  K123  1  0.22997553  0.21221811  0.03628443  1
  K  K124  1  0.98224258  0.77002447  0.03628443  1
  K  K125  1  0.78778189  0.01775742  0.03628443  1
  K  K126  1  0.34938424  -0.00000000  0.25000000  1
  K  K127  1  0.00000000  0.34938424  0.25000000  1
  K  K128  1  0.65061576  0.65061576  0.25000000  1
  K  K129  1  0.65061576  -0.00000000  0.75000000  1
  K  K130  1  0.00000000  0.65061576  0.75000000  1
  K  K131  1  0.34938424  0.34938424  0.75000000  1
  K  K132  1  0.01605091  0.33333333  0.58333333  1
  K  K133  1  0.66666667  0.68271757  0.58333333  1
  K  K134  1  0.31728243  0.98394909  0.58333333  1
  K  K135  1  0.31728243  0.33333333  0.08333333  1
  K  K136  1  0.66666667  0.98394909  0.08333333  1
  K  K137  1  0.01605091  0.68271757  0.08333333  1
  K  K138  1  0.68271757  0.66666667  0.91666667  1
  K  K139  1  0.33333333  0.01605091  0.91666667  1
  K  K140  1  0.98394909  0.31728243  0.91666667  1
  K  K141  1  0.98394909  0.66666667  0.41666667  1
  K  K142  1  0.33333333  0.31728243  0.41666667  1
  K  K143  1  0.68271757  0.01605091  0.41666667  1
  Li  Li144  1  0.00000000  0.00000000  0.79681508  1
  Li  Li145  1  0.00000000  0.00000000  0.70318492  1
  Li  Li146  1  0.00000000  0.00000000  0.20318492  1
  Li  Li147  1  0.00000000  0.00000000  0.29681508  1
  Li  Li148  1  0.66666667  0.33333333  0.13014842  1
  Li  Li149  1  0.66666667  0.33333333  0.03651825  1
  Li  Li150  1  0.66666667  0.33333333  0.53651825  1
  Li  Li151  1  0.66666667  0.33333333  0.63014842  1
  Li  Li152  1  0.33333333  0.66666667  0.46348175  1
  Li  Li153  1  0.33333333  0.66666667  0.36985158  1
  Li  Li154  1  0.33333333  0.66666667  0.86985158  1
  Li  Li155  1  0.33333333  0.66666667  0.96348175  1
  O  O156  1  0.12241789  0.30817959  0.88609533  1
  O  O157  1  0.69182041  0.81423830  0.88609533  1
  O  O158  1  0.18576170  0.87758211  0.88609533  1
  O  O159  1  0.30817959  0.12241789  0.61390467  1
  O  O160  1  0.81423830  0.69182041  0.61390467  1
  O  O161  1  0.87758211  0.18576170  0.61390467  1
  O  O162  1  0.87758211  0.69182041  0.11390467  1
  O  O163  1  0.30817959  0.18576170  0.11390467  1
  O  O164  1  0.81423830  0.12241789  0.11390467  1
  O  O165  1  0.69182041  0.87758211  0.38609533  1
  O  O166  1  0.18576170  0.30817959  0.38609533  1
  O  O167  1  0.12241789  0.81423830  0.38609533  1
  O  O168  1  0.78908455  0.64151292  0.21942866  1
  O  O169  1  0.35848708  0.14757163  0.21942866  1
  O  O170  1  0.85242837  0.21091545  0.21942866  1
  O  O171  1  0.97484625  0.45575122  0.94723800  1
  O  O172  1  0.48090497  0.02515375  0.94723800  1
  O  O173  1  0.54424878  0.51909503  0.94723800  1
  O  O174  1  0.54424878  0.02515375  0.44723800  1
  O  O175  1  0.97484625  0.51909503  0.44723800  1
  O  O176  1  0.48090497  0.45575122  0.44723800  1
  O  O177  1  0.35848708  0.21091545  0.71942866  1
  O  O178  1  0.85242837  0.64151292  0.71942866  1
  O  O179  1  0.78908455  0.14757163  0.71942866  1
  O  O180  1  0.45575122  0.97484625  0.55276200  1
  O  O181  1  0.02515375  0.48090497  0.55276200  1
  O  O182  1  0.51909503  0.54424878  0.55276200  1
  O  O183  1  0.64151292  0.78908455  0.28057134  1
  O  O184  1  0.14757163  0.35848708  0.28057134  1
  O  O185  1  0.21091545  0.85242837  0.28057134  1
  O  O186  1  0.21091545  0.35848708  0.78057134  1
  O  O187  1  0.64151292  0.85242837  0.78057134  1
  O  O188  1  0.14757163  0.78908455  0.78057134  1
  O  O189  1  0.02515375  0.54424878  0.05276200  1
  O  O190  1  0.51909503  0.97484625  0.05276200  1
  O  O191  1  0.45575122  0.48090497  0.05276200  1
  O  O192  1  0.87135573  0.39153858  0.74535691  1
  O  O193  1  0.60846142  0.47981714  0.74535691  1
  O  O194  1  0.52018286  0.12864427  0.74535691  1
  O  O195  1  0.39153858  0.87135573  0.75464309  1
  O  O196  1  0.47981714  0.60846142  0.75464309  1
  O  O197  1  0.12864427  0.52018286  0.75464309  1
  O  O198  1  0.12864427  0.60846142  0.25464309  1
  O  O199  1  0.39153858  0.52018286  0.25464309  1
  O  O200  1  0.47981714  0.87135573  0.25464309  1
  O  O201  1  0.60846142  0.12864427  0.24535691  1
  O  O202  1  0.52018286  0.39153858  0.24535691  1
  O  O203  1  0.87135573  0.47981714  0.24535691  1
  O  O204  1  0.53802239  0.72487192  0.07869024  1
  O  O205  1  0.27512808  0.81315048  0.07869024  1
  O  O206  1  0.18684952  0.46197761  0.07869024  1
  O  O207  1  0.05820525  0.20468906  0.08797642  1
  O  O208  1  0.14648381  0.94179475  0.08797642  1
  O  O209  1  0.79531094  0.85351619  0.08797642  1
  O  O210  1  0.79531094  0.94179475  0.58797642  1
  O  O211  1  0.05820525  0.85351619  0.58797642  1
  O  O212  1  0.14648381  0.20468906  0.58797642  1
  O  O213  1  0.27512808  0.46197761  0.57869024  1
  O  O214  1  0.18684952  0.72487192  0.57869024  1
  O  O215  1  0.53802239  0.81315048  0.57869024  1
  O  O216  1  0.20468906  0.05820525  0.41202358  1
  O  O217  1  0.94179475  0.14648381  0.41202358  1
  O  O218  1  0.85351619  0.79531094  0.41202358  1
  O  O219  1  0.72487192  0.53802239  0.42130976  1
  O  O220  1  0.81315048  0.27512808  0.42130976  1
  O  O221  1  0.46197761  0.18684952  0.42130976  1
  O  O222  1  0.46197761  0.27512808  0.92130976  1
  O  O223  1  0.72487192  0.18684952  0.92130976  1
  O  O224  1  0.81315048  0.53802239  0.92130976  1
  O  O225  1  0.94179475  0.79531094  0.91202358  1
  O  O226  1  0.85351619  0.05820525  0.91202358  1
  O  O227  1  0.20468906  0.14648381  0.91202358  1
  S  S228  1  0.69178128  0.53037118  0.92219071  1
  S  S229  1  -0.53037118  0.16141010  0.92219071  1
  S  S230  1  -0.16141010  -0.69178128  0.92219071  1
  S  S231  1  0.53037118  0.69178128  -0.42219071  1
  S  S232  1  0.16141010  -0.53037118  -0.42219071  1
  S  S233  1  -0.69178128  -0.16141010  -0.42219071  1
  S  S234  1  -0.69178128  -0.53037118  -0.92219071  1
  S  S235  1  0.53037118  -0.16141010  -0.92219071  1
  S  S236  1  0.16141010  0.69178128  -0.92219071  1
  S  S237  1  -0.53037118  -0.69178128  1.42219071  1
  S  S238  1  -0.16141010  0.53037118  1.42219071  1
  S  S239  1  0.69178128  0.16141010  1.42219071  1
  S  S240  1  1.35844795  0.86370451  1.25552405  1
  S  S241  1  0.13629549  0.49474344  1.25552405  1
  S  S242  1  0.50525656  -0.35844795  1.25552405  1
  S  S243  1  1.19703785  1.02511462  -0.08885738  1
  S  S244  1  0.82807677  -0.19703785  -0.08885738  1
  S  S245  1  -0.02511462  0.17192323  -0.08885738  1
  S  S246  1  -0.02511462  -0.19703785  -0.58885738  1
  S  S247  1  1.19703785  0.17192323  -0.58885738  1
  S  S248  1  0.82807677  1.02511462  -0.58885738  1
  S  S249  1  0.13629549  -0.35844795  1.75552405  1
  S  S250  1  0.50525656  0.86370451  1.75552405  1
  S  S251  1  1.35844795  0.49474344  1.75552405  1
  S  S252  1  1.02511462  1.19703785  1.58885738  1
  S  S253  1  -0.19703785  0.82807677  1.58885738  1
  S  S254  1  0.17192323  -0.02511462  1.58885738  1
  S  S255  1  0.86370451  1.35844795  0.24447595  1
  S  S256  1  0.49474344  0.13629549  0.24447595  1
  S  S257  1  -0.35844795  0.50525656  0.24447595  1
  S  S258  1  -0.35844795  0.13629549  -0.25552405  1
  S  S259  1  0.86370451  0.50525656  -0.25552405  1
  S  S260  1  0.49474344  1.35844795  -0.25552405  1
  S  S261  1  -0.19703785  -0.02511462  2.08885738  1
  S  S262  1  0.17192323  1.19703785  2.08885738  1
  S  S263  1  1.02511462  0.82807677  2.08885738  1
  S  S264  1  0.50000000  0.00000000  0.00000000  1
  S  S265  1  0.00000000  0.50000000  0.00000000  1
  S  S266  1  0.50000000  0.50000000  0.00000000  1
  S  S267  1  0.00000000  0.50000000  0.50000000  1
  S  S268  1  0.50000000  0.00000000  0.50000000  1
  S  S269  1  0.50000000  0.50000000  0.50000000  1
  S  S270  1  0.16666667  0.33333333  0.33333333  1
  S  S271  1  0.66666667  0.83333333  0.33333333  1
  S  S272  1  0.16666667  0.83333333  0.33333333  1
  S  S273  1  0.66666667  0.83333333  0.83333333  1
  S  S274  1  0.16666667  0.33333333  0.83333333  1
  S  S275  1  0.16666667  0.83333333  0.83333333  1
  S  S276  1  0.83333333  0.66666667  0.66666667  1
  S  S277  1  0.33333333  0.16666667  0.66666667  1
  S  S278  1  0.83333333  0.16666667  0.66666667  1
  S  S279  1  0.33333333  0.16666667  0.16666667  1
  S  S280  1  0.83333333  0.66666667  0.16666667  1
  S  S281  1  0.83333333  0.16666667  0.16666667  1
  Sr  Sr282  1  0.00000000  0.00000000  0.25000000  1
  Sr  Sr283  1  0.00000000  0.00000000  0.75000000  1
  Sr  Sr284  1  0.66666667  0.33333333  0.58333333  1
  Sr  Sr285  1  0.66666667  0.33333333  0.08333333  1
  Sr  Sr286  1  0.33333333  0.66666667  0.91666667  1
  Sr  Sr287  1  0.33333333  0.66666667  0.41666667  1
  Sr  Sr288  1  0.06244103  0.06440309  0.58349887  1
  Sr  Sr289  1  0.93559691  0.99803794  0.58349887  1
  Sr  Sr290  1  0.00196206  0.93755897  0.58349887  1
  Sr  Sr291  1  0.06440309  0.06244103  0.91650113  1
  Sr  Sr292  1  0.99803794  0.93559691  0.91650113  1
  Sr  Sr293  1  0.93755897  0.00196206  0.91650113  1
  Sr  Sr294  1  0.93755897  0.93559691  0.41650113  1
  Sr  Sr295  1  0.06440309  0.00196206  0.41650113  1
  Sr  Sr296  1  0.99803794  0.06244103  0.41650113  1
  Sr  Sr297  1  0.93559691  0.93755897  0.08349887  1
  Sr  Sr298  1  0.00196206  0.06440309  0.08349887  1
  Sr  Sr299  1  0.06244103  0.99803794  0.08349887  1
  Sr  Sr300  1  0.72910770  0.39773642  0.91683220  1
  Sr  Sr301  1  0.60226358  0.33137127  0.91683220  1
  Sr  Sr302  1  0.66862873  0.27089230  0.91683220  1
  Sr  Sr303  1  0.73106976  0.39577437  0.24983447  1
  Sr  Sr304  1  0.66470461  0.26893024  0.24983447  1
  Sr  Sr305  1  0.60422563  0.33529539  0.24983447  1
  Sr  Sr306  1  0.60422563  0.26893024  0.74983447  1
  Sr  Sr307  1  0.73106976  0.33529539  0.74983447  1
  Sr  Sr308  1  0.66470461  0.39577437  0.74983447  1
  Sr  Sr309  1  0.60226358  0.27089230  0.41683220  1
  Sr  Sr310  1  0.66862873  0.39773642  0.41683220  1
  Sr  Sr311  1  0.72910770  0.33137127  0.41683220  1
  Sr  Sr312  1  0.39577437  0.73106976  0.25016553  1
  Sr  Sr313  1  0.26893024  0.66470461  0.25016553  1
  Sr  Sr314  1  0.33529539  0.60422563  0.25016553  1
  Sr  Sr315  1  0.39773642  0.72910770  0.58316780  1
  Sr  Sr316  1  0.33137127  0.60226358  0.58316780  1
  Sr  Sr317  1  0.27089230  0.66862873  0.58316780  1
  Sr  Sr318  1  0.27089230  0.60226358  0.08316780  1
  Sr  Sr319  1  0.39773642  0.66862873  0.08316780  1
  Sr  Sr320  1  0.33137127  0.72910770  0.08316780  1
  Sr  Sr321  1  0.26893024  0.60422563  0.75016553  1
  Sr  Sr322  1  0.33529539  0.73106976  0.75016553  1
  Sr  Sr323  1  0.39577437  0.66470461  0.75016553  1
  Sr  Sr324  1  0.00000000  0.00000000  0.00000000  1
  Sr  Sr325  1  0.00000000  0.00000000  0.50000000  1
  Sr  Sr326  1  0.66666667  0.33333333  0.33333333  1
  Sr  Sr327  1  0.66666667  0.33333333  0.83333333  1
  Sr  Sr328  1  0.33333333  0.66666667  0.66666667  1
  Sr  Sr329  1  0.33333333  0.66666667  0.16666667  1
