# generated using pymatgen
data_LiF
_symmetry_space_group_name_H-M   'P 1'
_cell_length_a   8.32119000
_cell_length_b   8.32119000
_cell_length_c   10.11300063
_cell_angle_alpha   90.00000000
_cell_angle_beta   90.00000000
_cell_angle_gamma   120.00000000
_symmetry_Int_Tables_number   1
_chemical_formula_structural   LiF
_chemical_formula_sum   'Li26 F26'
_cell_volume   606.43120821
_cell_formula_units_Z   26
loop_
 _symmetry_equiv_pos_site_id
 _symmetry_equiv_pos_as_xyz
  1  'x, y, z'
loop_
 _atom_site_type_symbol
 _atom_site_label
 _atom_site_symmetry_multiplicity
 _atom_site_fract_x
 _atom_site_fract_y
 _atom_site_fract_z
 _atom_site_occupancy
  F  F0  1  0.58213397  0.77985126  0.62532247  1
  F  F1  1  0.22014874  0.80228271  0.62532247  1
  F  F2  1  0.19771729  0.41786603  0.62532247  1
  F  F3  1  0.22014874  0.41786603  0.37467753  1
  F  F4  1  0.19771729  0.77985126  0.37467753  1
  F  F5  1  0.58213397  0.80228271  0.37467753  1
  F  F6  1  0.08032945  0.91967055  0.50000000  1
  F  F7  1  0.08032945  0.16065889  0.50000000  1
  F  F8  1  0.83934111  0.91967055  0.50000000  1
  F  F9  1  0.00000000  0.00000000  0.23426948  1
  F  F10  1  0.00000000  0.00000000  0.76573052  1
  F  F11  1  0.00000000  0.00000000  0.63968167  1
  F  F12  1  0.00000000  0.00000000  0.36031833  1
  F  F13  1  0.00000000  0.00000000  0.50000000  1
  F  F14  1  0.35509128  0.86700388  0.68402002  1
  F  F15  1  0.13299612  0.48808740  0.68402002  1
  F  F16  1  0.51191260  0.64490872  0.68402002  1
  F  F17  1  0.13299612  0.64490872  0.31597998  1
  F  F18  1  0.51191260  0.86700388  0.31597998  1
  F  F19  1  0.35509128  0.48808740  0.31597998  1
  F  F20  1  0.26379439  0.04951596  0.01301337  1
  F  F21  1  0.95048404  0.21427844  0.01301337  1
  F  F22  1  0.78572156  0.73620561  0.01301337  1
  F  F23  1  0.95048404  0.73620561  0.98698663  1
  F  F24  1  0.78572156  0.04951596  0.98698663  1
  F  F25  1  0.26379439  0.21427844  0.98698663  1
  Li  Li26  1  0.66666667  0.33333333  0.00000000  1
  Li  Li27  1  0.33333333  0.66666667  0.36913637  1
  Li  Li28  1  0.33333333  0.66666667  0.63086363  1
  Li  Li29  1  0.28233096  0.98943601  0.36498962  1
  Li  Li30  1  -0.98943601  -0.70710505  0.36498962  1
  Li  Li31  1  0.70710505  -0.28233096  0.36498962  1
  Li  Li32  1  -0.98943601  -0.28233096  -0.36498962  1
  Li  Li33  1  0.70710505  0.98943601  -0.36498962  1
  Li  Li34  1  0.28233096  -0.70710505  -0.36498962  1
  Li  Li35  1  0.46036510  0.18878288  0.92896239  1
  Li  Li36  1  0.81121712  0.27158222  0.92896239  1
  Li  Li37  1  0.72841778  0.53963490  0.92896239  1
  Li  Li38  1  0.81121712  0.53963490  0.07103761  1
  Li  Li39  1  0.72841778  0.18878288  0.07103761  1
  Li  Li40  1  0.46036510  0.27158222  0.07103761  1
  Li  Li41  1  0.66666667  0.33333333  0.56815095  1
  Li  Li42  1  0.66666667  0.33333333  0.43184905  1
  Li  Li43  1  0.29670810  0.82192917  0.09251468  1
  Li  Li44  1  0.17807083  0.47477894  0.09251468  1
  Li  Li45  1  0.52522106  0.70329190  0.09251468  1
  Li  Li46  1  0.17807083  0.70329190  0.90748532  1
  Li  Li47  1  0.52522106  0.82192917  0.90748532  1
  Li  Li48  1  0.29670810  0.47477894  0.90748532  1
  Li  Li49  1  0.93601300  0.06398700  -0.00000000  1
  Li  Li50  1  0.93601300  0.87202600  0.00000000  1
  Li  Li51  1  0.12797400  0.06398700  -0.00000000  1
