# generated using pymatgen
data_LiF
_symmetry_space_group_name_H-M   'P 1'
_cell_length_a   6.65945389
_cell_length_b   16.78873152
_cell_length_c   11.20816722
_cell_angle_alpha   90.00000000
_cell_angle_beta   90.00000000
_cell_angle_gamma   90.00000000
_symmetry_Int_Tables_number   1
_chemical_formula_structural   LiF
_chemical_formula_sum   'Li50 F50'
_cell_volume   1253.11550076
_cell_formula_units_Z   50
loop_
 _symmetry_equiv_pos_site_id
 _symmetry_equiv_pos_as_xyz
  1  'x, y, z'
loop_
 _atom_site_type_symbol
 _atom_site_label
 _atom_site_symmetry_multiplicity
 _atom_site_fract_x
 _atom_site_fract_y
 _atom_site_fract_z
 _atom_site_occupancy
  F  F0  1  0.39303475  0.54982524  0.35346353  1
  F  F1  1  0.60696525  0.45017476  0.35346353  1
  F  F2  1  0.10696525  0.04982524  0.64653647  1
  F  F3  1  0.89303475  0.95017476  0.64653647  1
  F  F4  1  0.60696525  0.45017476  0.64653647  1
  F  F5  1  0.39303475  0.54982524  0.64653647  1
  F  F6  1  0.89303475  0.95017476  0.35346353  1
  F  F7  1  0.10696525  0.04982524  0.35346353  1
  F  F8  1  0.01153104  0.43608313  0.09931041  1
  F  F9  1  0.98846896  0.56391687  0.09931041  1
  F  F10  1  0.48846896  0.93608313  0.90068959  1
  F  F11  1  0.51153104  0.06391687  0.90068959  1
  F  F12  1  0.98846896  0.56391687  0.90068959  1
  F  F13  1  0.01153104  0.43608313  0.90068959  1
  F  F14  1  0.51153104  0.06391687  0.09931041  1
  F  F15  1  0.48846896  0.93608313  0.09931041  1
  F  F16  1  0.35399415  0.64153680  0.03081052  1
  F  F17  1  0.64600585  0.35846320  0.03081052  1
  F  F18  1  0.14600585  0.14153680  0.96918948  1
  F  F19  1  0.85399415  0.85846320  0.96918948  1
  F  F20  1  0.64600585  0.35846320  0.96918948  1
  F  F21  1  0.35399415  0.64153680  0.96918948  1
  F  F22  1  0.85399415  0.85846320  0.03081052  1
  F  F23  1  0.14600585  0.14153680  0.03081052  1
  F  F24  1  0.17303977  0.55021195  0.50000000  1
  F  F25  1  0.82696023  0.44978805  0.50000000  1
  F  F26  1  0.32696023  0.05021195  0.50000000  1
  F  F27  1  0.67303977  0.94978805  0.50000000  1
  F  F28  1  0.29387328  0.21839004  -0.00000000  1
  F  F29  1  0.70612672  0.78160996  0.00000000  1
  F  F30  1  0.20612672  0.71839004  -0.00000000  1
  F  F31  1  0.79387328  0.28160996  -0.00000000  1
  F  F32  1  0.15111668  0.90809868  0.37783591  1
  F  F33  1  0.84888332  0.09190132  0.37783591  1
  F  F34  1  0.34888332  0.40809868  0.62216409  1
  F  F35  1  0.65111668  0.59190132  0.62216409  1
  F  F36  1  0.84888332  0.09190132  0.62216409  1
  F  F37  1  0.15111668  0.90809868  0.62216409  1
  F  F38  1  0.65111668  0.59190132  0.37783591  1
  F  F39  1  0.34888332  0.40809868  0.37783591  1
  F  F40  1  0.00971800  0.27931676  0.38495287  1
  F  F41  1  0.99028200  0.72068324  0.38495287  1
  F  F42  1  0.49028200  0.77931676  0.61504713  1
  F  F43  1  0.50971800  0.22068324  0.61504713  1
  F  F44  1  0.99028200  0.72068324  0.61504713  1
  F  F45  1  0.00971800  0.27931676  0.61504713  1
  F  F46  1  0.50971800  0.22068324  0.38495287  1
  F  F47  1  0.49028200  0.77931676  0.38495287  1
  F  F48  1  0.00000000  0.50000000  0.50000000  1
  F  F49  1  0.50000000  -0.00000000  0.50000000  1
  Li  Li50  1  0.08982454  0.51563855  0.62094534  1
  Li  Li51  1  -0.08982454  -0.51563855  0.62094534  1
  Li  Li52  1  0.41017546  1.01563855  -0.62094534  1
  Li  Li53  1  0.58982454  -0.01563855  -0.62094534  1
  Li  Li54  1  -0.08982454  -0.51563855  -0.62094534  1
  Li  Li55  1  0.08982454  0.51563855  -0.62094534  1
  Li  Li56  1  0.58982454  -0.01563855  0.62094534  1
  Li  Li57  1  0.41017546  1.01563855  0.62094534  1
  Li  Li58  1  0.00000000  0.00000000  0.00000000  1
  Li  Li59  1  0.50000000  0.50000000  -0.00000000  1
  Li  Li60  1  0.84777035  0.20584563  0.07609264  1
  Li  Li61  1  0.15222965  0.79415437  0.07609264  1
  Li  Li62  1  0.65222965  0.70584563  0.92390736  1
  Li  Li63  1  0.34777035  0.29415437  0.92390736  1
  Li  Li64  1  0.15222965  0.79415437  0.92390736  1
  Li  Li65  1  0.84777035  0.20584563  0.92390736  1
  Li  Li66  1  0.34777035  0.29415437  0.07609264  1
  Li  Li67  1  0.65222965  0.70584563  0.07609264  1
  Li  Li68  1  0.00000000  0.50000000  0.87108728  1
  Li  Li69  1  0.50000000  -0.00000000  0.12891272  1
  Li  Li70  1  0.00000000  0.50000000  0.12891272  1
  Li  Li71  1  0.50000000  -0.00000000  0.87108728  1
  Li  Li72  1  0.06410218  0.39149707  0.00000000  1
  Li  Li73  1  0.93589782  0.60850293  -0.00000000  1
  Li  Li74  1  0.43589782  0.89149707  -0.00000000  1
  Li  Li75  1  0.56410218  0.10850293  -0.00000000  1
  Li  Li76  1  0.76626766  0.42622994  0.11555338  1
  Li  Li77  1  0.23373234  0.57377006  0.11555338  1
  Li  Li78  1  0.73373234  0.92622994  0.88444662  1
  Li  Li79  1  0.26626766  0.07377006  0.88444662  1
  Li  Li80  1  0.23373234  0.57377006  0.88444662  1
  Li  Li81  1  0.76626766  0.42622994  0.88444662  1
  Li  Li82  1  0.26626766  0.07377006  0.11555338  1
  Li  Li83  1  0.73373234  0.92622994  0.11555338  1
  Li  Li84  1  0.36685163  0.34006179  0.70190384  1
  Li  Li85  1  0.63314837  0.65993821  0.70190384  1
  Li  Li86  1  0.13314837  0.84006179  0.29809616  1
  Li  Li87  1  0.86685163  0.15993821  0.29809616  1
  Li  Li88  1  0.63314837  0.65993821  0.29809616  1
  Li  Li89  1  0.36685163  0.34006179  0.29809616  1
  Li  Li90  1  0.86685163  0.15993821  0.70190384  1
  Li  Li91  1  0.13314837  0.84006179  0.70190384  1
  Li  Li92  1  0.11963130  0.36944808  0.14875763  1
  Li  Li93  1  0.88036870  0.63055192  0.14875763  1
  Li  Li94  1  0.38036870  0.86944808  0.85124237  1
  Li  Li95  1  0.61963130  0.13055192  0.85124237  1
  Li  Li96  1  0.88036870  0.63055192  0.85124237  1
  Li  Li97  1  0.11963130  0.36944808  0.85124237  1
  Li  Li98  1  0.61963130  0.13055192  0.14875763  1
  Li  Li99  1  0.38036870  0.86944808  0.14875763  1
