# generated using pymatgen
data_Li2Si4Te3F12
_symmetry_space_group_name_H-M   'P 1'
_cell_length_a   13.23102553
_cell_length_b   10.36365794
_cell_length_c   6.01265744
_cell_angle_alpha   90.00000000
_cell_angle_beta   90.00000000
_cell_angle_gamma   90.00000000
_symmetry_Int_Tables_number   1
_chemical_formula_structural   Li2Si4Te3F12
_chemical_formula_sum   'Li8 Si16 Te12 F48'
_cell_volume   824.46654773
_cell_formula_units_Z   4
loop_
 _symmetry_equiv_pos_site_id
 _symmetry_equiv_pos_as_xyz
  1  'x, y, z'
loop_
 _atom_site_type_symbol
 _atom_site_label
 _atom_site_symmetry_multiplicity
 _atom_site_fract_x
 _atom_site_fract_y
 _atom_site_fract_z
 _atom_site_occupancy
  F  F0  1  0.44936478  0.38709714  0.91759785  1
  F  F1  1  0.55063522  0.61290286  0.91759785  1
  F  F2  1  0.05063522  0.88709714  0.08240215  1
  F  F3  1  0.94936478  0.11290286  0.08240215  1
  F  F4  1  0.55063522  0.61290286  0.08240215  1
  F  F5  1  0.44936478  0.38709714  0.08240215  1
  F  F6  1  0.94936478  0.11290286  0.91759785  1
  F  F7  1  0.05063522  0.88709714  0.91759785  1
  F  F8  1  0.00000000  0.50000000  0.50000000  1
  F  F9  1  0.50000000  0.00000000  0.50000000  1
  F  F10  1  0.97349667  0.87741233  0.17356683  1
  F  F11  1  0.02650333  0.12258767  0.17356683  1
  F  F12  1  0.52650333  0.37741233  0.82643317  1
  F  F13  1  0.47349667  0.62258767  0.82643317  1
  F  F14  1  0.02650333  0.12258767  0.82643317  1
  F  F15  1  0.97349667  0.87741233  0.82643317  1
  F  F16  1  0.47349667  0.62258767  0.17356683  1
  F  F17  1  0.52650333  0.37741233  0.17356683  1
  F  F18  1  0.13863866  0.64849356  0.00000000  1
  F  F19  1  0.86136134  0.35150644  0.00000000  1
  F  F20  1  0.36136134  0.14849356  0.00000000  1
  F  F21  1  0.63863866  0.85150644  0.00000000  1
  F  F22  1  0.46819184  0.68082005  0.06855143  1
  F  F23  1  0.53180816  0.31917995  0.06855143  1
  F  F24  1  0.03180816  0.18082005  0.93144857  1
  F  F25  1  0.96819184  0.81917995  0.93144857  1
  F  F26  1  0.53180816  0.31917995  0.93144857  1
  F  F27  1  0.46819184  0.68082005  0.93144857  1
  F  F28  1  0.96819184  0.81917995  0.06855143  1
  F  F29  1  0.03180816  0.18082005  0.06855143  1
  F  F30  1  0.57229800  0.51143717  0.72531224  1
  F  F31  1  0.42770200  0.48856283  0.72531224  1
  F  F32  1  0.92770200  0.01143717  0.27468776  1
  F  F33  1  0.07229800  0.98856283  0.27468776  1
  F  F34  1  0.42770200  0.48856283  0.27468776  1
  F  F35  1  0.57229800  0.51143717  0.27468776  1
  F  F36  1  0.07229800  0.98856283  0.72531224  1
  F  F37  1  0.92770200  0.01143717  0.72531224  1
  F  F38  1  0.32104156  0.49232131  0.50000000  1
  F  F39  1  0.67895844  0.50767869  0.50000000  1
  F  F40  1  0.17895844  0.99232131  0.50000000  1
  F  F41  1  0.82104156  0.00767869  0.50000000  1
  F  F42  1  0.00000000  0.50000000  0.31237032  1
  F  F43  1  0.50000000  0.00000000  0.68762968  1
  F  F44  1  0.00000000  0.50000000  0.68762968  1
  F  F45  1  0.50000000  0.00000000  0.31237032  1
  F  F46  1  0.00000000  0.50000000  0.00000000  1
  F  F47  1  0.50000000  0.00000000  0.00000000  1
  Li  Li48  1  0.56278650  0.88924743  0.50000000  1
  Li  Li49  1  0.43721350  0.11075257  0.50000000  1
  Li  Li50  1  0.93721350  0.38924743  0.50000000  1
  Li  Li51  1  0.06278650  0.61075257  0.50000000  1
  Li  Li52  1  0.22794518  0.10685073  0.00000000  1
  Li  Li53  1  0.77205482  0.89314927  0.00000000  1
  Li  Li54  1  0.27205482  0.60685073  0.00000000  1
  Li  Li55  1  0.72794518  0.39314927  0.00000000  1
  Si  Si56  1  0.04226759  0.96646206  0.00000000  1
  Si  Si57  1  0.95773241  0.03353794  0.00000000  1
  Si  Si58  1  0.45773241  0.46646206  -0.00000000  1
  Si  Si59  1  0.54226759  0.53353794  0.00000000  1
  Si  Si60  1  0.37670421  0.88498806  0.65726401  1
  Si  Si61  1  -0.37670421  -0.88498806  0.65726401  1
  Si  Si62  1  0.12329579  1.38498806  -0.65726401  1
  Si  Si63  1  0.87670421  -0.38498806  -0.65726401  1
  Si  Si64  1  -0.37670421  -0.88498806  -0.65726401  1
  Si  Si65  1  0.37670421  0.88498806  -0.65726401  1
  Si  Si66  1  0.87670421  -0.38498806  0.65726401  1
  Si  Si67  1  0.12329579  1.38498806  0.65726401  1
  Si  Si68  1  0.39503065  0.64606903  0.50000000  1
  Si  Si69  1  0.60496935  0.35393097  0.50000000  1
  Si  Si70  1  0.10496935  0.14606903  0.50000000  1
  Si  Si71  1  0.89503065  0.85393097  0.50000000  1
  Te  Te72  1  0.49799099  0.09439426  0.00000000  1
  Te  Te73  1  0.50200901  0.90560574  0.00000000  1
  Te  Te74  1  0.00200901  0.59439426  0.00000000  1
  Te  Te75  1  0.99799099  0.40560574  -0.00000000  1
  Te  Te76  1  0.60928658  0.99279569  0.00000000  1
  Te  Te77  1  0.39071342  0.00720431  0.00000000  1
  Te  Te78  1  0.89071342  0.49279569  0.00000000  1
  Te  Te79  1  0.10928658  0.50720431  0.00000000  1
  Te  Te80  1  0.78062080  0.91076563  0.50000000  1
  Te  Te81  1  0.21937920  0.08923437  0.50000000  1
  Te  Te82  1  0.71937920  0.41076563  0.50000000  1
  Te  Te83  1  0.28062080  0.58923437  0.50000000  1
