# generated using pymatgen
data_LiF
_symmetry_space_group_name_H-M   'P 1'
_cell_length_a   7.28560249
_cell_length_b   7.28560249
_cell_length_c   25.43992565
_cell_angle_alpha   90.00000000
_cell_angle_beta   90.00000000
_cell_angle_gamma   120.00000000
_symmetry_Int_Tables_number   1
_chemical_formula_structural   LiF
_chemical_formula_sum   'Li35 F35'
_cell_volume   1169.43856880
_cell_formula_units_Z   35
loop_
 _symmetry_equiv_pos_site_id
 _symmetry_equiv_pos_as_xyz
  1  'x, y, z'
loop_
 _atom_site_type_symbol
 _atom_site_label
 _atom_site_symmetry_multiplicity
 _atom_site_fract_x
 _atom_site_fract_y
 _atom_site_fract_z
 _atom_site_occupancy
  F  F0  1  0.02245760  0.29179114  0.12549216  1
  F  F1  1  0.70820886  0.73066646  0.12549216  1
  F  F2  1  0.26933354  0.97754240  0.12549216  1
  F  F3  1  0.70820886  0.97754240  0.87450784  1
  F  F4  1  0.26933354  0.29179114  0.87450784  1
  F  F5  1  0.02245760  0.73066646  0.87450784  1
  F  F6  1  0.82896131  0.75281044  0.90509679  1
  F  F7  1  0.24718956  0.07615087  0.90509679  1
  F  F8  1  0.92384913  0.17103869  0.90509679  1
  F  F9  1  0.24718956  0.17103869  0.09490321  1
  F  F10  1  0.92384913  0.75281044  0.09490321  1
  F  F11  1  0.82896131  0.07615087  0.09490321  1
  F  F12  1  0.25540387  0.12750405  0.31258312  1
  F  F13  1  0.87249595  0.12789982  0.31258312  1
  F  F14  1  0.87210018  0.74459613  0.31258312  1
  F  F15  1  0.87249595  0.74459613  0.68741688  1
  F  F16  1  0.87210018  0.12750405  0.68741688  1
  F  F17  1  0.25540387  0.12789982  0.68741688  1
  F  F18  1  0.81453773  0.04927857  0.12993794  1
  F  F19  1  0.95072143  0.76525916  0.12993794  1
  F  F20  1  0.23474084  0.18546227  0.12993794  1
  F  F21  1  0.95072143  0.18546227  0.87006206  1
  F  F22  1  0.23474084  0.04927857  0.87006206  1
  F  F23  1  0.81453773  0.76525916  0.87006206  1
  F  F24  1  0.66666667  0.33333333  0.19881099  1
  F  F25  1  0.66666667  0.33333333  0.80118901  1
  F  F26  1  0.44551726  0.45660938  0.85179287  1
  F  F27  1  0.54339062  0.98890788  0.85179287  1
  F  F28  1  0.01109212  0.55448274  0.85179287  1
  F  F29  1  0.54339062  0.55448274  0.14820713  1
  F  F30  1  0.01109212  0.45660938  0.14820713  1
  F  F31  1  0.44551726  0.98890788  0.14820713  1
  F  F32  1  0.23834896  0.76165104  0.50000000  1
  F  F33  1  0.23834896  0.47669792  0.50000000  1
  F  F34  1  0.52330208  0.76165104  0.50000000  1
  Li  Li35  1  0.43843245  0.18196216  0.93446118  1
  Li  Li36  1  -0.18196216  0.25647028  0.93446118  1
  Li  Li37  1  -0.25647028  -0.43843245  0.93446118  1
  Li  Li38  1  -0.18196216  -0.43843245  -0.93446118  1
  Li  Li39  1  -0.25647028  0.18196216  -0.93446118  1
  Li  Li40  1  0.43843245  0.25647028  -0.93446118  1
  Li  Li41  1  0.00000000  0.00000000  0.74979528  1
  Li  Li42  1  0.00000000  0.00000000  0.25020472  1
  Li  Li43  1  0.33333333  0.66666667  0.37791351  1
  Li  Li44  1  0.33333333  0.66666667  0.62208649  1
  Li  Li45  1  0.22552853  0.55677310  0.17882050  1
  Li  Li46  1  0.44322690  0.66875543  0.17882050  1
  Li  Li47  1  0.33124457  0.77447147  0.17882050  1
  Li  Li48  1  0.44322690  0.77447147  0.82117950  1
  Li  Li49  1  0.33124457  0.55677310  0.82117950  1
  Li  Li50  1  0.22552853  0.66875543  0.82117950  1
  Li  Li51  1  0.06624420  0.36567310  0.82977208  1
  Li  Li52  1  0.63432690  0.70057110  0.82977208  1
  Li  Li53  1  0.29942890  0.93375580  0.82977208  1
  Li  Li54  1  0.63432690  0.93375580  0.17022792  1
  Li  Li55  1  0.29942890  0.36567310  0.17022792  1
  Li  Li56  1  0.06624420  0.70057110  0.17022792  1
  Li  Li57  1  0.94755856  0.15572200  0.74514833  1
  Li  Li58  1  0.84427800  0.79183656  0.74514833  1
  Li  Li59  1  0.20816344  0.05244144  0.74514833  1
  Li  Li60  1  0.84427800  0.05244144  0.25485167  1
  Li  Li61  1  0.20816344  0.15572200  0.25485167  1
  Li  Li62  1  0.94755856  0.79183656  0.25485167  1
  Li  Li63  1  0.50202313  0.86662349  0.45761367  1
  Li  Li64  1  0.13337651  0.63539963  0.45761367  1
  Li  Li65  1  0.36460037  0.49797687  0.45761367  1
  Li  Li66  1  0.13337651  0.49797687  0.54238633  1
  Li  Li67  1  0.36460037  0.86662349  0.54238633  1
  Li  Li68  1  0.50202313  0.63539963  0.54238633  1
  Li  Li69  1  0.66666667  0.33333333  0.50000000  1
