# generated using pymatgen
data_LiF
_symmetry_space_group_name_H-M   'P 1'
_cell_length_a   9.15333491
_cell_length_b   9.15333491
_cell_length_c   9.76622928
_cell_angle_alpha   90.00000000
_cell_angle_beta   90.00000000
_cell_angle_gamma   120.00000000
_symmetry_Int_Tables_number   1
_chemical_formula_structural   LiF
_chemical_formula_sum   'Li34 F34'
_cell_volume   708.62464716
_cell_formula_units_Z   34
loop_
 _symmetry_equiv_pos_site_id
 _symmetry_equiv_pos_as_xyz
  1  'x, y, z'
loop_
 _atom_site_type_symbol
 _atom_site_label
 _atom_site_symmetry_multiplicity
 _atom_site_fract_x
 _atom_site_fract_y
 _atom_site_fract_z
 _atom_site_occupancy
  F  F0  1  0.87506372  0.87499122  0.11676944  1
  F  F1  1  0.12500878  0.00007250  0.11676944  1
  F  F2  1  0.99992750  0.12493628  0.11676944  1
  F  F3  1  0.12500878  0.12493628  0.88323056  1
  F  F4  1  0.99992750  0.87499122  0.88323056  1
  F  F5  1  0.87506372  0.00007250  0.88323056  1
  F  F6  1  0.62487078  0.75646994  0.19763204  1
  F  F7  1  0.24353006  0.86840084  0.19763204  1
  F  F8  1  0.13159916  0.37512922  0.19763204  1
  F  F9  1  0.24353006  0.37512922  0.80236796  1
  F  F10  1  0.13159916  0.75646994  0.80236796  1
  F  F11  1  0.62487078  0.86840084  0.80236796  1
  F  F12  1  0.36941366  0.44298235  0.96131504  1
  F  F13  1  0.55701765  0.92643131  0.96131504  1
  F  F14  1  0.07356869  0.63058634  0.96131504  1
  F  F15  1  0.55701765  0.63058634  0.03868496  1
  F  F16  1  0.07356869  0.44298235  0.03868496  1
  F  F17  1  0.36941366  0.92643131  0.03868496  1
  F  F18  1  0.81845600  0.34555106  0.92758464  1
  F  F19  1  0.65444894  0.47290494  0.92758464  1
  F  F20  1  0.52709506  0.18154400  0.92758464  1
  F  F21  1  0.65444894  0.18154400  0.07241536  1
  F  F22  1  0.52709506  0.34555106  0.07241536  1
  F  F23  1  0.81845600  0.47290494  0.07241536  1
  F  F24  1  0.66666667  0.33333333  0.00000000  1
  F  F25  1  0.73727726  0.26272274  0.50000000  1
  F  F26  1  0.73727726  0.47455451  0.50000000  1
  F  F27  1  0.52544549  0.26272274  0.50000000  1
  F  F28  1  0.87827077  0.85688873  0.72227794  1
  F  F29  1  0.14311127  0.02138204  0.72227794  1
  F  F30  1  0.97861796  0.12172923  0.72227794  1
  F  F31  1  0.14311127  0.12172923  0.27772206  1
  F  F32  1  0.97861796  0.85688873  0.27772206  1
  F  F33  1  0.87827077  0.02138204  0.27772206  1
  Li  Li34  1  0.43183901  0.57532878  0.60544001  1
  Li  Li35  1  -0.57532878  -0.14348976  0.60544001  1
  Li  Li36  1  0.14348976  -0.43183901  0.60544001  1
  Li  Li37  1  -0.57532878  -0.43183901  -0.60544001  1
  Li  Li38  1  0.14348976  0.57532878  -0.60544001  1
  Li  Li39  1  0.43183901  -0.14348976  -0.60544001  1
  Li  Li40  1  0.62417336  0.61589753  0.63138937  1
  Li  Li41  1  0.38410247  0.00827583  0.63138937  1
  Li  Li42  1  0.99172417  0.37582664  0.63138937  1
  Li  Li43  1  0.38410247  0.37582664  0.36861063  1
  Li  Li44  1  0.99172417  0.61589753  0.36861063  1
  Li  Li45  1  0.62417336  0.00827583  0.36861063  1
  Li  Li46  1  0.60004559  0.74286450  0.59375925  1
  Li  Li47  1  0.25713550  0.85718109  0.59375925  1
  Li  Li48  1  0.14281891  0.39995441  0.59375925  1
  Li  Li49  1  0.25713550  0.39995441  0.40624075  1
  Li  Li50  1  0.14281891  0.74286450  0.40624075  1
  Li  Li51  1  0.60004559  0.85718109  0.40624075  1
  Li  Li52  1  0.73381334  0.61682518  0.87652207  1
  Li  Li53  1  0.38317482  0.11698816  0.87652207  1
  Li  Li54  1  0.88301184  0.26618666  0.87652207  1
  Li  Li55  1  0.38317482  0.26618666  0.12347793  1
  Li  Li56  1  0.88301184  0.61682518  0.12347793  1
  Li  Li57  1  0.73381334  0.11698816  0.12347793  1
  Li  Li58  1  0.66666667  0.33333333  0.68404377  1
  Li  Li59  1  0.66666667  0.33333333  0.31595623  1
  Li  Li60  1  0.08057678  0.95185230  0.56660535  1
  Li  Li61  1  0.04814770  0.12872448  0.56660535  1
  Li  Li62  1  0.87127552  0.91942322  0.56660535  1
  Li  Li63  1  0.04814770  0.91942322  0.43339465  1
  Li  Li64  1  0.87127552  0.95185230  0.43339465  1
  Li  Li65  1  0.08057678  0.12872448  0.43339465  1
  Li  Li66  1  0.33333333  0.66666667  0.61766995  1
  Li  Li67  1  0.33333333  0.66666667  0.38233005  1
