# generated using pymatgen
data_LiF
_symmetry_space_group_name_H-M   'P 1'
_cell_length_a   9.34292961
_cell_length_b   9.34292961
_cell_length_c   8.85552722
_cell_angle_alpha   90.00000000
_cell_angle_beta   90.00000000
_cell_angle_gamma   120.00000000
_symmetry_Int_Tables_number   1
_chemical_formula_structural   LiF
_chemical_formula_sum   'Li30 F30'
_cell_volume   669.43930517
_cell_formula_units_Z   30
loop_
 _symmetry_equiv_pos_site_id
 _symmetry_equiv_pos_as_xyz
  1  'x, y, z'
loop_
 _atom_site_type_symbol
 _atom_site_label
 _atom_site_symmetry_multiplicity
 _atom_site_fract_x
 _atom_site_fract_y
 _atom_site_fract_z
 _atom_site_occupancy
  F  F0  1  0.14985046  0.43509639  0.55934568  1
  F  F1  1  0.56490361  0.71475407  0.55934568  1
  F  F2  1  0.28524593  0.85014954  0.55934568  1
  F  F3  1  0.56490361  0.85014954  0.44065432  1
  F  F4  1  0.28524593  0.43509639  0.44065432  1
  F  F5  1  0.14985046  0.71475407  0.44065432  1
  F  F6  1  0.62569732  0.03666694  0.10915399  1
  F  F7  1  0.96333306  0.58903039  0.10915399  1
  F  F8  1  0.41096961  0.37430268  0.10915399  1
  F  F9  1  0.96333306  0.37430268  0.89084601  1
  F  F10  1  0.41096961  0.03666694  0.89084601  1
  F  F11  1  0.62569732  0.58903039  0.89084601  1
  F  F12  1  0.74972783  0.70983938  0.60969307  1
  F  F13  1  0.29016062  0.03988845  0.60969307  1
  F  F14  1  0.96011155  0.25027217  0.60969307  1
  F  F15  1  0.29016062  0.25027217  0.39030693  1
  F  F16  1  0.96011155  0.70983938  0.39030693  1
  F  F17  1  0.74972783  0.03988845  0.39030693  1
  F  F18  1  0.26968311  0.32317344  0.06423436  1
  F  F19  1  0.67682656  0.94650967  0.06423436  1
  F  F20  1  0.05349033  0.73031689  0.06423436  1
  F  F21  1  0.67682656  0.73031689  0.93576564  1
  F  F22  1  0.05349033  0.32317344  0.93576564  1
  F  F23  1  0.26968311  0.94650967  0.93576564  1
  F  F24  1  0.80461503  0.95510704  0.74165367  1
  F  F25  1  0.04489296  0.84950800  0.74165367  1
  F  F26  1  0.15049200  0.19538497  0.74165367  1
  F  F27  1  0.04489296  0.19538497  0.25834633  1
  F  F28  1  0.15049200  0.95510704  0.25834633  1
  F  F29  1  0.80461503  0.84950800  0.25834633  1
  Li  Li30  1  0.42125854  0.48829612  0.56395371  1
  Li  Li31  1  -0.48829612  -0.06703758  0.56395371  1
  Li  Li32  1  0.06703758  -0.42125854  0.56395371  1
  Li  Li33  1  -0.48829612  -0.42125854  -0.56395371  1
  Li  Li34  1  0.06703758  0.48829612  -0.56395371  1
  Li  Li35  1  0.42125854  -0.06703758  -0.56395371  1
  Li  Li36  1  0.41588171  0.04043789  0.59289208  1
  Li  Li37  1  0.95956211  0.37544382  0.59289208  1
  Li  Li38  1  0.62455618  0.58411829  0.59289208  1
  Li  Li39  1  0.95956211  0.58411829  0.40710792  1
  Li  Li40  1  0.62455618  0.04043789  0.40710792  1
  Li  Li41  1  0.41588171  0.37544382  0.40710792  1
  Li  Li42  1  0.33333333  0.66666667  0.24443087  1
  Li  Li43  1  0.33333333  0.66666667  0.75556913  1
  Li  Li44  1  0.73531602  0.80133624  0.76609584  1
  Li  Li45  1  0.19866376  0.93397979  0.76609584  1
  Li  Li46  1  0.06602021  0.26468398  0.76609584  1
  Li  Li47  1  0.19866376  0.26468398  0.23390416  1
  Li  Li48  1  0.06602021  0.80133624  0.23390416  1
  Li  Li49  1  0.73531602  0.93397979  0.23390416  1
  Li  Li50  1  0.66666667  0.33333333  0.00000000  1
  Li  Li51  1  0.74582099  0.49232264  0.66583507  1
  Li  Li52  1  0.50767736  0.25349834  0.66583507  1
  Li  Li53  1  0.74650166  0.25417901  0.66583507  1
  Li  Li54  1  0.50767736  0.25417901  0.33416493  1
  Li  Li55  1  0.74650166  0.49232264  0.33416493  1
  Li  Li56  1  0.74582099  0.25349834  0.33416493  1
  Li  Li57  1  0.66666667  0.33333333  0.50000000  1
  Li  Li58  1  0.33333333  0.66666667  0.00000000  1
  Li  Li59  1  0.00000000  0.00000000  0.00000000  1
