# generated using pymatgen
data_LiF
_symmetry_space_group_name_H-M   'P 1'
_cell_length_a   6.40704977
_cell_length_b   6.40704977
_cell_length_c   6.29098651
_cell_angle_alpha   90.00000000
_cell_angle_beta   90.00000000
_cell_angle_gamma   120.00000000
_symmetry_Int_Tables_number   1
_chemical_formula_structural   LiF
_chemical_formula_sum   'Li6 F6'
_cell_volume   223.64828961
_cell_formula_units_Z   6
loop_
 _symmetry_equiv_pos_site_id
 _symmetry_equiv_pos_as_xyz
  1  'x, y, z'
loop_
 _atom_site_type_symbol
 _atom_site_label
 _atom_site_symmetry_multiplicity
 _atom_site_fract_x
 _atom_site_fract_y
 _atom_site_fract_z
 _atom_site_occupancy
  F  F0  1  0.30087488  0.69912512  0.00000000  1
  F  F1  1  0.30087488  0.60174976  0.00000000  1
  F  F2  1  0.39825024  0.69912512  0.00000000  1
  F  F3  1  0.49917180  0.50082820  0.00000000  1
  F  F4  1  0.49917180  0.99834360  0.00000000  1
  F  F5  1  0.00165640  0.50082820  0.00000000  1
  Li  Li6  1  0.66666667  0.33333333  0.79387959  1
  Li  Li7  1  0.66666667  0.33333333  0.20612041  1
  Li  Li8  1  0.00000000  0.00000000  0.00000000  1
  Li  Li9  1  0.82995185  -0.82995185  0.50000000  1
  Li  Li10  1  0.82995185  1.65990369  0.50000000  1
  Li  Li11  1  -1.65990369  -0.82995185  0.50000000  1
