# generated using pymatgen
data_LiCl
_symmetry_space_group_name_H-M   'P 1'
_cell_length_a   8.48270589
_cell_length_b   8.48270589
_cell_length_c   6.54402886
_cell_angle_alpha   90.00000000
_cell_angle_beta   90.00000000
_cell_angle_gamma   120.00000000
_symmetry_Int_Tables_number   1
_chemical_formula_structural   LiCl
_chemical_formula_sum   'Li9 Cl9'
_cell_volume   407.79759165
_cell_formula_units_Z   9
loop_
 _symmetry_equiv_pos_site_id
 _symmetry_equiv_pos_as_xyz
  1  'x, y, z'
loop_
 _atom_site_type_symbol
 _atom_site_label
 _atom_site_symmetry_multiplicity
 _atom_site_fract_x
 _atom_site_fract_y
 _atom_site_fract_z
 _atom_site_occupancy
  Cl  Cl0  1  0.56556035  0.84013985  0.95010644  1
  Cl  Cl1  1  -0.84013985  -0.27457950  0.95010644  1
  Cl  Cl2  1  0.27457950  -0.56556035  0.95010644  1
  Cl  Cl3  1  -0.84013985  -0.56556035  -0.95010644  1
  Cl  Cl4  1  0.27457950  0.84013985  -0.95010644  1
  Cl  Cl5  1  0.56556035  -0.27457950  -0.95010644  1
  Cl  Cl6  1  0.33333333  0.66666667  0.83986364  1
  Cl  Cl7  1  0.33333333  0.66666667  0.16013636  1
  Cl  Cl8  1  0.33333333  0.66666667  0.00000000  1
  Li  Li9  1  0.00000000  0.00000000  0.50000000  1
  Li  Li10  1  0.66666667  0.33333333  0.50000000  1
  Li  Li11  1  0.66666667  0.33333333  0.17935499  1
  Li  Li12  1  0.66666667  0.33333333  0.82064501  1
  Li  Li13  1  0.09785608  0.90214392  0.50000000  1
  Li  Li14  1  0.09785608  0.19571217  0.50000000  1
  Li  Li15  1  0.80428783  0.90214392  0.50000000  1
  Li  Li16  1  0.33333333  0.66666667  0.50000000  1
  Li  Li17  1  0.00000000  0.00000000  0.00000000  1
