# generated using pymatgen
data_LiF
_symmetry_space_group_name_H-M   'P 1'
_cell_length_a   8.21944621
_cell_length_b   5.78828312
_cell_length_c   7.14555537
_cell_angle_alpha   90.00000000
_cell_angle_beta   90.00000000
_cell_angle_gamma   90.00000000
_symmetry_Int_Tables_number   1
_chemical_formula_structural   LiF
_chemical_formula_sum   'Li10 F10'
_cell_volume   339.96038429
_cell_formula_units_Z   10
loop_
 _symmetry_equiv_pos_site_id
 _symmetry_equiv_pos_as_xyz
  1  'x, y, z'
loop_
 _atom_site_type_symbol
 _atom_site_label
 _atom_site_symmetry_multiplicity
 _atom_site_fract_x
 _atom_site_fract_y
 _atom_site_fract_z
 _atom_site_occupancy
  F  F0  1  0.98086112  0.31492069  0.14082423  1
  F  F1  1  -0.98086112  -0.31492069  0.14082423  1
  F  F2  1  -0.48086112  0.81492069  -0.14082423  1
  F  F3  1  1.48086112  0.18507931  -0.14082423  1
  F  F4  1  -0.98086112  -0.31492069  -0.14082423  1
  F  F5  1  0.98086112  0.31492069  -0.14082423  1
  F  F6  1  1.48086112  0.18507931  0.14082423  1
  F  F7  1  -0.48086112  0.81492069  0.14082423  1
  F  F8  1  0.00000000  0.00000000  0.50000000  1
  F  F9  1  0.50000000  0.50000000  0.50000000  1
  Li  Li10  1  0.00000000  0.00000000  0.00000000  1
  Li  Li11  1  0.50000000  0.50000000  0.00000000  1
  Li  Li12  1  0.51078131  0.81311464  0.50000000  1
  Li  Li13  1  0.48921869  0.18688536  0.50000000  1
  Li  Li14  1  0.98921869  0.31311464  0.50000000  1
  Li  Li15  1  0.01078131  0.68688536  0.50000000  1
  Li  Li16  1  0.00000000  0.00000000  0.32988838  1
  Li  Li17  1  0.50000000  0.50000000  0.67011162  1
  Li  Li18  1  0.00000000  0.00000000  0.67011162  1
  Li  Li19  1  0.50000000  0.50000000  0.32988838  1
