# generated using pymatgen
data_LiYMoAsP
_symmetry_space_group_name_H-M   'P 1'
_cell_length_a   4.66682902
_cell_length_b   4.87580528
_cell_length_c   6.69174466
_cell_angle_alpha   94.90426200
_cell_angle_beta   100.36142965
_cell_angle_gamma   107.34390693
_symmetry_Int_Tables_number   1
_chemical_formula_structural   LiYMoAsP
_chemical_formula_sum   'Li2 Y2 Mo2 As2 P2'
_cell_volume   141.39653595
_cell_formula_units_Z   2
loop_
 _symmetry_equiv_pos_site_id
 _symmetry_equiv_pos_as_xyz
  1  'x, y, z'
loop_
 _atom_site_type_symbol
 _atom_site_label
 _atom_site_symmetry_multiplicity
 _atom_site_fract_x
 _atom_site_fract_y
 _atom_site_fract_z
 _atom_site_occupancy
  P  P0  1  0.12500000  0.00000000  0.25000000  1
  P  P1  1  0.00000000  0.00000000  0.00000000  1
  Mo  Mo2  1  0.37500000  0.00000000  0.25000000  1
  Mo  Mo3  1  0.25000000  0.25000000  0.25000000  1
  As  As4  1  0.00000000  0.25000000  0.12500000  1
  As  As5  1  0.43482821  0.46556774  0.78295044  1
  Li  Li6  1  0.49420120  0.20830940  0.96789540  1
  Li  Li7  1  0.80505109  0.77674276  0.78899677  1
  Y  Y8  1  0.90747776  0.58069374  0.59099310  1
  Y  Y9  1  0.26497423  0.06059101  0.28943320  1
