# generated using pymatgen
data_Li2Mo2AsP4
_symmetry_space_group_name_H-M   'P 1'
_cell_length_a   5.49128838
_cell_length_b   5.60698408
_cell_length_c   7.07986477
_cell_angle_alpha   93.93238726
_cell_angle_beta   98.43315490
_cell_angle_gamma   102.28257243
_symmetry_Int_Tables_number   1
_chemical_formula_structural   Li2Mo2AsP4
_chemical_formula_sum   'Li2 Mo2 As1 P4'
_cell_volume   209.56769119
_cell_formula_units_Z   1
loop_
 _symmetry_equiv_pos_site_id
 _symmetry_equiv_pos_as_xyz
  1  'x, y, z'
loop_
 _atom_site_type_symbol
 _atom_site_label
 _atom_site_symmetry_multiplicity
 _atom_site_fract_x
 _atom_site_fract_y
 _atom_site_fract_z
 _atom_site_occupancy
  P  P0  1  0.00000000  0.00000000  0.00000000  1
  P  P1  1  0.50000000  0.50000000  0.50000000  1
  P  P2  1  0.25000000  0.25000000  0.25000000  1
  P  P3  1  0.75000000  0.25000000  0.00000000  1
  Mo  Mo4  1  0.25000000  0.75000000  0.50000000  1
  Mo  Mo5  1  0.38820980  0.69459565  0.17533344  1
  As  As6  1  0.64473104  0.63642342  0.58387868  1
  Li  Li7  1  0.78426722  0.71256029  0.34143024  1
  Li  Li8  1  0.91167240  0.82011132  0.56064825  1
