# generated using pymatgen
data_LiF
_symmetry_space_group_name_H-M   'P 1'
_cell_length_a   8.79020625
_cell_length_b   8.79020625
_cell_length_c   17.31194252
_cell_angle_alpha   90.00000000
_cell_angle_beta   90.00000000
_cell_angle_gamma   120.00000000
_symmetry_Int_Tables_number   1
_chemical_formula_structural   LiF
_chemical_formula_sum   'Li57 F57'
_cell_volume   1158.44271880
_cell_formula_units_Z   57
loop_
 _symmetry_equiv_pos_site_id
 _symmetry_equiv_pos_as_xyz
  1  'x, y, z'
loop_
 _atom_site_type_symbol
 _atom_site_label
 _atom_site_symmetry_multiplicity
 _atom_site_fract_x
 _atom_site_fract_y
 _atom_site_fract_z
 _atom_site_occupancy
  F  F0  1  0.00000000  0.00000000  0.43414819  1
  F  F1  1  0.00000000  0.00000000  0.56585181  1
  F  F2  1  0.00000000  0.00000000  0.00000000  1
  F  F3  1  0.66666667  0.33333333  0.94400413  1
  F  F4  1  0.66666667  0.33333333  0.05599587  1
  F  F5  1  0.20269778  0.94874500  0.87508663  1
  F  F6  1  0.05125500  0.25395278  0.87508663  1
  F  F7  1  0.74604722  0.79730222  0.87508663  1
  F  F8  1  0.05125500  0.79730222  0.12491337  1
  F  F9  1  0.74604722  0.94874500  0.12491337  1
  F  F10  1  0.20269778  0.25395278  0.12491337  1
  F  F11  1  0.58604299  0.62875565  0.36677380  1
  F  F12  1  0.37124435  0.95728734  0.36677380  1
  F  F13  1  0.04271266  0.41395701  0.36677380  1
  F  F14  1  0.37124435  0.41395701  0.63322620  1
  F  F15  1  0.04271266  0.62875565  0.63322620  1
  F  F16  1  0.58604299  0.95728734  0.63322620  1
  F  F17  1  0.11043167  0.31853296  0.84315214  1
  F  F18  1  0.68146704  0.79189871  0.84315214  1
  F  F19  1  0.20810129  0.88956833  0.84315214  1
  F  F20  1  0.68146704  0.88956833  0.15684786  1
  F  F21  1  0.20810129  0.31853296  0.15684786  1
  F  F22  1  0.11043167  0.79189871  0.15684786  1
  F  F23  1  0.90499991  0.14455141  0.36175572  1
  F  F24  1  0.85544859  0.76044849  0.36175572  1
  F  F25  1  0.23955151  0.09500009  0.36175572  1
  F  F26  1  0.85544859  0.09500009  0.63824428  1
  F  F27  1  0.23955151  0.14455141  0.63824428  1
  F  F28  1  0.90499991  0.76044849  0.63824428  1
  F  F29  1  0.63784838  0.58296302  0.03507400  1
  F  F30  1  0.41703698  0.05488536  0.03507400  1
  F  F31  1  0.94511464  0.36215162  0.03507400  1
  F  F32  1  0.41703698  0.36215162  0.96492600  1
  F  F33  1  0.94511464  0.58296302  0.96492600  1
  F  F34  1  0.63784838  0.05488536  0.96492600  1
  F  F35  1  0.90237014  0.50935742  0.44804920  1
  F  F36  1  0.49064258  0.39301271  0.44804920  1
  F  F37  1  0.60698729  0.09762986  0.44804920  1
  F  F38  1  0.49064258  0.09762986  0.55195080  1
  F  F39  1  0.60698729  0.50935742  0.55195080  1
  F  F40  1  0.90237014  0.39301271  0.55195080  1
  F  F41  1  0.19851485  0.51437576  0.03208780  1
  F  F42  1  0.48562424  0.68413909  0.03208780  1
  F  F43  1  0.31586091  0.80148515  0.03208780  1
  F  F44  1  0.48562424  0.80148515  0.96791220  1
  F  F45  1  0.31586091  0.51437576  0.96791220  1
  F  F46  1  0.19851485  0.68413909  0.96791220  1
  F  F47  1  0.89760528  0.01137994  0.42976107  1
  F  F48  1  0.98862006  0.88622534  0.42976107  1
  F  F49  1  0.11377466  0.10239472  0.42976107  1
  F  F50  1  0.98862006  0.10239472  0.57023893  1
  F  F51  1  0.11377466  0.01137994  0.57023893  1
  F  F52  1  0.89760528  0.88622534  0.57023893  1
  F  F53  1  0.43105671  0.56894329  0.50000000  1
  F  F54  1  0.43105671  0.86211342  0.50000000  1
  F  F55  1  0.13788658  0.56894329  0.50000000  1
  F  F56  1  0.00000000  0.00000000  0.50000000  1
  Li  Li57  1  0.00000000  0.00000000  0.73527269  1
  Li  Li58  1  0.00000000  0.00000000  0.26472731  1
  Li  Li59  1  0.17896004  0.32017530  0.07421757  1
  Li  Li60  1  -0.32017530  -0.14121526  0.07421757  1
  Li  Li61  1  0.14121526  -0.17896004  0.07421757  1
  Li  Li62  1  -0.32017530  -0.17896004  -0.07421757  1
  Li  Li63  1  0.14121526  0.32017530  -0.07421757  1
  Li  Li64  1  0.17896004  -0.14121526  -0.07421757  1
  Li  Li65  1  0.66666667  0.33333333  0.00000000  1
  Li  Li66  1  0.48529483  0.28756749  0.39182015  1
  Li  Li67  1  0.71243251  0.19772734  0.39182015  1
  Li  Li68  1  0.80227266  0.51470517  0.39182015  1
  Li  Li69  1  0.71243251  0.51470517  0.60817985  1
  Li  Li70  1  0.80227266  0.28756749  0.60817985  1
  Li  Li71  1  0.48529483  0.19772734  0.60817985  1
  Li  Li72  1  0.42473587  0.13097254  0.10314482  1
  Li  Li73  1  0.86902746  0.29376334  0.10314482  1
  Li  Li74  1  0.70623666  0.57526413  0.10314482  1
  Li  Li75  1  0.86902746  0.57526413  0.89685518  1
  Li  Li76  1  0.70623666  0.13097254  0.89685518  1
  Li  Li77  1  0.42473587  0.29376334  0.89685518  1
  Li  Li78  1  0.42238289  0.93818144  0.18673323  1
  Li  Li79  1  0.06181856  0.48420145  0.18673323  1
  Li  Li80  1  0.51579855  0.57761711  0.18673323  1
  Li  Li81  1  0.06181856  0.57761711  0.81326677  1
  Li  Li82  1  0.51579855  0.93818144  0.81326677  1
  Li  Li83  1  0.42238289  0.48420145  0.81326677  1
  Li  Li84  1  0.11243781  0.38341500  0.46137447  1
  Li  Li85  1  0.61658500  0.72902281  0.46137447  1
  Li  Li86  1  0.27097719  0.88756219  0.46137447  1
  Li  Li87  1  0.61658500  0.88756219  0.53862553  1
  Li  Li88  1  0.27097719  0.38341500  0.53862553  1
  Li  Li89  1  0.11243781  0.72902281  0.53862553  1
  Li  Li90  1  0.66666667  0.33333333  0.50000000  1
  Li  Li91  1  0.00000000  0.00000000  0.87535625  1
  Li  Li92  1  0.00000000  0.00000000  0.12464375  1
  Li  Li93  1  0.24856038  0.90108012  0.34136812  1
  Li  Li94  1  0.09891988  0.34748027  0.34136812  1
  Li  Li95  1  0.65251973  0.75143962  0.34136812  1
  Li  Li96  1  0.09891988  0.75143962  0.65863188  1
  Li  Li97  1  0.65251973  0.90108012  0.65863188  1
  Li  Li98  1  0.24856038  0.34748027  0.65863188  1
  Li  Li99  1  0.51526431  0.48473569  0.00000000  1
  Li  Li100  1  0.51526431  0.03052862  0.00000000  1
  Li  Li101  1  0.96947138  0.48473569  0.00000000  1
  Li  Li102  1  0.85698924  0.24068494  0.29180080  1
  Li  Li103  1  0.75931506  0.61630431  0.29180080  1
  Li  Li104  1  0.38369569  0.14301076  0.29180080  1
  Li  Li105  1  0.75931506  0.14301076  0.70819920  1
  Li  Li106  1  0.38369569  0.24068494  0.70819920  1
  Li  Li107  1  0.85698924  0.61630431  0.70819920  1
  Li  Li108  1  0.33333333  0.66666667  0.28709939  1
  Li  Li109  1  0.33333333  0.66666667  0.71290061  1
  Li  Li110  1  0.81365813  0.18634187  0.50000000  1
  Li  Li111  1  0.81365813  0.62731626  0.50000000  1
  Li  Li112  1  0.37268374  0.18634187  0.50000000  1
  Li  Li113  1  0.33333333  0.66666667  0.00000000  1
