# generated using pymatgen
data_LiF
_symmetry_space_group_name_H-M   'P 1'
_cell_length_a   11.46936197
_cell_length_b   11.46936197
_cell_length_c   8.99485481
_cell_angle_alpha   90.00000000
_cell_angle_beta   90.00000000
_cell_angle_gamma   120.00000000
_symmetry_Int_Tables_number   1
_chemical_formula_structural   LiF
_chemical_formula_sum   'Li36 F36'
_cell_volume   1024.71550566
_cell_formula_units_Z   36
loop_
 _symmetry_equiv_pos_site_id
 _symmetry_equiv_pos_as_xyz
  1  'x, y, z'
loop_
 _atom_site_type_symbol
 _atom_site_label
 _atom_site_symmetry_multiplicity
 _atom_site_fract_x
 _atom_site_fract_y
 _atom_site_fract_z
 _atom_site_occupancy
  F  F0  1  0.00000000  0.00000000  0.09625285  1
  F  F1  1  0.00000000  0.00000000  0.40374715  1
  F  F2  1  0.00000000  0.00000000  0.90374715  1
  F  F3  1  0.00000000  0.00000000  0.59625285  1
  F  F4  1  0.66666667  0.33333333  0.42958618  1
  F  F5  1  0.66666667  0.33333333  0.73708048  1
  F  F6  1  0.66666667  0.33333333  0.23708048  1
  F  F7  1  0.66666667  0.33333333  0.92958618  1
  F  F8  1  0.33333333  0.66666667  0.76291952  1
  F  F9  1  0.33333333  0.66666667  0.07041382  1
  F  F10  1  0.33333333  0.66666667  0.57041382  1
  F  F11  1  0.33333333  0.66666667  0.26291952  1
  F  F12  1  0.84010827  0.00000000  0.25000000  1
  F  F13  1  0.00000000  0.84010827  0.25000000  1
  F  F14  1  0.15989173  0.15989173  0.25000000  1
  F  F15  1  0.15989173  0.00000000  0.75000000  1
  F  F16  1  0.00000000  0.15989173  0.75000000  1
  F  F17  1  0.84010827  0.84010827  0.75000000  1
  F  F18  1  0.50677494  0.33333333  0.58333333  1
  F  F19  1  0.66666667  0.17344160  0.58333333  1
  F  F20  1  0.82655840  0.49322506  0.58333333  1
  F  F21  1  0.82655840  0.33333333  0.08333333  1
  F  F22  1  0.66666667  0.49322506  0.08333333  1
  F  F23  1  0.50677494  0.17344160  0.08333333  1
  F  F24  1  0.17344160  0.66666667  0.91666667  1
  F  F25  1  0.33333333  0.50677494  0.91666667  1
  F  F26  1  0.49322506  0.82655840  0.91666667  1
  F  F27  1  0.49322506  0.66666667  0.41666667  1
  F  F28  1  0.33333333  0.82655840  0.41666667  1
  F  F29  1  0.17344160  0.50677494  0.41666667  1
  F  F30  1  0.00000000  0.00000000  0.25000000  1
  F  F31  1  0.00000000  0.00000000  0.75000000  1
  F  F32  1  0.66666667  0.33333333  0.58333333  1
  F  F33  1  0.66666667  0.33333333  0.08333333  1
  F  F34  1  0.33333333  0.66666667  0.91666667  1
  F  F35  1  0.33333333  0.66666667  0.41666667  1
  Li  Li36  1  0.06620992  0.82948538  0.50419271  1
  Li  Li37  1  -0.82948538  -0.76327547  0.50419271  1
  Li  Li38  1  0.76327547  -0.06620992  0.50419271  1
  Li  Li39  1  0.82948538  0.06620992  -0.00419271  1
  Li  Li40  1  -0.76327547  -0.82948538  -0.00419271  1
  Li  Li41  1  -0.06620992  0.76327547  -0.00419271  1
  Li  Li42  1  -0.06620992  -0.82948538  -0.50419271  1
  Li  Li43  1  0.82948538  0.76327547  -0.50419271  1
  Li  Li44  1  -0.76327547  0.06620992  -0.50419271  1
  Li  Li45  1  -0.82948538  -0.06620992  1.00419271  1
  Li  Li46  1  0.76327547  0.82948538  1.00419271  1
  Li  Li47  1  0.06620992  -0.76327547  1.00419271  1
  Li  Li48  1  0.73287658  1.16281872  0.83752605  1
  Li  Li49  1  -0.16281872  -0.42994213  0.83752605  1
  Li  Li50  1  1.42994213  0.26712342  0.83752605  1
  Li  Li51  1  1.49615205  0.39954325  0.32914062  1
  Li  Li52  1  -0.09660880  -0.49615205  0.32914062  1
  Li  Li53  1  0.60045675  1.09660880  0.32914062  1
  Li  Li54  1  0.60045675  -0.49615205  -0.17085938  1
  Li  Li55  1  1.49615205  1.09660880  -0.17085938  1
  Li  Li56  1  -0.09660880  0.39954325  -0.17085938  1
  Li  Li57  1  -0.16281872  0.26712342  1.33752605  1
  Li  Li58  1  1.42994213  1.16281872  1.33752605  1
  Li  Li59  1  0.73287658  -0.42994213  1.33752605  1
  Li  Li60  1  0.39954325  1.49615205  1.17085938  1
  Li  Li61  1  -0.49615205  -0.09660880  1.17085938  1
  Li  Li62  1  1.09660880  0.60045675  1.17085938  1
  Li  Li63  1  1.16281872  0.73287658  0.66247395  1
  Li  Li64  1  -0.42994213  -0.16281872  0.66247395  1
  Li  Li65  1  0.26712342  1.42994213  0.66247395  1
  Li  Li66  1  0.26712342  -0.16281872  0.16247395  1
  Li  Li67  1  1.16281872  1.42994213  0.16247395  1
  Li  Li68  1  -0.42994213  0.73287658  0.16247395  1
  Li  Li69  1  -0.49615205  0.60045675  1.67085938  1
  Li  Li70  1  1.09660880  1.49615205  1.67085938  1
  Li  Li71  1  0.39954325  -0.09660880  1.67085938  1
