# generated using pymatgen
data_Na3LiO2
_symmetry_space_group_name_H-M   'P 1'
_cell_length_a   7.44364166
_cell_length_b   9.35192055
_cell_length_c   8.37253631
_cell_angle_alpha   90.00000000
_cell_angle_beta   90.00000000
_cell_angle_gamma   90.00000000
_symmetry_Int_Tables_number   1
_chemical_formula_structural   Na3LiO2
_chemical_formula_sum   'Na12 Li4 O8'
_cell_volume   582.83188939
_cell_formula_units_Z   4
loop_
 _symmetry_equiv_pos_site_id
 _symmetry_equiv_pos_as_xyz
  1  'x, y, z'
loop_
 _atom_site_type_symbol
 _atom_site_label
 _atom_site_symmetry_multiplicity
 _atom_site_fract_x
 _atom_site_fract_y
 _atom_site_fract_z
 _atom_site_occupancy
  Li  Li0  1  0.00000000  0.00000000  0.00000000  1
  Li  Li1  1  0.50000000  0.00000000  0.50000000  1
  Li  Li2  1  0.00000000  0.50000000  0.00000000  1
  Li  Li3  1  0.50000000  0.50000000  0.50000000  1
  Na  Na4  1  0.00000000  0.00000000  0.50000000  1
  Na  Na5  1  0.50000000  0.00000000  -0.00000000  1
  Na  Na6  1  0.00000000  0.50000000  0.50000000  1
  Na  Na7  1  0.50000000  0.50000000  0.00000000  1
  Na  Na8  1  0.10177014  0.25000000  0.11576823  1
  Na  Na9  1  0.39822986  0.75000000  0.61576823  1
  Na  Na10  1  0.89822986  0.75000000  0.88423177  1
  Na  Na11  1  0.60177014  0.25000000  0.38423177  1
  Na  Na12  1  0.31747149  0.25000000  0.76780271  1
  Na  Na13  1  0.18252851  0.75000000  0.26780271  1
  Na  Na14  1  0.68252851  0.75000000  0.23219729  1
  Na  Na15  1  0.81747149  0.25000000  0.73219729  1
  O  O16  1  0.16462953  0.47317107  0.68733306  1
  O  O17  1  0.33537047  -0.47317107  1.18733306  1
  O  O18  1  -0.16462953  0.97317107  -0.68733306  1
  O  O19  1  0.66462953  0.02682893  -0.18733306  1
  O  O20  1  -0.16462953  -0.47317107  -0.68733306  1
  O  O21  1  0.66462953  0.47317107  -0.18733306  1
  O  O22  1  0.16462953  0.02682893  0.68733306  1
  O  O23  1  0.33537047  0.97317107  1.18733306  1
