# generated using pymatgen
data_LiF
_symmetry_space_group_name_H-M   'P 1'
_cell_length_a   8.63128236
_cell_length_b   8.63128236
_cell_length_c   10.16975871
_cell_angle_alpha   90.00000000
_cell_angle_beta   90.00000000
_cell_angle_gamma   120.00000000
_symmetry_Int_Tables_number   1
_chemical_formula_structural   LiF
_chemical_formula_sum   'Li28 F28'
_cell_volume   656.13307276
_cell_formula_units_Z   28
loop_
 _symmetry_equiv_pos_site_id
 _symmetry_equiv_pos_as_xyz
  1  'x, y, z'
loop_
 _atom_site_type_symbol
 _atom_site_label
 _atom_site_symmetry_multiplicity
 _atom_site_fract_x
 _atom_site_fract_y
 _atom_site_fract_z
 _atom_site_occupancy
  F  F0  1  0.27438944  0.79989651  0.46308336  1
  F  F1  1  -0.79989651  -0.52550707  0.46308336  1
  F  F2  1  0.52550707  -0.27438944  0.46308336  1
  F  F3  1  -0.27438944  -0.79989651  0.96308336  1
  F  F4  1  0.79989651  0.52550707  0.96308336  1
  F  F5  1  -0.52550707  0.27438944  0.96308336  1
  F  F6  1  -0.27438944  -0.79989651  -0.46308336  1
  F  F7  1  0.79989651  0.52550707  -0.46308336  1
  F  F8  1  -0.52550707  0.27438944  -0.46308336  1
  F  F9  1  0.27438944  0.79989651  0.03691664  1
  F  F10  1  -0.79989651  -0.52550707  0.03691664  1
  F  F11  1  0.52550707  -0.27438944  0.03691664  1
  F  F12  1  0.33333333  0.66666667  0.01997260  1
  F  F13  1  0.66666667  0.33333333  0.51997260  1
  F  F14  1  0.66666667  0.33333333  0.98002740  1
  F  F15  1  0.33333333  0.66666667  0.48002740  1
  F  F16  1  0.34242201  0.62317486  0.38782127  1
  F  F17  1  0.37682514  0.71924715  0.38782127  1
  F  F18  1  0.28075285  0.65757799  0.38782127  1
  F  F19  1  0.65757799  0.37682514  0.88782127  1
  F  F20  1  0.62317486  0.28075285  0.88782127  1
  F  F21  1  0.71924715  0.34242201  0.88782127  1
  F  F22  1  0.65757799  0.37682514  0.61217873  1
  F  F23  1  0.62317486  0.28075285  0.61217873  1
  F  F24  1  0.71924715  0.34242201  0.61217873  1
  F  F25  1  0.34242201  0.62317486  0.11217873  1
  F  F26  1  0.37682514  0.71924715  0.11217873  1
  F  F27  1  0.28075285  0.65757799  0.11217873  1
  Li  Li28  1  0.54421270  0.49947092  0.85233225  1
  Li  Li29  1  0.50052908  0.04474179  0.85233225  1
  Li  Li30  1  0.95525821  0.45578730  0.85233225  1
  Li  Li31  1  0.45578730  0.50052908  0.35233225  1
  Li  Li32  1  0.49947092  0.95525821  0.35233225  1
  Li  Li33  1  0.04474179  0.54421270  0.35233225  1
  Li  Li34  1  0.45578730  0.50052908  0.14766775  1
  Li  Li35  1  0.49947092  0.95525821  0.14766775  1
  Li  Li36  1  0.04474179  0.54421270  0.14766775  1
  Li  Li37  1  0.54421270  0.49947092  0.64766775  1
  Li  Li38  1  0.50052908  0.04474179  0.64766775  1
  Li  Li39  1  0.95525821  0.45578730  0.64766775  1
  Li  Li40  1  0.00856958  0.88959851  0.37236454  1
  Li  Li41  1  0.11040149  0.11897107  0.37236454  1
  Li  Li42  1  0.88102893  0.99143042  0.37236454  1
  Li  Li43  1  0.99143042  0.11040149  0.87236454  1
  Li  Li44  1  0.88959851  0.88102893  0.87236454  1
  Li  Li45  1  0.11897107  0.00856958  0.87236454  1
  Li  Li46  1  0.99143042  0.11040149  0.62763546  1
  Li  Li47  1  0.88959851  0.88102893  0.62763546  1
  Li  Li48  1  0.11897107  0.00856958  0.62763546  1
  Li  Li49  1  0.00856958  0.88959851  0.12763546  1
  Li  Li50  1  0.11040149  0.11897107  0.12763546  1
  Li  Li51  1  0.88102893  0.99143042  0.12763546  1
  Li  Li52  1  0.33333333  0.66666667  0.25000000  1
  Li  Li53  1  0.66666667  0.33333333  0.75000000  1
  Li  Li54  1  0.00000000  0.00000000  0.00000000  1
  Li  Li55  1  0.00000000  0.00000000  0.50000000  1
