# generated using pymatgen
data_Li4TeF2
_symmetry_space_group_name_H-M   'P 1'
_cell_length_a   18.72126951
_cell_length_b   14.40601246
_cell_length_c   12.98444550
_cell_angle_alpha   90.00000000
_cell_angle_beta   90.00000000
_cell_angle_gamma   90.00000000
_symmetry_Int_Tables_number   1
_chemical_formula_structural   Li4TeF2
_chemical_formula_sum   'Li96 Te24 F48'
_cell_volume   3501.88991293
_cell_formula_units_Z   24
loop_
 _symmetry_equiv_pos_site_id
 _symmetry_equiv_pos_as_xyz
  1  'x, y, z'
loop_
 _atom_site_type_symbol
 _atom_site_label
 _atom_site_symmetry_multiplicity
 _atom_site_fract_x
 _atom_site_fract_y
 _atom_site_fract_z
 _atom_site_occupancy
  F  F0  1  0.54657985  0.25000000  0.45253165  1
  F  F1  1  0.95342015  0.75000000  0.95253165  1
  F  F2  1  0.45342015  0.75000000  0.54746835  1
  F  F3  1  0.04657985  0.25000000  0.04746835  1
  F  F4  1  0.23079330  0.97895233  0.09074283  1
  F  F5  1  0.26920670  -0.97895233  0.59074283  1
  F  F6  1  -0.23079330  1.47895233  -0.09074283  1
  F  F7  1  0.73079330  -0.47895233  0.40925717  1
  F  F8  1  -0.23079330  -0.97895233  -0.09074283  1
  F  F9  1  0.73079330  0.97895233  0.40925717  1
  F  F10  1  0.23079330  -0.47895233  0.09074283  1
  F  F11  1  0.26920670  1.47895233  0.59074283  1
  F  F12  1  0.94339812  0.00261322  0.77484565  1
  F  F13  1  0.55660188  0.99738678  0.27484565  1
  F  F14  1  0.05660188  0.50261322  0.22515435  1
  F  F15  1  0.44339812  0.49738678  0.72515435  1
  F  F16  1  0.05660188  0.99738678  0.22515435  1
  F  F17  1  0.44339812  0.00261322  0.72515435  1
  F  F18  1  0.94339812  0.49738678  0.77484565  1
  F  F19  1  0.55660188  0.50261322  0.27484565  1
  F  F20  1  0.41610417  0.29596332  0.06821754  1
  F  F21  1  0.08389583  0.70403668  0.56821754  1
  F  F22  1  0.58389583  0.79596332  0.93178246  1
  F  F23  1  0.91610417  0.20403668  0.43178246  1
  F  F24  1  0.58389583  0.70403668  0.93178246  1
  F  F25  1  0.91610417  0.29596332  0.43178246  1
  F  F26  1  0.41610417  0.20403668  0.06821754  1
  F  F27  1  0.08389583  0.79596332  0.56821754  1
  F  F28  1  0.00000000  0.00000000  0.00000000  1
  F  F29  1  0.50000000  0.00000000  0.50000000  1
  F  F30  1  0.00000000  0.50000000  0.00000000  1
  F  F31  1  0.50000000  0.50000000  0.50000000  1
  F  F32  1  0.58982530  0.25000000  0.47511287  1
  F  F33  1  0.91017470  0.75000000  0.97511287  1
  F  F34  1  0.41017470  0.75000000  0.52488713  1
  F  F35  1  0.08982530  0.25000000  0.02488713  1
  F  F36  1  0.13519792  0.01241434  0.28680652  1
  F  F37  1  0.36480208  0.98758566  0.78680652  1
  F  F38  1  0.86480208  0.51241434  0.71319348  1
  F  F39  1  0.63519792  0.48758566  0.21319348  1
  F  F40  1  0.86480208  0.98758566  0.71319348  1
  F  F41  1  0.63519792  0.01241434  0.21319348  1
  F  F42  1  0.13519792  0.48758566  0.28680652  1
  F  F43  1  0.36480208  0.51241434  0.78680652  1
  F  F44  1  0.21172582  0.25000000  0.27333744  1
  F  F45  1  0.28827418  0.75000000  0.77333744  1
  F  F46  1  0.78827418  0.75000000  0.72666256  1
  F  F47  1  0.71172582  0.25000000  0.22666256  1
  Li  Li48  1  0.74534483  0.25000000  0.49506943  1
  Li  Li49  1  0.75465517  0.75000000  0.99506943  1
  Li  Li50  1  0.25465517  0.75000000  0.50493057  1
  Li  Li51  1  0.24534483  0.25000000  0.00493057  1
  Li  Li52  1  0.14161204  0.80148252  0.14781919  1
  Li  Li53  1  0.35838796  0.19851748  0.64781919  1
  Li  Li54  1  0.85838796  0.30148252  0.85218081  1
  Li  Li55  1  0.64161204  0.69851748  0.35218081  1
  Li  Li56  1  0.85838796  0.19851748  0.85218081  1
  Li  Li57  1  0.64161204  0.80148252  0.35218081  1
  Li  Li58  1  0.14161204  0.69851748  0.14781919  1
  Li  Li59  1  0.35838796  0.30148252  0.64781919  1
  Li  Li60  1  0.41521665  0.25000000  0.30939407  1
  Li  Li61  1  0.08478335  0.75000000  0.80939407  1
  Li  Li62  1  0.58478335  0.75000000  0.69060593  1
  Li  Li63  1  0.91521665  0.25000000  0.19060593  1
  Li  Li64  1  0.45442576  0.66508147  0.47849461  1
  Li  Li65  1  0.04557424  0.33491853  0.97849461  1
  Li  Li66  1  0.54557424  0.16508147  0.52150539  1
  Li  Li67  1  0.95442576  0.83491853  0.02150539  1
  Li  Li68  1  0.54557424  0.33491853  0.52150539  1
  Li  Li69  1  0.95442576  0.66508147  0.02150539  1
  Li  Li70  1  0.45442576  0.83491853  0.47849461  1
  Li  Li71  1  0.04557424  0.16508147  0.97849461  1
  Li  Li72  1  0.00500764  0.37764603  0.35956312  1
  Li  Li73  1  0.49499236  0.62235397  0.85956312  1
  Li  Li74  1  0.99499236  0.87764603  0.64043688  1
  Li  Li75  1  0.50500764  0.12235397  0.14043688  1
  Li  Li76  1  0.99499236  0.62235397  0.64043688  1
  Li  Li77  1  0.50500764  0.37764603  0.14043688  1
  Li  Li78  1  0.00500764  0.12235397  0.35956312  1
  Li  Li79  1  0.49499236  0.87764603  0.85956312  1
  Li  Li80  1  0.60716786  0.36863721  0.70183525  1
  Li  Li81  1  0.89283214  0.63136279  0.20183525  1
  Li  Li82  1  0.39283214  0.86863721  0.29816475  1
  Li  Li83  1  0.10716786  0.13136279  0.79816475  1
  Li  Li84  1  0.39283214  0.63136279  0.29816475  1
  Li  Li85  1  0.10716786  0.36863721  0.79816475  1
  Li  Li86  1  0.60716786  0.13136279  0.70183525  1
  Li  Li87  1  0.89283214  0.86863721  0.20183525  1
  Li  Li88  1  0.51188412  0.62802028  0.27298775  1
  Li  Li89  1  0.98811588  0.37197972  0.77298775  1
  Li  Li90  1  0.48811588  0.12802028  0.72701225  1
  Li  Li91  1  0.01188412  0.87197972  0.22701225  1
  Li  Li92  1  0.48811588  0.37197972  0.72701225  1
  Li  Li93  1  0.01188412  0.62802028  0.22701225  1
  Li  Li94  1  0.51188412  0.87197972  0.27298775  1
  Li  Li95  1  0.98811588  0.12802028  0.77298775  1
  Li  Li96  1  0.73096973  0.65009958  0.89538442  1
  Li  Li97  1  0.76903027  0.34990042  0.39538442  1
  Li  Li98  1  0.26903027  0.15009958  0.10461558  1
  Li  Li99  1  0.23096973  0.84990042  0.60461558  1
  Li  Li100  1  0.26903027  0.34990042  0.10461558  1
  Li  Li101  1  0.23096973  0.65009958  0.60461558  1
  Li  Li102  1  0.73096973  0.84990042  0.89538442  1
  Li  Li103  1  0.76903027  0.15009958  0.39538442  1
  Li  Li104  1  0.52156231  0.80540967  0.81123949  1
  Li  Li105  1  0.97843769  0.19459033  0.31123949  1
  Li  Li106  1  0.47843769  0.30540967  0.18876051  1
  Li  Li107  1  0.02156231  0.69459033  0.68876051  1
  Li  Li108  1  0.47843769  0.19459033  0.18876051  1
  Li  Li109  1  0.02156231  0.80540967  0.68876051  1
  Li  Li110  1  0.52156231  0.69459033  0.81123949  1
  Li  Li111  1  0.97843769  0.30540967  0.31123949  1
  Li  Li112  1  0.00000000  0.00000000  0.50000000  1
  Li  Li113  1  0.50000000  0.00000000  0.00000000  1
  Li  Li114  1  0.00000000  0.50000000  0.50000000  1
  Li  Li115  1  0.50000000  0.50000000  0.00000000  1
  Li  Li116  1  0.74823385  0.25000000  0.88987515  1
  Li  Li117  1  0.75176615  0.75000000  0.38987515  1
  Li  Li118  1  0.25176615  0.75000000  0.11012485  1
  Li  Li119  1  0.24823385  0.25000000  0.61012485  1
  Li  Li120  1  0.93669574  0.43069956  0.95440365  1
  Li  Li121  1  0.56330426  0.56930044  0.45440365  1
  Li  Li122  1  0.06330426  0.93069956  0.04559635  1
  Li  Li123  1  0.43669574  0.06930044  0.54559635  1
  Li  Li124  1  0.06330426  0.56930044  0.04559635  1
  Li  Li125  1  0.43669574  0.43069956  0.54559635  1
  Li  Li126  1  0.93669574  0.06930044  0.95440365  1
  Li  Li127  1  0.56330426  0.93069956  0.45440365  1
  Li  Li128  1  0.82339879  0.25000000  0.21101759  1
  Li  Li129  1  0.67660121  0.75000000  0.71101759  1
  Li  Li130  1  0.17660121  0.75000000  0.78898241  1
  Li  Li131  1  0.32339879  0.25000000  0.28898241  1
  Li  Li132  1  0.13947161  0.81856309  0.29553482  1
  Li  Li133  1  0.36052839  0.18143691  0.79553482  1
  Li  Li134  1  0.86052839  0.31856309  0.70446518  1
  Li  Li135  1  0.63947161  0.68143691  0.20446518  1
  Li  Li136  1  0.86052839  0.18143691  0.70446518  1
  Li  Li137  1  0.63947161  0.81856309  0.20446518  1
  Li  Li138  1  0.13947161  0.68143691  0.29553482  1
  Li  Li139  1  0.36052839  0.31856309  0.79553482  1
  Li  Li140  1  0.99605479  0.25000000  0.08037619  1
  Li  Li141  1  0.50394521  0.75000000  0.58037619  1
  Li  Li142  1  0.00394521  0.75000000  0.91962381  1
  Li  Li143  1  0.49605479  0.25000000  0.41962381  1
  Te  Te144  1  0.98332771  0.40487583  0.56291394  1
  Te  Te145  1  0.51667229  0.59512417  0.06291394  1
  Te  Te146  1  0.01667229  0.90487583  0.43708606  1
  Te  Te147  1  0.48332771  0.09512417  0.93708606  1
  Te  Te148  1  0.01667229  0.59512417  0.43708606  1
  Te  Te149  1  0.48332771  0.40487583  0.93708606  1
  Te  Te150  1  0.98332771  0.09512417  0.56291394  1
  Te  Te151  1  0.51667229  0.90487583  0.06291394  1
  Te  Te152  1  0.58989612  0.03303524  0.46918387  1
  Te  Te153  1  0.91010388  0.96696476  0.96918387  1
  Te  Te154  1  0.41010388  0.53303524  0.53081613  1
  Te  Te155  1  0.08989612  0.46696476  0.03081613  1
  Te  Te156  1  0.41010388  0.96696476  0.53081613  1
  Te  Te157  1  0.08989612  0.03303524  0.03081613  1
  Te  Te158  1  0.58989612  0.46696476  0.46918387  1
  Te  Te159  1  0.91010388  0.53303524  0.96918387  1
  Te  Te160  1  0.33796655  0.64594601  0.15053915  1
  Te  Te161  1  0.16203345  0.35405399  0.65053915  1
  Te  Te162  1  0.66203345  0.14594601  0.84946085  1
  Te  Te163  1  0.83796655  0.85405399  0.34946085  1
  Te  Te164  1  0.66203345  0.35405399  0.84946085  1
  Te  Te165  1  0.83796655  0.64594601  0.34946085  1
  Te  Te166  1  0.33796655  0.85405399  0.15053915  1
  Te  Te167  1  0.16203345  0.14594601  0.65053915  1
