# generated using pymatgen
data_LiF
_symmetry_space_group_name_H-M   'P 1'
_cell_length_a   12.87958533
_cell_length_b   12.15516632
_cell_length_c   14.69475277
_cell_angle_alpha   90.00000000
_cell_angle_beta   90.00000000
_cell_angle_gamma   90.00000000
_symmetry_Int_Tables_number   1
_chemical_formula_structural   LiF
_chemical_formula_sum   'Li58 F58'
_cell_volume   2300.51500517
_cell_formula_units_Z   58
loop_
 _symmetry_equiv_pos_site_id
 _symmetry_equiv_pos_as_xyz
  1  'x, y, z'
loop_
 _atom_site_type_symbol
 _atom_site_label
 _atom_site_symmetry_multiplicity
 _atom_site_fract_x
 _atom_site_fract_y
 _atom_site_fract_z
 _atom_site_occupancy
  F  F0  1  0.00000000  0.50000000  0.00000000  1
  F  F1  1  0.50000000  0.00000000  0.00000000  1
  F  F2  1  0.83688737  0.31712487  0.00000000  1
  F  F3  1  0.16311263  0.68287513  0.00000000  1
  F  F4  1  0.66311263  0.81712487  0.00000000  1
  F  F5  1  0.33688737  0.18287513  0.00000000  1
  F  F6  1  0.44896072  0.38581576  0.74717202  1
  F  F7  1  0.55103928  0.61418424  0.74717202  1
  F  F8  1  0.05103928  0.88581576  0.25282798  1
  F  F9  1  0.94896072  0.11418424  0.25282798  1
  F  F10  1  0.55103928  0.61418424  0.25282798  1
  F  F11  1  0.44896072  0.38581576  0.25282798  1
  F  F12  1  0.94896072  0.11418424  0.74717202  1
  F  F13  1  0.05103928  0.88581576  0.74717202  1
  F  F14  1  0.00000000  0.50000000  0.59033789  1
  F  F15  1  0.50000000  0.00000000  0.40966211  1
  F  F16  1  0.00000000  0.50000000  0.40966211  1
  F  F17  1  0.50000000  0.00000000  0.59033789  1
  F  F18  1  0.25982291  0.60686750  0.00000000  1
  F  F19  1  0.74017709  0.39313250  0.00000000  1
  F  F20  1  0.24017709  0.10686750  -0.00000000  1
  F  F21  1  0.75982291  0.89313250  0.00000000  1
  F  F22  1  0.55034528  0.24498801  0.63532597  1
  F  F23  1  0.44965472  0.75501199  0.63532597  1
  F  F24  1  0.94965472  0.74498801  0.36467403  1
  F  F25  1  0.05034528  0.25501199  0.36467403  1
  F  F26  1  0.44965472  0.75501199  0.36467403  1
  F  F27  1  0.55034528  0.24498801  0.36467403  1
  F  F28  1  0.05034528  0.25501199  0.63532597  1
  F  F29  1  0.94965472  0.74498801  0.63532597  1
  F  F30  1  0.53832160  0.44567597  0.08268770  1
  F  F31  1  0.46167840  0.55432403  0.08268770  1
  F  F32  1  0.96167840  0.94567597  0.91731230  1
  F  F33  1  0.03832160  0.05432403  0.91731230  1
  F  F34  1  0.46167840  0.55432403  0.91731230  1
  F  F35  1  0.53832160  0.44567597  0.91731230  1
  F  F36  1  0.03832160  0.05432403  0.08268770  1
  F  F37  1  0.96167840  0.94567597  0.08268770  1
  F  F38  1  0.53001110  0.87090568  0.97064500  1
  F  F39  1  0.46998890  0.12909432  0.97064500  1
  F  F40  1  0.96998890  0.37090568  0.02935500  1
  F  F41  1  0.03001110  0.62909432  0.02935500  1
  F  F42  1  0.46998890  0.12909432  0.02935500  1
  F  F43  1  0.53001110  0.87090568  0.02935500  1
  F  F44  1  0.03001110  0.62909432  0.97064500  1
  F  F45  1  0.96998890  0.37090568  0.97064500  1
  F  F46  1  0.74954482  0.92048956  0.18472629  1
  F  F47  1  0.25045518  0.07951044  0.18472629  1
  F  F48  1  0.75045518  0.42048956  0.81527371  1
  F  F49  1  0.24954482  0.57951044  0.81527371  1
  F  F50  1  0.25045518  0.07951044  0.81527371  1
  F  F51  1  0.74954482  0.92048956  0.81527371  1
  F  F52  1  0.24954482  0.57951044  0.18472629  1
  F  F53  1  0.75045518  0.42048956  0.18472629  1
  F  F54  1  0.00000000  0.00000000  0.64126167  1
  F  F55  1  0.50000000  0.50000000  0.35873833  1
  F  F56  1  0.00000000  0.00000000  0.35873833  1
  F  F57  1  0.50000000  0.50000000  0.64126167  1
  Li  Li58  1  0.00000000  0.00000000  0.00000000  1
  Li  Li59  1  0.50000000  0.50000000  0.00000000  1
  Li  Li60  1  0.92583309  0.93458455  0.38931106  1
  Li  Li61  1  -0.92583309  -0.93458455  0.38931106  1
  Li  Li62  1  -0.42583309  1.43458455  -0.38931106  1
  Li  Li63  1  1.42583309  -0.43458455  -0.38931106  1
  Li  Li64  1  -0.92583309  -0.93458455  -0.38931106  1
  Li  Li65  1  0.92583309  0.93458455  -0.38931106  1
  Li  Li66  1  1.42583309  -0.43458455  0.38931106  1
  Li  Li67  1  -0.42583309  1.43458455  0.38931106  1
  Li  Li68  1  0.95209793  0.41371624  0.61316425  1
  Li  Li69  1  0.04790207  0.58628376  0.61316425  1
  Li  Li70  1  0.54790207  0.91371624  0.38683575  1
  Li  Li71  1  0.45209793  0.08628376  0.38683575  1
  Li  Li72  1  0.04790207  0.58628376  0.38683575  1
  Li  Li73  1  0.95209793  0.41371624  0.38683575  1
  Li  Li74  1  0.45209793  0.08628376  0.61316425  1
  Li  Li75  1  0.54790207  0.91371624  0.61316425  1
  Li  Li76  1  0.63304957  0.11271732  0.80468280  1
  Li  Li77  1  0.36695043  0.88728268  0.80468280  1
  Li  Li78  1  0.86695043  0.61271732  0.19531720  1
  Li  Li79  1  0.13304957  0.38728268  0.19531720  1
  Li  Li80  1  0.36695043  0.88728268  0.19531720  1
  Li  Li81  1  0.63304957  0.11271732  0.19531720  1
  Li  Li82  1  0.13304957  0.38728268  0.80468280  1
  Li  Li83  1  0.86695043  0.61271732  0.80468280  1
  Li  Li84  1  0.00000000  0.50000000  0.50000000  1
  Li  Li85  1  0.50000000  0.00000000  0.50000000  1
  Li  Li86  1  0.36099909  0.99160238  0.50000000  1
  Li  Li87  1  0.63900091  0.00839762  0.50000000  1
  Li  Li88  1  0.13900091  0.49160238  0.50000000  1
  Li  Li89  1  0.86099909  0.50839762  0.50000000  1
  Li  Li90  1  0.04904694  0.05829583  0.72554115  1
  Li  Li91  1  0.95095306  0.94170417  0.72554115  1
  Li  Li92  1  0.45095306  0.55829583  0.27445885  1
  Li  Li93  1  0.54904694  0.44170417  0.27445885  1
  Li  Li94  1  0.95095306  0.94170417  0.27445885  1
  Li  Li95  1  0.04904694  0.05829583  0.27445885  1
  Li  Li96  1  0.54904694  0.44170417  0.72554115  1
  Li  Li97  1  0.45095306  0.55829583  0.72554115  1
  Li  Li98  1  0.74499535  0.55082423  0.62184587  1
  Li  Li99  1  0.25500465  0.44917577  0.62184587  1
  Li  Li100  1  0.75500465  0.05082423  0.37815413  1
  Li  Li101  1  0.24499535  0.94917577  0.37815413  1
  Li  Li102  1  0.25500465  0.44917577  0.37815413  1
  Li  Li103  1  0.74499535  0.55082423  0.37815413  1
  Li  Li104  1  0.24499535  0.94917577  0.62184587  1
  Li  Li105  1  0.75500465  0.05082423  0.62184587  1
  Li  Li106  1  0.69343004  0.42119079  0.58305501  1
  Li  Li107  1  0.30656996  0.57880921  0.58305501  1
  Li  Li108  1  0.80656996  0.92119079  0.41694499  1
  Li  Li109  1  0.19343004  0.07880921  0.41694499  1
  Li  Li110  1  0.30656996  0.57880921  0.41694499  1
  Li  Li111  1  0.69343004  0.42119079  0.41694499  1
  Li  Li112  1  0.19343004  0.07880921  0.58305501  1
  Li  Li113  1  0.80656996  0.92119079  0.58305501  1
  Li  Li114  1  0.00000000  0.00000000  0.50000000  1
  Li  Li115  1  0.50000000  0.50000000  0.50000000  1
