# generated using pymatgen
data_LiF
_symmetry_space_group_name_H-M   'P 1'
_cell_length_a   12.67481299
_cell_length_b   12.67481299
_cell_length_c   8.36131945
_cell_angle_alpha   90.00000000
_cell_angle_beta   90.00000000
_cell_angle_gamma   120.00000000
_symmetry_Int_Tables_number   1
_chemical_formula_structural   LiF
_chemical_formula_sum   'Li42 F42'
_cell_volume   1163.29153671
_cell_formula_units_Z   42
loop_
 _symmetry_equiv_pos_site_id
 _symmetry_equiv_pos_as_xyz
  1  'x, y, z'
loop_
 _atom_site_type_symbol
 _atom_site_label
 _atom_site_symmetry_multiplicity
 _atom_site_fract_x
 _atom_site_fract_y
 _atom_site_fract_z
 _atom_site_occupancy
  F  F0  1  0.00000000  0.00000000  0.25000000  1
  F  F1  1  0.00000000  0.00000000  0.75000000  1
  F  F2  1  0.66666667  0.33333333  0.58333333  1
  F  F3  1  0.66666667  0.33333333  0.08333333  1
  F  F4  1  0.33333333  0.66666667  0.91666667  1
  F  F5  1  0.33333333  0.66666667  0.41666667  1
  F  F6  1  0.25905199  0.42999136  0.20632599  1
  F  F7  1  0.57000864  0.82906063  0.20632599  1
  F  F8  1  0.17093937  0.74094801  0.20632599  1
  F  F9  1  0.42999136  0.25905199  0.29367401  1
  F  F10  1  0.82906063  0.57000864  0.29367401  1
  F  F11  1  0.74094801  0.17093937  0.29367401  1
  F  F12  1  0.74094801  0.57000864  0.79367401  1
  F  F13  1  0.42999136  0.17093937  0.79367401  1
  F  F14  1  0.82906063  0.25905199  0.79367401  1
  F  F15  1  0.57000864  0.74094801  0.70632599  1
  F  F16  1  0.17093937  0.42999136  0.70632599  1
  F  F17  1  0.25905199  0.82906063  0.70632599  1
  F  F18  1  0.92571866  0.76332470  0.53965933  1
  F  F19  1  0.23667530  0.16239396  0.53965933  1
  F  F20  1  0.83760604  0.07428134  0.53965933  1
  F  F21  1  0.09665803  0.59238532  0.62700734  1
  F  F22  1  0.49572729  0.90334197  0.62700734  1
  F  F23  1  0.40761468  0.50427271  0.62700734  1
  F  F24  1  0.40761468  0.90334197  0.12700734  1
  F  F25  1  0.09665803  0.50427271  0.12700734  1
  F  F26  1  0.49572729  0.59238532  0.12700734  1
  F  F27  1  0.23667530  0.07428134  0.03965933  1
  F  F28  1  0.83760604  0.76332470  0.03965933  1
  F  F29  1  0.92571866  0.16239396  0.03965933  1
  F  F30  1  0.59238532  0.09665803  0.87299266  1
  F  F31  1  0.90334197  0.49572729  0.87299266  1
  F  F32  1  0.50427271  0.40761468  0.87299266  1
  F  F33  1  0.76332470  0.92571866  0.96034067  1
  F  F34  1  0.16239396  0.23667530  0.96034067  1
  F  F35  1  0.07428134  0.83760604  0.96034067  1
  F  F36  1  0.07428134  0.23667530  0.46034067  1
  F  F37  1  0.76332470  0.83760604  0.46034067  1
  F  F38  1  0.16239396  0.92571866  0.46034067  1
  F  F39  1  0.90334197  0.40761468  0.37299266  1
  F  F40  1  0.50427271  0.09665803  0.37299266  1
  F  F41  1  0.59238532  0.49572729  0.37299266  1
  Li  Li42  1  0.06879807  0.15804190  0.09162314  1
  Li  Li43  1  -0.15804190  -0.08924382  0.09162314  1
  Li  Li44  1  0.08924382  -0.06879807  0.09162314  1
  Li  Li45  1  0.15804190  0.06879807  0.40837686  1
  Li  Li46  1  -0.08924382  -0.15804190  0.40837686  1
  Li  Li47  1  -0.06879807  0.08924382  0.40837686  1
  Li  Li48  1  -0.06879807  -0.15804190  -0.09162314  1
  Li  Li49  1  0.15804190  0.08924382  -0.09162314  1
  Li  Li50  1  -0.08924382  0.06879807  -0.09162314  1
  Li  Li51  1  -0.15804190  -0.06879807  0.59162314  1
  Li  Li52  1  0.08924382  0.15804190  0.59162314  1
  Li  Li53  1  0.06879807  -0.08924382  0.59162314  1
  Li  Li54  1  0.73546474  0.49137523  0.42495647  1
  Li  Li55  1  0.50862477  0.24408951  0.42495647  1
  Li  Li56  1  0.75591049  0.26453526  0.42495647  1
  Li  Li57  1  0.82470856  0.40213141  0.74171020  1
  Li  Li58  1  0.57742284  0.17529144  0.74171020  1
  Li  Li59  1  0.59786859  0.42257716  0.74171020  1
  Li  Li60  1  0.59786859  0.17529144  0.24171020  1
  Li  Li61  1  0.82470856  0.42257716  0.24171020  1
  Li  Li62  1  0.57742284  0.40213141  0.24171020  1
  Li  Li63  1  0.50862477  0.26453526  0.92495647  1
  Li  Li64  1  0.75591049  0.49137523  0.92495647  1
  Li  Li65  1  0.73546474  0.24408951  0.92495647  1
  Li  Li66  1  0.40213141  0.82470856  0.75828980  1
  Li  Li67  1  0.17529144  0.57742284  0.75828980  1
  Li  Li68  1  0.42257716  0.59786859  0.75828980  1
  Li  Li69  1  0.49137523  0.73546474  1.07504353  1
  Li  Li70  1  0.24408951  0.50862477  1.07504353  1
  Li  Li71  1  0.26453526  0.75591049  1.07504353  1
  Li  Li72  1  0.26453526  0.50862477  0.57504353  1
  Li  Li73  1  0.49137523  0.75591049  0.57504353  1
  Li  Li74  1  0.24408951  0.73546474  0.57504353  1
  Li  Li75  1  0.17529144  0.59786859  1.25828980  1
  Li  Li76  1  0.42257716  0.82470856  1.25828980  1
  Li  Li77  1  0.40213141  0.57742284  1.25828980  1
  Li  Li78  1  0.00000000  0.00000000  0.00000000  1
  Li  Li79  1  0.00000000  0.00000000  0.50000000  1
  Li  Li80  1  0.66666667  0.33333333  0.33333333  1
  Li  Li81  1  0.66666667  0.33333333  0.83333333  1
  Li  Li82  1  0.33333333  0.66666667  0.66666667  1
  Li  Li83  1  0.33333333  0.66666667  0.16666667  1
