# generated using pymatgen
data_LiCaSeF
_symmetry_space_group_name_H-M   'P 1'
_cell_length_a   8.41068879
_cell_length_b   8.41068879
_cell_length_c   5.43949087
_cell_angle_alpha   90.00000000
_cell_angle_beta   90.00000000
_cell_angle_gamma   120.00000000
_symmetry_Int_Tables_number   1
_chemical_formula_structural   LiCaSeF
_chemical_formula_sum   'Li4 Ca4 Se4 F4'
_cell_volume   333.23607523
_cell_formula_units_Z   4
loop_
 _symmetry_equiv_pos_site_id
 _symmetry_equiv_pos_as_xyz
  1  'x, y, z'
loop_
 _atom_site_type_symbol
 _atom_site_label
 _atom_site_symmetry_multiplicity
 _atom_site_fract_x
 _atom_site_fract_y
 _atom_site_fract_z
 _atom_site_occupancy
  Ca  Ca0  1  0.33333333  0.66666667  0.00000000  1
  Ca  Ca1  1  0.21169725  0.78830275  0.50000000  1
  Ca  Ca2  1  0.21169725  0.42339450  0.50000000  1
  Ca  Ca3  1  0.57660550  0.78830275  0.50000000  1
  F  F4  1  0.95239219  0.04760781  0.50000000  1
  F  F5  1  0.95239219  0.90478439  0.50000000  1
  F  F6  1  0.09521561  0.04760781  0.50000000  1
  F  F7  1  0.00000000  0.00000000  0.50000000  1
  Li  Li8  1  0.13540959  0.86459041  0.00000000  1
  Li  Li9  1  0.13540959  0.27081918  0.00000000  1
  Li  Li10  1  0.72918082  0.86459041  0.00000000  1
  Li  Li11  1  0.66666667  0.33333333  0.50000000  1
  Se  Se12  1  0.54448662  -0.54448662  0.50000000  1
  Se  Se13  1  0.54448662  1.08897324  0.50000000  1
  Se  Se14  1  -1.08897324  -0.54448662  0.50000000  1
  Se  Se15  1  0.00000000  0.00000000  0.00000000  1
