# generated using pymatgen
data_LiF
_symmetry_space_group_name_H-M   'P 1'
_cell_length_a   6.35923535
_cell_length_b   15.18992848
_cell_length_c   5.33203742
_cell_angle_alpha   90.00000000
_cell_angle_beta   90.00000000
_cell_angle_gamma   90.00000000
_symmetry_Int_Tables_number   1
_chemical_formula_structural   LiF
_chemical_formula_sum   'Li28 F28'
_cell_volume   515.05524650
_cell_formula_units_Z   28
loop_
 _symmetry_equiv_pos_site_id
 _symmetry_equiv_pos_as_xyz
  1  'x, y, z'
loop_
 _atom_site_type_symbol
 _atom_site_label
 _atom_site_symmetry_multiplicity
 _atom_site_fract_x
 _atom_site_fract_y
 _atom_site_fract_z
 _atom_site_occupancy
  F  F0  1  0.41673165  0.57789081  0.02497501  1
  F  F1  1  0.08326835  0.42210919  0.52497501  1
  F  F2  1  0.58326835  0.07789081  0.97502499  1
  F  F3  1  0.91673165  0.92210919  0.47502499  1
  F  F4  1  0.58326835  0.42210919  0.97502499  1
  F  F5  1  0.91673165  0.57789081  0.47502499  1
  F  F6  1  0.41673165  0.92210919  0.02497501  1
  F  F7  1  0.08326835  0.07789081  0.52497501  1
  F  F8  1  0.83566923  0.29594089  0.74942758  1
  F  F9  1  0.66433077  0.70405911  0.24942758  1
  F  F10  1  0.16433077  0.79594089  0.25057242  1
  F  F11  1  0.33566923  0.20405911  0.75057242  1
  F  F12  1  0.16433077  0.70405911  0.25057242  1
  F  F13  1  0.33566923  0.29594089  0.75057242  1
  F  F14  1  0.83566923  0.20405911  0.74942758  1
  F  F15  1  0.66433077  0.79594089  0.24942758  1
  F  F16  1  0.21090835  0.32169851  0.35171896  1
  F  F17  1  0.28909165  0.67830149  0.85171896  1
  F  F18  1  0.78909165  0.82169851  0.64828104  1
  F  F19  1  0.71090835  0.17830149  0.14828104  1
  F  F20  1  0.78909165  0.67830149  0.64828104  1
  F  F21  1  0.71090835  0.32169851  0.14828104  1
  F  F22  1  0.21090835  0.17830149  0.35171896  1
  F  F23  1  0.28909165  0.82169851  0.85171896  1
  F  F24  1  0.01053048  0.25000000  0.14562663  1
  F  F25  1  0.48946952  0.75000000  0.64562663  1
  F  F26  1  0.98946952  0.75000000  0.85437337  1
  F  F27  1  0.51053048  0.25000000  0.35437337  1
  Li  Li28  1  0.00000000  0.00000000  0.50000000  1
  Li  Li29  1  0.50000000  0.00000000  0.00000000  1
  Li  Li30  1  0.00000000  0.50000000  0.50000000  1
  Li  Li31  1  0.50000000  0.50000000  0.00000000  1
  Li  Li32  1  0.00000000  0.00000000  0.00000000  1
  Li  Li33  1  0.50000000  0.00000000  0.50000000  1
  Li  Li34  1  0.00000000  0.50000000  0.00000000  1
  Li  Li35  1  0.50000000  0.50000000  0.50000000  1
  Li  Li36  1  0.00510648  0.25000000  0.40009947  1
  Li  Li37  1  0.49489352  0.75000000  0.90009947  1
  Li  Li38  1  0.99489352  0.75000000  0.59990053  1
  Li  Li39  1  0.50510648  0.25000000  0.09990053  1
  Li  Li40  1  0.99618911  0.16301064  0.52141806  1
  Li  Li41  1  -0.49618911  -0.16301064  1.02141806  1
  Li  Li42  1  -0.99618911  0.66301064  -0.52141806  1
  Li  Li43  1  1.49618911  0.33698936  -0.02141806  1
  Li  Li44  1  -0.99618911  -0.16301064  -0.52141806  1
  Li  Li45  1  1.49618911  0.16301064  -0.02141806  1
  Li  Li46  1  0.99618911  0.33698936  0.52141806  1
  Li  Li47  1  -0.49618911  0.66301064  1.02141806  1
  Li  Li48  1  0.95756248  0.17320408  0.19179837  1
  Li  Li49  1  0.54243752  0.82679592  0.69179837  1
  Li  Li50  1  0.04243752  0.67320408  0.80820163  1
  Li  Li51  1  0.45756248  0.32679592  0.30820163  1
  Li  Li52  1  0.04243752  0.82679592  0.80820163  1
  Li  Li53  1  0.45756248  0.17320408  0.30820163  1
  Li  Li54  1  0.95756248  0.32679592  0.19179837  1
  Li  Li55  1  0.54243752  0.67320408  0.69179837  1
