# generated using pymatgen
data_Li2P3Se
_symmetry_space_group_name_H-M   'P 1'
_cell_length_a   4.42143176
_cell_length_b   4.73900869
_cell_length_c   6.77255653
_cell_angle_alpha   95.17967102
_cell_angle_beta   101.42249586
_cell_angle_gamma   110.92056362
_symmetry_Int_Tables_number   1
_chemical_formula_structural   Li2P3Se
_chemical_formula_sum   'Li2 P3 Se1'
_cell_volume   127.90194771
_cell_formula_units_Z   1
loop_
 _symmetry_equiv_pos_site_id
 _symmetry_equiv_pos_as_xyz
  1  'x, y, z'
loop_
 _atom_site_type_symbol
 _atom_site_label
 _atom_site_symmetry_multiplicity
 _atom_site_fract_x
 _atom_site_fract_y
 _atom_site_fract_z
 _atom_site_occupancy
  P  P0  1  0.00000000  0.00000000  0.00000000  1
  P  P1  1  0.50000000  0.50000000  0.50000000  1
  P  P2  1  0.25000000  0.25000000  0.25000000  1
  Se  Se3  1  0.75000000  0.25000000  0.00000000  1
  Li  Li4  1  0.25000000  0.75000000  0.50000000  1
  Li  Li5  1  0.37736874  0.99080689  0.92170805  1
