# generated using pymatgen
data_LiF
_symmetry_space_group_name_H-M   'P 1'
_cell_length_a   7.14934734
_cell_length_b   7.14934734
_cell_length_c   13.47679541
_cell_angle_alpha   90.00000000
_cell_angle_beta   90.00000000
_cell_angle_gamma   120.00000000
_symmetry_Int_Tables_number   1
_chemical_formula_structural   LiF
_chemical_formula_sum   'Li36 F36'
_cell_volume   596.55441188
_cell_formula_units_Z   36
loop_
 _symmetry_equiv_pos_site_id
 _symmetry_equiv_pos_as_xyz
  1  'x, y, z'
loop_
 _atom_site_type_symbol
 _atom_site_label
 _atom_site_symmetry_multiplicity
 _atom_site_fract_x
 _atom_site_fract_y
 _atom_site_fract_z
 _atom_site_occupancy
  F  F0  1  0.42716592  0.15657354  0.26308163  1
  F  F1  1  -0.15657354  0.27059238  0.26308163  1
  F  F2  1  -0.27059238  -0.42716592  0.26308163  1
  F  F3  1  0.15657354  0.42716592  0.23691837  1
  F  F4  1  0.27059238  -0.15657354  0.23691837  1
  F  F5  1  -0.42716592  -0.27059238  0.23691837  1
  F  F6  1  -0.42716592  -0.15657354  -0.26308163  1
  F  F7  1  0.15657354  -0.27059238  -0.26308163  1
  F  F8  1  0.27059238  0.42716592  -0.26308163  1
  F  F9  1  -0.15657354  -0.42716592  0.76308163  1
  F  F10  1  -0.27059238  0.15657354  0.76308163  1
  F  F11  1  0.42716592  0.27059238  0.76308163  1
  F  F12  1  1.09383259  0.48990687  0.59641496  1
  F  F13  1  0.51009313  0.60392571  0.59641496  1
  F  F14  1  0.39607429  -0.09383259  0.59641496  1
  F  F15  1  0.82324021  0.76049925  0.57025170  1
  F  F16  1  0.93725905  0.17675979  0.57025170  1
  F  F17  1  0.23950075  0.06274095  0.57025170  1
  F  F18  1  0.23950075  0.17675979  0.07025170  1
  F  F19  1  0.82324021  0.06274095  0.07025170  1
  F  F20  1  0.93725905  0.76049925  0.07025170  1
  F  F21  1  0.51009313  -0.09383259  1.09641496  1
  F  F22  1  0.39607429  0.48990687  1.09641496  1
  F  F23  1  1.09383259  0.60392571  1.09641496  1
  F  F24  1  0.76049925  0.82324021  0.92974830  1
  F  F25  1  0.17675979  0.93725905  0.92974830  1
  F  F26  1  0.06274095  0.23950075  0.92974830  1
  F  F27  1  0.48990687  1.09383259  0.90358504  1
  F  F28  1  0.60392571  0.51009313  0.90358504  1
  F  F29  1  -0.09383259  0.39607429  0.90358504  1
  F  F30  1  -0.09383259  0.51009313  0.40358504  1
  F  F31  1  0.48990687  0.39607429  0.40358504  1
  F  F32  1  0.60392571  1.09383259  0.40358504  1
  F  F33  1  0.17675979  0.23950075  1.42974830  1
  F  F34  1  0.06274095  0.82324021  1.42974830  1
  F  F35  1  0.76049925  0.93725905  1.42974830  1
  Li  Li36  1  0.82538538  0.95136909  0.31992918  1
  Li  Li37  1  0.04863091  0.87401629  0.31992918  1
  Li  Li38  1  0.12598371  0.17461462  0.31992918  1
  Li  Li39  1  0.95136909  0.82538538  0.18007082  1
  Li  Li40  1  0.87401629  0.04863091  0.18007082  1
  Li  Li41  1  0.17461462  0.12598371  0.18007082  1
  Li  Li42  1  0.17461462  0.04863091  0.68007082  1
  Li  Li43  1  0.95136909  0.12598371  0.68007082  1
  Li  Li44  1  0.87401629  0.82538538  0.68007082  1
  Li  Li45  1  0.04863091  0.17461462  0.81992918  1
  Li  Li46  1  0.12598371  0.95136909  0.81992918  1
  Li  Li47  1  0.82538538  0.87401629  0.81992918  1
  Li  Li48  1  0.49205205  0.28470243  0.65326251  1
  Li  Li49  1  0.71529757  0.20734962  0.65326251  1
  Li  Li50  1  0.79265038  0.50794795  0.65326251  1
  Li  Li51  1  0.61803576  0.15871871  0.51340415  1
  Li  Li52  1  0.54068296  0.38196424  0.51340415  1
  Li  Li53  1  0.84128129  0.45931704  0.51340415  1
  Li  Li54  1  0.84128129  0.38196424  0.01340415  1
  Li  Li55  1  0.61803576  0.45931704  0.01340415  1
  Li  Li56  1  0.54068296  0.15871871  0.01340415  1
  Li  Li57  1  0.71529757  0.50794795  0.15326251  1
  Li  Li58  1  0.79265038  0.28470243  0.15326251  1
  Li  Li59  1  0.49205205  0.20734962  0.15326251  1
  Li  Li60  1  0.15871871  0.61803576  0.98659585  1
  Li  Li61  1  0.38196424  0.54068296  0.98659585  1
  Li  Li62  1  0.45931704  0.84128129  0.98659585  1
  Li  Li63  1  0.28470243  0.49205205  0.84673749  1
  Li  Li64  1  0.20734962  0.71529757  0.84673749  1
  Li  Li65  1  0.50794795  0.79265038  0.84673749  1
  Li  Li66  1  0.50794795  0.71529757  0.34673749  1
  Li  Li67  1  0.28470243  0.79265038  0.34673749  1
  Li  Li68  1  0.20734962  0.49205205  0.34673749  1
  Li  Li69  1  0.38196424  0.84128129  0.48659585  1
  Li  Li70  1  0.45931704  0.61803576  0.48659585  1
  Li  Li71  1  0.15871871  0.54068296  0.48659585  1
