# generated using pymatgen
data_Li2YSb2P2Se
_symmetry_space_group_name_H-M   'P 1'
_cell_length_a   5.41575005
_cell_length_b   5.51408291
_cell_length_c   7.03085411
_cell_angle_alpha   94.39644800
_cell_angle_beta   97.98232573
_cell_angle_gamma   105.16175564
_symmetry_Int_Tables_number   1
_chemical_formula_structural   Li2YSb2P2Se
_chemical_formula_sum   'Li2 Y1 Sb2 P2 Se1'
_cell_volume   199.28284510
_cell_formula_units_Z   1
loop_
 _symmetry_equiv_pos_site_id
 _symmetry_equiv_pos_as_xyz
  1  'x, y, z'
loop_
 _atom_site_type_symbol
 _atom_site_label
 _atom_site_symmetry_multiplicity
 _atom_site_fract_x
 _atom_site_fract_y
 _atom_site_fract_z
 _atom_site_occupancy
  P  P0  1  0.00000000  0.00000000  0.00000000  1
  P  P1  1  0.50000000  0.50000000  0.50000000  1
  Se  Se2  1  0.25000000  0.25000000  0.25000000  1
  Li  Li3  1  0.75000000  0.25000000  0.00000000  1
  Li  Li4  1  0.25000000  0.75000000  0.50000000  1
  Y  Y5  1  0.94303062  0.15385503  0.30471705  1
  Sb  Sb6  1  0.99020330  0.83957331  0.83839186  1
  Sb  Sb7  1  0.43462614  0.18588395  0.57737943  1
