# generated using pymatgen
data_LiF
_symmetry_space_group_name_H-M   'P 1'
_cell_length_a   5.62914464
_cell_length_b   5.62914464
_cell_length_c   12.63915911
_cell_angle_alpha   90.00000000
_cell_angle_beta   90.00000000
_cell_angle_gamma   120.00000000
_symmetry_Int_Tables_number   1
_chemical_formula_structural   LiF
_chemical_formula_sum   'Li12 F12'
_cell_volume   346.84355426
_cell_formula_units_Z   12
loop_
 _symmetry_equiv_pos_site_id
 _symmetry_equiv_pos_as_xyz
  1  'x, y, z'
loop_
 _atom_site_type_symbol
 _atom_site_label
 _atom_site_symmetry_multiplicity
 _atom_site_fract_x
 _atom_site_fract_y
 _atom_site_fract_z
 _atom_site_occupancy
  F  F0  1  0.33333333  0.66666667  0.88273972  1
  F  F1  1  0.66666667  0.33333333  0.38273972  1
  F  F2  1  0.66666667  0.33333333  0.11726028  1
  F  F3  1  0.33333333  0.66666667  0.61726028  1
  F  F4  1  0.57522131  0.42894342  0.25000000  1
  F  F5  1  -0.42894342  0.14627789  0.25000000  1
  F  F6  1  -0.14627789  -0.57522131  0.25000000  1
  F  F7  1  -0.57522131  -0.42894342  0.75000000  1
  F  F8  1  0.42894342  -0.14627789  0.75000000  1
  F  F9  1  0.14627789  0.57522131  0.75000000  1
  F  F10  1  0.66666667  0.33333333  0.25000000  1
  F  F11  1  0.33333333  0.66666667  0.75000000  1
  Li  Li12  1  0.33333333  0.66666667  0.25000000  1
  Li  Li13  1  0.66666667  0.33333333  0.75000000  1
  Li  Li14  1  0.31307203  0.97480314  0.25000000  1
  Li  Li15  1  0.02519686  0.33826889  0.25000000  1
  Li  Li16  1  0.66173111  0.68692797  0.25000000  1
  Li  Li17  1  0.68692797  0.02519686  0.75000000  1
  Li  Li18  1  0.97480314  0.66173111  0.75000000  1
  Li  Li19  1  0.33826889  0.31307203  0.75000000  1
  Li  Li20  1  0.33333333  0.66666667  0.37347020  1
  Li  Li21  1  0.66666667  0.33333333  0.87347020  1
  Li  Li22  1  0.66666667  0.33333333  0.62652980  1
  Li  Li23  1  0.33333333  0.66666667  0.12652980  1
