# generated using pymatgen
data_LiF
_symmetry_space_group_name_H-M   'P 1'
_cell_length_a   9.05941934
_cell_length_b   9.05941934
_cell_length_c   14.84814127
_cell_angle_alpha   90.00000000
_cell_angle_beta   90.00000000
_cell_angle_gamma   90.00000000
_symmetry_Int_Tables_number   1
_chemical_formula_structural   LiF
_chemical_formula_sum   'Li64 F64'
_cell_volume   1218.63266757
_cell_formula_units_Z   64
loop_
 _symmetry_equiv_pos_site_id
 _symmetry_equiv_pos_as_xyz
  1  'x, y, z'
loop_
 _atom_site_type_symbol
 _atom_site_label
 _atom_site_symmetry_multiplicity
 _atom_site_fract_x
 _atom_site_fract_y
 _atom_site_fract_z
 _atom_site_occupancy
  F  F0  1  0.70367715  0.12941513  0.08450332  1
  F  F1  1  0.79632285  0.87058487  0.58450332  1
  F  F2  1  0.12058487  0.45367715  0.33450332  1
  F  F3  1  0.37941513  0.54632285  0.83450332  1
  F  F4  1  0.79632285  0.12941513  0.91549668  1
  F  F5  1  0.70367715  0.87058487  0.41549668  1
  F  F6  1  0.37941513  0.45367715  0.66549668  1
  F  F7  1  0.12058487  0.54632285  0.16549668  1
  F  F8  1  0.29632285  0.87058487  0.91549668  1
  F  F9  1  0.20367715  0.12941513  0.41549668  1
  F  F10  1  0.87941513  0.54632285  0.66549668  1
  F  F11  1  0.62058487  0.45367715  0.16549668  1
  F  F12  1  0.20367715  0.87058487  0.08450332  1
  F  F13  1  0.29632285  0.12941513  0.58450332  1
  F  F14  1  0.62058487  0.54632285  0.33450332  1
  F  F15  1  0.87941513  0.45367715  0.83450332  1
  F  F16  1  0.20367715  0.62941513  0.58450332  1
  F  F17  1  0.29632285  0.37058487  0.08450332  1
  F  F18  1  0.62058487  0.95367715  0.83450332  1
  F  F19  1  0.87941513  0.04632285  0.33450332  1
  F  F20  1  0.29632285  0.62941513  0.41549668  1
  F  F21  1  0.20367715  0.37058487  0.91549668  1
  F  F22  1  0.87941513  0.95367715  0.16549668  1
  F  F23  1  0.62058487  0.04632285  0.66549668  1
  F  F24  1  0.79632285  0.37058487  0.41549668  1
  F  F25  1  0.70367715  0.62941513  0.91549668  1
  F  F26  1  0.37941513  0.04632285  0.16549668  1
  F  F27  1  0.12058487  0.95367715  0.66549668  1
  F  F28  1  0.70367715  0.37058487  0.58450332  1
  F  F29  1  0.79632285  0.62941513  0.08450332  1
  F  F30  1  0.12058487  0.04632285  0.83450332  1
  F  F31  1  0.37941513  0.95367715  0.33450332  1
  F  F32  1  0.77468148  0.68974185  0.16790450  1
  F  F33  1  0.72531852  0.31025815  0.66790450  1
  F  F34  1  0.56025815  0.52468148  0.41790450  1
  F  F35  1  0.93974185  0.47531852  0.91790450  1
  F  F36  1  0.72531852  0.68974185  0.83209550  1
  F  F37  1  0.77468148  0.31025815  0.33209550  1
  F  F38  1  0.93974185  0.52468148  0.58209550  1
  F  F39  1  0.56025815  0.47531852  0.08209550  1
  F  F40  1  0.22531852  0.31025815  0.83209550  1
  F  F41  1  0.27468148  0.68974185  0.33209550  1
  F  F42  1  0.43974185  0.47531852  0.58209550  1
  F  F43  1  0.06025815  0.52468148  0.08209550  1
  F  F44  1  0.27468148  0.31025815  0.16790450  1
  F  F45  1  0.22531852  0.68974185  0.66790450  1
  F  F46  1  0.06025815  0.47531852  0.41790450  1
  F  F47  1  0.43974185  0.52468148  0.91790450  1
  F  F48  1  0.27468148  0.18974185  0.66790450  1
  F  F49  1  0.22531852  0.81025815  0.16790450  1
  F  F50  1  0.06025815  0.02468148  0.91790450  1
  F  F51  1  0.43974185  0.97531852  0.41790450  1
  F  F52  1  0.22531852  0.18974185  0.33209550  1
  F  F53  1  0.27468148  0.81025815  0.83209550  1
  F  F54  1  0.43974185  0.02468148  0.08209550  1
  F  F55  1  0.06025815  0.97531852  0.58209550  1
  F  F56  1  0.72531852  0.81025815  0.33209550  1
  F  F57  1  0.77468148  0.18974185  0.83209550  1
  F  F58  1  0.93974185  0.97531852  0.08209550  1
  F  F59  1  0.56025815  0.02468148  0.58209550  1
  F  F60  1  0.77468148  0.81025815  0.66790450  1
  F  F61  1  0.72531852  0.18974185  0.16790450  1
  F  F62  1  0.56025815  0.97531852  0.91790450  1
  F  F63  1  0.93974185  0.02468148  0.41790450  1
  Li  Li64  1  0.23346666  0.37114327  0.69412061  1
  Li  Li65  1  0.26653334  -0.37114327  1.19412061  1
  Li  Li66  1  -0.12114327  0.98346666  0.94412061  1
  Li  Li67  1  0.62114327  0.01653334  1.44412061  1
  Li  Li68  1  0.26653334  0.37114327  -0.69412061  1
  Li  Li69  1  0.23346666  -0.37114327  -0.19412061  1
  Li  Li70  1  0.62114327  0.98346666  0.05587939  1
  Li  Li71  1  -0.12114327  0.01653334  -0.44412061  1
  Li  Li72  1  -0.23346666  -0.37114327  -0.69412061  1
  Li  Li73  1  0.73346666  0.37114327  -0.19412061  1
  Li  Li74  1  1.12114327  0.01653334  0.05587939  1
  Li  Li75  1  0.37885673  0.98346666  -0.44412061  1
  Li  Li76  1  0.73346666  -0.37114327  0.69412061  1
  Li  Li77  1  -0.23346666  0.37114327  1.19412061  1
  Li  Li78  1  0.37885673  0.01653334  0.94412061  1
  Li  Li79  1  1.12114327  0.98346666  1.44412061  1
  Li  Li80  1  0.73346666  0.87114327  1.19412061  1
  Li  Li81  1  0.76653334  0.12885673  1.69412061  1
  Li  Li82  1  0.37885673  1.48346666  1.44412061  1
  Li  Li83  1  1.12114327  0.51653334  1.94412061  1
  Li  Li84  1  0.76653334  0.87114327  -0.19412061  1
  Li  Li85  1  0.73346666  0.12885673  0.30587939  1
  Li  Li86  1  1.12114327  1.48346666  0.55587939  1
  Li  Li87  1  0.37885673  0.51653334  0.05587939  1
  Li  Li88  1  0.26653334  0.12885673  -0.19412061  1
  Li  Li89  1  1.23346666  0.87114327  0.30587939  1
  Li  Li90  1  1.62114327  0.51653334  0.55587939  1
  Li  Li91  1  0.87885673  1.48346666  0.05587939  1
  Li  Li92  1  1.23346666  0.12885673  1.19412061  1
  Li  Li93  1  0.26653334  0.87114327  1.69412061  1
  Li  Li94  1  0.87885673  0.51653334  1.44412061  1
  Li  Li95  1  1.62114327  1.48346666  1.94412061  1
  Li  Li96  1  0.39184627  0.41705178  0.79142342  1
  Li  Li97  1  0.10815373  0.58294822  0.29142342  1
  Li  Li98  1  0.83294822  0.14184627  0.04142342  1
  Li  Li99  1  0.66705178  0.85815373  0.54142342  1
  Li  Li100  1  0.10815373  0.41705178  0.20857658  1
  Li  Li101  1  0.39184627  0.58294822  0.70857658  1
  Li  Li102  1  0.66705178  0.14184627  0.95857658  1
  Li  Li103  1  0.83294822  0.85815373  0.45857658  1
  Li  Li104  1  0.60815373  0.58294822  0.20857658  1
  Li  Li105  1  0.89184627  0.41705178  0.70857658  1
  Li  Li106  1  0.16705178  0.85815373  0.95857658  1
  Li  Li107  1  0.33294822  0.14184627  0.45857658  1
  Li  Li108  1  0.89184627  0.58294822  0.79142342  1
  Li  Li109  1  0.60815373  0.41705178  0.29142342  1
  Li  Li110  1  0.33294822  0.85815373  0.04142342  1
  Li  Li111  1  0.16705178  0.14184627  0.54142342  1
  Li  Li112  1  0.89184627  0.91705178  0.29142342  1
  Li  Li113  1  0.60815373  0.08294822  0.79142342  1
  Li  Li114  1  0.33294822  0.64184627  0.54142342  1
  Li  Li115  1  0.16705178  0.35815373  0.04142342  1
  Li  Li116  1  0.60815373  0.91705178  0.70857658  1
  Li  Li117  1  0.89184627  0.08294822  0.20857658  1
  Li  Li118  1  0.16705178  0.64184627  0.45857658  1
  Li  Li119  1  0.33294822  0.35815373  0.95857658  1
  Li  Li120  1  0.10815373  0.08294822  0.70857658  1
  Li  Li121  1  0.39184627  0.91705178  0.20857658  1
  Li  Li122  1  0.66705178  0.35815373  0.45857658  1
  Li  Li123  1  0.83294822  0.64184627  0.95857658  1
  Li  Li124  1  0.39184627  0.08294822  0.29142342  1
  Li  Li125  1  0.10815373  0.91705178  0.79142342  1
  Li  Li126  1  0.83294822  0.35815373  0.54142342  1
  Li  Li127  1  0.66705178  0.64184627  0.04142342  1
