# generated using pymatgen
data_Li2Y2P2Se
_symmetry_space_group_name_H-M   'P 1'
_cell_length_a   4.64753975
_cell_length_b   4.79267121
_cell_length_c   6.15281813
_cell_angle_alpha   95.23258557
_cell_angle_beta   98.79014721
_cell_angle_gamma   104.74584210
_symmetry_Int_Tables_number   1
_chemical_formula_structural   Li2Y2P2Se
_chemical_formula_sum   'Li2 Y2 P2 Se1'
_cell_volume   129.75903866
_cell_formula_units_Z   1
loop_
 _symmetry_equiv_pos_site_id
 _symmetry_equiv_pos_as_xyz
  1  'x, y, z'
loop_
 _atom_site_type_symbol
 _atom_site_label
 _atom_site_symmetry_multiplicity
 _atom_site_fract_x
 _atom_site_fract_y
 _atom_site_fract_z
 _atom_site_occupancy
  Se  Se0  1  0.00000000  0.00000000  0.00000000  1
  Y  Y1  1  0.50000000  0.50000000  0.50000000  1
  Y  Y2  1  0.25000000  0.25000000  0.25000000  1
  P  P3  1  0.75000000  0.25000000  0.00000000  1
  P  P4  1  0.25000000  0.75000000  0.50000000  1
  Li  Li5  1  0.78984939  0.64508184  0.47759581  1
  Li  Li6  1  0.37731614  0.57248651  0.34611021  1
