# generated using pymatgen
data_Li5AlCuSe2
_symmetry_space_group_name_H-M   'P 1'
_cell_length_a   5.94379088
_cell_length_b   6.30252111
_cell_length_c   7.18993640
_cell_angle_alpha   102.71571040
_cell_angle_beta   103.40912587
_cell_angle_gamma   101.47574688
_symmetry_Int_Tables_number   1
_chemical_formula_structural   Li5AlCuSe2
_chemical_formula_sum   'Li5 Al1 Cu1 Se2'
_cell_volume   246.54327596
_cell_formula_units_Z   1
loop_
 _symmetry_equiv_pos_site_id
 _symmetry_equiv_pos_as_xyz
  1  'x, y, z'
loop_
 _atom_site_type_symbol
 _atom_site_label
 _atom_site_symmetry_multiplicity
 _atom_site_fract_x
 _atom_site_fract_y
 _atom_site_fract_z
 _atom_site_occupancy
  Al  Al0  1  0.12500000  0.12500000  0.12500000  1
  Se  Se1  1  0.50000000  0.50000000  0.50000000  1
  Se  Se2  1  0.25000000  0.25000000  0.25000000  1
  Cu  Cu3  1  0.75000000  0.75000000  0.75000000  1
  Li  Li4  1  0.38741661  0.41535948  0.23998239  1
  Li  Li5  1  0.00427288  0.41720802  0.80294178  1
  Li  Li6  1  0.08385550  0.53612743  0.42130257  1
  Li  Li7  1  0.77739222  0.39013253  0.30557584  1
  Li  Li8  1  0.87370718  0.12201594  0.56895737  1
