# generated using pymatgen
data_LiF
_symmetry_space_group_name_H-M   'P 1'
_cell_length_a   17.71405387
_cell_length_b   17.71405387
_cell_length_c   8.21558046
_cell_angle_alpha   90.00000000
_cell_angle_beta   90.00000000
_cell_angle_gamma   120.00000000
_symmetry_Int_Tables_number   1
_chemical_formula_structural   LiF
_chemical_formula_sum   'Li66 F66'
_cell_volume   2232.56857467
_cell_formula_units_Z   66
loop_
 _symmetry_equiv_pos_site_id
 _symmetry_equiv_pos_as_xyz
  1  'x, y, z'
loop_
 _atom_site_type_symbol
 _atom_site_label
 _atom_site_symmetry_multiplicity
 _atom_site_fract_x
 _atom_site_fract_y
 _atom_site_fract_z
 _atom_site_occupancy
  F  F0  1  0.82393330  0.34091937  0.17989694  1
  F  F1  1  0.65908063  0.48301393  0.17989694  1
  F  F2  1  0.51698607  0.17606670  0.17989694  1
  F  F3  1  0.34091937  0.82393330  0.32010306  1
  F  F4  1  0.48301393  0.65908063  0.32010306  1
  F  F5  1  0.17606670  0.51698607  0.32010306  1
  F  F6  1  0.17606670  0.65908063  0.82010306  1
  F  F7  1  0.34091937  0.51698607  0.82010306  1
  F  F8  1  0.48301393  0.82393330  0.82010306  1
  F  F9  1  0.65908063  0.17606670  0.67989694  1
  F  F10  1  0.51698607  0.34091937  0.67989694  1
  F  F11  1  0.82393330  0.48301393  0.67989694  1
  F  F12  1  0.49059997  0.67425270  0.51323027  1
  F  F13  1  0.32574730  0.81634726  0.51323027  1
  F  F14  1  0.18365274  0.50940003  0.51323027  1
  F  F15  1  0.00758604  0.15726663  0.65343639  1
  F  F16  1  0.14968060  0.99241396  0.65343639  1
  F  F17  1  0.84273337  0.85031940  0.65343639  1
  F  F18  1  0.84273337  0.99241396  0.15343639  1
  F  F19  1  0.00758604  0.85031940  0.15343639  1
  F  F20  1  0.14968060  0.15726663  0.15343639  1
  F  F21  1  0.32574730  0.50940003  0.01323027  1
  F  F22  1  0.18365274  0.67425270  0.01323027  1
  F  F23  1  0.49059997  0.81634726  0.01323027  1
  F  F24  1  0.15726663  0.00758604  0.84656361  1
  F  F25  1  0.99241396  0.14968060  0.84656361  1
  F  F26  1  0.85031940  0.84273337  0.84656361  1
  F  F27  1  0.67425270  0.49059997  0.98676973  1
  F  F28  1  0.81634726  0.32574730  0.98676973  1
  F  F29  1  0.50940003  0.18365274  0.98676973  1
  F  F30  1  0.50940003  0.32574730  0.48676973  1
  F  F31  1  0.67425270  0.18365274  0.48676973  1
  F  F32  1  0.81634726  0.49059997  0.48676973  1
  F  F33  1  0.99241396  0.84273337  0.34656361  1
  F  F34  1  0.85031940  0.00758604  0.34656361  1
  F  F35  1  0.15726663  0.14968060  0.34656361  1
  F  F36  1  0.60980422  0.00000000  0.25000000  1
  F  F37  1  0.00000000  0.60980422  0.25000000  1
  F  F38  1  0.39019578  0.39019578  0.25000000  1
  F  F39  1  0.39019578  0.00000000  0.75000000  1
  F  F40  1  0.00000000  0.39019578  0.75000000  1
  F  F41  1  0.60980422  0.60980422  0.75000000  1
  F  F42  1  0.27647089  0.33333333  0.58333333  1
  F  F43  1  0.66666667  0.94313755  0.58333333  1
  F  F44  1  0.05686245  0.72352911  0.58333333  1
  F  F45  1  0.05686245  0.33333333  0.08333333  1
  F  F46  1  0.66666667  0.72352911  0.08333333  1
  F  F47  1  0.27647089  0.94313755  0.08333333  1
  F  F48  1  0.94313755  0.66666667  0.91666667  1
  F  F49  1  0.33333333  0.27647089  0.91666667  1
  F  F50  1  0.72352911  0.05686245  0.91666667  1
  F  F51  1  0.72352911  0.66666667  0.41666667  1
  F  F52  1  0.33333333  0.05686245  0.41666667  1
  F  F53  1  0.94313755  0.27647089  0.41666667  1
  F  F54  1  0.00000000  0.00000000  0.62815306  1
  F  F55  1  0.00000000  0.00000000  0.87184694  1
  F  F56  1  0.00000000  0.00000000  0.37184694  1
  F  F57  1  0.00000000  0.00000000  0.12815306  1
  F  F58  1  0.66666667  0.33333333  0.96148640  1
  F  F59  1  0.66666667  0.33333333  0.20518027  1
  F  F60  1  0.66666667  0.33333333  0.70518027  1
  F  F61  1  0.66666667  0.33333333  0.46148640  1
  F  F62  1  0.33333333  0.66666667  0.29481973  1
  F  F63  1  0.33333333  0.66666667  0.53851360  1
  F  F64  1  0.33333333  0.66666667  0.03851360  1
  F  F65  1  0.33333333  0.66666667  0.79481973  1
  Li  Li66  1  0.00000000  0.00000000  0.25000000  1
  Li  Li67  1  0.00000000  0.00000000  0.75000000  1
  Li  Li68  1  0.66666667  0.33333333  0.58333333  1
  Li  Li69  1  0.66666667  0.33333333  0.08333333  1
  Li  Li70  1  0.33333333  0.66666667  0.91666667  1
  Li  Li71  1  0.33333333  0.66666667  0.41666667  1
  Li  Li72  1  0.89620011  0.07508832  0.37763821  1
  Li  Li73  1  -0.07508832  0.82111180  0.37763821  1
  Li  Li74  1  -0.82111180  -0.89620011  0.37763821  1
  Li  Li75  1  0.07508832  0.89620011  0.12236179  1
  Li  Li76  1  0.82111180  -0.07508832  0.12236179  1
  Li  Li77  1  -0.89620011  -0.82111180  0.12236179  1
  Li  Li78  1  -0.89620011  -0.07508832  -0.37763821  1
  Li  Li79  1  0.07508832  -0.82111180  -0.37763821  1
  Li  Li80  1  0.82111180  0.89620011  -0.37763821  1
  Li  Li81  1  -0.07508832  -0.89620011  0.87763821  1
  Li  Li82  1  -0.82111180  0.07508832  0.87763821  1
  Li  Li83  1  0.89620011  0.82111180  0.87763821  1
  Li  Li84  1  1.56286678  0.40842165  0.71097154  1
  Li  Li85  1  0.59157835  1.15444513  0.71097154  1
  Li  Li86  1  -0.15444513  -0.56286678  0.71097154  1
  Li  Li87  1  0.74175498  1.22953345  0.45569512  1
  Li  Li88  1  1.48777846  0.25824502  0.45569512  1
  Li  Li89  1  -0.22953345  -0.48777846  0.45569512  1
  Li  Li90  1  -0.22953345  0.25824502  -0.04430488  1
  Li  Li91  1  0.74175498  -0.48777846  -0.04430488  1
  Li  Li92  1  1.48777846  1.22953345  -0.04430488  1
  Li  Li93  1  0.59157835  -0.56286678  1.21097154  1
  Li  Li94  1  -0.15444513  0.40842165  1.21097154  1
  Li  Li95  1  1.56286678  1.15444513  1.21097154  1
  Li  Li96  1  1.22953345  0.74175498  1.04430488  1
  Li  Li97  1  0.25824502  1.48777846  1.04430488  1
  Li  Li98  1  -0.48777846  -0.22953345  1.04430488  1
  Li  Li99  1  0.40842165  1.56286678  0.78902846  1
  Li  Li100  1  1.15444513  0.59157835  0.78902846  1
  Li  Li101  1  -0.56286678  -0.15444513  0.78902846  1
  Li  Li102  1  -0.56286678  0.59157835  0.28902846  1
  Li  Li103  1  0.40842165  -0.15444513  0.28902846  1
  Li  Li104  1  1.15444513  1.56286678  0.28902846  1
  Li  Li105  1  0.25824502  -0.22953345  1.54430488  1
  Li  Li106  1  -0.48777846  0.74175498  1.54430488  1
  Li  Li107  1  1.22953345  1.48777846  1.54430488  1
  Li  Li108  1  0.50000000  0.00000000  -0.00000000  1
  Li  Li109  1  0.00000000  0.50000000  0.00000000  1
  Li  Li110  1  0.50000000  0.50000000  -0.00000000  1
  Li  Li111  1  0.00000000  0.50000000  0.50000000  1
  Li  Li112  1  0.50000000  0.00000000  0.50000000  1
  Li  Li113  1  0.50000000  0.50000000  0.50000000  1
  Li  Li114  1  0.16666667  0.33333333  0.33333333  1
  Li  Li115  1  0.66666667  0.83333333  0.33333333  1
  Li  Li116  1  0.16666667  0.83333333  0.33333333  1
  Li  Li117  1  0.66666667  0.83333333  0.83333333  1
  Li  Li118  1  0.16666667  0.33333333  0.83333333  1
  Li  Li119  1  0.16666667  0.83333333  0.83333333  1
  Li  Li120  1  0.83333333  0.66666667  0.66666667  1
  Li  Li121  1  0.33333333  0.16666667  0.66666667  1
  Li  Li122  1  0.83333333  0.16666667  0.66666667  1
  Li  Li123  1  0.33333333  0.16666667  0.16666667  1
  Li  Li124  1  0.83333333  0.66666667  0.16666667  1
  Li  Li125  1  0.83333333  0.16666667  0.16666667  1
  Li  Li126  1  0.00000000  0.00000000  0.00000000  1
  Li  Li127  1  0.00000000  0.00000000  0.50000000  1
  Li  Li128  1  0.66666667  0.33333333  0.33333333  1
  Li  Li129  1  0.66666667  0.33333333  0.83333333  1
  Li  Li130  1  0.33333333  0.66666667  0.66666667  1
  Li  Li131  1  0.33333333  0.66666667  0.16666667  1
