# generated using pymatgen
data_LiF
_symmetry_space_group_name_H-M   'P 1'
_cell_length_a   7.09628737
_cell_length_b   7.09628737
_cell_length_c   21.15892370
_cell_angle_alpha   90.00000000
_cell_angle_beta   90.00000000
_cell_angle_gamma   90.00000000
_symmetry_Int_Tables_number   1
_chemical_formula_structural   LiF
_chemical_formula_sum   'Li64 F64'
_cell_volume   1065.50615236
_cell_formula_units_Z   64
loop_
 _symmetry_equiv_pos_site_id
 _symmetry_equiv_pos_as_xyz
  1  'x, y, z'
loop_
 _atom_site_type_symbol
 _atom_site_label
 _atom_site_symmetry_multiplicity
 _atom_site_fract_x
 _atom_site_fract_y
 _atom_site_fract_z
 _atom_site_occupancy
  F  F0  1  0.00000000  0.25000000  0.37500000  1
  F  F1  1  0.00000000  0.75000000  0.62500000  1
  F  F2  1  0.50000000  0.25000000  0.62500000  1
  F  F3  1  0.50000000  0.75000000  0.37500000  1
  F  F4  1  0.50000000  0.75000000  0.87500000  1
  F  F5  1  0.50000000  0.25000000  0.12500000  1
  F  F6  1  0.00000000  0.75000000  0.12500000  1
  F  F7  1  0.00000000  0.25000000  0.87500000  1
  F  F8  1  0.04189249  0.24582667  0.47225249  1
  F  F9  1  0.45810751  -0.24582667  0.97225249  1
  F  F10  1  0.00417333  0.79189249  0.72225249  1
  F  F11  1  0.49582667  0.20810751  1.22225249  1
  F  F12  1  0.45810751  0.24582667  -0.47225249  1
  F  F13  1  0.04189249  -0.24582667  0.02774751  1
  F  F14  1  0.49582667  0.79189249  0.27774751  1
  F  F15  1  0.00417333  0.20810751  -0.22225249  1
  F  F16  1  -0.04189249  -0.24582667  -0.47225249  1
  F  F17  1  0.54189249  0.24582667  0.02774751  1
  F  F18  1  0.99582667  0.20810751  0.27774751  1
  F  F19  1  0.50417333  0.79189249  -0.22225249  1
  F  F20  1  0.54189249  -0.24582667  0.47225249  1
  F  F21  1  -0.04189249  0.24582667  0.97225249  1
  F  F22  1  0.50417333  0.20810751  0.72225249  1
  F  F23  1  0.99582667  0.79189249  1.22225249  1
  F  F24  1  0.54189249  0.74582667  0.97225249  1
  F  F25  1  0.95810751  0.25417333  1.47225249  1
  F  F26  1  0.50417333  1.29189249  1.22225249  1
  F  F27  1  0.99582667  0.70810751  1.72225249  1
  F  F28  1  0.95810751  0.74582667  0.02774751  1
  F  F29  1  0.54189249  0.25417333  0.52774751  1
  F  F30  1  0.99582667  1.29189249  0.77774751  1
  F  F31  1  0.50417333  0.70810751  0.27774751  1
  F  F32  1  0.45810751  0.25417333  0.02774751  1
  F  F33  1  1.04189249  0.74582667  0.52774751  1
  F  F34  1  1.49582667  0.70810751  0.77774751  1
  F  F35  1  1.00417333  1.29189249  0.27774751  1
  F  F36  1  1.04189249  0.25417333  0.97225249  1
  F  F37  1  0.45810751  0.74582667  1.47225249  1
  F  F38  1  1.00417333  0.70810751  1.22225249  1
  F  F39  1  1.49582667  1.29189249  1.72225249  1
  F  F40  1  0.00000000  0.25000000  0.12500000  1
  F  F41  1  0.00000000  0.75000000  0.37500000  1
  F  F42  1  0.00000000  0.75000000  0.87500000  1
  F  F43  1  0.00000000  0.25000000  0.62500000  1
  F  F44  1  0.50000000  0.75000000  0.62500000  1
  F  F45  1  0.50000000  0.25000000  0.87500000  1
  F  F46  1  0.50000000  0.25000000  0.37500000  1
  F  F47  1  0.50000000  0.75000000  0.12500000  1
  F  F48  1  0.00000000  0.25000000  0.74282790  1
  F  F49  1  0.00000000  0.75000000  0.99282790  1
  F  F50  1  0.50000000  0.25000000  0.25717210  1
  F  F51  1  0.50000000  0.75000000  0.00717210  1
  F  F52  1  0.00000000  0.75000000  0.25717210  1
  F  F53  1  0.00000000  0.25000000  0.00717210  1
  F  F54  1  0.50000000  0.75000000  0.74282790  1
  F  F55  1  0.50000000  0.25000000  0.99282790  1
  F  F56  1  0.50000000  0.75000000  0.24282790  1
  F  F57  1  0.50000000  0.25000000  0.49282790  1
  F  F58  1  0.00000000  0.75000000  0.75717210  1
  F  F59  1  0.00000000  0.25000000  0.50717210  1
  F  F60  1  0.50000000  0.25000000  0.75717210  1
  F  F61  1  0.50000000  0.75000000  0.50717210  1
  F  F62  1  0.00000000  0.25000000  0.24282790  1
  F  F63  1  0.00000000  0.75000000  0.49282790  1
  Li  Li64  1  0.78921913  0.00000000  0.25000000  1
  Li  Li65  1  0.71078087  0.00000000  0.75000000  1
  Li  Li66  1  0.25000000  0.53921913  0.50000000  1
  Li  Li67  1  0.25000000  0.46078087  0.00000000  1
  Li  Li68  1  0.21078087  0.00000000  0.75000000  1
  Li  Li69  1  0.28921913  0.00000000  0.25000000  1
  Li  Li70  1  0.75000000  0.46078087  0.50000000  1
  Li  Li71  1  0.75000000  0.53921913  -0.00000000  1
  Li  Li72  1  0.28921913  0.50000000  0.75000000  1
  Li  Li73  1  0.21078087  0.50000000  0.25000000  1
  Li  Li74  1  0.75000000  0.03921913  -0.00000000  1
  Li  Li75  1  0.75000000  0.96078087  0.50000000  1
  Li  Li76  1  0.71078087  0.50000000  0.25000000  1
  Li  Li77  1  0.78921913  0.50000000  0.75000000  1
  Li  Li78  1  0.25000000  0.96078087  0.00000000  1
  Li  Li79  1  0.25000000  0.03921913  0.50000000  1
  Li  Li80  1  0.55106571  0.41804738  0.15193909  1
  Li  Li81  1  0.94893429  0.58195262  0.65193909  1
  Li  Li82  1  0.83195262  0.30106571  0.40193909  1
  Li  Li83  1  0.66804738  0.69893429  0.90193909  1
  Li  Li84  1  0.94893429  0.41804738  0.84806091  1
  Li  Li85  1  0.55106571  0.58195262  0.34806091  1
  Li  Li86  1  0.66804738  0.30106571  0.59806091  1
  Li  Li87  1  0.83195262  0.69893429  0.09806091  1
  Li  Li88  1  0.44893429  0.58195262  0.84806091  1
  Li  Li89  1  0.05106571  0.41804738  0.34806091  1
  Li  Li90  1  0.16804738  0.69893429  0.59806091  1
  Li  Li91  1  0.33195262  0.30106571  0.09806091  1
  Li  Li92  1  0.05106571  0.58195262  0.15193909  1
  Li  Li93  1  0.44893429  0.41804738  0.65193909  1
  Li  Li94  1  0.33195262  0.69893429  0.40193909  1
  Li  Li95  1  0.16804738  0.30106571  0.90193909  1
  Li  Li96  1  0.05106571  0.91804738  0.65193909  1
  Li  Li97  1  0.44893429  0.08195262  0.15193909  1
  Li  Li98  1  0.33195262  0.80106571  0.90193909  1
  Li  Li99  1  0.16804738  0.19893429  0.40193909  1
  Li  Li100  1  0.44893429  0.91804738  0.34806091  1
  Li  Li101  1  0.05106571  0.08195262  0.84806091  1
  Li  Li102  1  0.16804738  0.80106571  0.09806091  1
  Li  Li103  1  0.33195262  0.19893429  0.59806091  1
  Li  Li104  1  0.94893429  0.08195262  0.34806091  1
  Li  Li105  1  0.55106571  0.91804738  0.84806091  1
  Li  Li106  1  0.66804738  0.19893429  0.09806091  1
  Li  Li107  1  0.83195262  0.80106571  0.59806091  1
  Li  Li108  1  0.55106571  0.08195262  0.65193909  1
  Li  Li109  1  0.94893429  0.91804738  0.15193909  1
  Li  Li110  1  0.83195262  0.19893429  0.90193909  1
  Li  Li111  1  0.66804738  0.80106571  0.40193909  1
  Li  Li112  1  0.00000000  0.25000000  0.58039945  1
  Li  Li113  1  0.00000000  0.75000000  0.83039945  1
  Li  Li114  1  0.50000000  0.25000000  0.41960055  1
  Li  Li115  1  0.50000000  0.75000000  0.16960055  1
  Li  Li116  1  0.00000000  0.75000000  0.41960055  1
  Li  Li117  1  0.00000000  0.25000000  0.16960055  1
  Li  Li118  1  0.50000000  0.75000000  0.58039945  1
  Li  Li119  1  0.50000000  0.25000000  0.83039945  1
  Li  Li120  1  0.50000000  0.75000000  0.08039945  1
  Li  Li121  1  0.50000000  0.25000000  0.33039945  1
  Li  Li122  1  0.00000000  0.75000000  0.91960055  1
  Li  Li123  1  0.00000000  0.25000000  0.66960055  1
  Li  Li124  1  0.50000000  0.25000000  0.91960055  1
  Li  Li125  1  0.50000000  0.75000000  0.66960055  1
  Li  Li126  1  0.00000000  0.25000000  0.08039945  1
  Li  Li127  1  0.00000000  0.75000000  0.33039945  1
