# generated using pymatgen
data_LiF
_symmetry_space_group_name_H-M   'P 1'
_cell_length_a   7.24751674
_cell_length_b   8.90169371
_cell_length_c   6.78127527
_cell_angle_alpha   90.00000000
_cell_angle_beta   90.00000000
_cell_angle_gamma   90.00000000
_symmetry_Int_Tables_number   1
_chemical_formula_structural   LiF
_chemical_formula_sum   'Li18 F18'
_cell_volume   437.49515509
_cell_formula_units_Z   18
loop_
 _symmetry_equiv_pos_site_id
 _symmetry_equiv_pos_as_xyz
  1  'x, y, z'
loop_
 _atom_site_type_symbol
 _atom_site_label
 _atom_site_symmetry_multiplicity
 _atom_site_fract_x
 _atom_site_fract_y
 _atom_site_fract_z
 _atom_site_occupancy
  F  F0  1  0.77094347  0.01757448  0.50000000  1
  F  F1  1  0.22905653  0.98242552  0.50000000  1
  F  F2  1  0.72905653  0.51757448  0.50000000  1
  F  F3  1  0.27094347  0.48242552  0.50000000  1
  F  F4  1  0.76403206  0.74912744  0.50000000  1
  F  F5  1  0.23596794  0.25087256  0.50000000  1
  F  F6  1  0.73596794  0.24912744  0.50000000  1
  F  F7  1  0.26403206  0.75087256  0.50000000  1
  F  F8  1  0.59872425  0.20461061  0.28138537  1
  F  F9  1  -0.59872425  -0.20461061  0.28138537  1
  F  F10  1  -0.09872425  0.70461061  -0.28138537  1
  F  F11  1  1.09872425  0.29538939  -0.28138537  1
  F  F12  1  -0.59872425  -0.20461061  -0.28138537  1
  F  F13  1  0.59872425  0.20461061  -0.28138537  1
  F  F14  1  1.09872425  0.29538939  0.28138537  1
  F  F15  1  -0.09872425  0.70461061  0.28138537  1
  F  F16  1  0.00000000  0.00000000  0.00000000  1
  F  F17  1  0.50000000  0.50000000  0.00000000  1
  Li  Li18  1  0.60945534  0.02928194  0.50000000  1
  Li  Li19  1  0.39054466  0.97071806  0.50000000  1
  Li  Li20  1  0.89054466  0.52928194  0.50000000  1
  Li  Li21  1  0.10945534  0.47071806  0.50000000  1
  Li  Li22  1  0.34096353  0.36990366  0.30381493  1
  Li  Li23  1  0.65903647  0.63009634  0.30381493  1
  Li  Li24  1  0.15903647  0.86990366  0.69618507  1
  Li  Li25  1  0.84096353  0.13009634  0.69618507  1
  Li  Li26  1  0.65903647  0.63009634  0.69618507  1
  Li  Li27  1  0.34096353  0.36990366  0.69618507  1
  Li  Li28  1  0.84096353  0.13009634  0.30381493  1
  Li  Li29  1  0.15903647  0.86990366  0.30381493  1
  Li  Li30  1  0.83472579  0.89909960  0.00000000  1
  Li  Li31  1  0.16527421  0.10090040  0.00000000  1
  Li  Li32  1  0.66527421  0.39909960  -0.00000000  1
  Li  Li33  1  0.33472579  0.60090040  0.00000000  1
  Li  Li34  1  0.00000000  0.50000000  0.00000000  1
  Li  Li35  1  0.50000000  -0.00000000  0.00000000  1
