# generated using pymatgen
data_LiHfSeSCl
_symmetry_space_group_name_H-M   'P 1'
_cell_length_a   8.69831810
_cell_length_b   8.69831810
_cell_length_c   19.72130496
_cell_angle_alpha   90.00000000
_cell_angle_beta   90.00000000
_cell_angle_gamma   120.00000000
_symmetry_Int_Tables_number   1
_chemical_formula_structural   LiHfSeSCl
_chemical_formula_sum   'Li12 Hf12 Se12 S12 Cl12'
_cell_volume   1292.22117331
_cell_formula_units_Z   12
loop_
 _symmetry_equiv_pos_site_id
 _symmetry_equiv_pos_as_xyz
  1  'x, y, z'
loop_
 _atom_site_type_symbol
 _atom_site_label
 _atom_site_symmetry_multiplicity
 _atom_site_fract_x
 _atom_site_fract_y
 _atom_site_fract_z
 _atom_site_occupancy
  Cl  Cl0  1  0.88818637  0.64982545  0.91722238  1
  Cl  Cl1  1  -0.64982545  0.23836092  0.91722238  1
  Cl  Cl2  1  -0.23836092  -0.88818637  0.91722238  1
  Cl  Cl3  1  0.88818637  0.64982545  -0.91722238  1
  Cl  Cl4  1  -0.64982545  0.23836092  -0.91722238  1
  Cl  Cl5  1  -0.23836092  -0.88818637  -0.91722238  1
  Cl  Cl6  1  0.64982545  0.88818637  -0.91722238  1
  Cl  Cl7  1  0.23836092  -0.64982545  -0.91722238  1
  Cl  Cl8  1  -0.88818637  -0.23836092  -0.91722238  1
  Cl  Cl9  1  0.64982545  0.88818637  0.91722238  1
  Cl  Cl10  1  0.23836092  -0.64982545  0.91722238  1
  Cl  Cl11  1  -0.88818637  -0.23836092  0.91722238  1
  Hf  Hf12  1  0.26347123  0.76722901  0.74092505  1
  Hf  Hf13  1  0.23277099  0.49624222  0.74092505  1
  Hf  Hf14  1  0.50375778  0.73652877  0.74092505  1
  Hf  Hf15  1  0.26347123  0.76722901  0.25907495  1
  Hf  Hf16  1  0.23277099  0.49624222  0.25907495  1
  Hf  Hf17  1  0.50375778  0.73652877  0.25907495  1
  Hf  Hf18  1  0.76722901  0.26347123  0.25907495  1
  Hf  Hf19  1  0.49624222  0.23277099  0.25907495  1
  Hf  Hf20  1  0.73652877  0.50375778  0.25907495  1
  Hf  Hf21  1  0.76722901  0.26347123  0.74092505  1
  Hf  Hf22  1  0.49624222  0.23277099  0.74092505  1
  Hf  Hf23  1  0.73652877  0.50375778  0.74092505  1
  Li  Li24  1  0.00000000  0.00000000  0.00000000  1
  Li  Li25  1  0.77049542  0.00000000  0.50000000  1
  Li  Li26  1  0.00000000  0.77049542  0.50000000  1
  Li  Li27  1  0.22950458  0.22950458  0.50000000  1
  Li  Li28  1  0.87363051  -0.00000000  0.12230133  1
  Li  Li29  1  0.00000000  0.87363051  0.12230133  1
  Li  Li30  1  0.12636949  0.12636949  0.12230133  1
  Li  Li31  1  0.87363051  -0.00000000  0.87769867  1
  Li  Li32  1  0.00000000  0.87363051  0.87769867  1
  Li  Li33  1  0.12636949  0.12636949  0.87769867  1
  Li  Li34  1  0.00000000  0.00000000  0.80937512  1
  Li  Li35  1  0.00000000  0.00000000  0.19062488  1
  S  S36  1  0.40661741  0.00000000  0.34850917  1
  S  S37  1  0.00000000  0.40661741  0.34850917  1
  S  S38  1  0.59338259  0.59338259  0.34850917  1
  S  S39  1  0.40661741  0.00000000  0.65149083  1
  S  S40  1  0.00000000  0.40661741  0.65149083  1
  S  S41  1  0.59338259  0.59338259  0.65149083  1
  S  S42  1  0.77948222  0.38387780  0.00000000  1
  S  S43  1  0.61612220  0.39560441  0.00000000  1
  S  S44  1  0.60439559  0.22051778  -0.00000000  1
  S  S45  1  0.38387780  0.77948222  0.00000000  1
  S  S46  1  0.39560441  0.61612220  0.00000000  1
  S  S47  1  0.22051778  0.60439559  0.00000000  1
  Se  Se48  1  0.61864265  0.00000000  0.38703616  1
  Se  Se49  1  0.00000000  0.61864265  0.38703616  1
  Se  Se50  1  0.38135735  0.38135735  0.38703616  1
  Se  Se51  1  0.61864265  0.00000000  0.61296384  1
  Se  Se52  1  0.00000000  0.61864265  0.61296384  1
  Se  Se53  1  0.38135735  0.38135735  0.61296384  1
  Se  Se54  1  0.00000000  0.00000000  0.60069692  1
  Se  Se55  1  0.00000000  0.00000000  0.39930308  1
  Se  Se56  1  0.33333333  0.66666667  0.88660167  1
  Se  Se57  1  0.33333333  0.66666667  0.11339833  1
  Se  Se58  1  0.66666667  0.33333333  0.11339833  1
  Se  Se59  1  0.66666667  0.33333333  0.88660167  1
