# generated using pymatgen
data_Li2YMoP3Se2
_symmetry_space_group_name_H-M   'P 1'
_cell_length_a   6.04776619
_cell_length_b   6.02012265
_cell_length_c   7.60455492
_cell_angle_alpha   93.52368132
_cell_angle_beta   97.67384535
_cell_angle_gamma   104.15322740
_symmetry_Int_Tables_number   1
_chemical_formula_structural   Li2YMoP3Se2
_chemical_formula_sum   'Li2 Y1 Mo1 P3 Se2'
_cell_volume   264.78128219
_cell_formula_units_Z   1
loop_
 _symmetry_equiv_pos_site_id
 _symmetry_equiv_pos_as_xyz
  1  'x, y, z'
loop_
 _atom_site_type_symbol
 _atom_site_label
 _atom_site_symmetry_multiplicity
 _atom_site_fract_x
 _atom_site_fract_y
 _atom_site_fract_z
 _atom_site_occupancy
  Se  Se0  1  0.00000000  0.00000000  0.00000000  1
  Se  Se1  1  0.50000000  0.50000000  0.50000000  1
  P  P2  1  0.25000000  0.25000000  0.25000000  1
  P  P3  1  0.75000000  0.25000000  0.00000000  1
  P  P4  1  0.25000000  0.75000000  0.50000000  1
  Mo  Mo5  1  0.04760884  0.69722005  0.25198839  1
  Li  Li6  1  0.03495021  0.04009573  0.12295305  1
  Li  Li7  1  0.89826888  0.57536557  0.24527258  1
  Y  Y8  1  0.20918601  0.32261428  0.11773809  1
