# generated using pymatgen
data_Li6TeS2
_symmetry_space_group_name_H-M   'P 1'
_cell_length_a   10.28590512
_cell_length_b   5.74804708
_cell_length_c   9.27659567
_cell_angle_alpha   90.00000000
_cell_angle_beta   90.00000000
_cell_angle_gamma   90.00000000
_symmetry_Int_Tables_number   1
_chemical_formula_structural   Li6TeS2
_chemical_formula_sum   'Li24 Te4 S8'
_cell_volume   548.46820768
_cell_formula_units_Z   4
loop_
 _symmetry_equiv_pos_site_id
 _symmetry_equiv_pos_as_xyz
  1  'x, y, z'
loop_
 _atom_site_type_symbol
 _atom_site_label
 _atom_site_symmetry_multiplicity
 _atom_site_fract_x
 _atom_site_fract_y
 _atom_site_fract_z
 _atom_site_occupancy
  Li  Li0  1  0.83630669  0.67318691  -0.00000000  1
  Li  Li1  1  0.16369331  0.32681309  -0.00000000  1
  Li  Li2  1  0.66369331  0.17318691  -0.00000000  1
  Li  Li3  1  0.33630669  0.82681309  0.00000000  1
  Li  Li4  1  0.57451669  0.61797963  0.20181974  1
  Li  Li5  1  0.42548331  0.38202037  0.20181974  1
  Li  Li6  1  0.92548331  0.11797963  0.79818026  1
  Li  Li7  1  0.07451669  0.88202037  0.79818026  1
  Li  Li8  1  0.42548331  0.38202037  0.79818026  1
  Li  Li9  1  0.57451669  0.61797963  0.79818026  1
  Li  Li10  1  0.07451669  0.88202037  0.20181974  1
  Li  Li11  1  0.92548331  0.11797963  0.20181974  1
  Li  Li12  1  0.00000000  0.50000000  0.50000000  1
  Li  Li13  1  0.50000000  0.00000000  0.50000000  1
  Li  Li14  1  0.00000000  0.00000000  0.88235817  1
  Li  Li15  1  0.50000000  0.50000000  0.11764183  1
  Li  Li16  1  0.00000000  0.00000000  0.11764183  1
  Li  Li17  1  0.50000000  0.50000000  0.88235817  1
  Li  Li18  1  0.65692488  0.53143364  0.00000000  1
  Li  Li19  1  0.34307512  0.46856636  -0.00000000  1
  Li  Li20  1  0.84307512  0.03143364  0.00000000  1
  Li  Li21  1  0.15692488  0.96856636  0.00000000  1
  Li  Li22  1  0.00000000  0.50000000  0.00000000  1
  Li  Li23  1  0.50000000  0.00000000  0.00000000  1
  S  S24  1  0.92001442  0.06440253  0.57015706  1
  S  S25  1  -0.92001442  -0.06440253  0.57015706  1
  S  S26  1  -0.42001442  0.56440253  -0.57015706  1
  S  S27  1  1.42001442  0.43559747  -0.57015706  1
  S  S28  1  -0.92001442  -0.06440253  -0.57015706  1
  S  S29  1  0.92001442  0.06440253  -0.57015706  1
  S  S30  1  1.42001442  0.43559747  0.57015706  1
  S  S31  1  -0.42001442  0.56440253  0.57015706  1
  Te  Te32  1  0.78519142  0.01343269  0.50000000  1
  Te  Te33  1  0.21480858  0.98656731  0.50000000  1
  Te  Te34  1  0.71480858  0.51343269  0.50000000  1
  Te  Te35  1  0.28519142  0.48656731  0.50000000  1
