# generated using pymatgen
data_Li2Y2P3Se
_symmetry_space_group_name_H-M   'P 1'
_cell_length_a   5.46826693
_cell_length_b   5.81949377
_cell_length_c   7.17547177
_cell_angle_alpha   93.83907665
_cell_angle_beta   97.57976022
_cell_angle_gamma   103.54019812
_symmetry_Int_Tables_number   1
_chemical_formula_structural   Li2Y2P3Se
_chemical_formula_sum   'Li2 Y2 P3 Se1'
_cell_volume   218.91852267
_cell_formula_units_Z   1
loop_
 _symmetry_equiv_pos_site_id
 _symmetry_equiv_pos_as_xyz
  1  'x, y, z'
loop_
 _atom_site_type_symbol
 _atom_site_label
 _atom_site_symmetry_multiplicity
 _atom_site_fract_x
 _atom_site_fract_y
 _atom_site_fract_z
 _atom_site_occupancy
  Se  Se0  1  0.00000000  0.00000000  0.00000000  1
  Y  Y1  1  0.33300000  0.66700000  0.25000000  1
  Y  Y2  1  0.66700000  0.33300000  0.50000000  1
  P  P3  1  0.00000000  0.00000000  0.75000000  1
  P  P4  1  0.03333035  0.26608850  0.14046882  1
  P  P5  1  0.60628024  0.48099317  0.66160646  1
  Li  Li6  1  0.30923107  0.28848587  0.84204598  1
  Li  Li7  1  0.54599057  0.90312619  0.02534128  1
