# generated using pymatgen
data_LiF
_symmetry_space_group_name_H-M   'P 1'
_cell_length_a   15.75773768
_cell_length_b   11.60078136
_cell_length_c   4.91395345
_cell_angle_alpha   90.00000000
_cell_angle_beta   90.00000000
_cell_angle_gamma   90.00000000
_symmetry_Int_Tables_number   1
_chemical_formula_structural   LiF
_chemical_formula_sum   'Li30 F30'
_cell_volume   898.28085971
_cell_formula_units_Z   30
loop_
 _symmetry_equiv_pos_site_id
 _symmetry_equiv_pos_as_xyz
  1  'x, y, z'
loop_
 _atom_site_type_symbol
 _atom_site_label
 _atom_site_symmetry_multiplicity
 _atom_site_fract_x
 _atom_site_fract_y
 _atom_site_fract_z
 _atom_site_occupancy
  F  F0  1  0.00000000  0.50000000  0.50000000  1
  F  F1  1  0.50000000  -0.00000000  0.50000000  1
  F  F2  1  0.00000000  0.00000000  0.50000000  1
  F  F3  1  0.50000000  0.50000000  0.50000000  1
  F  F4  1  0.12269649  0.22094488  0.65596080  1
  F  F5  1  0.87730351  0.77905512  0.65596080  1
  F  F6  1  0.37730351  0.72094488  0.34403920  1
  F  F7  1  0.62269649  0.27905512  0.34403920  1
  F  F8  1  0.87730351  0.77905512  0.34403920  1
  F  F9  1  0.12269649  0.22094488  0.34403920  1
  F  F10  1  0.62269649  0.27905512  0.65596080  1
  F  F11  1  0.37730351  0.72094488  0.65596080  1
  F  F12  1  0.48810184  0.09177872  0.05807534  1
  F  F13  1  0.51189816  0.90822128  0.05807534  1
  F  F14  1  0.01189816  0.59177872  0.94192466  1
  F  F15  1  0.98810184  0.40822128  0.94192466  1
  F  F16  1  0.51189816  0.90822128  0.94192466  1
  F  F17  1  0.48810184  0.09177872  0.94192466  1
  F  F18  1  0.98810184  0.40822128  0.05807534  1
  F  F19  1  0.01189816  0.59177872  0.05807534  1
  F  F20  1  0.71606044  0.71648710  0.09525225  1
  F  F21  1  0.28393956  0.28351290  0.09525225  1
  F  F22  1  0.78393956  0.21648710  0.90474775  1
  F  F23  1  0.21606044  0.78351290  0.90474775  1
  F  F24  1  0.28393956  0.28351290  0.90474775  1
  F  F25  1  0.71606044  0.71648710  0.90474775  1
  F  F26  1  0.21606044  0.78351290  0.09525225  1
  F  F27  1  0.78393956  0.21648710  0.09525225  1
  F  F28  1  0.00000000  0.00000000  0.00000000  1
  F  F29  1  0.50000000  0.50000000  -0.00000000  1
  Li  Li30  1  0.31798001  0.98337015  0.72589342  1
  Li  Li31  1  -0.31798001  -0.98337015  0.72589342  1
  Li  Li32  1  0.18201999  1.48337015  -0.72589342  1
  Li  Li33  1  0.81798001  -0.48337015  -0.72589342  1
  Li  Li34  1  -0.31798001  -0.98337015  -0.72589342  1
  Li  Li35  1  0.31798001  0.98337015  -0.72589342  1
  Li  Li36  1  0.81798001  -0.48337015  0.72589342  1
  Li  Li37  1  0.18201999  1.48337015  0.72589342  1
  Li  Li38  1  0.07140945  0.68399282  0.00000000  1
  Li  Li39  1  0.92859055  0.31600718  0.00000000  1
  Li  Li40  1  0.42859055  0.18399282  0.00000000  1
  Li  Li41  1  0.57140945  0.81600718  0.00000000  1
  Li  Li42  1  0.03322059  0.62967761  0.25523459  1
  Li  Li43  1  0.96677941  0.37032239  0.25523459  1
  Li  Li44  1  0.46677941  0.12967761  0.74476541  1
  Li  Li45  1  0.53322059  0.87032239  0.74476541  1
  Li  Li46  1  0.96677941  0.37032239  0.74476541  1
  Li  Li47  1  0.03322059  0.62967761  0.74476541  1
  Li  Li48  1  0.53322059  0.87032239  0.25523459  1
  Li  Li49  1  0.46677941  0.12967761  0.25523459  1
  Li  Li50  1  0.32906092  0.23626399  0.26699601  1
  Li  Li51  1  0.67093908  0.76373601  0.26699601  1
  Li  Li52  1  0.17093908  0.73626399  0.73300399  1
  Li  Li53  1  0.82906092  0.26373601  0.73300399  1
  Li  Li54  1  0.67093908  0.76373601  0.73300399  1
  Li  Li55  1  0.32906092  0.23626399  0.73300399  1
  Li  Li56  1  0.82906092  0.26373601  0.26699601  1
  Li  Li57  1  0.17093908  0.73626399  0.26699601  1
  Li  Li58  1  0.00000000  0.50000000  0.00000000  1
  Li  Li59  1  0.50000000  -0.00000000  0.00000000  1
