# generated using pymatgen
data_Li5Ti3Al(P2O)2
_symmetry_space_group_name_H-M   'P 1'
_cell_length_a   6.16901180
_cell_length_b   6.55919671
_cell_length_c   7.59588030
_cell_angle_alpha   97.13121633
_cell_angle_beta   95.83872375
_cell_angle_gamma   92.25331901
_symmetry_Int_Tables_number   1
_chemical_formula_structural   Li5Ti3Al(P2O)2
_chemical_formula_sum   'Li5 Ti3 Al1 P4 O2'
_cell_volume   302.97773003
_cell_formula_units_Z   1
loop_
 _symmetry_equiv_pos_site_id
 _symmetry_equiv_pos_as_xyz
  1  'x, y, z'
loop_
 _atom_site_type_symbol
 _atom_site_label
 _atom_site_symmetry_multiplicity
 _atom_site_fract_x
 _atom_site_fract_y
 _atom_site_fract_z
 _atom_site_occupancy
  Al  Al0  1  0.12500000  0.00000000  0.25000000  1
  P  P1  1  0.00000000  0.00000000  0.00000000  1
  P  P2  1  0.37500000  0.00000000  0.25000000  1
  P  P3  1  0.25000000  0.25000000  0.25000000  1
  P  P4  1  0.00000000  0.25000000  0.12500000  1
  Ti  Ti5  1  0.27450768  0.18490729  0.26997693  1
  Ti  Ti6  1  0.70543002  0.73840938  0.78479559  1
  Ti  Ti7  1  0.20717491  0.09616677  0.78979446  1
  O  O8  1  0.56306176  0.51701346  0.55898063  1
  O  O9  1  0.93121347  0.71339494  0.17409921  1
  Li  Li10  1  0.18515803  0.36631929  0.23416413  1
  Li  Li11  1  0.27609741  0.21281694  0.86499879  1
  Li  Li12  1  0.92580800  0.71933290  0.55836595  1
  Li  Li13  1  0.17684769  0.87083710  0.32726476  1
  Li  Li14  1  0.94862144  0.05998805  0.78963117  1
