# generated using pymatgen
data_LiF
_symmetry_space_group_name_H-M   'P 1'
_cell_length_a   9.34299464
_cell_length_b   9.34299464
_cell_length_c   7.79058812
_cell_angle_alpha   90.00000000
_cell_angle_beta   90.00000000
_cell_angle_gamma   120.00000000
_symmetry_Int_Tables_number   1
_chemical_formula_structural   LiF
_chemical_formula_sum   'Li39 F39'
_cell_volume   588.94274458
_cell_formula_units_Z   39
loop_
 _symmetry_equiv_pos_site_id
 _symmetry_equiv_pos_as_xyz
  1  'x, y, z'
loop_
 _atom_site_type_symbol
 _atom_site_label
 _atom_site_symmetry_multiplicity
 _atom_site_fract_x
 _atom_site_fract_y
 _atom_site_fract_z
 _atom_site_occupancy
  F  F0  1  0.09467758  0.28925018  0.46554749  1
  F  F1  1  0.71074982  0.80542740  0.46554749  1
  F  F2  1  0.19457260  0.90532242  0.46554749  1
  F  F3  1  0.71074982  0.90532242  0.53445251  1
  F  F4  1  0.19457260  0.28925018  0.53445251  1
  F  F5  1  0.09467758  0.80542740  0.53445251  1
  F  F6  1  0.00000000  0.00000000  0.14859509  1
  F  F7  1  0.00000000  0.00000000  0.85140491  1
  F  F8  1  0.52740834  0.89102061  0.09189507  1
  F  F9  1  0.10897939  0.63638773  0.09189507  1
  F  F10  1  0.36361227  0.47259166  0.09189507  1
  F  F11  1  0.10897939  0.47259166  0.90810493  1
  F  F12  1  0.36361227  0.89102061  0.90810493  1
  F  F13  1  0.52740834  0.63638773  0.90810493  1
  F  F14  1  0.39942664  0.64222795  0.84763001  1
  F  F15  1  0.35777205  0.75719870  0.84763001  1
  F  F16  1  0.24280130  0.60057336  0.84763001  1
  F  F17  1  0.35777205  0.60057336  0.15236999  1
  F  F18  1  0.24280130  0.64222795  0.15236999  1
  F  F19  1  0.39942664  0.75719870  0.15236999  1
  F  F20  1  0.66666667  0.33333333  0.50000000  1
  F  F21  1  0.66666667  0.33333333  0.00000000  1
  F  F22  1  0.92758927  0.07241073  0.50000000  1
  F  F23  1  0.92758927  0.85517855  0.50000000  1
  F  F24  1  0.14482145  0.07241073  0.50000000  1
  F  F25  1  0.00656217  0.63657384  0.19404621  1
  F  F26  1  0.36342616  0.36998833  0.19404621  1
  F  F27  1  0.63001167  0.99343783  0.19404621  1
  F  F28  1  0.36342616  0.99343783  0.80595379  1
  F  F29  1  0.63001167  0.63657384  0.80595379  1
  F  F30  1  0.00656217  0.36998833  0.80595379  1
  F  F31  1  0.21212523  0.78787477  0.00000000  1
  F  F32  1  0.21212523  0.42425046  0.00000000  1
  F  F33  1  0.57574954  0.78787477  -0.00000000  1
  F  F34  1  0.40870158  0.59129842  0.50000000  1
  F  F35  1  0.40870158  0.81740315  0.50000000  1
  F  F36  1  0.18259685  0.59129842  0.50000000  1
  F  F37  1  0.00000000  0.00000000  0.92854201  1
  F  F38  1  0.00000000  0.00000000  0.07145799  1
  Li  Li39  1  0.00000000  0.00000000  0.69146478  1
  Li  Li40  1  0.00000000  0.00000000  0.30853522  1
  Li  Li41  1  0.33333333  0.66666667  0.50000000  1
  Li  Li42  1  0.91950303  0.55023965  0.73268382  1
  Li  Li43  1  -0.55023965  0.36926338  0.73268382  1
  Li  Li44  1  -0.36926338  -0.91950303  0.73268382  1
  Li  Li45  1  -0.55023965  -0.91950303  -0.73268382  1
  Li  Li46  1  -0.36926338  0.55023965  -0.73268382  1
  Li  Li47  1  0.91950303  0.36926338  -0.73268382  1
  Li  Li48  1  0.47819106  0.96514162  0.79032085  1
  Li  Li49  1  0.03485838  0.51304944  0.79032085  1
  Li  Li50  1  0.48695056  0.52180894  0.79032085  1
  Li  Li51  1  0.03485838  0.52180894  0.20967915  1
  Li  Li52  1  0.48695056  0.96514162  0.20967915  1
  Li  Li53  1  0.47819106  0.51304944  0.20967915  1
  Li  Li54  1  0.56257982  0.43742018  0.00000000  1
  Li  Li55  1  0.56257982  0.12515964  0.00000000  1
  Li  Li56  1  0.87484036  0.43742018  0.00000000  1
  Li  Li57  1  0.64340910  0.72798270  0.07364493  1
  Li  Li58  1  0.27201730  0.91542640  0.07364493  1
  Li  Li59  1  0.08457360  0.35659090  0.07364493  1
  Li  Li60  1  0.27201730  0.35659090  0.92635507  1
  Li  Li61  1  0.08457360  0.72798270  0.92635507  1
  Li  Li62  1  0.64340910  0.91542640  0.92635507  1
  Li  Li63  1  0.21788285  0.75103230  0.67759469  1
  Li  Li64  1  0.24896770  0.46685055  0.67759469  1
  Li  Li65  1  0.53314945  0.78211715  0.67759469  1
  Li  Li66  1  0.24896770  0.78211715  0.32240531  1
  Li  Li67  1  0.53314945  0.75103230  0.32240531  1
  Li  Li68  1  0.21788285  0.46685055  0.32240531  1
  Li  Li69  1  0.33333333  0.66666667  0.75901478  1
  Li  Li70  1  0.33333333  0.66666667  0.24098522  1
  Li  Li71  1  0.87779245  0.39209216  0.61084298  1
  Li  Li72  1  0.60790784  0.48570029  0.61084298  1
  Li  Li73  1  0.51429971  0.12220755  0.61084298  1
  Li  Li74  1  0.60790784  0.12220755  0.38915702  1
  Li  Li75  1  0.51429971  0.39209216  0.38915702  1
  Li  Li76  1  0.87779245  0.48570029  0.38915702  1
  Li  Li77  1  0.33333333  0.66666667  -0.00000000  1
