# generated using pymatgen
data_LiYAsP2Se
_symmetry_space_group_name_H-M   'P 1'
_cell_length_a   4.04657285
_cell_length_b   4.28899123
_cell_length_c   6.25047477
_cell_angle_alpha   96.29137465
_cell_angle_beta   101.31405285
_cell_angle_gamma   110.74849279
_symmetry_Int_Tables_number   1
_chemical_formula_structural   LiYAsP2Se
_chemical_formula_sum   'Li1 Y1 As1 P2 Se1'
_cell_volume   97.55882645
_cell_formula_units_Z   1
loop_
 _symmetry_equiv_pos_site_id
 _symmetry_equiv_pos_as_xyz
  1  'x, y, z'
loop_
 _atom_site_type_symbol
 _atom_site_label
 _atom_site_symmetry_multiplicity
 _atom_site_fract_x
 _atom_site_fract_y
 _atom_site_fract_z
 _atom_site_occupancy
  Se  Se0  1  0.00000000  0.00000000  0.00000000  1
  Y  Y1  1  0.50000000  0.50000000  0.50000000  1
  P  P2  1  0.50000000  0.50000000  0.00000000  1
  P  P3  1  0.50000000  0.00000000  0.50000000  1
  As  As4  1  0.00000000  0.50000000  0.50000000  1
  Li  Li5  1  0.15887102  0.85712094  0.62214217  1
