# generated using pymatgen
data_Li2LaTiO
_symmetry_space_group_name_H-M   'P 1'
_cell_length_a   3.74149121
_cell_length_b   4.05824369
_cell_length_c   5.82908780
_cell_angle_alpha   102.01806812
_cell_angle_beta   105.15913246
_cell_angle_gamma   105.98596806
_symmetry_Int_Tables_number   1
_chemical_formula_structural   Li2LaTiO
_chemical_formula_sum   'Li4 La2 Ti2 O2'
_cell_volume   78.28970048
_cell_formula_units_Z   2
loop_
 _symmetry_equiv_pos_site_id
 _symmetry_equiv_pos_as_xyz
  1  'x, y, z'
loop_
 _atom_site_type_symbol
 _atom_site_label
 _atom_site_symmetry_multiplicity
 _atom_site_fract_x
 _atom_site_fract_y
 _atom_site_fract_z
 _atom_site_occupancy
  Ti  Ti0  1  0.00000000  0.00000000  0.00000000  1
  Ti  Ti1  1  0.50000000  0.50000000  0.50000000  1
  La  La2  1  0.25000000  0.25000000  0.25000000  1
  La  La3  1  0.75000000  0.25000000  0.00000000  1
  O  O4  1  0.25000000  0.75000000  0.50000000  1
  O  O5  1  0.69721392  0.98029890  0.44341072  1
  Li  Li6  1  0.01446781  0.03800586  0.97181955  1
  Li  Li7  1  0.36513755  0.77831157  0.97062550  1
  Li  Li8  1  0.54824573  0.67336491  0.56207989  1
  Li  Li9  1  0.72949049  0.82217715  0.69518782  1
