# generated using pymatgen
data_LiTi2As4P2O
_symmetry_space_group_name_H-M   'P 1'
_cell_length_a   6.78142512
_cell_length_b   6.59347847
_cell_length_c   7.02953769
_cell_angle_alpha   92.77780976
_cell_angle_beta   90.08033835
_cell_angle_gamma   100.32293670
_symmetry_Int_Tables_number   1
_chemical_formula_structural   LiTi2As4P2O
_chemical_formula_sum   'Li1 Ti2 As4 P2 O1'
_cell_volume   308.84570637
_cell_formula_units_Z   1
loop_
 _symmetry_equiv_pos_site_id
 _symmetry_equiv_pos_as_xyz
  1  'x, y, z'
loop_
 _atom_site_type_symbol
 _atom_site_label
 _atom_site_symmetry_multiplicity
 _atom_site_fract_x
 _atom_site_fract_y
 _atom_site_fract_z
 _atom_site_occupancy
  P  P0  1  0.00000000  0.00000000  0.00000000  1
  P  P1  1  0.50000000  0.50000000  0.50000000  1
  Ti  Ti2  1  0.25000000  0.25000000  0.25000000  1
  Ti  Ti3  1  0.75000000  0.25000000  0.00000000  1
  O  O4  1  0.25000000  0.75000000  0.50000000  1
  Li  Li5  1  0.26031883  0.36724014  0.12620103  1
  As  As6  1  0.40961904  0.02079162  0.17423911  1
  As  As7  1  0.86811025  0.00925267  0.74525235  1
  As  As8  1  0.45600476  0.51286697  0.92444880  1
  As  As9  1  0.16481324  0.63179534  0.39328319  1
