# generated using pymatgen
data_LiF
_symmetry_space_group_name_H-M   'P 1'
_cell_length_a   8.71830922
_cell_length_b   8.71830922
_cell_length_c   16.83019022
_cell_angle_alpha   90.00000000
_cell_angle_beta   90.00000000
_cell_angle_gamma   120.00000000
_symmetry_Int_Tables_number   1
_chemical_formula_structural   LiF
_chemical_formula_sum   'Li36 F36'
_cell_volume   1107.85824250
_cell_formula_units_Z   36
loop_
 _symmetry_equiv_pos_site_id
 _symmetry_equiv_pos_as_xyz
  1  'x, y, z'
loop_
 _atom_site_type_symbol
 _atom_site_label
 _atom_site_symmetry_multiplicity
 _atom_site_fract_x
 _atom_site_fract_y
 _atom_site_fract_z
 _atom_site_occupancy
  F  F0  1  0.61956674  0.87792844  0.59802624  1
  F  F1  1  -0.87792844  -0.25836170  0.59802624  1
  F  F2  1  0.25836170  -0.61956674  0.59802624  1
  F  F3  1  -0.61956674  -0.87792844  1.09802624  1
  F  F4  1  0.87792844  0.25836170  1.09802624  1
  F  F5  1  -0.25836170  0.61956674  1.09802624  1
  F  F6  1  -0.61956674  -0.87792844  -0.59802624  1
  F  F7  1  0.87792844  0.25836170  -0.59802624  1
  F  F8  1  -0.25836170  0.61956674  -0.59802624  1
  F  F9  1  0.61956674  0.87792844  -0.09802624  1
  F  F10  1  -0.87792844  -0.25836170  -0.09802624  1
  F  F11  1  0.25836170  -0.61956674  -0.09802624  1
  F  F12  1  0.51698843  0.92887259  0.45530618  1
  F  F13  1  0.07112741  0.58811584  0.45530618  1
  F  F14  1  0.41188416  0.48301157  0.45530618  1
  F  F15  1  0.48301157  0.07112741  0.95530618  1
  F  F16  1  0.92887259  0.41188416  0.95530618  1
  F  F17  1  0.58811584  0.51698843  0.95530618  1
  F  F18  1  0.48301157  0.07112741  0.54469382  1
  F  F19  1  0.92887259  0.41188416  0.54469382  1
  F  F20  1  0.58811584  0.51698843  0.54469382  1
  F  F21  1  0.51698843  0.92887259  0.04469382  1
  F  F22  1  0.07112741  0.58811584  0.04469382  1
  F  F23  1  0.41188416  0.48301157  0.04469382  1
  F  F24  1  0.23621815  0.89404911  0.50686774  1
  F  F25  1  0.10595089  0.34216904  0.50686774  1
  F  F26  1  0.65783096  0.76378185  0.50686774  1
  F  F27  1  0.76378185  0.10595089  0.00686774  1
  F  F28  1  0.89404911  0.65783096  0.00686774  1
  F  F29  1  0.34216904  0.23621815  0.00686774  1
  F  F30  1  0.76378185  0.10595089  0.49313226  1
  F  F31  1  0.89404911  0.65783096  0.49313226  1
  F  F32  1  0.34216904  0.23621815  0.49313226  1
  F  F33  1  0.23621815  0.89404911  0.99313226  1
  F  F34  1  0.10595089  0.34216904  0.99313226  1
  F  F35  1  0.65783096  0.76378185  0.99313226  1
  Li  Li36  1  0.59050412  0.67397234  0.25000000  1
  Li  Li37  1  0.32602766  0.91653178  0.25000000  1
  Li  Li38  1  0.08346822  0.40949588  0.25000000  1
  Li  Li39  1  0.40949588  0.32602766  0.75000000  1
  Li  Li40  1  0.67397234  0.08346822  0.75000000  1
  Li  Li41  1  0.91653178  0.59050412  0.75000000  1
  Li  Li42  1  0.21223894  0.80194692  0.08404435  1
  Li  Li43  1  0.19805308  0.41029202  0.08404435  1
  Li  Li44  1  0.58970798  0.78776106  0.08404435  1
  Li  Li45  1  0.78776106  0.19805308  0.58404435  1
  Li  Li46  1  0.80194692  0.58970798  0.58404435  1
  Li  Li47  1  0.41029202  0.21223894  0.58404435  1
  Li  Li48  1  0.78776106  0.19805308  0.91595565  1
  Li  Li49  1  0.80194692  0.58970798  0.91595565  1
  Li  Li50  1  0.41029202  0.21223894  0.91595565  1
  Li  Li51  1  0.21223894  0.80194692  0.41595565  1
  Li  Li52  1  0.19805308  0.41029202  0.41595565  1
  Li  Li53  1  0.58970798  0.78776106  0.41595565  1
  Li  Li54  1  0.00000000  0.00000000  0.25000000  1
  Li  Li55  1  0.00000000  0.00000000  0.75000000  1
  Li  Li56  1  0.66666667  0.33333333  0.25000000  1
  Li  Li57  1  0.33333333  0.66666667  0.75000000  1
  Li  Li58  1  0.17338897  0.96831846  0.32969884  1
  Li  Li59  1  0.03168154  0.20507051  0.32969884  1
  Li  Li60  1  0.79492949  0.82661103  0.32969884  1
  Li  Li61  1  0.82661103  0.03168154  0.82969884  1
  Li  Li62  1  0.96831846  0.79492949  0.82969884  1
  Li  Li63  1  0.20507051  0.17338897  0.82969884  1
  Li  Li64  1  0.82661103  0.03168154  0.67030116  1
  Li  Li65  1  0.96831846  0.79492949  0.67030116  1
  Li  Li66  1  0.20507051  0.17338897  0.67030116  1
  Li  Li67  1  0.17338897  0.96831846  0.17030116  1
  Li  Li68  1  0.03168154  0.20507051  0.17030116  1
  Li  Li69  1  0.79492949  0.82661103  0.17030116  1
  Li  Li70  1  0.00000000  0.00000000  0.00000000  1
  Li  Li71  1  0.00000000  0.00000000  0.50000000  1
