# generated using pymatgen
data_LiF
_symmetry_space_group_name_H-M   'P 1'
_cell_length_a   6.77796412
_cell_length_b   6.77796412
_cell_length_c   13.27322004
_cell_angle_alpha   90.00000000
_cell_angle_beta   90.00000000
_cell_angle_gamma   120.00000000
_symmetry_Int_Tables_number   1
_chemical_formula_structural   LiF
_chemical_formula_sum   'Li15 F15'
_cell_volume   528.08697636
_cell_formula_units_Z   15
loop_
 _symmetry_equiv_pos_site_id
 _symmetry_equiv_pos_as_xyz
  1  'x, y, z'
loop_
 _atom_site_type_symbol
 _atom_site_label
 _atom_site_symmetry_multiplicity
 _atom_site_fract_x
 _atom_site_fract_y
 _atom_site_fract_z
 _atom_site_occupancy
  F  F0  1  0.66666667  0.33333333  0.36273316  1
  F  F1  1  0.66666667  0.33333333  0.63726684  1
  F  F2  1  0.33333333  0.66666667  0.21189761  1
  F  F3  1  0.33333333  0.66666667  0.78810239  1
  F  F4  1  0.88440504  0.94367997  0.81104213  1
  F  F5  1  0.05632003  0.94072507  0.81104213  1
  F  F6  1  0.05927493  0.11559496  0.81104213  1
  F  F7  1  0.05632003  0.11559496  0.18895787  1
  F  F8  1  0.05927493  0.94367997  0.18895787  1
  F  F9  1  0.88440504  0.94072507  0.18895787  1
  F  F10  1  0.00000000  0.00000000  0.00000000  1
  F  F11  1  0.00000000  0.00000000  0.50000000  1
  F  F12  1  0.22826018  0.77173982  0.00000000  1
  F  F13  1  0.22826018  0.45652036  0.00000000  1
  F  F14  1  0.54347964  0.77173982  0.00000000  1
  Li  Li15  1  0.66666667  0.33333333  0.09627535  1
  Li  Li16  1  0.66666667  0.33333333  0.90372465  1
  Li  Li17  1  0.09200624  0.79325301  0.74189482  1
  Li  Li18  1  -0.79325301  -0.70124676  0.74189482  1
  Li  Li19  1  0.70124676  -0.09200624  0.74189482  1
  Li  Li20  1  -0.79325301  -0.09200624  -0.74189482  1
  Li  Li21  1  0.70124676  0.79325301  -0.74189482  1
  Li  Li22  1  0.09200624  -0.70124676  -0.74189482  1
  Li  Li23  1  0.91663372  0.84132055  0.88296635  1
  Li  Li24  1  0.15867945  0.07531317  0.88296635  1
  Li  Li25  1  0.92468683  0.08336628  0.88296635  1
  Li  Li26  1  0.15867945  0.08336628  0.11703365  1
  Li  Li27  1  0.92468683  0.84132055  0.11703365  1
  Li  Li28  1  0.91663372  0.07531317  0.11703365  1
  Li  Li29  1  0.66666667  0.33333333  0.50000000  1
