# generated using pymatgen
data_Li4AlSb2P2F6
_symmetry_space_group_name_H-M   'P 1'
_cell_length_a   7.59744359
_cell_length_b   7.19731363
_cell_length_c   7.86956836
_cell_angle_alpha   90.00000000
_cell_angle_beta   90.00000000
_cell_angle_gamma   90.00000000
_symmetry_Int_Tables_number   1
_chemical_formula_structural   Li4AlSb2P2F6
_chemical_formula_sum   'Li4 Al1 Sb2 P2 F6'
_cell_volume   430.31731798
_cell_formula_units_Z   1
loop_
 _symmetry_equiv_pos_site_id
 _symmetry_equiv_pos_as_xyz
  1  'x, y, z'
loop_
 _atom_site_type_symbol
 _atom_site_label
 _atom_site_symmetry_multiplicity
 _atom_site_fract_x
 _atom_site_fract_y
 _atom_site_fract_z
 _atom_site_occupancy
  Al  Al0  1  0.00000000  0.00000000  0.00000000  1
  F  F1  1  0.50000000  0.50000000  0.50000000  1
  F  F2  1  0.25000000  0.25000000  0.25000000  1
  F  F3  1  0.75000000  0.25000000  0.00000000  1
  F  F4  1  0.25000000  0.75000000  0.50000000  1
  F  F5  1  0.71394693  0.84654100  0.67359006  1
  F  F6  1  0.99615883  0.61942468  0.89032250  1
  P  P7  1  0.99089949  0.49575435  0.26989868  1
  P  P8  1  0.01609013  0.45845793  0.81945746  1
  Li  Li9  1  0.44317324  0.65382034  0.40542937  1
  Li  Li10  1  0.38011223  0.42835728  0.87893149  1
  Li  Li11  1  0.70798738  0.83789260  0.28244176  1
  Li  Li12  1  0.15408087  0.31850734  0.72200300  1
  Sb  Sb13  1  0.32462067  0.30076433  0.14566753  1
  Sb  Sb14  1  0.80222986  0.33050171  0.13738242  1
