# generated using pymatgen
data_Li2YAs(P2Pb)2
_symmetry_space_group_name_H-M   'P 1'
_cell_length_a   5.09872802
_cell_length_b   5.20714907
_cell_length_c   7.29713978
_cell_angle_alpha   95.75545419
_cell_angle_beta   101.79288513
_cell_angle_gamma   109.51490612
_symmetry_Int_Tables_number   1
_chemical_formula_structural   Li2YAs(P2Pb)2
_chemical_formula_sum   'Li2 Y1 As1 P4 Pb2'
_cell_volume   175.74605834
_cell_formula_units_Z   1
loop_
 _symmetry_equiv_pos_site_id
 _symmetry_equiv_pos_as_xyz
  1  'x, y, z'
loop_
 _atom_site_type_symbol
 _atom_site_label
 _atom_site_symmetry_multiplicity
 _atom_site_fract_x
 _atom_site_fract_y
 _atom_site_fract_z
 _atom_site_occupancy
  P  P0  1  0.12500000  0.00000000  0.25000000  1
  P  P1  1  0.00000000  0.00000000  0.00000000  1
  P  P2  1  0.37500000  0.00000000  0.25000000  1
  P  P3  1  0.25000000  0.25000000  0.25000000  1
  Pb  Pb4  1  0.00000000  0.25000000  0.12500000  1
  Pb  Pb5  1  0.47056278  0.34355470  0.39586012  1
  As  As6  1  0.41973644  0.57499915  0.83790183  1
  Li  Li7  1  0.62607499  0.89079431  0.00196091  1
  Li  Li8  1  0.18374901  0.78098871  0.87387096  1
  Y  Y9  1  0.16493286  0.14109475  0.95888203  1
