# generated using pymatgen
data_LiF
_symmetry_space_group_name_H-M   'P 1'
_cell_length_a   10.71736872
_cell_length_b   10.71736872
_cell_length_c   10.71736872
_cell_angle_alpha   90.00000000
_cell_angle_beta   90.00000000
_cell_angle_gamma   90.00000000
_symmetry_Int_Tables_number   1
_chemical_formula_structural   LiF
_chemical_formula_sum   'Li48 F48'
_cell_volume   1231.01832223
_cell_formula_units_Z   48
loop_
 _symmetry_equiv_pos_site_id
 _symmetry_equiv_pos_as_xyz
  1  'x, y, z'
loop_
 _atom_site_type_symbol
 _atom_site_label
 _atom_site_symmetry_multiplicity
 _atom_site_fract_x
 _atom_site_fract_y
 _atom_site_fract_z
 _atom_site_occupancy
  F  F0  1  0.91472634  0.58042436  0.06356689  1
  F  F1  1  0.58527366  0.41957564  0.56356689  1
  F  F2  1  0.08527366  0.08042436  0.43643311  1
  F  F3  1  0.41472634  0.91957564  0.93643311  1
  F  F4  1  0.06356689  0.91472634  0.58042436  1
  F  F5  1  0.56356689  0.58527366  0.41957564  1
  F  F6  1  0.43643311  0.08527366  0.08042436  1
  F  F7  1  0.93643311  0.41472634  0.91957564  1
  F  F8  1  0.58042436  0.06356689  0.91472634  1
  F  F9  1  0.41957564  0.56356689  0.58527366  1
  F  F10  1  0.08042436  0.43643311  0.08527366  1
  F  F11  1  0.91957564  0.93643311  0.41472634  1
  F  F12  1  0.33042436  0.16472634  0.18643311  1
  F  F13  1  0.16957564  0.83527366  0.68643311  1
  F  F14  1  0.83042436  0.33527366  0.81356689  1
  F  F15  1  0.66957564  0.66472634  0.31356689  1
  F  F16  1  0.66472634  0.31356689  0.66957564  1
  F  F17  1  0.33527366  0.81356689  0.83042436  1
  F  F18  1  0.83527366  0.68643311  0.16957564  1
  F  F19  1  0.16472634  0.18643311  0.33042436  1
  F  F20  1  0.81356689  0.83042436  0.33527366  1
  F  F21  1  0.31356689  0.66957564  0.66472634  1
  F  F22  1  0.18643311  0.33042436  0.16472634  1
  F  F23  1  0.68643311  0.16957564  0.83527366  1
  F  F24  1  0.41472634  0.08042436  0.56356689  1
  F  F25  1  0.08527366  0.91957564  0.06356689  1
  F  F26  1  0.58527366  0.58042436  0.93643311  1
  F  F27  1  0.91472634  0.41957564  0.43643311  1
  F  F28  1  0.56356689  0.41472634  0.08042436  1
  F  F29  1  0.06356689  0.08527366  0.91957564  1
  F  F30  1  0.93643311  0.58527366  0.58042436  1
  F  F31  1  0.43643311  0.91472634  0.41957564  1
  F  F32  1  0.08042436  0.56356689  0.41472634  1
  F  F33  1  0.91957564  0.06356689  0.08527366  1
  F  F34  1  0.58042436  0.93643311  0.58527366  1
  F  F35  1  0.41957564  0.43643311  0.91472634  1
  F  F36  1  0.83042436  0.66472634  0.68643311  1
  F  F37  1  0.66957564  0.33527366  0.18643311  1
  F  F38  1  0.33042436  0.83527366  0.31356689  1
  F  F39  1  0.16957564  0.16472634  0.81356689  1
  F  F40  1  0.16472634  0.81356689  0.16957564  1
  F  F41  1  0.83527366  0.31356689  0.33042436  1
  F  F42  1  0.33527366  0.18643311  0.66957564  1
  F  F43  1  0.66472634  0.68643311  0.83042436  1
  F  F44  1  0.31356689  0.33042436  0.83527366  1
  F  F45  1  0.81356689  0.16957564  0.16472634  1
  F  F46  1  0.68643311  0.83042436  0.66472634  1
  F  F47  1  0.18643311  0.66957564  0.33527366  1
  Li  Li48  1  0.20895389  0.10587563  0.23780370  1
  Li  Li49  1  0.29104611  -0.10587563  0.73780370  1
  Li  Li50  1  -0.20895389  0.60587563  0.26219630  1
  Li  Li51  1  0.70895389  0.39412437  -0.23780370  1
  Li  Li52  1  0.23780370  0.20895389  0.10587563  1
  Li  Li53  1  0.73780370  0.29104611  -0.10587563  1
  Li  Li54  1  0.26219630  -0.20895389  0.60587563  1
  Li  Li55  1  -0.23780370  0.70895389  0.39412437  1
  Li  Li56  1  0.10587563  0.23780370  0.20895389  1
  Li  Li57  1  -0.10587563  0.73780370  0.29104611  1
  Li  Li58  1  0.60587563  0.26219630  -0.20895389  1
  Li  Li59  1  0.39412437  -0.23780370  0.70895389  1
  Li  Li60  1  0.85587563  0.45895389  0.01219630  1
  Li  Li61  1  0.64412437  0.54104611  0.51219630  1
  Li  Li62  1  0.35587563  0.04104611  0.98780370  1
  Li  Li63  1  0.14412437  0.95895389  0.48780370  1
  Li  Li64  1  0.95895389  0.48780370  0.14412437  1
  Li  Li65  1  0.04104611  0.98780370  0.35587563  1
  Li  Li66  1  0.54104611  0.51219630  0.64412437  1
  Li  Li67  1  0.45895389  0.01219630  0.85587563  1
  Li  Li68  1  0.98780370  0.35587563  0.04104611  1
  Li  Li69  1  0.48780370  0.14412437  0.95895389  1
  Li  Li70  1  0.01219630  0.85587563  0.45895389  1
  Li  Li71  1  0.51219630  0.64412437  0.54104611  1
  Li  Li72  1  0.70895389  0.60587563  0.73780370  1
  Li  Li73  1  0.79104611  0.39412437  1.23780370  1
  Li  Li74  1  0.29104611  1.10587563  0.76219630  1
  Li  Li75  1  1.20895389  0.89412437  0.26219630  1
  Li  Li76  1  0.73780370  0.70895389  0.60587563  1
  Li  Li77  1  1.23780370  0.79104611  0.39412437  1
  Li  Li78  1  0.76219630  0.29104611  1.10587563  1
  Li  Li79  1  0.26219630  1.20895389  0.89412437  1
  Li  Li80  1  0.60587563  0.73780370  0.70895389  1
  Li  Li81  1  0.39412437  1.23780370  0.79104611  1
  Li  Li82  1  1.10587563  0.76219630  0.29104611  1
  Li  Li83  1  0.89412437  0.26219630  1.20895389  1
  Li  Li84  1  1.35587563  0.95895389  0.51219630  1
  Li  Li85  1  1.14412437  1.04104611  1.01219630  1
  Li  Li86  1  0.85587563  0.54104611  1.48780370  1
  Li  Li87  1  0.64412437  1.45895389  0.98780370  1
  Li  Li88  1  1.45895389  0.98780370  0.64412437  1
  Li  Li89  1  0.54104611  1.48780370  0.85587563  1
  Li  Li90  1  1.04104611  1.01219630  1.14412437  1
  Li  Li91  1  0.95895389  0.51219630  1.35587563  1
  Li  Li92  1  1.48780370  0.85587563  0.54104611  1
  Li  Li93  1  0.98780370  0.64412437  1.45895389  1
  Li  Li94  1  0.51219630  1.35587563  0.95895389  1
  Li  Li95  1  1.01219630  1.14412437  1.04104611  1
