# generated using pymatgen
data_LiY2Cu3(Te2P)2
_symmetry_space_group_name_H-M   'P 1'
_cell_length_a   4.99427499
_cell_length_b   4.90440309
_cell_length_c   7.10430806
_cell_angle_alpha   94.82989772
_cell_angle_beta   99.75208619
_cell_angle_gamma   108.19781927
_symmetry_Int_Tables_number   1
_chemical_formula_structural   LiY2Cu3(Te2P)2
_chemical_formula_sum   'Li1 Y2 Cu3 Te4 P2'
_cell_volume   161.16419789
_cell_formula_units_Z   1
loop_
 _symmetry_equiv_pos_site_id
 _symmetry_equiv_pos_as_xyz
  1  'x, y, z'
loop_
 _atom_site_type_symbol
 _atom_site_label
 _atom_site_symmetry_multiplicity
 _atom_site_fract_x
 _atom_site_fract_y
 _atom_site_fract_z
 _atom_site_occupancy
  Te  Te0  1  0.00000000  0.00000000  0.00000000  1
  Te  Te1  1  0.50000000  0.50000000  0.50000000  1
  Te  Te2  1  0.50000000  0.50000000  0.00000000  1
  Te  Te3  1  0.50000000  0.00000000  0.50000000  1
  Cu  Cu4  1  0.00000000  0.50000000  0.50000000  1
  Cu  Cu5  1  0.64156182  0.38976460  0.24501018  1
  Cu  Cu6  1  0.39016108  0.34137044  0.02128062  1
  Y  Y7  1  0.45242585  0.87944228  0.85328856  1
  Y  Y8  1  0.29436945  0.79366102  0.70521801  1
  P  P9  1  0.78748259  0.74786994  0.94004826  1
  P  P10  1  0.42476440  0.60112492  0.13927938  1
  Li  Li11  1  0.74965020  0.78396447  0.94114548  1
