# generated using pymatgen
data_LiTiAsSe
_symmetry_space_group_name_H-M   'P 1'
_cell_length_a   5.10534462
_cell_length_b   4.98293238
_cell_length_c   6.83371725
_cell_angle_alpha   94.80559955
_cell_angle_beta   97.01398945
_cell_angle_gamma   92.52849041
_symmetry_Int_Tables_number   1
_chemical_formula_structural   LiTiAsSe
_chemical_formula_sum   'Li1 Ti1 As1 Se1'
_cell_volume   171.67961023
_cell_formula_units_Z   1
loop_
 _symmetry_equiv_pos_site_id
 _symmetry_equiv_pos_as_xyz
  1  'x, y, z'
loop_
 _atom_site_type_symbol
 _atom_site_label
 _atom_site_symmetry_multiplicity
 _atom_site_fract_x
 _atom_site_fract_y
 _atom_site_fract_z
 _atom_site_occupancy
  Se  Se0  1  0.00000000  0.00000000  0.00000000  1
  Ti  Ti1  1  0.50000000  0.50000000  0.50000000  1
  As  As2  1  0.50000000  0.50000000  0.00000000  1
  Li  Li3  1  0.50000000  0.00000000  0.50000000  1
