# generated using pymatgen
data_LiF
_symmetry_space_group_name_H-M   'P 1'
_cell_length_a   8.03415668
_cell_length_b   15.25100398
_cell_length_c   7.81587677
_cell_angle_alpha   90.00000000
_cell_angle_beta   90.00000000
_cell_angle_gamma   90.00000000
_symmetry_Int_Tables_number   1
_chemical_formula_structural   LiF
_chemical_formula_sum   'Li24 F24'
_cell_volume   957.67121631
_cell_formula_units_Z   24
loop_
 _symmetry_equiv_pos_site_id
 _symmetry_equiv_pos_as_xyz
  1  'x, y, z'
loop_
 _atom_site_type_symbol
 _atom_site_label
 _atom_site_symmetry_multiplicity
 _atom_site_fract_x
 _atom_site_fract_y
 _atom_site_fract_z
 _atom_site_occupancy
  F  F0  1  0.99785710  0.84078116  0.08076881  1
  F  F1  1  0.50214290  0.15921884  0.58076881  1
  F  F2  1  0.00214290  0.34078116  0.91923119  1
  F  F3  1  0.49785710  0.65921884  0.41923119  1
  F  F4  1  0.00214290  0.15921884  0.91923119  1
  F  F5  1  0.49785710  0.84078116  0.41923119  1
  F  F6  1  0.99785710  0.65921884  0.08076881  1
  F  F7  1  0.50214290  0.34078116  0.58076881  1
  F  F8  1  0.00000000  0.00000000  0.50000000  1
  F  F9  1  0.50000000  0.00000000  0.00000000  1
  F  F10  1  0.00000000  0.50000000  0.50000000  1
  F  F11  1  0.50000000  0.50000000  -0.00000000  1
  F  F12  1  0.10208469  0.39006909  0.71438641  1
  F  F13  1  0.39791531  0.60993091  0.21438641  1
  F  F14  1  0.89791531  0.89006909  0.28561359  1
  F  F15  1  0.60208469  0.10993091  0.78561359  1
  F  F16  1  0.89791531  0.60993091  0.28561359  1
  F  F17  1  0.60208469  0.39006909  0.78561359  1
  F  F18  1  0.10208469  0.10993091  0.71438641  1
  F  F19  1  0.39791531  0.89006909  0.21438641  1
  F  F20  1  0.17123809  0.25000000  0.28604110  1
  F  F21  1  0.32876191  0.75000000  0.78604110  1
  F  F22  1  0.82876191  0.75000000  0.71395890  1
  F  F23  1  0.67123809  0.25000000  0.21395890  1
  Li  Li24  1  0.20684761  0.79349153  0.05984617  1
  Li  Li25  1  0.29315239  -0.79349153  0.55984617  1
  Li  Li26  1  -0.20684761  1.29349153  -0.05984617  1
  Li  Li27  1  0.70684761  -0.29349153  0.44015383  1
  Li  Li28  1  -0.20684761  -0.79349153  -0.05984617  1
  Li  Li29  1  0.70684761  0.79349153  0.44015383  1
  Li  Li30  1  0.20684761  -0.29349153  0.05984617  1
  Li  Li31  1  0.29315239  1.29349153  0.55984617  1
  Li  Li32  1  0.32547962  0.35035331  0.38180079  1
  Li  Li33  1  0.17452038  0.64964669  0.88180079  1
  Li  Li34  1  0.67452038  0.85035331  0.61819921  1
  Li  Li35  1  0.82547962  0.14964669  0.11819921  1
  Li  Li36  1  0.67452038  0.64964669  0.61819921  1
  Li  Li37  1  0.82547962  0.35035331  0.11819921  1
  Li  Li38  1  0.32547962  0.14964669  0.38180079  1
  Li  Li39  1  0.17452038  0.85035331  0.88180079  1
  Li  Li40  1  0.75735845  0.29935596  0.67771486  1
  Li  Li41  1  0.74264155  0.70064404  0.17771486  1
  Li  Li42  1  0.24264155  0.79935596  0.32228514  1
  Li  Li43  1  0.25735845  0.20064404  0.82228514  1
  Li  Li44  1  0.24264155  0.70064404  0.32228514  1
  Li  Li45  1  0.25735845  0.29935596  0.82228514  1
  Li  Li46  1  0.75735845  0.20064404  0.67771486  1
  Li  Li47  1  0.74264155  0.79935596  0.17771486  1
