# generated using pymatgen
data_LiSbP
_symmetry_space_group_name_H-M   'P 1'
_cell_length_a   5.05517760
_cell_length_b   5.12600838
_cell_length_c   6.82104394
_cell_angle_alpha   94.45059814
_cell_angle_beta   99.07770272
_cell_angle_gamma   106.91215434
_symmetry_Int_Tables_number   1
_chemical_formula_structural   LiSbP
_chemical_formula_sum   'Li2 Sb2 P2'
_cell_volume   165.55783359
_cell_formula_units_Z   2
loop_
 _symmetry_equiv_pos_site_id
 _symmetry_equiv_pos_as_xyz
  1  'x, y, z'
loop_
 _atom_site_type_symbol
 _atom_site_label
 _atom_site_symmetry_multiplicity
 _atom_site_fract_x
 _atom_site_fract_y
 _atom_site_fract_z
 _atom_site_occupancy
  P  P0  1  0.00000000  0.00000000  0.00000000  1
  P  P1  1  0.33300000  0.66700000  0.25000000  1
  Li  Li2  1  0.66700000  0.33300000  0.50000000  1
  Li  Li3  1  0.00000000  0.00000000  0.75000000  1
  Sb  Sb4  1  0.10653379  0.92113622  0.87461385  1
  Sb  Sb5  1  0.66797426  0.01576458  0.77477127  1
