# generated using pymatgen
data_LiF
_symmetry_space_group_name_H-M   'P 1'
_cell_length_a   5.71538837
_cell_length_b   6.91354165
_cell_length_c   7.18619329
_cell_angle_alpha   90.00000000
_cell_angle_beta   90.00000000
_cell_angle_gamma   90.00000000
_symmetry_Int_Tables_number   1
_chemical_formula_structural   LiF
_chemical_formula_sum   'Li16 F16'
_cell_volume   283.95219152
_cell_formula_units_Z   16
loop_
 _symmetry_equiv_pos_site_id
 _symmetry_equiv_pos_as_xyz
  1  'x, y, z'
loop_
 _atom_site_type_symbol
 _atom_site_label
 _atom_site_symmetry_multiplicity
 _atom_site_fract_x
 _atom_site_fract_y
 _atom_site_fract_z
 _atom_site_occupancy
  F  F0  1  0.68263297  0.19935407  0.07501495  1
  F  F1  1  -0.68263297  -0.19935407  0.07501495  1
  F  F2  1  -0.18263297  0.69935407  0.42498505  1
  F  F3  1  1.18263297  0.30064593  0.42498505  1
  F  F4  1  -0.68263297  -0.19935407  -0.07501495  1
  F  F5  1  0.68263297  0.19935407  -0.07501495  1
  F  F6  1  1.18263297  0.30064593  0.57501495  1
  F  F7  1  -0.18263297  0.69935407  0.57501495  1
  F  F8  1  0.81889772  0.13398860  -0.00000000  1
  F  F9  1  0.18110228  0.86601140  -0.00000000  1
  F  F10  1  0.68110228  0.63398860  0.50000000  1
  F  F11  1  0.31889772  0.36601140  0.50000000  1
  F  F12  1  0.00000000  0.50000000  0.55954540  1
  F  F13  1  0.50000000  -0.00000000  0.94045460  1
  F  F14  1  0.00000000  0.50000000  0.44045460  1
  F  F15  1  0.50000000  -0.00000000  0.05954540  1
  Li  Li16  1  0.00000000  0.00000000  0.31485497  1
  Li  Li17  1  0.50000000  0.50000000  0.18514503  1
  Li  Li18  1  0.00000000  0.00000000  0.68514503  1
  Li  Li19  1  0.50000000  0.50000000  0.81485497  1
  Li  Li20  1  0.00000000  0.00000000  0.00000000  1
  Li  Li21  1  0.50000000  0.50000000  0.50000000  1
  Li  Li22  1  0.23146399  0.27222347  -0.00000000  1
  Li  Li23  1  0.76853601  0.72777653  -0.00000000  1
  Li  Li24  1  0.26853601  0.77222347  0.50000000  1
  Li  Li25  1  0.73146399  0.22777653  0.50000000  1
  Li  Li26  1  0.00000000  0.50000000  0.24140277  1
  Li  Li27  1  0.50000000  -0.00000000  0.25859723  1
  Li  Li28  1  0.00000000  0.50000000  0.75859723  1
  Li  Li29  1  0.50000000  -0.00000000  0.74140277  1
  Li  Li30  1  0.00000000  0.50000000  0.00000000  1
  Li  Li31  1  0.50000000  -0.00000000  0.50000000  1
