# generated using pymatgen
data_Li2Y2As2P4Se
_symmetry_space_group_name_H-M   'P 1'
_cell_length_a   5.29254775
_cell_length_b   5.27681047
_cell_length_c   7.44864535
_cell_angle_alpha   94.34788204
_cell_angle_beta   99.46878317
_cell_angle_gamma   107.46371412
_symmetry_Int_Tables_number   1
_chemical_formula_structural   Li2Y2As2P4Se
_chemical_formula_sum   'Li2 Y2 As2 P4 Se1'
_cell_volume   193.99202846
_cell_formula_units_Z   1
loop_
 _symmetry_equiv_pos_site_id
 _symmetry_equiv_pos_as_xyz
  1  'x, y, z'
loop_
 _atom_site_type_symbol
 _atom_site_label
 _atom_site_symmetry_multiplicity
 _atom_site_fract_x
 _atom_site_fract_y
 _atom_site_fract_z
 _atom_site_occupancy
  Se  Se0  1  0.00000000  0.00000000  0.00000000  1
  Y  Y1  1  0.50000000  0.50000000  0.50000000  1
  Y  Y2  1  0.25000000  0.25000000  0.25000000  1
  P  P3  1  0.75000000  0.25000000  0.00000000  1
  P  P4  1  0.25000000  0.75000000  0.50000000  1
  P  P5  1  0.09844696  0.86977070  0.43750482  1
  P  P6  1  0.31121341  0.37472765  0.70166866  1
  As  As7  1  0.55430566  0.79431265  0.80501837  1
  As  As8  1  0.65626572  0.24670365  0.44167904  1
  Li  Li9  1  0.49405625  0.09628468  0.13086959  1
  Li  Li10  1  0.36385769  0.88604355  0.37919789  1
