# generated using pymatgen
data_LiY2Cu3P2
_symmetry_space_group_name_H-M   'P 1'
_cell_length_a   4.08128719
_cell_length_b   4.26717360
_cell_length_c   6.56055796
_cell_angle_alpha   96.22046848
_cell_angle_beta   102.98926887
_cell_angle_gamma   114.11065659
_symmetry_Int_Tables_number   1
_chemical_formula_structural   LiY2Cu3P2
_chemical_formula_sum   'Li1 Y2 Cu3 P2'
_cell_volume   99.01226800
_cell_formula_units_Z   1
loop_
 _symmetry_equiv_pos_site_id
 _symmetry_equiv_pos_as_xyz
  1  'x, y, z'
loop_
 _atom_site_type_symbol
 _atom_site_label
 _atom_site_symmetry_multiplicity
 _atom_site_fract_x
 _atom_site_fract_y
 _atom_site_fract_z
 _atom_site_occupancy
  Cu  Cu0  1  0.00000000  0.00000000  0.00000000  1
  Cu  Cu1  1  0.50000000  0.50000000  0.50000000  1
  Cu  Cu2  1  0.50000000  0.50000000  0.00000000  1
  P  P3  1  0.50000000  0.00000000  0.50000000  1
  P  P4  1  0.00000000  0.50000000  0.50000000  1
  Li  Li5  1  0.82855969  0.92910102  0.38654465  1
  Y  Y6  1  0.02349021  0.09049095  0.98656914  1
  Y  Y7  1  0.44965716  0.05301935  0.47090359  1
