# generated using pymatgen
data_LiF
_symmetry_space_group_name_H-M   'P 1'
_cell_length_a   13.47491969
_cell_length_b   4.71940448
_cell_length_c   9.71926002
_cell_angle_alpha   90.00000000
_cell_angle_beta   90.00000000
_cell_angle_gamma   90.00000000
_symmetry_Int_Tables_number   1
_chemical_formula_structural   LiF
_chemical_formula_sum   'Li24 F24'
_cell_volume   618.08269856
_cell_formula_units_Z   24
loop_
 _symmetry_equiv_pos_site_id
 _symmetry_equiv_pos_as_xyz
  1  'x, y, z'
loop_
 _atom_site_type_symbol
 _atom_site_label
 _atom_site_symmetry_multiplicity
 _atom_site_fract_x
 _atom_site_fract_y
 _atom_site_fract_z
 _atom_site_occupancy
  F  F0  1  0.49689412  0.18475910  0.13760257  1
  F  F1  1  0.00310588  0.81524090  0.63760257  1
  F  F2  1  0.50310588  0.68475910  0.86239743  1
  F  F3  1  0.99689412  0.31524090  0.36239743  1
  F  F4  1  0.50310588  0.81524090  0.86239743  1
  F  F5  1  0.99689412  0.18475910  0.36239743  1
  F  F6  1  0.49689412  0.31524090  0.13760257  1
  F  F7  1  0.00310588  0.68475910  0.63760257  1
  F  F8  1  0.92300070  0.46285734  0.31653281  1
  F  F9  1  0.57699930  0.53714266  0.81653281  1
  F  F10  1  0.07699930  0.96285734  0.68346719  1
  F  F11  1  0.42300070  0.03714266  0.18346719  1
  F  F12  1  0.07699930  0.53714266  0.68346719  1
  F  F13  1  0.42300070  0.46285734  0.18346719  1
  F  F14  1  0.92300070  0.03714266  0.31653281  1
  F  F15  1  0.57699930  0.96285734  0.81653281  1
  F  F16  1  0.43596869  0.25000000  0.30506802  1
  F  F17  1  0.06403131  0.75000000  0.80506802  1
  F  F18  1  0.56403131  0.75000000  0.69493198  1
  F  F19  1  0.93596869  0.25000000  0.19493198  1
  F  F20  1  0.57449707  0.25000000  0.04242115  1
  F  F21  1  0.92550293  0.75000000  0.54242115  1
  F  F22  1  0.42550293  0.75000000  0.95757885  1
  F  F23  1  0.07449707  0.25000000  0.45757885  1
  Li  Li24  1  0.00000000  0.00000000  0.00000000  1
  Li  Li25  1  0.50000000  0.00000000  0.50000000  1
  Li  Li26  1  0.00000000  0.50000000  0.00000000  1
  Li  Li27  1  0.50000000  0.50000000  0.50000000  1
  Li  Li28  1  0.38776921  0.09942101  0.44949658  1
  Li  Li29  1  0.11223079  -0.09942101  0.94949658  1
  Li  Li30  1  -0.38776921  0.59942101  -0.44949658  1
  Li  Li31  1  0.88776921  0.40057899  0.05050342  1
  Li  Li32  1  -0.38776921  -0.09942101  -0.44949658  1
  Li  Li33  1  0.88776921  0.09942101  0.05050342  1
  Li  Li34  1  0.38776921  0.40057899  0.44949658  1
  Li  Li35  1  0.11223079  0.59942101  0.94949658  1
  Li  Li36  1  0.39024685  0.42208807  0.27221343  1
  Li  Li37  1  0.10975315  0.57791193  0.77221343  1
  Li  Li38  1  0.60975315  0.92208807  0.72778657  1
  Li  Li39  1  0.89024685  0.07791193  0.22778657  1
  Li  Li40  1  0.60975315  0.57791193  0.72778657  1
  Li  Li41  1  0.89024685  0.42208807  0.22778657  1
  Li  Li42  1  0.39024685  0.07791193  0.27221343  1
  Li  Li43  1  0.10975315  0.92208807  0.77221343  1
  Li  Li44  1  0.91773161  0.25000000  0.78897428  1
  Li  Li45  1  0.58226839  0.75000000  0.28897428  1
  Li  Li46  1  0.08226839  0.75000000  0.21102572  1
  Li  Li47  1  0.41773161  0.25000000  0.71102572  1
