# generated using pymatgen
data_LiF
_symmetry_space_group_name_H-M   'P 1'
_cell_length_a   6.07808838
_cell_length_b   6.07808838
_cell_length_c   9.21175409
_cell_angle_alpha   90.00000000
_cell_angle_beta   90.00000000
_cell_angle_gamma   120.00000000
_symmetry_Int_Tables_number   1
_chemical_formula_structural   LiF
_chemical_formula_sum   'Li8 F8'
_cell_volume   294.71822265
_cell_formula_units_Z   8
loop_
 _symmetry_equiv_pos_site_id
 _symmetry_equiv_pos_as_xyz
  1  'x, y, z'
loop_
 _atom_site_type_symbol
 _atom_site_label
 _atom_site_symmetry_multiplicity
 _atom_site_fract_x
 _atom_site_fract_y
 _atom_site_fract_z
 _atom_site_occupancy
  F  F0  1  0.33333333  0.66666667  0.67108859  1
  F  F1  1  0.33333333  0.66666667  0.32891141  1
  F  F2  1  0.04810865  0.74117162  0.69148614  1
  F  F3  1  0.25882838  0.30693703  0.69148614  1
  F  F4  1  0.69306297  0.95189135  0.69148614  1
  F  F5  1  0.25882838  0.95189135  0.30851386  1
  F  F6  1  0.69306297  0.74117162  0.30851386  1
  F  F7  1  0.04810865  0.30693703  0.30851386  1
  Li  Li8  1  0.66666667  0.33333333  0.16200714  1
  Li  Li9  1  0.66666667  0.33333333  0.83799286  1
  Li  Li10  1  0.50033872  0.98401745  0.63079754  1
  Li  Li11  1  -0.98401745  -0.48367873  0.63079754  1
  Li  Li12  1  0.48367873  -0.50033872  0.63079754  1
  Li  Li13  1  -0.98401745  -0.50033872  -0.63079754  1
  Li  Li14  1  0.48367873  0.98401745  -0.63079754  1
  Li  Li15  1  0.50033872  -0.48367873  -0.63079754  1
