# generated using pymatgen
data_LiF
_symmetry_space_group_name_H-M   'P 1'
_cell_length_a   10.92329531
_cell_length_b   10.92329531
_cell_length_c   19.10074380
_cell_angle_alpha   90.00000000
_cell_angle_beta   90.00000000
_cell_angle_gamma   90.00000000
_symmetry_Int_Tables_number   1
_chemical_formula_structural   LiF
_chemical_formula_sum   'Li64 F64'
_cell_volume   2279.06981554
_cell_formula_units_Z   64
loop_
 _symmetry_equiv_pos_site_id
 _symmetry_equiv_pos_as_xyz
  1  'x, y, z'
loop_
 _atom_site_type_symbol
 _atom_site_label
 _atom_site_symmetry_multiplicity
 _atom_site_fract_x
 _atom_site_fract_y
 _atom_site_fract_z
 _atom_site_occupancy
  F  F0  1  0.00000000  0.00000000  0.00000000  1
  F  F1  1  0.50000000  0.00000000  0.50000000  1
  F  F2  1  0.25000000  0.75000000  0.25000000  1
  F  F3  1  0.25000000  0.25000000  0.75000000  1
  F  F4  1  0.50000000  0.00000000  0.00000000  1
  F  F5  1  0.00000000  0.00000000  0.50000000  1
  F  F6  1  0.25000000  0.75000000  0.75000000  1
  F  F7  1  0.25000000  0.25000000  0.25000000  1
  F  F8  1  0.50000000  0.50000000  0.50000000  1
  F  F9  1  0.00000000  0.50000000  0.00000000  1
  F  F10  1  0.75000000  0.25000000  0.75000000  1
  F  F11  1  0.75000000  0.75000000  0.25000000  1
  F  F12  1  0.00000000  0.50000000  0.50000000  1
  F  F13  1  0.50000000  0.50000000  0.00000000  1
  F  F14  1  0.75000000  0.25000000  0.25000000  1
  F  F15  1  0.75000000  0.75000000  0.75000000  1
  F  F16  1  0.87131861  0.45408974  0.78387297  1
  F  F17  1  -0.37131861  -0.45408974  1.28387297  1
  F  F18  1  -0.20408974  1.62131861  1.03387297  1
  F  F19  1  0.70408974  -0.62131861  1.53387297  1
  F  F20  1  -0.37131861  0.45408974  -0.78387297  1
  F  F21  1  0.87131861  -0.45408974  -0.28387297  1
  F  F22  1  0.70408974  1.62131861  -0.03387297  1
  F  F23  1  -0.20408974  -0.62131861  -0.53387297  1
  F  F24  1  -0.87131861  -0.45408974  -0.78387297  1
  F  F25  1  1.37131861  0.45408974  -0.28387297  1
  F  F26  1  1.20408974  -0.62131861  -0.03387297  1
  F  F27  1  0.29591026  1.62131861  -0.53387297  1
  F  F28  1  1.37131861  -0.45408974  0.78387297  1
  F  F29  1  -0.87131861  0.45408974  1.28387297  1
  F  F30  1  0.29591026  -0.62131861  1.03387297  1
  F  F31  1  1.20408974  1.62131861  1.53387297  1
  F  F32  1  1.37131861  0.95408974  1.28387297  1
  F  F33  1  0.12868139  0.04591026  1.78387297  1
  F  F34  1  0.29591026  2.12131861  1.53387297  1
  F  F35  1  1.20408974  -0.12131861  2.03387297  1
  F  F36  1  0.12868139  0.95408974  -0.28387297  1
  F  F37  1  1.37131861  0.04591026  0.21612703  1
  F  F38  1  1.20408974  2.12131861  0.46612703  1
  F  F39  1  0.29591026  -0.12131861  -0.03387297  1
  F  F40  1  -0.37131861  0.04591026  -0.28387297  1
  F  F41  1  1.87131861  0.95408974  0.21612703  1
  F  F42  1  1.70408974  -0.12131861  0.46612703  1
  F  F43  1  0.79591026  2.12131861  -0.03387297  1
  F  F44  1  1.87131861  0.04591026  1.28387297  1
  F  F45  1  -0.37131861  0.95408974  1.78387297  1
  F  F46  1  0.79591026  -0.12131861  1.53387297  1
  F  F47  1  1.70408974  2.12131861  2.03387297  1
  F  F48  1  0.00000000  0.25000000  0.01042263  1
  F  F49  1  0.00000000  0.75000000  0.26042263  1
  F  F50  1  0.50000000  0.25000000  0.98957737  1
  F  F51  1  0.50000000  0.75000000  0.73957737  1
  F  F52  1  0.00000000  0.75000000  0.98957737  1
  F  F53  1  0.00000000  0.25000000  0.73957737  1
  F  F54  1  0.50000000  0.75000000  0.01042263  1
  F  F55  1  0.50000000  0.25000000  0.26042263  1
  F  F56  1  0.50000000  0.75000000  0.51042263  1
  F  F57  1  0.50000000  0.25000000  0.76042263  1
  F  F58  1  0.00000000  0.75000000  0.48957737  1
  F  F59  1  0.00000000  0.25000000  0.23957737  1
  F  F60  1  0.50000000  0.25000000  0.48957737  1
  F  F61  1  0.50000000  0.75000000  0.23957737  1
  F  F62  1  0.00000000  0.25000000  0.51042263  1
  F  F63  1  0.00000000  0.75000000  0.76042263  1
  Li  Li64  1  0.77978924  0.72195940  0.69951766  1
  Li  Li65  1  0.72021076  0.27804060  0.19951766  1
  Li  Li66  1  0.52804060  0.52978924  0.94951766  1
  Li  Li67  1  0.97195940  0.47021076  0.44951766  1
  Li  Li68  1  0.72021076  0.72195940  0.30048234  1
  Li  Li69  1  0.77978924  0.27804060  0.80048234  1
  Li  Li70  1  0.97195940  0.52978924  0.05048234  1
  Li  Li71  1  0.52804060  0.47021076  0.55048234  1
  Li  Li72  1  0.22021076  0.27804060  0.30048234  1
  Li  Li73  1  0.27978924  0.72195940  0.80048234  1
  Li  Li74  1  0.47195940  0.47021076  0.05048234  1
  Li  Li75  1  0.02804060  0.52978924  0.55048234  1
  Li  Li76  1  0.27978924  0.27804060  0.69951766  1
  Li  Li77  1  0.22021076  0.72195940  0.19951766  1
  Li  Li78  1  0.02804060  0.47021076  0.94951766  1
  Li  Li79  1  0.47195940  0.52978924  0.44951766  1
  Li  Li80  1  0.27978924  0.22195940  0.19951766  1
  Li  Li81  1  0.22021076  0.77804060  0.69951766  1
  Li  Li82  1  0.02804060  0.02978924  0.44951766  1
  Li  Li83  1  0.47195940  0.97021076  0.94951766  1
  Li  Li84  1  0.22021076  0.22195940  0.80048234  1
  Li  Li85  1  0.27978924  0.77804060  0.30048234  1
  Li  Li86  1  0.47195940  0.02978924  0.55048234  1
  Li  Li87  1  0.02804060  0.97021076  0.05048234  1
  Li  Li88  1  0.72021076  0.77804060  0.80048234  1
  Li  Li89  1  0.77978924  0.22195940  0.30048234  1
  Li  Li90  1  0.97195940  0.97021076  0.55048234  1
  Li  Li91  1  0.52804060  0.02978924  0.05048234  1
  Li  Li92  1  0.77978924  0.77804060  0.19951766  1
  Li  Li93  1  0.72021076  0.22195940  0.69951766  1
  Li  Li94  1  0.52804060  0.97021076  0.44951766  1
  Li  Li95  1  0.97195940  0.02978924  0.94951766  1
  Li  Li96  1  0.00000000  0.25000000  0.12500000  1
  Li  Li97  1  0.00000000  0.75000000  0.37500000  1
  Li  Li98  1  0.00000000  0.75000000  0.87500000  1
  Li  Li99  1  0.00000000  0.25000000  0.62500000  1
  Li  Li100  1  0.50000000  0.75000000  0.62500000  1
  Li  Li101  1  0.50000000  0.25000000  0.87500000  1
  Li  Li102  1  0.50000000  0.25000000  0.37500000  1
  Li  Li103  1  0.50000000  0.75000000  0.12500000  1
  Li  Li104  1  0.22670955  0.00000000  0.25000000  1
  Li  Li105  1  0.27329045  0.00000000  0.75000000  1
  Li  Li106  1  0.25000000  0.97670955  0.50000000  1
  Li  Li107  1  0.25000000  0.02329045  -0.00000000  1
  Li  Li108  1  0.77329045  0.00000000  0.75000000  1
  Li  Li109  1  0.72670955  -0.00000000  0.25000000  1
  Li  Li110  1  0.75000000  0.02329045  0.50000000  1
  Li  Li111  1  0.75000000  0.97670955  -0.00000000  1
  Li  Li112  1  0.72670955  0.50000000  0.75000000  1
  Li  Li113  1  0.77329045  0.50000000  0.25000000  1
  Li  Li114  1  0.75000000  0.47670955  0.00000000  1
  Li  Li115  1  0.75000000  0.52329045  0.50000000  1
  Li  Li116  1  0.27329045  0.50000000  0.25000000  1
  Li  Li117  1  0.22670955  0.50000000  0.75000000  1
  Li  Li118  1  0.25000000  0.52329045  -0.00000000  1
  Li  Li119  1  0.25000000  0.47670955  0.50000000  1
  Li  Li120  1  0.00000000  0.25000000  0.37500000  1
  Li  Li121  1  0.00000000  0.75000000  0.62500000  1
  Li  Li122  1  0.50000000  0.25000000  0.62500000  1
  Li  Li123  1  0.50000000  0.75000000  0.37500000  1
  Li  Li124  1  0.50000000  0.75000000  0.87500000  1
  Li  Li125  1  0.50000000  0.25000000  0.12500000  1
  Li  Li126  1  0.00000000  0.75000000  0.12500000  1
  Li  Li127  1  0.00000000  0.25000000  0.87500000  1
