# generated using pymatgen
data_LiF
_symmetry_space_group_name_H-M   'P 1'
_cell_length_a   17.41371452
_cell_length_b   17.41371452
_cell_length_c   7.39726015
_cell_angle_alpha   90.00000000
_cell_angle_beta   90.00000000
_cell_angle_gamma   120.00000000
_symmetry_Int_Tables_number   1
_chemical_formula_structural   LiF
_chemical_formula_sum   'Li78 F78'
_cell_volume   1942.60438730
_cell_formula_units_Z   78
loop_
 _symmetry_equiv_pos_site_id
 _symmetry_equiv_pos_as_xyz
  1  'x, y, z'
loop_
 _atom_site_type_symbol
 _atom_site_label
 _atom_site_symmetry_multiplicity
 _atom_site_fract_x
 _atom_site_fract_y
 _atom_site_fract_z
 _atom_site_occupancy
  F  F0  1  0.32551986  0.00000000  0.25000000  1
  F  F1  1  0.00000000  0.32551986  0.25000000  1
  F  F2  1  0.67448014  0.67448014  0.25000000  1
  F  F3  1  0.67448014  0.00000000  0.75000000  1
  F  F4  1  0.00000000  0.67448014  0.75000000  1
  F  F5  1  0.32551986  0.32551986  0.75000000  1
  F  F6  1  0.99218652  0.33333333  0.58333333  1
  F  F7  1  0.66666667  0.65885319  0.58333333  1
  F  F8  1  0.34114681  0.00781348  0.58333333  1
  F  F9  1  0.34114681  0.33333333  0.08333333  1
  F  F10  1  0.66666667  0.00781348  0.08333333  1
  F  F11  1  0.99218652  0.65885319  0.08333333  1
  F  F12  1  0.65885319  0.66666667  0.91666667  1
  F  F13  1  0.33333333  0.99218652  0.91666667  1
  F  F14  1  0.00781348  0.34114681  0.91666667  1
  F  F15  1  0.00781348  0.66666667  0.41666667  1
  F  F16  1  0.33333333  0.34114681  0.41666667  1
  F  F17  1  0.65885319  0.99218652  0.41666667  1
  F  F18  1  0.27437485  0.47705623  0.67333714  1
  F  F19  1  0.52294377  0.79731862  0.67333714  1
  F  F20  1  0.20268138  0.72562515  0.67333714  1
  F  F21  1  0.47705623  0.27437485  0.82666286  1
  F  F22  1  0.79731862  0.52294377  0.82666286  1
  F  F23  1  0.72562515  0.20268138  0.82666286  1
  F  F24  1  0.72562515  0.52294377  0.32666286  1
  F  F25  1  0.47705623  0.20268138  0.32666286  1
  F  F26  1  0.79731862  0.27437485  0.32666286  1
  F  F27  1  0.52294377  0.72562515  0.17333714  1
  F  F28  1  0.20268138  0.47705623  0.17333714  1
  F  F29  1  0.27437485  0.79731862  0.17333714  1
  F  F30  1  0.94104151  0.81038956  0.00667047  1
  F  F31  1  0.18961044  0.13065195  0.00667047  1
  F  F32  1  0.86934805  0.05895849  0.00667047  1
  F  F33  1  0.14372290  0.60770818  0.15999620  1
  F  F34  1  0.46398528  0.85627710  0.15999620  1
  F  F35  1  0.39229182  0.53601472  0.15999620  1
  F  F36  1  0.39229182  0.85627710  0.65999620  1
  F  F37  1  0.14372290  0.53601472  0.65999620  1
  F  F38  1  0.46398528  0.60770818  0.65999620  1
  F  F39  1  0.18961044  0.05895849  0.50667047  1
  F  F40  1  0.86934805  0.81038956  0.50667047  1
  F  F41  1  0.94104151  0.13065195  0.50667047  1
  F  F42  1  0.60770818  0.14372290  0.34000380  1
  F  F43  1  0.85627710  0.46398528  0.34000380  1
  F  F44  1  0.53601472  0.39229182  0.34000380  1
  F  F45  1  0.81038956  0.94104151  0.49332953  1
  F  F46  1  0.13065195  0.18961044  0.49332953  1
  F  F47  1  0.05895849  0.86934805  0.49332953  1
  F  F48  1  0.05895849  0.18961044  0.99332953  1
  F  F49  1  0.81038956  0.86934805  0.99332953  1
  F  F50  1  0.13065195  0.94104151  0.99332953  1
  F  F51  1  0.85627710  0.39229182  0.84000380  1
  F  F52  1  0.53601472  0.14372290  0.84000380  1
  F  F53  1  0.60770818  0.46398528  0.84000380  1
  F  F54  1  0.78489431  0.00000000  0.25000000  1
  F  F55  1  0.00000000  0.78489431  0.25000000  1
  F  F56  1  0.21510569  0.21510569  0.25000000  1
  F  F57  1  0.21510569  0.00000000  0.75000000  1
  F  F58  1  0.00000000  0.21510569  0.75000000  1
  F  F59  1  0.78489431  0.78489431  0.75000000  1
  F  F60  1  0.45156097  0.33333333  0.58333333  1
  F  F61  1  0.66666667  0.11822764  0.58333333  1
  F  F62  1  0.88177236  0.54843903  0.58333333  1
  F  F63  1  0.88177236  0.33333333  0.08333333  1
  F  F64  1  0.66666667  0.54843903  0.08333333  1
  F  F65  1  0.45156097  0.11822764  0.08333333  1
  F  F66  1  0.11822764  0.66666667  0.91666667  1
  F  F67  1  0.33333333  0.45156097  0.91666667  1
  F  F68  1  0.54843903  0.88177236  0.91666667  1
  F  F69  1  0.54843903  0.66666667  0.41666667  1
  F  F70  1  0.33333333  0.88177236  0.41666667  1
  F  F71  1  0.11822764  0.45156097  0.41666667  1
  F  F72  1  0.00000000  0.00000000  0.25000000  1
  F  F73  1  0.00000000  0.00000000  0.75000000  1
  F  F74  1  0.66666667  0.33333333  0.58333333  1
  F  F75  1  0.66666667  0.33333333  0.08333333  1
  F  F76  1  0.33333333  0.66666667  0.91666667  1
  F  F77  1  0.33333333  0.66666667  0.41666667  1
  Li  Li78  1  0.84130524  0.00000000  0.25000000  1
  Li  Li79  1  0.00000000  0.84130524  0.25000000  1
  Li  Li80  1  0.15869476  0.15869476  0.25000000  1
  Li  Li81  1  0.15869476  0.00000000  0.75000000  1
  Li  Li82  1  0.00000000  0.15869476  0.75000000  1
  Li  Li83  1  0.84130524  0.84130524  0.75000000  1
  Li  Li84  1  0.50797190  0.33333333  0.58333333  1
  Li  Li85  1  0.66666667  0.17463857  0.58333333  1
  Li  Li86  1  0.82536143  0.49202810  0.58333333  1
  Li  Li87  1  0.82536143  0.33333333  0.08333333  1
  Li  Li88  1  0.66666667  0.49202810  0.08333333  1
  Li  Li89  1  0.50797190  0.17463857  0.08333333  1
  Li  Li90  1  0.17463857  0.66666667  0.91666667  1
  Li  Li91  1  0.33333333  0.50797190  0.91666667  1
  Li  Li92  1  0.49202810  0.82536143  0.91666667  1
  Li  Li93  1  0.49202810  0.66666667  0.41666667  1
  Li  Li94  1  0.33333333  0.82536143  0.41666667  1
  Li  Li95  1  0.17463857  0.50797190  0.41666667  1
  Li  Li96  1  0.60998290  0.00000000  0.25000000  1
  Li  Li97  1  0.00000000  0.60998290  0.25000000  1
  Li  Li98  1  0.39001710  0.39001710  0.25000000  1
  Li  Li99  1  0.39001710  0.00000000  0.75000000  1
  Li  Li100  1  0.00000000  0.39001710  0.75000000  1
  Li  Li101  1  0.60998290  0.60998290  0.75000000  1
  Li  Li102  1  0.27664957  0.33333333  0.58333333  1
  Li  Li103  1  0.66666667  0.94331623  0.58333333  1
  Li  Li104  1  0.05668377  0.72335043  0.58333333  1
  Li  Li105  1  0.05668377  0.33333333  0.08333333  1
  Li  Li106  1  0.66666667  0.72335043  0.08333333  1
  Li  Li107  1  0.27664957  0.94331623  0.08333333  1
  Li  Li108  1  0.94331623  0.66666667  0.91666667  1
  Li  Li109  1  0.33333333  0.27664957  0.91666667  1
  Li  Li110  1  0.72335043  0.05668377  0.91666667  1
  Li  Li111  1  0.72335043  0.66666667  0.41666667  1
  Li  Li112  1  0.33333333  0.05668377  0.41666667  1
  Li  Li113  1  0.94331623  0.27664957  0.41666667  1
  Li  Li114  1  0.00000000  0.00000000  0.00000000  1
  Li  Li115  1  0.00000000  0.00000000  0.50000000  1
  Li  Li116  1  0.66666667  0.33333333  0.33333333  1
  Li  Li117  1  0.66666667  0.33333333  0.83333333  1
  Li  Li118  1  0.33333333  0.66666667  0.66666667  1
  Li  Li119  1  0.33333333  0.66666667  0.16666667  1
  Li  Li120  1  0.58096923  0.54040814  0.31074934  1
  Li  Li121  1  -0.54040814  0.04056108  0.31074934  1
  Li  Li122  1  -0.04056108  -0.58096923  0.31074934  1
  Li  Li123  1  0.54040814  0.58096923  0.18925066  1
  Li  Li124  1  0.04056108  -0.54040814  0.18925066  1
  Li  Li125  1  -0.58096923  -0.04056108  0.18925066  1
  Li  Li126  1  -0.58096923  -0.54040814  -0.31074934  1
  Li  Li127  1  0.54040814  -0.04056108  -0.31074934  1
  Li  Li128  1  0.04056108  0.58096923  -0.31074934  1
  Li  Li129  1  -0.54040814  -0.58096923  0.81074934  1
  Li  Li130  1  -0.04056108  0.54040814  0.81074934  1
  Li  Li131  1  0.58096923  0.04056108  0.81074934  1
  Li  Li132  1  1.24763589  0.87374148  0.64408268  1
  Li  Li133  1  0.12625852  0.37389442  0.64408268  1
  Li  Li134  1  0.62610558  -0.24763589  0.64408268  1
  Li  Li135  1  1.20707481  0.91430256  0.52258399  1
  Li  Li136  1  0.70722775  -0.20707481  0.52258399  1
  Li  Li137  1  0.08569744  0.29277225  0.52258399  1
  Li  Li138  1  0.08569744  -0.20707481  0.02258399  1
  Li  Li139  1  1.20707481  0.29277225  0.02258399  1
  Li  Li140  1  0.70722775  0.91430256  0.02258399  1
  Li  Li141  1  0.12625852  -0.24763589  1.14408268  1
  Li  Li142  1  0.62610558  0.87374148  1.14408268  1
  Li  Li143  1  1.24763589  0.37389442  1.14408268  1
  Li  Li144  1  0.91430256  1.20707481  0.97741601  1
  Li  Li145  1  -0.20707481  0.70722775  0.97741601  1
  Li  Li146  1  0.29277225  0.08569744  0.97741601  1
  Li  Li147  1  0.87374148  1.24763589  0.85591732  1
  Li  Li148  1  0.37389442  0.12625852  0.85591732  1
  Li  Li149  1  -0.24763589  0.62610558  0.85591732  1
  Li  Li150  1  -0.24763589  0.12625852  0.35591732  1
  Li  Li151  1  0.87374148  0.62610558  0.35591732  1
  Li  Li152  1  0.37389442  1.24763589  0.35591732  1
  Li  Li153  1  -0.20707481  0.08569744  1.47741601  1
  Li  Li154  1  0.29277225  1.20707481  1.47741601  1
  Li  Li155  1  0.91430256  0.70722775  1.47741601  1
