# generated using pymatgen
data_LiF
_symmetry_space_group_name_H-M   'P 1'
_cell_length_a   8.23109617
_cell_length_b   8.23109617
_cell_length_c   13.94754929
_cell_angle_alpha   90.00000000
_cell_angle_beta   90.00000000
_cell_angle_gamma   120.00000000
_symmetry_Int_Tables_number   1
_chemical_formula_structural   LiF
_chemical_formula_sum   'Li33 F33'
_cell_volume   818.35904660
_cell_formula_units_Z   33
loop_
 _symmetry_equiv_pos_site_id
 _symmetry_equiv_pos_as_xyz
  1  'x, y, z'
loop_
 _atom_site_type_symbol
 _atom_site_label
 _atom_site_symmetry_multiplicity
 _atom_site_fract_x
 _atom_site_fract_y
 _atom_site_fract_z
 _atom_site_occupancy
  F  F0  1  0.00403880  0.07832704  0.88502304  1
  F  F1  1  0.92167296  0.92571176  0.88502304  1
  F  F2  1  0.07428824  0.99596120  0.88502304  1
  F  F3  1  0.92167296  0.99596120  0.11497696  1
  F  F4  1  0.07428824  0.07832704  0.11497696  1
  F  F5  1  0.00403880  0.92571176  0.11497696  1
  F  F6  1  0.76562661  0.94458658  0.64416940  1
  F  F7  1  0.05541342  0.82104003  0.64416940  1
  F  F8  1  0.17895997  0.23437339  0.64416940  1
  F  F9  1  0.05541342  0.23437339  0.35583060  1
  F  F10  1  0.17895997  0.94458658  0.35583060  1
  F  F11  1  0.76562661  0.82104003  0.35583060  1
  F  F12  1  0.41252935  0.04290585  0.45866592  1
  F  F13  1  0.95709415  0.36962350  0.45866592  1
  F  F14  1  0.63037650  0.58747065  0.45866592  1
  F  F15  1  0.95709415  0.58747065  0.54133408  1
  F  F16  1  0.63037650  0.04290585  0.54133408  1
  F  F17  1  0.41252935  0.36962350  0.54133408  1
  F  F18  1  0.85967442  0.28767918  0.36436779  1
  F  F19  1  0.71232082  0.57199524  0.36436779  1
  F  F20  1  0.42800476  0.14032558  0.36436779  1
  F  F21  1  0.71232082  0.14032558  0.63563221  1
  F  F22  1  0.42800476  0.28767918  0.63563221  1
  F  F23  1  0.85967442  0.57199524  0.63563221  1
  F  F24  1  0.50882537  0.49117463  -0.00000000  1
  F  F25  1  0.50882537  0.01765074  -0.00000000  1
  F  F26  1  0.98234926  0.49117463  -0.00000000  1
  F  F27  1  0.14959032  0.25207648  0.78445594  1
  F  F28  1  0.74792352  0.89751384  0.78445594  1
  F  F29  1  0.10248616  0.85040968  0.78445594  1
  F  F30  1  0.74792352  0.85040968  0.21554406  1
  F  F31  1  0.10248616  0.25207648  0.21554406  1
  F  F32  1  0.14959032  0.89751384  0.21554406  1
  Li  Li33  1  0.00000000  0.00000000  0.50000000  1
  Li  Li34  1  0.61152848  0.38847152  0.50000000  1
  Li  Li35  1  0.61152848  0.22305695  0.50000000  1
  Li  Li36  1  0.77694305  0.38847152  0.50000000  1
  Li  Li37  1  0.66666667  0.33333333  0.26872768  1
  Li  Li38  1  0.66666667  0.33333333  0.73127232  1
  Li  Li39  1  0.72920930  0.73290621  0.75408850  1
  Li  Li40  1  -0.73290621  -0.00369691  0.75408850  1
  Li  Li41  1  0.00369691  -0.72920930  0.75408850  1
  Li  Li42  1  -0.73290621  -0.72920930  -0.75408850  1
  Li  Li43  1  0.00369691  0.73290621  -0.75408850  1
  Li  Li44  1  0.72920930  -0.00369691  -0.75408850  1
  Li  Li45  1  0.00000000  0.00000000  0.00000000  1
  Li  Li46  1  0.99377244  0.47310941  0.30949428  1
  Li  Li47  1  0.52689059  0.52066304  0.30949428  1
  Li  Li48  1  0.47933696  0.00622756  0.30949428  1
  Li  Li49  1  0.52689059  0.00622756  0.69050572  1
  Li  Li50  1  0.47933696  0.47310941  0.69050572  1
  Li  Li51  1  0.99377244  0.52066304  0.69050572  1
  Li  Li52  1  0.89202191  0.76210867  0.90996924  1
  Li  Li53  1  0.23789133  0.12991324  0.90996924  1
  Li  Li54  1  0.87008676  0.10797809  0.90996924  1
  Li  Li55  1  0.23789133  0.10797809  0.09003076  1
  Li  Li56  1  0.87008676  0.76210867  0.09003076  1
  Li  Li57  1  0.89202191  0.12991324  0.09003076  1
  Li  Li58  1  0.33333333  0.66666667  0.14550717  1
  Li  Li59  1  0.33333333  0.66666667  0.85449283  1
  Li  Li60  1  0.82748961  0.28149949  0.72686773  1
  Li  Li61  1  0.71850051  0.54599011  0.72686773  1
  Li  Li62  1  0.45400989  0.17251039  0.72686773  1
  Li  Li63  1  0.71850051  0.17251039  0.27313227  1
  Li  Li64  1  0.45400989  0.28149949  0.27313227  1
  Li  Li65  1  0.82748961  0.54599011  0.27313227  1
