# generated using pymatgen
data_Li2Y2As2P3Se
_symmetry_space_group_name_H-M   'P 1'
_cell_length_a   5.47745853
_cell_length_b   5.46303181
_cell_length_c   7.27202751
_cell_angle_alpha   93.93070827
_cell_angle_beta   98.56026542
_cell_angle_gamma   105.78809287
_symmetry_Int_Tables_number   1
_chemical_formula_structural   Li2Y2As2P3Se
_chemical_formula_sum   'Li2 Y2 As2 P3 Se1'
_cell_volume   205.69859122
_cell_formula_units_Z   1
loop_
 _symmetry_equiv_pos_site_id
 _symmetry_equiv_pos_as_xyz
  1  'x, y, z'
loop_
 _atom_site_type_symbol
 _atom_site_label
 _atom_site_symmetry_multiplicity
 _atom_site_fract_x
 _atom_site_fract_y
 _atom_site_fract_z
 _atom_site_occupancy
  Se  Se0  1  0.12500000  0.00000000  0.25000000  1
  Y  Y1  1  0.00000000  0.00000000  0.00000000  1
  Y  Y2  1  0.37500000  0.00000000  0.25000000  1
  P  P3  1  0.25000000  0.25000000  0.25000000  1
  P  P4  1  0.00000000  0.25000000  0.12500000  1
  P  P5  1  0.85209932  0.77483333  0.23097707  1
  As  As6  1  0.54231786  0.91683541  0.95182958  1
  As  As7  1  0.15973403  0.05254061  0.70560618  1
  Li  Li8  1  0.64048666  0.97329930  0.08921420  1
  Li  Li9  1  0.36650786  0.05607188  0.63186254  1
