# generated using pymatgen
data_LiF
_symmetry_space_group_name_H-M   'P 1'
_cell_length_a   25.11188689
_cell_length_b   5.00214711
_cell_length_c   12.46936047
_cell_angle_alpha   90.00000000
_cell_angle_beta   90.00000000
_cell_angle_gamma   90.00000000
_symmetry_Int_Tables_number   1
_chemical_formula_structural   LiF
_chemical_formula_sum   'Li60 F60'
_cell_volume   1566.31817327
_cell_formula_units_Z   60
loop_
 _symmetry_equiv_pos_site_id
 _symmetry_equiv_pos_as_xyz
  1  'x, y, z'
loop_
 _atom_site_type_symbol
 _atom_site_label
 _atom_site_symmetry_multiplicity
 _atom_site_fract_x
 _atom_site_fract_y
 _atom_site_fract_z
 _atom_site_occupancy
  F  F0  1  0.00000000  0.50000000  0.00000000  1
  F  F1  1  0.50000000  0.00000000  0.00000000  1
  F  F2  1  0.99131653  0.21240135  0.83782908  1
  F  F3  1  0.00868347  0.78759865  0.83782908  1
  F  F4  1  0.50868347  0.71240135  0.16217092  1
  F  F5  1  0.49131653  0.28759865  0.16217092  1
  F  F6  1  0.00868347  0.78759865  0.16217092  1
  F  F7  1  0.99131653  0.21240135  0.16217092  1
  F  F8  1  0.49131653  0.28759865  0.83782908  1
  F  F9  1  0.50868347  0.71240135  0.83782908  1
  F  F10  1  0.75482826  0.15816076  0.43839404  1
  F  F11  1  0.24517174  0.84183924  0.43839404  1
  F  F12  1  0.74517174  0.65816076  0.56160596  1
  F  F13  1  0.25482826  0.34183924  0.56160596  1
  F  F14  1  0.24517174  0.84183924  0.56160596  1
  F  F15  1  0.75482826  0.15816076  0.56160596  1
  F  F16  1  0.25482826  0.34183924  0.43839404  1
  F  F17  1  0.74517174  0.65816076  0.43839404  1
  F  F18  1  0.03614171  0.84876368  0.62856024  1
  F  F19  1  0.96385829  0.15123632  0.62856024  1
  F  F20  1  0.46385829  0.34876368  0.37143976  1
  F  F21  1  0.53614171  0.65123632  0.37143976  1
  F  F22  1  0.96385829  0.15123632  0.37143976  1
  F  F23  1  0.03614171  0.84876368  0.37143976  1
  F  F24  1  0.53614171  0.65123632  0.62856024  1
  F  F25  1  0.46385829  0.34876368  0.62856024  1
  F  F26  1  0.49838987  0.77399850  0.50000000  1
  F  F27  1  0.50161013  0.22600150  0.50000000  1
  F  F28  1  0.00161013  0.27399850  0.50000000  1
  F  F29  1  0.99838987  0.72600150  0.50000000  1
  F  F30  1  0.00000000  0.00000000  0.00000000  1
  F  F31  1  0.50000000  0.50000000  -0.00000000  1
  F  F32  1  0.16388803  0.99414348  0.32998305  1
  F  F33  1  0.83611197  0.00585652  0.32998305  1
  F  F34  1  0.33611197  0.49414348  0.67001695  1
  F  F35  1  0.66388803  0.50585652  0.67001695  1
  F  F36  1  0.83611197  0.00585652  0.67001695  1
  F  F37  1  0.16388803  0.99414348  0.67001695  1
  F  F38  1  0.66388803  0.50585652  0.32998305  1
  F  F39  1  0.33611197  0.49414348  0.32998305  1
  F  F40  1  0.91618482  0.80024313  0.22355264  1
  F  F41  1  0.08381518  0.19975687  0.22355264  1
  F  F42  1  0.58381518  0.30024313  0.77644736  1
  F  F43  1  0.41618482  0.69975687  0.77644736  1
  F  F44  1  0.08381518  0.19975687  0.77644736  1
  F  F45  1  0.91618482  0.80024313  0.77644736  1
  F  F46  1  0.41618482  0.69975687  0.22355264  1
  F  F47  1  0.58381518  0.30024313  0.22355264  1
  F  F48  1  0.83416706  0.18190674  0.58647670  1
  F  F49  1  0.16583294  0.81809326  0.58647670  1
  F  F50  1  0.66583294  0.68190674  0.41352330  1
  F  F51  1  0.33416706  0.31809326  0.41352330  1
  F  F52  1  0.16583294  0.81809326  0.41352330  1
  F  F53  1  0.83416706  0.18190674  0.41352330  1
  F  F54  1  0.33416706  0.31809326  0.58647670  1
  F  F55  1  0.66583294  0.68190674  0.58647670  1
  F  F56  1  0.56553846  0.33361794  0.00000000  1
  F  F57  1  0.43446154  0.66638206  0.00000000  1
  F  F58  1  0.93446154  0.83361794  -0.00000000  1
  F  F59  1  0.06553846  0.16638206  0.00000000  1
  Li  Li60  1  0.40386898  0.00703162  0.30961045  1
  Li  Li61  1  -0.40386898  -0.00703162  0.30961045  1
  Li  Li62  1  0.09613102  0.50703162  -0.30961045  1
  Li  Li63  1  0.90386898  0.49296838  -0.30961045  1
  Li  Li64  1  -0.40386898  -0.00703162  -0.30961045  1
  Li  Li65  1  0.40386898  0.00703162  -0.30961045  1
  Li  Li66  1  0.90386898  0.49296838  0.30961045  1
  Li  Li67  1  0.09613102  0.50703162  0.30961045  1
  Li  Li68  1  0.70143626  0.60682178  0.23103151  1
  Li  Li69  1  0.29856374  0.39317822  0.23103151  1
  Li  Li70  1  0.79856374  0.10682178  0.76896849  1
  Li  Li71  1  0.20143626  0.89317822  0.76896849  1
  Li  Li72  1  0.29856374  0.39317822  0.76896849  1
  Li  Li73  1  0.70143626  0.60682178  0.76896849  1
  Li  Li74  1  0.20143626  0.89317822  0.23103151  1
  Li  Li75  1  0.79856374  0.10682178  0.23103151  1
  Li  Li76  1  0.87204575  0.04848323  0.62800153  1
  Li  Li77  1  0.12795425  0.95151677  0.62800153  1
  Li  Li78  1  0.62795425  0.54848323  0.37199847  1
  Li  Li79  1  0.37204575  0.45151677  0.37199847  1
  Li  Li80  1  0.12795425  0.95151677  0.37199847  1
  Li  Li81  1  0.87204575  0.04848323  0.37199847  1
  Li  Li82  1  0.37204575  0.45151677  0.62800153  1
  Li  Li83  1  0.62795425  0.54848323  0.62800153  1
  Li  Li84  1  0.00000000  0.00000000  0.50000000  1
  Li  Li85  1  0.50000000  0.50000000  0.50000000  1
  Li  Li86  1  0.00000000  0.00000000  0.09336166  1
  Li  Li87  1  0.50000000  0.50000000  0.90663834  1
  Li  Li88  1  0.00000000  0.00000000  0.90663834  1
  Li  Li89  1  0.50000000  0.50000000  0.09336166  1
  Li  Li90  1  0.21305014  0.60779802  0.94207652  1
  Li  Li91  1  0.78694986  0.39220198  0.94207652  1
  Li  Li92  1  0.28694986  0.10779802  0.05792348  1
  Li  Li93  1  0.71305014  0.89220198  0.05792348  1
  Li  Li94  1  0.78694986  0.39220198  0.05792348  1
  Li  Li95  1  0.21305014  0.60779802  0.05792348  1
  Li  Li96  1  0.71305014  0.89220198  0.94207652  1
  Li  Li97  1  0.28694986  0.10779802  0.94207652  1
  Li  Li98  1  0.42640815  0.87475215  0.87414797  1
  Li  Li99  1  0.57359185  0.12524785  0.87414797  1
  Li  Li100  1  0.07359185  0.37475215  0.12585203  1
  Li  Li101  1  0.92640815  0.62524785  0.12585203  1
  Li  Li102  1  0.57359185  0.12524785  0.12585203  1
  Li  Li103  1  0.42640815  0.87475215  0.12585203  1
  Li  Li104  1  0.92640815  0.62524785  0.87414797  1
  Li  Li105  1  0.07359185  0.37475215  0.87414797  1
  Li  Li106  1  0.11228231  0.01767719  0.00000000  1
  Li  Li107  1  0.88771769  0.98232281  -0.00000000  1
  Li  Li108  1  0.38771769  0.51767719  0.00000000  1
  Li  Li109  1  0.61228231  0.48232281  0.00000000  1
  Li  Li110  1  0.54765854  0.80514789  0.06701512  1
  Li  Li111  1  0.45234146  0.19485211  0.06701512  1
  Li  Li112  1  0.95234146  0.30514789  0.93298488  1
  Li  Li113  1  0.04765854  0.69485211  0.93298488  1
  Li  Li114  1  0.45234146  0.19485211  0.93298488  1
  Li  Li115  1  0.54765854  0.80514789  0.93298488  1
  Li  Li116  1  0.04765854  0.69485211  0.06701512  1
  Li  Li117  1  0.95234146  0.30514789  0.06701512  1
  Li  Li118  1  0.00000000  0.50000000  0.50000000  1
  Li  Li119  1  0.50000000  0.00000000  0.50000000  1
