# generated using pymatgen
data_LiF
_symmetry_space_group_name_H-M   'P 1'
_cell_length_a   15.14100617
_cell_length_b   4.04271669
_cell_length_c   5.53980928
_cell_angle_alpha   90.00000000
_cell_angle_beta   90.00000000
_cell_angle_gamma   90.00000000
_symmetry_Int_Tables_number   1
_chemical_formula_structural   LiF
_chemical_formula_sum   'Li20 F20'
_cell_volume   339.09614875
_cell_formula_units_Z   20
loop_
 _symmetry_equiv_pos_site_id
 _symmetry_equiv_pos_as_xyz
  1  'x, y, z'
loop_
 _atom_site_type_symbol
 _atom_site_label
 _atom_site_symmetry_multiplicity
 _atom_site_fract_x
 _atom_site_fract_y
 _atom_site_fract_z
 _atom_site_occupancy
  F  F0  1  0.65895772  0.43315345  0.27792150  1
  F  F1  1  0.84104228  0.56684655  0.77792150  1
  F  F2  1  0.34104228  0.93315345  0.72207850  1
  F  F3  1  0.15895772  0.06684655  0.22207850  1
  F  F4  1  0.34104228  0.56684655  0.72207850  1
  F  F5  1  0.15895772  0.43315345  0.22207850  1
  F  F6  1  0.65895772  0.06684655  0.27792150  1
  F  F7  1  0.84104228  0.93315345  0.77792150  1
  F  F8  1  0.36493285  0.25000000  0.23939255  1
  F  F9  1  0.13506715  0.75000000  0.73939255  1
  F  F10  1  0.63506715  0.75000000  0.76060745  1
  F  F11  1  0.86493285  0.25000000  0.26060745  1
  F  F12  1  0.00000000  0.00000000  0.00000000  1
  F  F13  1  0.50000000  0.00000000  0.50000000  1
  F  F14  1  0.00000000  0.50000000  -0.00000000  1
  F  F15  1  0.50000000  0.50000000  0.50000000  1
  F  F16  1  0.38829185  0.25000000  0.04634259  1
  F  F17  1  0.11170815  0.75000000  0.54634259  1
  F  F18  1  0.61170815  0.75000000  0.95365741  1
  F  F19  1  0.88829185  0.25000000  0.45365741  1
  Li  Li20  1  0.78236964  0.25000000  0.49303019  1
  Li  Li21  1  0.71763036  0.75000000  0.99303019  1
  Li  Li22  1  0.21763036  0.75000000  0.50696981  1
  Li  Li23  1  0.28236964  0.25000000  0.00696981  1
  Li  Li24  1  0.96468065  0.25000000  0.83882857  1
  Li  Li25  1  0.53531935  0.75000000  0.33882857  1
  Li  Li26  1  0.03531935  0.75000000  0.16117143  1
  Li  Li27  1  0.46468065  0.25000000  0.66117143  1
  Li  Li28  1  0.58627314  0.48299079  0.99960625  1
  Li  Li29  1  -0.08627314  -0.48299079  1.49960625  1
  Li  Li30  1  -0.58627314  0.98299079  -0.99960625  1
  Li  Li31  1  1.08627314  0.01700921  -0.49960625  1
  Li  Li32  1  -0.58627314  -0.48299079  -0.99960625  1
  Li  Li33  1  1.08627314  0.48299079  -0.49960625  1
  Li  Li34  1  0.58627314  0.01700921  0.99960625  1
  Li  Li35  1  -0.08627314  0.98299079  1.49960625  1
  Li  Li36  1  0.00000000  0.00000000  0.50000000  1
  Li  Li37  1  0.50000000  0.00000000  0.00000000  1
  Li  Li38  1  0.00000000  0.50000000  0.50000000  1
  Li  Li39  1  0.50000000  0.50000000  0.00000000  1
