# generated using pymatgen
data_LiF
_symmetry_space_group_name_H-M   'P 1'
_cell_length_a   10.90199029
_cell_length_b   8.42392647
_cell_length_c   8.04946156
_cell_angle_alpha   90.00000000
_cell_angle_beta   90.00000000
_cell_angle_gamma   90.00000000
_symmetry_Int_Tables_number   1
_chemical_formula_structural   LiF
_chemical_formula_sum   'Li24 F24'
_cell_volume   739.24294565
_cell_formula_units_Z   24
loop_
 _symmetry_equiv_pos_site_id
 _symmetry_equiv_pos_as_xyz
  1  'x, y, z'
loop_
 _atom_site_type_symbol
 _atom_site_label
 _atom_site_symmetry_multiplicity
 _atom_site_fract_x
 _atom_site_fract_y
 _atom_site_fract_z
 _atom_site_occupancy
  F  F0  1  0.08298956  0.60572164  0.65759676  1
  F  F1  1  0.41701044  0.39427836  0.15759676  1
  F  F2  1  0.91701044  0.10572164  0.34240324  1
  F  F3  1  0.58298956  0.89427836  0.84240324  1
  F  F4  1  0.91701044  0.39427836  0.34240324  1
  F  F5  1  0.58298956  0.60572164  0.84240324  1
  F  F6  1  0.08298956  0.89427836  0.65759676  1
  F  F7  1  0.41701044  0.10572164  0.15759676  1
  F  F8  1  0.41093067  0.25000000  0.47056478  1
  F  F9  1  0.08906933  0.75000000  0.97056478  1
  F  F10  1  0.58906933  0.75000000  0.52943522  1
  F  F11  1  0.91093067  0.25000000  0.02943522  1
  F  F12  1  0.14547208  0.38240926  0.56217545  1
  F  F13  1  0.35452792  0.61759074  0.06217545  1
  F  F14  1  0.85452792  0.88240926  0.43782455  1
  F  F15  1  0.64547208  0.11759074  0.93782455  1
  F  F16  1  0.85452792  0.61759074  0.43782455  1
  F  F17  1  0.64547208  0.38240926  0.93782455  1
  F  F18  1  0.14547208  0.11759074  0.56217545  1
  F  F19  1  0.35452792  0.88240926  0.06217545  1
  F  F20  1  0.00000000  0.00000000  0.50000000  1
  F  F21  1  0.50000000  -0.00000000  0.00000000  1
  F  F22  1  0.00000000  0.50000000  0.50000000  1
  F  F23  1  0.50000000  0.50000000  0.00000000  1
  Li  Li24  1  0.20711966  0.58154183  0.53914181  1
  Li  Li25  1  0.29288034  -0.58154183  1.03914181  1
  Li  Li26  1  -0.20711966  1.08154183  -0.53914181  1
  Li  Li27  1  0.70711966  -0.08154183  -0.03914181  1
  Li  Li28  1  -0.20711966  -0.58154183  -0.53914181  1
  Li  Li29  1  0.70711966  0.58154183  -0.03914181  1
  Li  Li30  1  0.20711966  -0.08154183  0.53914181  1
  Li  Li31  1  0.29288034  1.08154183  1.03914181  1
  Li  Li32  1  0.67067994  0.98323613  0.69356062  1
  Li  Li33  1  0.82932006  0.01676387  0.19356062  1
  Li  Li34  1  0.32932006  0.48323613  0.30643938  1
  Li  Li35  1  0.17067994  0.51676387  0.80643938  1
  Li  Li36  1  0.32932006  0.01676387  0.30643938  1
  Li  Li37  1  0.17067994  0.98323613  0.80643938  1
  Li  Li38  1  0.67067994  0.51676387  0.69356062  1
  Li  Li39  1  0.82932006  0.48323613  0.19356062  1
  Li  Li40  1  0.00000000  0.00000000  0.00000000  1
  Li  Li41  1  0.50000000  -0.00000000  0.50000000  1
  Li  Li42  1  0.00000000  0.50000000  0.00000000  1
  Li  Li43  1  0.50000000  0.50000000  0.50000000  1
  Li  Li44  1  0.57457090  0.25000000  0.00689511  1
  Li  Li45  1  0.92542910  0.75000000  0.50689511  1
  Li  Li46  1  0.42542910  0.75000000  0.99310489  1
  Li  Li47  1  0.07457090  0.25000000  0.49310489  1
