# generated using pymatgen
data_LiF
_symmetry_space_group_name_H-M   'P 1'
_cell_length_a   7.20313373
_cell_length_b   7.20313373
_cell_length_c   13.85433952
_cell_angle_alpha   90.00000000
_cell_angle_beta   90.00000000
_cell_angle_gamma   120.00000000
_symmetry_Int_Tables_number   1
_chemical_formula_structural   LiF
_chemical_formula_sum   'Li31 F31'
_cell_volume   622.52875019
_cell_formula_units_Z   31
loop_
 _symmetry_equiv_pos_site_id
 _symmetry_equiv_pos_as_xyz
  1  'x, y, z'
loop_
 _atom_site_type_symbol
 _atom_site_label
 _atom_site_symmetry_multiplicity
 _atom_site_fract_x
 _atom_site_fract_y
 _atom_site_fract_z
 _atom_site_occupancy
  F  F0  1  0.41822761  0.34164970  0.30224058  1
  F  F1  1  0.65835030  0.07657791  0.30224058  1
  F  F2  1  0.92342209  0.58177239  0.30224058  1
  F  F3  1  0.65835030  0.58177239  0.69775942  1
  F  F4  1  0.92342209  0.34164970  0.69775942  1
  F  F5  1  0.41822761  0.07657791  0.69775942  1
  F  F6  1  0.24763398  0.97946474  0.03810647  1
  F  F7  1  0.02053526  0.26816924  0.03810647  1
  F  F8  1  0.73183076  0.75236602  0.03810647  1
  F  F9  1  0.02053526  0.75236602  0.96189353  1
  F  F10  1  0.73183076  0.97946474  0.96189353  1
  F  F11  1  0.24763398  0.26816924  0.96189353  1
  F  F12  1  0.00000000  0.00000000  0.50000000  1
  F  F13  1  0.29324390  0.79987646  0.09446230  1
  F  F14  1  0.20012354  0.49336744  0.09446230  1
  F  F15  1  0.50663256  0.70675610  0.09446230  1
  F  F16  1  0.20012354  0.70675610  0.90553770  1
  F  F17  1  0.50663256  0.79987646  0.90553770  1
  F  F18  1  0.29324390  0.49336744  0.90553770  1
  F  F19  1  0.50360510  0.88599555  0.79929312  1
  F  F20  1  0.11400445  0.61760956  0.79929312  1
  F  F21  1  0.38239044  0.49639490  0.79929312  1
  F  F22  1  0.11400445  0.49639490  0.20070688  1
  F  F23  1  0.38239044  0.88599555  0.20070688  1
  F  F24  1  0.50360510  0.61760956  0.20070688  1
  F  F25  1  0.07141801  0.11130531  0.60674655  1
  F  F26  1  0.88869469  0.96011271  0.60674655  1
  F  F27  1  0.03988729  0.92858199  0.60674655  1
  F  F28  1  0.88869469  0.92858199  0.39325345  1
  F  F29  1  0.03988729  0.11130531  0.39325345  1
  F  F30  1  0.07141801  0.96011271  0.39325345  1
  Li  Li31  1  0.83985564  0.78509724  0.80248551  1
  Li  Li32  1  -0.78509724  0.05475839  0.80248551  1
  Li  Li33  1  -0.05475839  -0.83985564  0.80248551  1
  Li  Li34  1  -0.78509724  -0.83985564  -0.80248551  1
  Li  Li35  1  -0.05475839  0.78509724  -0.80248551  1
  Li  Li36  1  0.83985564  0.05475839  -0.80248551  1
  Li  Li37  1  0.66666667  0.33333333  -0.00000000  1
  Li  Li38  1  0.00000000  0.00000000  0.86875816  1
  Li  Li39  1  0.00000000  0.00000000  0.13124184  1
  Li  Li40  1  0.97085266  0.74334060  0.75429079  1
  Li  Li41  1  0.25665940  0.22751206  0.75429079  1
  Li  Li42  1  0.77248794  0.02914734  0.75429079  1
  Li  Li43  1  0.25665940  0.02914734  0.24570921  1
  Li  Li44  1  0.77248794  0.74334060  0.24570921  1
  Li  Li45  1  0.97085266  0.22751206  0.24570921  1
  Li  Li46  1  0.29718266  0.48894772  0.16176739  1
  Li  Li47  1  0.51105228  0.80823495  0.16176739  1
  Li  Li48  1  0.19176505  0.70281734  0.16176739  1
  Li  Li49  1  0.51105228  0.70281734  0.83823261  1
  Li  Li50  1  0.19176505  0.48894772  0.83823261  1
  Li  Li51  1  0.29718266  0.80823495  0.83823261  1
  Li  Li52  1  0.65201795  0.46077606  0.44971050  1
  Li  Li53  1  0.53922394  0.19124189  0.44971050  1
  Li  Li54  1  0.80875811  0.34798205  0.44971050  1
  Li  Li55  1  0.53922394  0.34798205  0.55028950  1
  Li  Li56  1  0.80875811  0.46077606  0.55028950  1
  Li  Li57  1  0.65201795  0.19124189  0.55028950  1
  Li  Li58  1  0.00000000  0.00000000  0.00000000  1
  Li  Li59  1  0.21545247  0.78454753  -0.00000000  1
  Li  Li60  1  0.21545247  0.43090494  -0.00000000  1
  Li  Li61  1  0.56909506  0.78454753  0.00000000  1
