# generated using pymatgen
data_LiF
_symmetry_space_group_name_H-M   'P 1'
_cell_length_a   7.17527773
_cell_length_b   9.44510367
_cell_length_c   5.69560446
_cell_angle_alpha   90.00000000
_cell_angle_beta   90.00000000
_cell_angle_gamma   90.00000000
_symmetry_Int_Tables_number   1
_chemical_formula_structural   LiF
_chemical_formula_sum   'Li24 F24'
_cell_volume   385.99818794
_cell_formula_units_Z   24
loop_
 _symmetry_equiv_pos_site_id
 _symmetry_equiv_pos_as_xyz
  1  'x, y, z'
loop_
 _atom_site_type_symbol
 _atom_site_label
 _atom_site_symmetry_multiplicity
 _atom_site_fract_x
 _atom_site_fract_y
 _atom_site_fract_z
 _atom_site_occupancy
  F  F0  1  0.79064223  0.16836505  0.37999230  1
  F  F1  1  0.70935777  0.83163495  0.87999230  1
  F  F2  1  0.20935777  0.66836505  0.62000770  1
  F  F3  1  0.29064223  0.33163495  0.12000770  1
  F  F4  1  0.20935777  0.83163495  0.62000770  1
  F  F5  1  0.29064223  0.16836505  0.12000770  1
  F  F6  1  0.79064223  0.33163495  0.37999230  1
  F  F7  1  0.70935777  0.66836505  0.87999230  1
  F  F8  1  0.06755706  0.05816618  0.48928146  1
  F  F9  1  0.43244294  0.94183382  0.98928146  1
  F  F10  1  0.93244294  0.55816618  0.51071854  1
  F  F11  1  0.56755706  0.44183382  0.01071854  1
  F  F12  1  0.93244294  0.94183382  0.51071854  1
  F  F13  1  0.56755706  0.05816618  0.01071854  1
  F  F14  1  0.06755706  0.44183382  0.48928146  1
  F  F15  1  0.43244294  0.55816618  0.98928146  1
  F  F16  1  0.00046541  0.33798668  0.11518001  1
  F  F17  1  0.49953459  0.66201332  0.61518001  1
  F  F18  1  0.99953459  0.83798668  0.88481999  1
  F  F19  1  0.50046541  0.16201332  0.38481999  1
  F  F20  1  0.99953459  0.66201332  0.88481999  1
  F  F21  1  0.50046541  0.33798668  0.38481999  1
  F  F22  1  0.00046541  0.16201332  0.11518001  1
  F  F23  1  0.49953459  0.83798668  0.61518001  1
  Li  Li24  1  0.64897124  0.25000000  0.56927163  1
  Li  Li25  1  0.85102876  0.75000000  0.06927163  1
  Li  Li26  1  0.35102876  0.75000000  0.43072837  1
  Li  Li27  1  0.14897124  0.25000000  0.93072837  1
  Li  Li28  1  0.00000000  0.00000000  0.00000000  1
  Li  Li29  1  0.50000000  -0.00000000  0.50000000  1
  Li  Li30  1  0.00000000  0.50000000  0.00000000  1
  Li  Li31  1  0.50000000  0.50000000  0.50000000  1
  Li  Li32  1  0.86092278  0.33223238  0.54369745  1
  Li  Li33  1  -0.36092278  -0.33223238  1.04369745  1
  Li  Li34  1  -0.86092278  0.83223238  -0.54369745  1
  Li  Li35  1  1.36092278  0.16776762  -0.04369745  1
  Li  Li36  1  -0.86092278  -0.33223238  -0.54369745  1
  Li  Li37  1  1.36092278  0.33223238  -0.04369745  1
  Li  Li38  1  0.86092278  0.16776762  0.54369745  1
  Li  Li39  1  -0.36092278  0.83223238  1.04369745  1
  Li  Li40  1  0.63376783  0.59290917  0.29529266  1
  Li  Li41  1  0.86623217  0.40709083  0.79529266  1
  Li  Li42  1  0.36623217  0.09290917  0.70470734  1
  Li  Li43  1  0.13376783  0.90709083  0.20470734  1
  Li  Li44  1  0.36623217  0.40709083  0.70470734  1
  Li  Li45  1  0.13376783  0.59290917  0.20470734  1
  Li  Li46  1  0.63376783  0.90709083  0.29529266  1
  Li  Li47  1  0.86623217  0.09290917  0.79529266  1
