# generated using pymatgen
data_LiF
_symmetry_space_group_name_H-M   'P 1'
_cell_length_a   15.68026872
_cell_length_b   19.01618969
_cell_length_c   6.65006784
_cell_angle_alpha   90.00000000
_cell_angle_beta   90.00000000
_cell_angle_gamma   90.00000000
_symmetry_Int_Tables_number   1
_chemical_formula_structural   LiF
_chemical_formula_sum   'Li52 F52'
_cell_volume   1982.91034262
_cell_formula_units_Z   52
loop_
 _symmetry_equiv_pos_site_id
 _symmetry_equiv_pos_as_xyz
  1  'x, y, z'
loop_
 _atom_site_type_symbol
 _atom_site_label
 _atom_site_symmetry_multiplicity
 _atom_site_fract_x
 _atom_site_fract_y
 _atom_site_fract_z
 _atom_site_occupancy
  F  F0  1  0.90740799  0.28685561  0.56130843  1
  F  F1  1  0.59259201  0.71314439  0.06130843  1
  F  F2  1  0.09259201  0.78685561  0.43869157  1
  F  F3  1  0.40740799  0.21314439  0.93869157  1
  F  F4  1  0.09259201  0.71314439  0.43869157  1
  F  F5  1  0.40740799  0.28685561  0.93869157  1
  F  F6  1  0.90740799  0.21314439  0.56130843  1
  F  F7  1  0.59259201  0.78685561  0.06130843  1
  F  F8  1  0.20335523  0.46941299  0.43828379  1
  F  F9  1  0.29664477  0.53058701  0.93828379  1
  F  F10  1  0.79664477  0.96941299  0.56171621  1
  F  F11  1  0.70335523  0.03058701  0.06171621  1
  F  F12  1  0.79664477  0.53058701  0.56171621  1
  F  F13  1  0.70335523  0.46941299  0.06171621  1
  F  F14  1  0.20335523  0.03058701  0.43828379  1
  F  F15  1  0.29664477  0.96941299  0.93828379  1
  F  F16  1  0.52788805  0.10427342  0.55743134  1
  F  F17  1  0.97211195  0.89572658  0.05743134  1
  F  F18  1  0.47211195  0.60427342  0.44256866  1
  F  F19  1  0.02788805  0.39572658  0.94256866  1
  F  F20  1  0.47211195  0.89572658  0.44256866  1
  F  F21  1  0.02788805  0.10427342  0.94256866  1
  F  F22  1  0.52788805  0.39572658  0.55743134  1
  F  F23  1  0.97211195  0.60427342  0.05743134  1
  F  F24  1  0.01931790  0.72949358  0.72064544  1
  F  F25  1  0.48068210  0.27050642  0.22064544  1
  F  F26  1  0.98068210  0.22949358  0.27935456  1
  F  F27  1  0.51931790  0.77050642  0.77935456  1
  F  F28  1  0.98068210  0.27050642  0.27935456  1
  F  F29  1  0.51931790  0.72949358  0.77935456  1
  F  F30  1  0.01931790  0.77050642  0.72064544  1
  F  F31  1  0.48068210  0.22949358  0.22064544  1
  F  F32  1  0.49479043  0.25000000  0.74172784  1
  F  F33  1  0.00520957  0.75000000  0.24172784  1
  F  F34  1  0.50520957  0.75000000  0.25827216  1
  F  F35  1  0.99479043  0.25000000  0.75827216  1
  F  F36  1  0.62773955  0.36260652  0.60977289  1
  F  F37  1  0.87226045  0.63739348  0.10977289  1
  F  F38  1  0.37226045  0.86260652  0.39022711  1
  F  F39  1  0.12773955  0.13739348  0.89022711  1
  F  F40  1  0.37226045  0.63739348  0.39022711  1
  F  F41  1  0.12773955  0.36260652  0.89022711  1
  F  F42  1  0.62773955  0.13739348  0.60977289  1
  F  F43  1  0.87226045  0.86260652  0.10977289  1
  F  F44  1  0.15408731  0.09932593  0.93791155  1
  F  F45  1  0.34591269  0.90067407  0.43791155  1
  F  F46  1  0.84591269  0.59932593  0.06208845  1
  F  F47  1  0.65408731  0.40067407  0.56208845  1
  F  F48  1  0.84591269  0.90067407  0.06208845  1
  F  F49  1  0.65408731  0.09932593  0.56208845  1
  F  F50  1  0.15408731  0.40067407  0.93791155  1
  F  F51  1  0.34591269  0.59932593  0.43791155  1
  Li  Li52  1  0.09450080  0.86698740  0.68002226  1
  Li  Li53  1  0.40549920  -0.86698740  1.18002226  1
  Li  Li54  1  -0.09450080  1.36698740  -0.68002226  1
  Li  Li55  1  0.59450080  -0.36698740  -0.18002226  1
  Li  Li56  1  -0.09450080  -0.86698740  -0.68002226  1
  Li  Li57  1  0.59450080  0.86698740  -0.18002226  1
  Li  Li58  1  0.09450080  -0.36698740  0.68002226  1
  Li  Li59  1  0.40549920  1.36698740  1.18002226  1
  Li  Li60  1  0.47318429  0.25000000  0.37376498  1
  Li  Li61  1  0.02681571  0.75000000  0.87376498  1
  Li  Li62  1  0.52681571  0.75000000  0.62623502  1
  Li  Li63  1  0.97318429  0.25000000  0.12623502  1
  Li  Li64  1  0.00400162  0.94370666  0.80960452  1
  Li  Li65  1  0.49599838  0.05629334  0.30960452  1
  Li  Li66  1  0.99599838  0.44370666  0.19039548  1
  Li  Li67  1  0.50400162  0.55629334  0.69039548  1
  Li  Li68  1  0.99599838  0.05629334  0.19039548  1
  Li  Li69  1  0.50400162  0.94370666  0.69039548  1
  Li  Li70  1  0.00400162  0.55629334  0.80960452  1
  Li  Li71  1  0.49599838  0.44370666  0.30960452  1
  Li  Li72  1  0.86172804  0.49732633  0.53929673  1
  Li  Li73  1  0.63827196  0.50267367  0.03929673  1
  Li  Li74  1  0.13827196  0.99732633  0.46070327  1
  Li  Li75  1  0.36172804  0.00267367  0.96070327  1
  Li  Li76  1  0.13827196  0.50267367  0.46070327  1
  Li  Li77  1  0.36172804  0.49732633  0.96070327  1
  Li  Li78  1  0.86172804  0.00267367  0.53929673  1
  Li  Li79  1  0.63827196  0.99732633  0.03929673  1
  Li  Li80  1  0.65109690  0.82778153  0.16739470  1
  Li  Li81  1  0.84890310  0.17221847  0.66739470  1
  Li  Li82  1  0.34890310  0.32778153  0.83260530  1
  Li  Li83  1  0.15109690  0.67221847  0.33260530  1
  Li  Li84  1  0.34890310  0.17221847  0.83260530  1
  Li  Li85  1  0.15109690  0.82778153  0.33260530  1
  Li  Li86  1  0.65109690  0.67221847  0.16739470  1
  Li  Li87  1  0.84890310  0.32778153  0.66739470  1
  Li  Li88  1  0.00000000  0.00000000  0.50000000  1
  Li  Li89  1  0.50000000  -0.00000000  0.00000000  1
  Li  Li90  1  0.00000000  0.50000000  0.50000000  1
  Li  Li91  1  0.50000000  0.50000000  -0.00000000  1
  Li  Li92  1  0.70171823  0.33913619  0.31874108  1
  Li  Li93  1  0.79828177  0.66086381  0.81874108  1
  Li  Li94  1  0.29828177  0.83913619  0.68125892  1
  Li  Li95  1  0.20171823  0.16086381  0.18125892  1
  Li  Li96  1  0.29828177  0.66086381  0.68125892  1
  Li  Li97  1  0.20171823  0.33913619  0.18125892  1
  Li  Li98  1  0.70171823  0.16086381  0.31874108  1
  Li  Li99  1  0.79828177  0.83913619  0.81874108  1
  Li  Li100  1  0.00000000  0.00000000  0.00000000  1
  Li  Li101  1  0.50000000  -0.00000000  0.50000000  1
  Li  Li102  1  0.00000000  0.50000000  0.00000000  1
  Li  Li103  1  0.50000000  0.50000000  0.50000000  1
