# generated using pymatgen
data_LiF
_symmetry_space_group_name_H-M   'P 1'
_cell_length_a   6.02986797
_cell_length_b   8.94634867
_cell_length_c   10.42057910
_cell_angle_alpha   90.00000000
_cell_angle_beta   90.00000000
_cell_angle_gamma   90.00000000
_symmetry_Int_Tables_number   1
_chemical_formula_structural   LiF
_chemical_formula_sum   'Li24 F24'
_cell_volume   562.14127872
_cell_formula_units_Z   24
loop_
 _symmetry_equiv_pos_site_id
 _symmetry_equiv_pos_as_xyz
  1  'x, y, z'
loop_
 _atom_site_type_symbol
 _atom_site_label
 _atom_site_symmetry_multiplicity
 _atom_site_fract_x
 _atom_site_fract_y
 _atom_site_fract_z
 _atom_site_occupancy
  F  F0  1  0.25504790  0.49253082  0.15268131  1
  F  F1  1  0.24495210  -0.49253082  0.65268131  1
  F  F2  1  -0.25504790  0.99253082  -0.15268131  1
  F  F3  1  0.75504790  0.00746918  0.34731869  1
  F  F4  1  -0.25504790  -0.49253082  -0.15268131  1
  F  F5  1  0.75504790  0.49253082  0.34731869  1
  F  F6  1  0.25504790  0.00746918  0.15268131  1
  F  F7  1  0.24495210  0.99253082  0.65268131  1
  F  F8  1  0.00000000  0.00000000  0.50000000  1
  F  F9  1  0.50000000  0.00000000  0.00000000  1
  F  F10  1  0.00000000  0.50000000  0.50000000  1
  F  F11  1  0.50000000  0.50000000  0.00000000  1
  F  F12  1  0.28599589  0.25000000  0.67800245  1
  F  F13  1  0.21400411  0.75000000  0.17800245  1
  F  F14  1  0.71400411  0.75000000  0.32199755  1
  F  F15  1  0.78599589  0.25000000  0.82199755  1
  F  F16  1  0.00000000  0.00000000  0.00000000  1
  F  F17  1  0.50000000  0.00000000  0.50000000  1
  F  F18  1  0.00000000  0.50000000  0.00000000  1
  F  F19  1  0.50000000  0.50000000  0.50000000  1
  F  F20  1  0.80181340  0.25000000  0.07813698  1
  F  F21  1  0.69818660  0.75000000  0.57813698  1
  F  F22  1  0.19818660  0.75000000  0.92186302  1
  F  F23  1  0.30181340  0.25000000  0.42186302  1
  Li  Li24  1  0.05398546  0.25000000  0.45890588  1
  Li  Li25  1  0.44601454  0.75000000  0.95890588  1
  Li  Li26  1  0.94601454  0.75000000  0.54109412  1
  Li  Li27  1  0.55398546  0.25000000  0.04109412  1
  Li  Li28  1  0.42379628  0.32191776  0.12154035  1
  Li  Li29  1  0.07620372  0.67808224  0.62154035  1
  Li  Li30  1  0.57620372  0.82191776  0.87845965  1
  Li  Li31  1  0.92379628  0.17808224  0.37845965  1
  Li  Li32  1  0.57620372  0.67808224  0.87845965  1
  Li  Li33  1  0.92379628  0.32191776  0.37845965  1
  Li  Li34  1  0.42379628  0.17808224  0.12154035  1
  Li  Li35  1  0.07620372  0.82191776  0.62154035  1
  Li  Li36  1  0.31739859  0.25000000  0.53179876  1
  Li  Li37  1  0.18260141  0.75000000  0.03179876  1
  Li  Li38  1  0.68260141  0.75000000  0.46820124  1
  Li  Li39  1  0.81739859  0.25000000  0.96820124  1
  Li  Li40  1  0.52155316  0.32806215  0.46771693  1
  Li  Li41  1  0.97844684  0.67193785  0.96771693  1
  Li  Li42  1  0.47844684  0.82806215  0.53228307  1
  Li  Li43  1  0.02155316  0.17193785  0.03228307  1
  Li  Li44  1  0.47844684  0.67193785  0.53228307  1
  Li  Li45  1  0.02155316  0.32806215  0.03228307  1
  Li  Li46  1  0.52155316  0.17193785  0.46771693  1
  Li  Li47  1  0.97844684  0.82806215  0.96771693  1
