# generated using pymatgen
data_LiF
_symmetry_space_group_name_H-M   'P 1'
_cell_length_a   7.90530416
_cell_length_b   7.90530416
_cell_length_c   16.47728198
_cell_angle_alpha   90.00000000
_cell_angle_beta   90.00000000
_cell_angle_gamma   120.00000000
_symmetry_Int_Tables_number   1
_chemical_formula_structural   LiF
_chemical_formula_sum   'Li26 F26'
_cell_volume   891.77105922
_cell_formula_units_Z   26
loop_
 _symmetry_equiv_pos_site_id
 _symmetry_equiv_pos_as_xyz
  1  'x, y, z'
loop_
 _atom_site_type_symbol
 _atom_site_label
 _atom_site_symmetry_multiplicity
 _atom_site_fract_x
 _atom_site_fract_y
 _atom_site_fract_z
 _atom_site_occupancy
  F  F0  1  0.00000000  0.00000000  0.50000000  1
  F  F1  1  0.61344252  0.85838818  0.63115493  1
  F  F2  1  0.14161182  0.75505434  0.63115493  1
  F  F3  1  0.24494566  0.38655748  0.63115493  1
  F  F4  1  0.14161182  0.38655748  0.36884507  1
  F  F5  1  0.24494566  0.85838818  0.36884507  1
  F  F6  1  0.61344252  0.75505434  0.36884507  1
  F  F7  1  0.00000000  0.00000000  0.00000000  1
  F  F8  1  0.85089234  0.93667404  0.15065472  1
  F  F9  1  0.06332596  0.91421831  0.15065472  1
  F  F10  1  0.08578169  0.14910766  0.15065472  1
  F  F11  1  0.06332596  0.14910766  0.84934528  1
  F  F12  1  0.08578169  0.93667404  0.84934528  1
  F  F13  1  0.85089234  0.91421831  0.84934528  1
  F  F14  1  0.08015958  0.23574122  0.98267281  1
  F  F15  1  0.76425878  0.84441836  0.98267281  1
  F  F16  1  0.15558164  0.91984042  0.98267281  1
  F  F17  1  0.76425878  0.91984042  0.01732719  1
  F  F18  1  0.15558164  0.23574122  0.01732719  1
  F  F19  1  0.08015958  0.84441836  0.01732719  1
  F  F20  1  0.33333333  0.66666667  0.87119734  1
  F  F21  1  0.33333333  0.66666667  0.12880266  1
  F  F22  1  0.66666667  0.33333333  0.50000000  1
  F  F23  1  0.33333333  0.66666667  0.00000000  1
  F  F24  1  0.66666667  0.33333333  0.69266286  1
  F  F25  1  0.66666667  0.33333333  0.30733714  1
  Li  Li26  1  0.55107083  0.26841531  0.93169389  1
  Li  Li27  1  -0.26841531  0.28265552  0.93169389  1
  Li  Li28  1  -0.28265552  -0.55107083  0.93169389  1
  Li  Li29  1  -0.26841531  -0.55107083  -0.93169389  1
  Li  Li30  1  -0.28265552  0.26841531  -0.93169389  1
  Li  Li31  1  0.55107083  0.28265552  -0.93169389  1
  Li  Li32  1  0.66666667  0.33333333  0.41939390  1
  Li  Li33  1  0.66666667  0.33333333  0.58060610  1
  Li  Li34  1  0.00297577  0.30821191  0.08538138  1
  Li  Li35  1  0.69178809  0.69476386  0.08538138  1
  Li  Li36  1  0.30523614  0.99702423  0.08538138  1
  Li  Li37  1  0.69178809  0.99702423  0.91461862  1
  Li  Li38  1  0.30523614  0.30821191  0.91461862  1
  Li  Li39  1  0.00297577  0.69476386  0.91461862  1
  Li  Li40  1  0.33333333  0.66666667  0.50000000  1
  Li  Li41  1  0.73375154  0.48193307  0.16513996  1
  Li  Li42  1  0.51806693  0.25181847  0.16513996  1
  Li  Li43  1  0.74818153  0.26624846  0.16513996  1
  Li  Li44  1  0.51806693  0.26624846  0.83486004  1
  Li  Li45  1  0.74818153  0.48193307  0.83486004  1
  Li  Li46  1  0.73375154  0.25181847  0.83486004  1
  Li  Li47  1  0.49784061  0.50215939  0.50000000  1
  Li  Li48  1  0.49784061  0.99568122  0.50000000  1
  Li  Li49  1  0.00431878  0.50215939  0.50000000  1
  Li  Li50  1  0.33333333  0.66666667  0.30066023  1
  Li  Li51  1  0.33333333  0.66666667  0.69933977  1
