# generated using pymatgen
data_LiF
_symmetry_space_group_name_H-M   'P 1'
_cell_length_a   11.10817894
_cell_length_b   11.10817894
_cell_length_c   9.16459603
_cell_angle_alpha   90.00000000
_cell_angle_beta   90.00000000
_cell_angle_gamma   120.00000000
_symmetry_Int_Tables_number   1
_chemical_formula_structural   LiF
_chemical_formula_sum   'Li36 F36'
_cell_volume   979.33142964
_cell_formula_units_Z   36
loop_
 _symmetry_equiv_pos_site_id
 _symmetry_equiv_pos_as_xyz
  1  'x, y, z'
loop_
 _atom_site_type_symbol
 _atom_site_label
 _atom_site_symmetry_multiplicity
 _atom_site_fract_x
 _atom_site_fract_y
 _atom_site_fract_z
 _atom_site_occupancy
  F  F0  1  0.53086012  0.28370483  0.25000000  1
  F  F1  1  0.71629517  0.24715529  0.25000000  1
  F  F2  1  0.75284471  0.46913988  0.25000000  1
  F  F3  1  0.46913988  0.71629517  0.75000000  1
  F  F4  1  0.28370483  0.75284471  0.75000000  1
  F  F5  1  0.24715529  0.53086012  0.75000000  1
  F  F6  1  0.67550005  0.37361875  0.98543609  1
  F  F7  1  -0.37361875  0.30188130  0.98543609  1
  F  F8  1  -0.30188130  -0.67550005  0.98543609  1
  F  F9  1  -0.67550005  -0.37361875  1.48543609  1
  F  F10  1  0.37361875  -0.30188130  1.48543609  1
  F  F11  1  0.30188130  0.67550005  1.48543609  1
  F  F12  1  -0.67550005  -0.37361875  -0.98543609  1
  F  F13  1  0.37361875  -0.30188130  -0.98543609  1
  F  F14  1  0.30188130  0.67550005  -0.98543609  1
  F  F15  1  0.67550005  0.37361875  -0.48543609  1
  F  F16  1  -0.37361875  0.30188130  -0.48543609  1
  F  F17  1  -0.30188130  -0.67550005  -0.48543609  1
  F  F18  1  0.83058121  0.92375927  0.25000000  1
  F  F19  1  0.07624073  0.90682194  0.25000000  1
  F  F20  1  0.09317806  0.16941879  0.25000000  1
  F  F21  1  0.16941879  0.07624073  0.75000000  1
  F  F22  1  0.92375927  0.09317806  0.75000000  1
  F  F23  1  0.90682194  0.83058121  0.75000000  1
  F  F24  1  0.34277228  0.90706581  0.66295796  1
  F  F25  1  0.09293419  0.43570647  0.66295796  1
  F  F26  1  0.56429353  0.65722772  0.66295796  1
  F  F27  1  0.65722772  0.09293419  0.16295796  1
  F  F28  1  0.90706581  0.56429353  0.16295796  1
  F  F29  1  0.43570647  0.34277228  0.16295796  1
  F  F30  1  0.65722772  0.09293419  0.33704204  1
  F  F31  1  0.90706581  0.56429353  0.33704204  1
  F  F32  1  0.43570647  0.34277228  0.33704204  1
  F  F33  1  0.34277228  0.90706581  0.83704204  1
  F  F34  1  0.09293419  0.43570647  0.83704204  1
  F  F35  1  0.56429353  0.65722772  0.83704204  1
  Li  Li36  1  0.88828048  0.23522082  0.25000000  1
  Li  Li37  1  0.76477918  0.65305966  0.25000000  1
  Li  Li38  1  0.34694034  0.11171952  0.25000000  1
  Li  Li39  1  0.11171952  0.76477918  0.75000000  1
  Li  Li40  1  0.23522082  0.34694034  0.75000000  1
  Li  Li41  1  0.65305966  0.88828048  0.75000000  1
  Li  Li42  1  0.00000000  0.00000000  0.33822350  1
  Li  Li43  1  0.00000000  0.00000000  0.83822350  1
  Li  Li44  1  0.00000000  0.00000000  0.66177650  1
  Li  Li45  1  0.00000000  0.00000000  0.16177650  1
  Li  Li46  1  0.40169071  0.01995906  0.42702373  1
  Li  Li47  1  0.98004094  0.38173165  0.42702373  1
  Li  Li48  1  0.61826835  0.59830929  0.42702373  1
  Li  Li49  1  0.59830929  0.98004094  0.92702373  1
  Li  Li50  1  0.01995906  0.61826835  0.92702373  1
  Li  Li51  1  0.38173165  0.40169071  0.92702373  1
  Li  Li52  1  0.59830929  0.98004094  0.57297627  1
  Li  Li53  1  0.01995906  0.61826835  0.57297627  1
  Li  Li54  1  0.38173165  0.40169071  0.57297627  1
  Li  Li55  1  0.40169071  0.01995906  0.07297627  1
  Li  Li56  1  0.98004094  0.38173165  0.07297627  1
  Li  Li57  1  0.61826835  0.59830929  0.07297627  1
  Li  Li58  1  0.00000000  0.00000000  0.00000000  1
  Li  Li59  1  0.00000000  0.00000000  0.50000000  1
  Li  Li60  1  0.28809360  0.32914127  0.34410642  1
  Li  Li61  1  0.67085873  0.95895233  0.34410642  1
  Li  Li62  1  0.04104767  0.71190640  0.34410642  1
  Li  Li63  1  0.71190640  0.67085873  0.84410642  1
  Li  Li64  1  0.32914127  0.04104767  0.84410642  1
  Li  Li65  1  0.95895233  0.28809360  0.84410642  1
  Li  Li66  1  0.71190640  0.67085873  0.65589358  1
  Li  Li67  1  0.32914127  0.04104767  0.65589358  1
  Li  Li68  1  0.95895233  0.28809360  0.65589358  1
  Li  Li69  1  0.28809360  0.32914127  0.15589358  1
  Li  Li70  1  0.67085873  0.95895233  0.15589358  1
  Li  Li71  1  0.04104767  0.71190640  0.15589358  1
