# generated using pymatgen
data_Li2Y2As4P2Se
_symmetry_space_group_name_H-M   'P 1'
_cell_length_a   5.38062794
_cell_length_b   5.54126562
_cell_length_c   7.44692002
_cell_angle_alpha   93.90689322
_cell_angle_beta   97.90368191
_cell_angle_gamma   104.74407740
_symmetry_Int_Tables_number   1
_chemical_formula_structural   Li2Y2As4P2Se
_chemical_formula_sum   'Li2 Y2 As4 P2 Se1'
_cell_volume   211.44647306
_cell_formula_units_Z   1
loop_
 _symmetry_equiv_pos_site_id
 _symmetry_equiv_pos_as_xyz
  1  'x, y, z'
loop_
 _atom_site_type_symbol
 _atom_site_label
 _atom_site_symmetry_multiplicity
 _atom_site_fract_x
 _atom_site_fract_y
 _atom_site_fract_z
 _atom_site_occupancy
  Se  Se0  1  0.00000000  0.00000000  0.00000000  1
  P  P1  1  0.50000000  0.50000000  0.50000000  1
  P  P2  1  0.50000000  0.50000000  0.00000000  1
  As  As3  1  0.50000000  0.00000000  0.50000000  1
  As  As4  1  0.00000000  0.50000000  0.50000000  1
  As  As5  1  0.57263814  0.73568447  0.44310311  1
  As  As6  1  0.21095077  0.41839957  0.49659960  1
  Li  Li7  1  0.08613582  0.37010222  0.01376313  1
  Li  Li8  1  0.99916281  0.84442456  0.63357262  1
  Y  Y9  1  0.53034947  0.83102691  0.07039178  1
  Y  Y10  1  0.49230040  0.91934651  0.73501970  1
