# generated using pymatgen
data_Li2Si4Te3F12
_symmetry_space_group_name_H-M   'P 1'
_cell_length_a   16.56832952
_cell_length_b   16.56832952
_cell_length_c   5.33066915
_cell_angle_alpha   90.00000000
_cell_angle_beta   90.00000000
_cell_angle_gamma   120.00000000
_symmetry_Int_Tables_number   1
_chemical_formula_structural   Li2Si4Te3F12
_chemical_formula_sum   'Li8 Si16 Te12 F48'
_cell_volume   1267.27190528
_cell_formula_units_Z   4
loop_
 _symmetry_equiv_pos_site_id
 _symmetry_equiv_pos_as_xyz
  1  'x, y, z'
loop_
 _atom_site_type_symbol
 _atom_site_label
 _atom_site_symmetry_multiplicity
 _atom_site_fract_x
 _atom_site_fract_y
 _atom_site_fract_z
 _atom_site_occupancy
  F  F0  1  0.37980924  0.76620395  0.87108927  1
  F  F1  1  0.23379605  0.61360530  0.87108927  1
  F  F2  1  0.38639470  0.62019076  0.87108927  1
  F  F3  1  0.62019076  0.23379605  0.37108927  1
  F  F4  1  0.76620395  0.38639470  0.37108927  1
  F  F5  1  0.61360530  0.37980924  0.37108927  1
  F  F6  1  0.62019076  0.23379605  0.12891073  1
  F  F7  1  0.76620395  0.38639470  0.12891073  1
  F  F8  1  0.61360530  0.37980924  0.12891073  1
  F  F9  1  0.37980924  0.76620395  0.62891073  1
  F  F10  1  0.23379605  0.61360530  0.62891073  1
  F  F11  1  0.38639470  0.62019076  0.62891073  1
  F  F12  1  0.00000000  0.00000000  0.00000000  1
  F  F13  1  0.00000000  0.00000000  0.50000000  1
  F  F14  1  0.33333333  0.66666667  0.25000000  1
  F  F15  1  0.66666667  0.33333333  0.75000000  1
  F  F16  1  0.48880581  0.28651041  0.25000000  1
  F  F17  1  0.71348959  0.20229540  0.25000000  1
  F  F18  1  0.79770460  0.51119419  0.25000000  1
  F  F19  1  0.51119419  0.71348959  0.75000000  1
  F  F20  1  0.28651041  0.79770460  0.75000000  1
  F  F21  1  0.20229540  0.48880581  0.75000000  1
  F  F22  1  0.36119478  0.14372164  0.65316753  1
  F  F23  1  0.85627836  0.21747313  0.65316753  1
  F  F24  1  0.78252687  0.63880522  0.65316753  1
  F  F25  1  0.63880522  0.85627836  0.15316753  1
  F  F26  1  0.14372164  0.78252687  0.15316753  1
  F  F27  1  0.21747313  0.36119478  0.15316753  1
  F  F28  1  0.63880522  0.85627836  0.34683247  1
  F  F29  1  0.14372164  0.78252687  0.34683247  1
  F  F30  1  0.21747313  0.36119478  0.34683247  1
  F  F31  1  0.36119478  0.14372164  0.84683247  1
  F  F32  1  0.85627836  0.21747313  0.84683247  1
  F  F33  1  0.78252687  0.63880522  0.84683247  1
  F  F34  1  0.71482920  0.30032486  0.51932019  1
  F  F35  1  0.69967514  0.41450433  0.51932019  1
  F  F36  1  0.58549567  0.28517080  0.51932019  1
  F  F37  1  0.28517080  0.69967514  0.01932019  1
  F  F38  1  0.30032486  0.58549567  0.01932019  1
  F  F39  1  0.41450433  0.71482920  0.01932019  1
  F  F40  1  0.28517080  0.69967514  0.48067981  1
  F  F41  1  0.30032486  0.58549567  0.48067981  1
  F  F42  1  0.41450433  0.71482920  0.48067981  1
  F  F43  1  0.71482920  0.30032486  0.98067981  1
  F  F44  1  0.69967514  0.41450433  0.98067981  1
  F  F45  1  0.58549567  0.28517080  0.98067981  1
  F  F46  1  0.66666667  0.33333333  0.25000000  1
  F  F47  1  0.33333333  0.66666667  0.75000000  1
  Li  Li48  1  0.50000000  0.00000000  0.00000000  1
  Li  Li49  1  0.00000000  0.50000000  0.00000000  1
  Li  Li50  1  0.50000000  0.50000000  0.00000000  1
  Li  Li51  1  0.50000000  0.00000000  0.50000000  1
  Li  Li52  1  0.00000000  0.50000000  0.50000000  1
  Li  Li53  1  0.50000000  0.50000000  0.50000000  1
  Li  Li54  1  0.00000000  0.00000000  0.25000000  1
  Li  Li55  1  0.00000000  0.00000000  0.75000000  1
  Si  Si56  1  0.94719467  0.28900645  0.25000000  1
  Si  Si57  1  0.71099355  0.65818822  0.25000000  1
  Si  Si58  1  0.34181178  0.05280533  0.25000000  1
  Si  Si59  1  0.05280533  0.71099355  0.75000000  1
  Si  Si60  1  0.28900645  0.34181178  0.75000000  1
  Si  Si61  1  0.65818822  0.94719467  0.75000000  1
  Si  Si62  1  0.75692091  0.75578265  0.25000000  1
  Si  Si63  1  0.24421735  0.00113826  0.25000000  1
  Si  Si64  1  0.99886174  0.24307909  0.25000000  1
  Si  Si65  1  0.24307909  0.24421735  0.75000000  1
  Si  Si66  1  0.75578265  0.99886174  0.75000000  1
  Si  Si67  1  0.00113826  0.75692091  0.75000000  1
  Si  Si68  1  0.33333333  0.66666667  0.99252217  1
  Si  Si69  1  0.66666667  0.33333333  0.49252217  1
  Si  Si70  1  0.66666667  0.33333333  0.00747783  1
  Si  Si71  1  0.33333333  0.66666667  0.50747783  1
  Te  Te72  1  0.43914111  0.40427400  0.96915058  1
  Te  Te73  1  -0.40427400  0.03486711  0.96915058  1
  Te  Te74  1  -0.03486711  -0.43914111  0.96915058  1
  Te  Te75  1  -0.43914111  -0.40427400  1.46915058  1
  Te  Te76  1  0.40427400  -0.03486711  1.46915058  1
  Te  Te77  1  0.03486711  0.43914111  1.46915058  1
  Te  Te78  1  -0.43914111  -0.40427400  -0.96915058  1
  Te  Te79  1  0.40427400  -0.03486711  -0.96915058  1
  Te  Te80  1  0.03486711  0.43914111  -0.96915058  1
  Te  Te81  1  0.43914111  0.40427400  -0.46915058  1
  Te  Te82  1  -0.40427400  0.03486711  -0.46915058  1
  Te  Te83  1  -0.03486711  -0.43914111  -0.46915058  1
