# generated using pymatgen
data_Li2Si4Te3F12
_symmetry_space_group_name_H-M   'P 1'
_cell_length_a   6.30811510
_cell_length_b   8.32117011
_cell_length_c   16.31062357
_cell_angle_alpha   90.00000000
_cell_angle_beta   90.00000000
_cell_angle_gamma   90.00000000
_symmetry_Int_Tables_number   1
_chemical_formula_structural   Li2Si4Te3F12
_chemical_formula_sum   'Li8 Si16 Te12 F48'
_cell_volume   856.15929232
_cell_formula_units_Z   4
loop_
 _symmetry_equiv_pos_site_id
 _symmetry_equiv_pos_as_xyz
  1  'x, y, z'
loop_
 _atom_site_type_symbol
 _atom_site_label
 _atom_site_symmetry_multiplicity
 _atom_site_fract_x
 _atom_site_fract_y
 _atom_site_fract_z
 _atom_site_occupancy
  F  F0  1  0.06535769  0.27650167  0.30114538  1
  F  F1  1  0.93464231  0.72349833  0.30114538  1
  F  F2  1  0.43464231  0.77650167  0.69885462  1
  F  F3  1  0.56535769  0.22349833  0.69885462  1
  F  F4  1  0.93464231  0.72349833  0.69885462  1
  F  F5  1  0.06535769  0.27650167  0.69885462  1
  F  F6  1  0.56535769  0.22349833  0.30114538  1
  F  F7  1  0.43464231  0.77650167  0.30114538  1
  F  F8  1  0.28292293  0.13220294  0.76322183  1
  F  F9  1  0.71707707  0.86779706  0.76322183  1
  F  F10  1  0.21707707  0.63220294  0.23677817  1
  F  F11  1  0.78292293  0.36779706  0.23677817  1
  F  F12  1  0.71707707  0.86779706  0.23677817  1
  F  F13  1  0.28292293  0.13220294  0.23677817  1
  F  F14  1  0.78292293  0.36779706  0.76322183  1
  F  F15  1  0.21707707  0.63220294  0.76322183  1
  F  F16  1  0.61546229  0.30774170  0.86590524  1
  F  F17  1  0.38453771  0.69225830  0.86590524  1
  F  F18  1  0.88453771  0.80774170  0.13409476  1
  F  F19  1  0.11546229  0.19225830  0.13409476  1
  F  F20  1  0.38453771  0.69225830  0.13409476  1
  F  F21  1  0.61546229  0.30774170  0.13409476  1
  F  F22  1  0.11546229  0.19225830  0.86590524  1
  F  F23  1  0.88453771  0.80774170  0.86590524  1
  F  F24  1  0.91328681  0.75965829  0.00000000  1
  F  F25  1  0.08671319  0.24034171  0.00000000  1
  F  F26  1  0.58671319  0.25965829  -0.00000000  1
  F  F27  1  0.41328681  0.74034171  0.00000000  1
  F  F28  1  0.08426223  0.26248226  0.14232086  1
  F  F29  1  0.91573777  0.73751774  0.14232086  1
  F  F30  1  0.41573777  0.76248226  0.85767914  1
  F  F31  1  0.58426223  0.23751774  0.85767914  1
  F  F32  1  0.91573777  0.73751774  0.85767914  1
  F  F33  1  0.08426223  0.26248226  0.85767914  1
  F  F34  1  0.58426223  0.23751774  0.14232086  1
  F  F35  1  0.41573777  0.76248226  0.14232086  1
  F  F36  1  0.30209525  0.11297534  0.84580477  1
  F  F37  1  0.69790475  0.88702466  0.84580477  1
  F  F38  1  0.19790475  0.61297534  0.15419523  1
  F  F39  1  0.80209525  0.38702466  0.15419523  1
  F  F40  1  0.69790475  0.88702466  0.15419523  1
  F  F41  1  0.30209525  0.11297534  0.15419523  1
  F  F42  1  0.80209525  0.38702466  0.84580477  1
  F  F43  1  0.19790475  0.61297534  0.84580477  1
  F  F44  1  0.00000000  0.00000000  0.14721366  1
  F  F45  1  0.50000000  0.50000000  0.85278634  1
  F  F46  1  0.00000000  0.00000000  0.85278634  1
  F  F47  1  0.50000000  0.50000000  0.14721366  1
  Li  Li48  1  0.00000000  0.00000000  0.00000000  1
  Li  Li49  1  0.50000000  0.50000000  -0.00000000  1
  Li  Li50  1  0.79241203  0.29708790  0.50000000  1
  Li  Li51  1  0.20758797  0.70291210  0.50000000  1
  Li  Li52  1  0.70758797  0.79708790  0.50000000  1
  Li  Li53  1  0.29241203  0.20291210  0.50000000  1
  Li  Li54  1  0.00000000  0.00000000  0.50000000  1
  Li  Li55  1  0.50000000  0.50000000  0.50000000  1
  Si  Si56  1  0.21192957  0.63387331  0.00000000  1
  Si  Si57  1  0.78807043  0.36612669  -0.00000000  1
  Si  Si58  1  0.28807043  0.13387331  -0.00000000  1
  Si  Si59  1  0.71192957  0.86612669  0.00000000  1
  Si  Si60  1  0.12653077  0.43270253  0.50000000  1
  Si  Si61  1  0.87346923  0.56729747  0.50000000  1
  Si  Si62  1  0.37346923  0.93270253  0.50000000  1
  Si  Si63  1  0.62653077  0.06729747  0.50000000  1
  Si  Si64  1  0.32106939  0.48788295  0.72256032  1
  Si  Si65  1  0.67893061  0.51211705  0.72256032  1
  Si  Si66  1  0.17893061  0.98788295  0.27743968  1
  Si  Si67  1  0.82106939  0.01211705  0.27743968  1
  Si  Si68  1  0.67893061  0.51211705  0.27743968  1
  Si  Si69  1  0.32106939  0.48788295  0.27743968  1
  Si  Si70  1  0.82106939  0.01211705  0.72256032  1
  Si  Si71  1  0.17893061  0.98788295  0.72256032  1
  Te  Te72  1  0.64933154  0.70891116  0.64440183  1
  Te  Te73  1  -0.64933154  -0.70891116  0.64440183  1
  Te  Te74  1  -0.14933154  1.20891116  -0.64440183  1
  Te  Te75  1  1.14933154  -0.20891116  -0.64440183  1
  Te  Te76  1  -0.64933154  -0.70891116  -0.64440183  1
  Te  Te77  1  0.64933154  0.70891116  -0.64440183  1
  Te  Te78  1  1.14933154  -0.20891116  0.64440183  1
  Te  Te79  1  -0.14933154  1.20891116  0.64440183  1
  Te  Te80  1  0.00000000  0.00000000  0.34027322  1
  Te  Te81  1  0.50000000  0.50000000  0.65972678  1
  Te  Te82  1  0.00000000  0.00000000  0.65972678  1
  Te  Te83  1  0.50000000  0.50000000  0.34027322  1
