# generated using pymatgen
data_LiF
_symmetry_space_group_name_H-M   'P 1'
_cell_length_a   8.83530457
_cell_length_b   8.83530457
_cell_length_c   8.10887251
_cell_angle_alpha   90.00000000
_cell_angle_beta   90.00000000
_cell_angle_gamma   120.00000000
_symmetry_Int_Tables_number   1
_chemical_formula_structural   LiF
_chemical_formula_sum   'Li16 F16'
_cell_volume   548.19384425
_cell_formula_units_Z   16
loop_
 _symmetry_equiv_pos_site_id
 _symmetry_equiv_pos_as_xyz
  1  'x, y, z'
loop_
 _atom_site_type_symbol
 _atom_site_label
 _atom_site_symmetry_multiplicity
 _atom_site_fract_x
 _atom_site_fract_y
 _atom_site_fract_z
 _atom_site_occupancy
  F  F0  1  0.66666667  0.33333333  -0.00000000  1
  F  F1  1  0.82069317  0.24427892  0.83453003  1
  F  F2  1  0.75572108  0.57641426  0.83453003  1
  F  F3  1  0.42358574  0.17930683  0.83453003  1
  F  F4  1  0.75572108  0.17930683  0.16546997  1
  F  F5  1  0.42358574  0.24427892  0.16546997  1
  F  F6  1  0.82069317  0.57641426  0.16546997  1
  F  F7  1  0.46415615  0.53584385  0.50000000  1
  F  F8  1  0.46415615  0.92831230  0.50000000  1
  F  F9  1  0.07168770  0.53584385  0.50000000  1
  F  F10  1  0.65509150  0.62908524  0.28155001  1
  F  F11  1  0.37091476  0.02600626  0.28155001  1
  F  F12  1  0.97399374  0.34490850  0.28155001  1
  F  F13  1  0.37091476  0.34490850  0.71844999  1
  F  F14  1  0.97399374  0.62908524  0.71844999  1
  F  F15  1  0.65509150  0.02600626  0.71844999  1
  Li  Li16  1  0.19922304  0.05651655  0.42764109  1
  Li  Li17  1  -0.05651655  0.14270649  0.42764109  1
  Li  Li18  1  -0.14270649  -0.19922304  0.42764109  1
  Li  Li19  1  -0.05651655  -0.19922304  -0.42764109  1
  Li  Li20  1  -0.14270649  0.05651655  -0.42764109  1
  Li  Li21  1  0.19922304  0.14270649  -0.42764109  1
  Li  Li22  1  0.33333333  0.66666667  0.00000000  1
  Li  Li23  1  0.77095474  0.67446417  0.92128115  1
  Li  Li24  1  0.32553583  0.09649057  0.92128115  1
  Li  Li25  1  0.90350943  0.22904526  0.92128115  1
  Li  Li26  1  0.32553583  0.22904526  0.07871885  1
  Li  Li27  1  0.90350943  0.67446417  0.07871885  1
  Li  Li28  1  0.77095474  0.09649057  0.07871885  1
  Li  Li29  1  0.66666667  0.33333333  0.50000000  1
  Li  Li30  1  0.00000000  0.00000000  0.40360919  1
  Li  Li31  1  0.00000000  0.00000000  0.59639081  1
