# generated using pymatgen
data_LiF
_symmetry_space_group_name_H-M   'P 1'
_cell_length_a   6.47885924
_cell_length_b   10.86752435
_cell_length_c   8.89829879
_cell_angle_alpha   90.00000000
_cell_angle_beta   90.00000000
_cell_angle_gamma   90.00000000
_symmetry_Int_Tables_number   1
_chemical_formula_structural   LiF
_chemical_formula_sum   'Li24 F24'
_cell_volume   626.52174791
_cell_formula_units_Z   24
loop_
 _symmetry_equiv_pos_site_id
 _symmetry_equiv_pos_as_xyz
  1  'x, y, z'
loop_
 _atom_site_type_symbol
 _atom_site_label
 _atom_site_symmetry_multiplicity
 _atom_site_fract_x
 _atom_site_fract_y
 _atom_site_fract_z
 _atom_site_occupancy
  F  F0  1  0.89145926  0.42875541  0.93345105  1
  F  F1  1  0.10854074  0.57124459  0.93345105  1
  F  F2  1  0.60854074  0.92875541  0.06654895  1
  F  F3  1  0.39145926  0.07124459  0.06654895  1
  F  F4  1  0.10854074  0.57124459  0.06654895  1
  F  F5  1  0.89145926  0.42875541  0.06654895  1
  F  F6  1  0.39145926  0.07124459  0.93345105  1
  F  F7  1  0.60854074  0.92875541  0.93345105  1
  F  F8  1  0.00000000  0.50000000  -0.00000000  1
  F  F9  1  0.50000000  0.00000000  -0.00000000  1
  F  F10  1  0.09149636  0.42245060  0.29160203  1
  F  F11  1  0.90850364  0.57754940  0.29160203  1
  F  F12  1  0.40850364  0.92245060  0.70839797  1
  F  F13  1  0.59149636  0.07754940  0.70839797  1
  F  F14  1  0.90850364  0.57754940  0.70839797  1
  F  F15  1  0.09149636  0.42245060  0.70839797  1
  F  F16  1  0.59149636  0.07754940  0.29160203  1
  F  F17  1  0.40850364  0.92245060  0.29160203  1
  F  F18  1  0.81859224  0.06731308  -0.00000000  1
  F  F19  1  0.18140776  0.93268692  -0.00000000  1
  F  F20  1  0.68140776  0.56731308  -0.00000000  1
  F  F21  1  0.31859224  0.43268692  0.00000000  1
  F  F22  1  0.00000000  0.00000000  0.00000000  1
  F  F23  1  0.50000000  0.50000000  0.00000000  1
  Li  Li24  1  0.84858864  0.80422618  0.50000000  1
  Li  Li25  1  0.15141136  0.19577382  0.50000000  1
  Li  Li26  1  0.65141136  0.30422618  0.50000000  1
  Li  Li27  1  0.34858864  0.69577382  0.50000000  1
  Li  Li28  1  0.00000000  0.50000000  0.50000000  1
  Li  Li29  1  0.50000000  0.00000000  0.50000000  1
  Li  Li30  1  0.75963982  0.88041400  0.32917984  1
  Li  Li31  1  -0.75963982  -0.88041400  0.32917984  1
  Li  Li32  1  -0.25963982  1.38041400  -0.32917984  1
  Li  Li33  1  1.25963982  -0.38041400  -0.32917984  1
  Li  Li34  1  -0.75963982  -0.88041400  -0.32917984  1
  Li  Li35  1  0.75963982  0.88041400  -0.32917984  1
  Li  Li36  1  1.25963982  -0.38041400  0.32917984  1
  Li  Li37  1  -0.25963982  1.38041400  0.32917984  1
  Li  Li38  1  0.30668558  0.44353066  0.11498187  1
  Li  Li39  1  0.69331442  0.55646934  0.11498187  1
  Li  Li40  1  0.19331442  0.94353066  0.88501813  1
  Li  Li41  1  0.80668558  0.05646934  0.88501813  1
  Li  Li42  1  0.69331442  0.55646934  0.88501813  1
  Li  Li43  1  0.30668558  0.44353066  0.88501813  1
  Li  Li44  1  0.80668558  0.05646934  0.11498187  1
  Li  Li45  1  0.19331442  0.94353066  0.11498187  1
  Li  Li46  1  0.00000000  0.00000000  0.50000000  1
  Li  Li47  1  0.50000000  0.50000000  0.50000000  1
