# generated using pymatgen
data_Li2YAs2P4Se
_symmetry_space_group_name_H-M   'P 1'
_cell_length_a   5.43638055
_cell_length_b   5.35229951
_cell_length_c   7.60854372
_cell_angle_alpha   94.90193465
_cell_angle_beta   100.67539457
_cell_angle_gamma   109.68912324
_symmetry_Int_Tables_number   1
_chemical_formula_structural   Li2YAs2P4Se
_chemical_formula_sum   'Li2 Y1 As2 P4 Se1'
_cell_volume   202.20310958
_cell_formula_units_Z   1
loop_
 _symmetry_equiv_pos_site_id
 _symmetry_equiv_pos_as_xyz
  1  'x, y, z'
loop_
 _atom_site_type_symbol
 _atom_site_label
 _atom_site_symmetry_multiplicity
 _atom_site_fract_x
 _atom_site_fract_y
 _atom_site_fract_z
 _atom_site_occupancy
  Se  Se0  1  0.00000000  0.00000000  0.00000000  1
  P  P1  1  0.50000000  0.50000000  0.50000000  1
  P  P2  1  0.50000000  0.50000000  0.00000000  1
  P  P3  1  0.50000000  0.00000000  0.50000000  1
  P  P4  1  0.00000000  0.50000000  0.50000000  1
  As  As5  1  0.56255578  0.06027960  0.81022819  1
  As  As6  1  0.38769795  0.14682383  0.66972946  1
  Li  Li7  1  0.04055775  0.36273663  0.09198403  1
  Li  Li8  1  0.18357036  0.59905801  0.67166741  1
  Y  Y9  1  0.88747329  0.87830946  0.86796626  1
