# generated using pymatgen
data_LiF
_symmetry_space_group_name_H-M   'P 1'
_cell_length_a   9.85521479
_cell_length_b   9.63500370
_cell_length_c   7.55938416
_cell_angle_alpha   90.00000000
_cell_angle_beta   90.00000000
_cell_angle_gamma   90.00000000
_symmetry_Int_Tables_number   1
_chemical_formula_structural   LiF
_chemical_formula_sum   'Li24 F24'
_cell_volume   717.80155678
_cell_formula_units_Z   24
loop_
 _symmetry_equiv_pos_site_id
 _symmetry_equiv_pos_as_xyz
  1  'x, y, z'
loop_
 _atom_site_type_symbol
 _atom_site_label
 _atom_site_symmetry_multiplicity
 _atom_site_fract_x
 _atom_site_fract_y
 _atom_site_fract_z
 _atom_site_occupancy
  F  F0  1  0.77766009  0.25000000  0.25324094  1
  F  F1  1  0.72233991  0.75000000  0.75324094  1
  F  F2  1  0.22233991  0.75000000  0.74675906  1
  F  F3  1  0.27766009  0.25000000  0.24675906  1
  F  F4  1  0.34221276  0.25000000  0.10225096  1
  F  F5  1  0.15778724  0.75000000  0.60225096  1
  F  F6  1  0.65778724  0.75000000  0.89774904  1
  F  F7  1  0.84221276  0.25000000  0.39774904  1
  F  F8  1  0.79583013  0.15504785  0.22788965  1
  F  F9  1  0.70416987  0.84495215  0.72788965  1
  F  F10  1  0.20416987  0.65504785  0.77211035  1
  F  F11  1  0.29583013  0.34495215  0.27211035  1
  F  F12  1  0.20416987  0.84495215  0.77211035  1
  F  F13  1  0.29583013  0.15504785  0.27211035  1
  F  F14  1  0.79583013  0.34495215  0.22788965  1
  F  F15  1  0.70416987  0.65504785  0.72788965  1
  F  F16  1  0.27102393  0.19345531  0.20910546  1
  F  F17  1  0.22897607  0.80654469  0.70910546  1
  F  F18  1  0.72897607  0.69345531  0.79089454  1
  F  F19  1  0.77102393  0.30654469  0.29089454  1
  F  F20  1  0.72897607  0.80654469  0.79089454  1
  F  F21  1  0.77102393  0.19345531  0.29089454  1
  F  F22  1  0.27102393  0.30654469  0.20910546  1
  F  F23  1  0.22897607  0.69345531  0.70910546  1
  Li  Li24  1  0.16572233  0.25000000  0.15867443  1
  Li  Li25  1  0.33427767  0.75000000  0.65867443  1
  Li  Li26  1  0.83427767  0.75000000  0.84132557  1
  Li  Li27  1  0.66572233  0.25000000  0.34132557  1
  Li  Li28  1  0.00000000  0.00000000  0.00000000  1
  Li  Li29  1  0.50000000  0.00000000  0.50000000  1
  Li  Li30  1  0.00000000  0.50000000  0.00000000  1
  Li  Li31  1  0.50000000  0.50000000  0.50000000  1
  Li  Li32  1  0.86851198  0.37133120  0.62906504  1
  Li  Li33  1  -0.36851198  -0.37133120  1.12906504  1
  Li  Li34  1  -0.86851198  0.87133120  -0.62906504  1
  Li  Li35  1  1.36851198  0.12866880  -0.12906504  1
  Li  Li36  1  -0.86851198  -0.37133120  -0.62906504  1
  Li  Li37  1  1.36851198  0.37133120  -0.12906504  1
  Li  Li38  1  0.86851198  0.12866880  0.62906504  1
  Li  Li39  1  -0.36851198  0.87133120  1.12906504  1
  Li  Li40  1  0.00000000  0.00000000  0.50000000  1
  Li  Li41  1  0.50000000  0.00000000  0.00000000  1
  Li  Li42  1  0.00000000  0.50000000  0.50000000  1
  Li  Li43  1  0.50000000  0.50000000  0.00000000  1
  Li  Li44  1  0.84282801  0.25000000  0.73014792  1
  Li  Li45  1  0.65717199  0.75000000  0.23014792  1
  Li  Li46  1  0.15717199  0.75000000  0.26985208  1
  Li  Li47  1  0.34282801  0.25000000  0.76985208  1
