# generated using pymatgen
data_Li2Si4Te3F12
_symmetry_space_group_name_H-M   'P 1'
_cell_length_a   7.99942320
_cell_length_b   7.99942320
_cell_length_c   17.29650612
_cell_angle_alpha   90.00000000
_cell_angle_beta   90.00000000
_cell_angle_gamma   90.00000000
_symmetry_Int_Tables_number   1
_chemical_formula_structural   Li2Si4Te3F12
_chemical_formula_sum   'Li8 Si16 Te12 F48'
_cell_volume   1106.81677244
_cell_formula_units_Z   4
loop_
 _symmetry_equiv_pos_site_id
 _symmetry_equiv_pos_as_xyz
  1  'x, y, z'
loop_
 _atom_site_type_symbol
 _atom_site_label
 _atom_site_symmetry_multiplicity
 _atom_site_fract_x
 _atom_site_fract_y
 _atom_site_fract_z
 _atom_site_occupancy
  F  F0  1  0.25550683  0.50550683  0.87500000  1
  F  F1  1  0.24449317  0.49449317  0.37500000  1
  F  F2  1  0.74449317  0.00550683  0.12500000  1
  F  F3  1  0.75550683  0.99449317  0.62500000  1
  F  F4  1  0.74449317  0.49449317  0.12500000  1
  F  F5  1  0.75550683  0.50550683  0.62500000  1
  F  F6  1  0.25550683  0.99449317  0.87500000  1
  F  F7  1  0.24449317  0.00550683  0.37500000  1
  F  F8  1  0.75550683  0.00550683  0.37500000  1
  F  F9  1  0.74449317  0.99449317  0.87500000  1
  F  F10  1  0.24449317  0.50550683  0.62500000  1
  F  F11  1  0.25550683  0.49449317  0.12500000  1
  F  F12  1  0.24449317  0.99449317  0.62500000  1
  F  F13  1  0.25550683  0.00550683  0.12500000  1
  F  F14  1  0.75550683  0.49449317  0.37500000  1
  F  F15  1  0.74449317  0.50550683  0.87500000  1
  F  F16  1  0.94094719  0.34605984  0.39259196  1
  F  F17  1  -0.44094719  -0.34605984  0.89259196  1
  F  F18  1  -0.09605984  1.69094719  0.64259196  1
  F  F19  1  0.59605984  -0.69094719  1.14259196  1
  F  F20  1  -0.44094719  0.34605984  0.10740804  1
  F  F21  1  0.94094719  -0.34605984  -0.39259196  1
  F  F22  1  0.59605984  1.69094719  -0.14259196  1
  F  F23  1  -0.09605984  -0.69094719  0.35740804  1
  F  F24  1  -0.94094719  -0.34605984  -0.39259196  1
  F  F25  1  1.44094719  0.34605984  0.10740804  1
  F  F26  1  1.09605984  -0.69094719  0.35740804  1
  F  F27  1  0.40394016  1.69094719  -0.14259196  1
  F  F28  1  1.44094719  -0.34605984  0.89259196  1
  F  F29  1  -0.94094719  0.34605984  0.39259196  1
  F  F30  1  0.40394016  -0.69094719  1.14259196  1
  F  F31  1  1.09605984  1.69094719  0.64259196  1
  F  F32  1  1.44094719  0.84605984  0.89259196  1
  F  F33  1  0.05905281  0.15394016  1.39259196  1
  F  F34  1  0.40394016  2.19094719  1.14259196  1
  F  F35  1  1.09605984  -0.19094719  1.64259196  1
  F  F36  1  0.05905281  0.84605984  0.60740804  1
  F  F37  1  1.44094719  0.15394016  0.10740804  1
  F  F38  1  1.09605984  2.19094719  0.35740804  1
  F  F39  1  0.40394016  -0.19094719  0.85740804  1
  F  F40  1  -0.44094719  0.15394016  0.10740804  1
  F  F41  1  1.94094719  0.84605984  0.60740804  1
  F  F42  1  1.59605984  -0.19094719  0.85740804  1
  F  F43  1  0.90394016  2.19094719  0.35740804  1
  F  F44  1  1.94094719  0.15394016  1.39259196  1
  F  F45  1  -0.44094719  0.84605984  0.89259196  1
  F  F46  1  0.90394016  -0.19094719  1.64259196  1
  F  F47  1  1.59605984  2.19094719  1.14259196  1
  Li  Li48  1  0.00000000  0.00000000  0.50000000  1
  Li  Li49  1  0.50000000  0.00000000  0.00000000  1
  Li  Li50  1  0.25000000  0.75000000  0.75000000  1
  Li  Li51  1  0.25000000  0.25000000  0.25000000  1
  Li  Li52  1  0.50000000  0.50000000  0.00000000  1
  Li  Li53  1  0.00000000  0.50000000  0.50000000  1
  Li  Li54  1  0.75000000  0.25000000  0.25000000  1
  Li  Li55  1  0.75000000  0.75000000  0.75000000  1
  Si  Si56  1  0.00000000  0.11296491  0.13245100  1
  Si  Si57  1  0.50000000  0.88703509  0.63245100  1
  Si  Si58  1  0.13703509  0.75000000  0.38245100  1
  Si  Si59  1  0.36296491  0.25000000  0.88245100  1
  Si  Si60  1  0.50000000  0.11296491  0.36754900  1
  Si  Si61  1  0.00000000  0.88703509  0.86754900  1
  Si  Si62  1  0.36296491  0.75000000  0.11754900  1
  Si  Si63  1  0.13703509  0.25000000  0.61754900  1
  Si  Si64  1  0.50000000  0.61296491  0.63245100  1
  Si  Si65  1  0.00000000  0.38703509  0.13245100  1
  Si  Si66  1  0.63703509  0.25000000  0.88245100  1
  Si  Si67  1  0.86296491  0.75000000  0.38245100  1
  Si  Si68  1  0.00000000  0.61296491  0.86754900  1
  Si  Si69  1  0.50000000  0.38703509  0.36754900  1
  Si  Si70  1  0.86296491  0.25000000  0.61754900  1
  Si  Si71  1  0.63703509  0.75000000  0.11754900  1
  Te  Te72  1  0.00000000  0.75000000  0.12500000  1
  Te  Te73  1  0.50000000  0.75000000  0.37500000  1
  Te  Te74  1  0.50000000  0.25000000  0.62500000  1
  Te  Te75  1  0.00000000  0.25000000  0.87500000  1
  Te  Te76  1  0.00000000  0.25000000  0.78106596  1
  Te  Te77  1  0.00000000  0.75000000  0.03106596  1
  Te  Te78  1  0.50000000  0.25000000  0.71893404  1
  Te  Te79  1  0.50000000  0.75000000  0.46893404  1
  Te  Te80  1  0.50000000  0.75000000  0.28106596  1
  Te  Te81  1  0.50000000  0.25000000  0.53106596  1
  Te  Te82  1  0.00000000  0.75000000  0.21893404  1
  Te  Te83  1  0.00000000  0.25000000  0.96893404  1
