# generated using pymatgen
data_Li2Y2P3Se
_symmetry_space_group_name_H-M   'P 1'
_cell_length_a   4.40937504
_cell_length_b   4.67246487
_cell_length_c   6.83999924
_cell_angle_alpha   95.51437625
_cell_angle_beta   102.15134266
_cell_angle_gamma   112.32072908
_symmetry_Int_Tables_number   1
_chemical_formula_structural   Li2Y2P3Se
_chemical_formula_sum   'Li2 Y2 P3 Se1'
_cell_volume   125.00450758
_cell_formula_units_Z   1
loop_
 _symmetry_equiv_pos_site_id
 _symmetry_equiv_pos_as_xyz
  1  'x, y, z'
loop_
 _atom_site_type_symbol
 _atom_site_label
 _atom_site_symmetry_multiplicity
 _atom_site_fract_x
 _atom_site_fract_y
 _atom_site_fract_z
 _atom_site_occupancy
  P  P0  1  0.12500000  0.00000000  0.25000000  1
  P  P1  1  0.00000000  0.00000000  0.00000000  1
  P  P2  1  0.37500000  0.00000000  0.25000000  1
  Se  Se3  1  0.25000000  0.25000000  0.25000000  1
  Li  Li4  1  0.00000000  0.25000000  0.12500000  1
  Li  Li5  1  0.20616684  0.32877923  0.22905100  1
  Y  Y6  1  0.81220321  0.22732835  0.78534560  1
  Y  Y7  1  0.74358735  0.36306993  0.85892945  1
