# generated using pymatgen
data_Li2TiTe2Se
_symmetry_space_group_name_H-M   'P 1'
_cell_length_a   11.41382479
_cell_length_b   11.41382479
_cell_length_c   4.65869785
_cell_angle_alpha   90.00000000
_cell_angle_beta   90.00000000
_cell_angle_gamma   120.00000000
_symmetry_Int_Tables_number   1
_chemical_formula_structural   Li2TiTe2Se
_chemical_formula_sum   'Li12 Ti6 Te12 Se6'
_cell_volume   525.60268951
_cell_formula_units_Z   6
loop_
 _symmetry_equiv_pos_site_id
 _symmetry_equiv_pos_as_xyz
  1  'x, y, z'
loop_
 _atom_site_type_symbol
 _atom_site_label
 _atom_site_symmetry_multiplicity
 _atom_site_fract_x
 _atom_site_fract_y
 _atom_site_fract_z
 _atom_site_occupancy
  Li  Li0  1  0.08923033  0.47093639  0.25000000  1
  Li  Li1  1  0.52906361  0.61829394  0.25000000  1
  Li  Li2  1  0.38170606  0.91076967  0.25000000  1
  Li  Li3  1  0.91076967  0.52906361  0.75000000  1
  Li  Li4  1  0.47093639  0.38170606  0.75000000  1
  Li  Li5  1  0.61829394  0.08923033  0.75000000  1
  Li  Li6  1  0.00000000  0.00000000  0.25000000  1
  Li  Li7  1  0.00000000  0.00000000  0.75000000  1
  Li  Li8  1  0.33333333  0.66666667  0.42988244  1
  Li  Li9  1  0.66666667  0.33333333  0.92988244  1
  Li  Li10  1  0.66666667  0.33333333  0.57011756  1
  Li  Li11  1  0.33333333  0.66666667  0.07011756  1
  Se  Se12  1  0.73734534  0.91337432  0.25000000  1
  Se  Se13  1  0.08662568  0.82397102  0.25000000  1
  Se  Se14  1  0.17602898  0.26265466  0.25000000  1
  Se  Se15  1  0.26265466  0.08662568  0.75000000  1
  Se  Se16  1  0.91337432  0.17602898  0.75000000  1
  Se  Se17  1  0.82397102  0.73734534  0.75000000  1
  Te  Te18  1  0.02838970  0.19207192  0.56876277  1
  Te  Te19  1  -0.19207192  -0.16368222  0.56876277  1
  Te  Te20  1  0.16368222  -0.02838970  0.56876277  1
  Te  Te21  1  -0.02838970  -0.19207192  1.06876277  1
  Te  Te22  1  0.19207192  0.16368222  1.06876277  1
  Te  Te23  1  -0.16368222  0.02838970  1.06876277  1
  Te  Te24  1  -0.02838970  -0.19207192  -0.56876277  1
  Te  Te25  1  0.19207192  0.16368222  -0.56876277  1
  Te  Te26  1  -0.16368222  0.02838970  -0.56876277  1
  Te  Te27  1  0.02838970  0.19207192  -0.06876277  1
  Te  Te28  1  -0.19207192  -0.16368222  -0.06876277  1
  Te  Te29  1  0.16368222  -0.02838970  -0.06876277  1
  Ti  Ti30  1  0.50000000  0.00000000  0.00000000  1
  Ti  Ti31  1  0.00000000  0.50000000  0.00000000  1
  Ti  Ti32  1  0.50000000  0.50000000  0.00000000  1
  Ti  Ti33  1  0.50000000  0.00000000  0.50000000  1
  Ti  Ti34  1  0.00000000  0.50000000  0.50000000  1
  Ti  Ti35  1  0.50000000  0.50000000  0.50000000  1
