# generated using pymatgen
data_Li6Y2Al(P2Se)2
_symmetry_space_group_name_H-M   'P 1'
_cell_length_a   7.62360863
_cell_length_b   8.04058616
_cell_length_c   8.23735389
_cell_angle_alpha   90.00000000
_cell_angle_beta   90.00000000
_cell_angle_gamma   90.00000000
_symmetry_Int_Tables_number   1
_chemical_formula_structural   Li6Y2Al(P2Se)2
_chemical_formula_sum   'Li6 Y2 Al1 P4 Se2'
_cell_volume   504.93564223
_cell_formula_units_Z   1
loop_
 _symmetry_equiv_pos_site_id
 _symmetry_equiv_pos_as_xyz
  1  'x, y, z'
loop_
 _atom_site_type_symbol
 _atom_site_label
 _atom_site_symmetry_multiplicity
 _atom_site_fract_x
 _atom_site_fract_y
 _atom_site_fract_z
 _atom_site_occupancy
  Al  Al0  1  0.00000000  0.00000000  0.00000000  1
  Se  Se1  1  0.50000000  0.50000000  0.50000000  1
  Se  Se2  1  0.25000000  0.25000000  0.25000000  1
  P  P3  1  0.75000000  0.25000000  0.00000000  1
  P  P4  1  0.25000000  0.75000000  0.50000000  1
  P  P5  1  0.04496679  0.06566226  0.79915789  1
  P  P6  1  0.97139209  0.17015406  0.04734306  1
  Li  Li7  1  0.22237665  0.82928916  0.44897569  1
  Li  Li8  1  0.96509071  0.40071872  0.71834075  1
  Li  Li9  1  0.86177416  0.71114106  0.93892435  1
  Li  Li10  1  0.07460584  0.83093364  0.21618715  1
  Li  Li11  1  0.43931835  0.93892455  0.92581754  1
  Li  Li12  1  0.70130640  0.20823282  0.03563582  1
  Y  Y13  1  0.85531097  0.52532610  0.97818402  1
  Y  Y14  1  0.05076064  0.41178262  0.73124263  1
