# generated using pymatgen
data_LiY2Te4AsP3
_symmetry_space_group_name_H-M   'P 1'
_cell_length_a   4.04841684
_cell_length_b   4.24820064
_cell_length_c   6.69512974
_cell_angle_alpha   96.48852618
_cell_angle_beta   103.47586654
_cell_angle_gamma   112.87974161
_symmetry_Int_Tables_number   1
_chemical_formula_structural   LiY2Te4AsP3
_chemical_formula_sum   'Li1 Y2 Te4 As1 P3'
_cell_volume   100.46674343
_cell_formula_units_Z   1
loop_
 _symmetry_equiv_pos_site_id
 _symmetry_equiv_pos_as_xyz
  1  'x, y, z'
loop_
 _atom_site_type_symbol
 _atom_site_label
 _atom_site_symmetry_multiplicity
 _atom_site_fract_x
 _atom_site_fract_y
 _atom_site_fract_z
 _atom_site_occupancy
  Te  Te0  1  0.12500000  0.00000000  0.25000000  1
  Te  Te1  1  0.00000000  0.00000000  0.00000000  1
  Te  Te2  1  0.37500000  0.00000000  0.25000000  1
  Te  Te3  1  0.25000000  0.25000000  0.25000000  1
  P  P4  1  0.00000000  0.25000000  0.12500000  1
  P  P5  1  0.74501699  0.61590021  0.56730942  1
  P  P6  1  0.96681392  0.74356311  0.66287911  1
  As  As7  1  0.37751557  0.26549584  0.39459545  1
  Li  Li8  1  0.23215098  0.39818406  0.60015802  1
  Y  Y9  1  0.26732406  0.17493375  0.59167524  1
  Y  Y10  1  0.05640199  0.16034914  0.30326450  1
