# generated using pymatgen
data_LiF
_symmetry_space_group_name_H-M   'P 1'
_cell_length_a   10.27619402
_cell_length_b   10.35290634
_cell_length_c   7.14448916
_cell_angle_alpha   90.00000000
_cell_angle_beta   90.00000000
_cell_angle_gamma   90.00000000
_symmetry_Int_Tables_number   1
_chemical_formula_structural   LiF
_chemical_formula_sum   'Li28 F28'
_cell_volume   760.09130068
_cell_formula_units_Z   28
loop_
 _symmetry_equiv_pos_site_id
 _symmetry_equiv_pos_as_xyz
  1  'x, y, z'
loop_
 _atom_site_type_symbol
 _atom_site_label
 _atom_site_symmetry_multiplicity
 _atom_site_fract_x
 _atom_site_fract_y
 _atom_site_fract_z
 _atom_site_occupancy
  F  F0  1  0.61463061  0.40860188  0.86406470  1
  F  F1  1  -0.61463061  -0.40860188  0.86406470  1
  F  F2  1  -0.11463061  0.90860188  -0.86406470  1
  F  F3  1  1.11463061  0.09139812  -0.86406470  1
  F  F4  1  -0.61463061  -0.40860188  -0.86406470  1
  F  F5  1  0.61463061  0.40860188  -0.86406470  1
  F  F6  1  1.11463061  0.09139812  0.86406470  1
  F  F7  1  -0.11463061  0.90860188  0.86406470  1
  F  F8  1  0.25308836  0.15480124  0.60971718  1
  F  F9  1  0.74691164  0.84519876  0.60971718  1
  F  F10  1  0.24691164  0.65480124  0.39028282  1
  F  F11  1  0.75308836  0.34519876  0.39028282  1
  F  F12  1  0.74691164  0.84519876  0.39028282  1
  F  F13  1  0.25308836  0.15480124  0.39028282  1
  F  F14  1  0.75308836  0.34519876  0.60971718  1
  F  F15  1  0.24691164  0.65480124  0.60971718  1
  F  F16  1  0.06034299  0.23216727  0.63833908  1
  F  F17  1  0.93965701  0.76783273  0.63833908  1
  F  F18  1  0.43965701  0.73216727  0.36166092  1
  F  F19  1  0.56034299  0.26783273  0.36166092  1
  F  F20  1  0.93965701  0.76783273  0.36166092  1
  F  F21  1  0.06034299  0.23216727  0.36166092  1
  F  F22  1  0.56034299  0.26783273  0.63833908  1
  F  F23  1  0.43965701  0.73216727  0.63833908  1
  F  F24  1  0.00000000  0.50000000  0.10156174  1
  F  F25  1  0.50000000  0.00000000  0.89843826  1
  F  F26  1  0.00000000  0.50000000  0.89843826  1
  F  F27  1  0.50000000  0.00000000  0.10156174  1
  Li  Li28  1  0.00000000  0.00000000  0.73812291  1
  Li  Li29  1  0.50000000  0.50000000  0.26187709  1
  Li  Li30  1  0.00000000  0.00000000  0.26187709  1
  Li  Li31  1  0.50000000  0.50000000  0.73812291  1
  Li  Li32  1  0.86719124  0.01403020  0.30578138  1
  Li  Li33  1  0.13280876  0.98596980  0.30578138  1
  Li  Li34  1  0.63280876  0.51403020  0.69421862  1
  Li  Li35  1  0.36719124  0.48596980  0.69421862  1
  Li  Li36  1  0.13280876  0.98596980  0.69421862  1
  Li  Li37  1  0.86719124  0.01403020  0.69421862  1
  Li  Li38  1  0.36719124  0.48596980  0.30578138  1
  Li  Li39  1  0.63280876  0.51403020  0.30578138  1
  Li  Li40  1  0.92223504  0.59553259  0.50000000  1
  Li  Li41  1  0.07776496  0.40446741  0.50000000  1
  Li  Li42  1  0.57776496  0.09553259  0.50000000  1
  Li  Li43  1  0.42223504  0.90446741  0.50000000  1
  Li  Li44  1  0.11396165  0.17211689  0.50000000  1
  Li  Li45  1  0.88603835  0.82788311  0.50000000  1
  Li  Li46  1  0.38603835  0.67211689  0.50000000  1
  Li  Li47  1  0.61396165  0.32788311  0.50000000  1
  Li  Li48  1  0.60926668  0.70404097  0.33612190  1
  Li  Li49  1  0.39073332  0.29595903  0.33612190  1
  Li  Li50  1  0.89073332  0.20404097  0.66387810  1
  Li  Li51  1  0.10926668  0.79595903  0.66387810  1
  Li  Li52  1  0.39073332  0.29595903  0.66387810  1
  Li  Li53  1  0.60926668  0.70404097  0.66387810  1
  Li  Li54  1  0.10926668  0.79595903  0.33612190  1
  Li  Li55  1  0.89073332  0.20404097  0.33612190  1
