# generated using pymatgen
data_LiF
_symmetry_space_group_name_H-M   'P 1'
_cell_length_a   5.07900988
_cell_length_b   5.52445460
_cell_length_c   12.12747303
_cell_angle_alpha   90.00000000
_cell_angle_beta   90.00000000
_cell_angle_gamma   90.00000000
_symmetry_Int_Tables_number   1
_chemical_formula_structural   LiF
_chemical_formula_sum   'Li10 F10'
_cell_volume   340.28184850
_cell_formula_units_Z   10
loop_
 _symmetry_equiv_pos_site_id
 _symmetry_equiv_pos_as_xyz
  1  'x, y, z'
loop_
 _atom_site_type_symbol
 _atom_site_label
 _atom_site_symmetry_multiplicity
 _atom_site_fract_x
 _atom_site_fract_y
 _atom_site_fract_z
 _atom_site_occupancy
  F  F0  1  0.57868251  0.34551410  0.61344809  1
  F  F1  1  -0.57868251  -0.34551410  0.61344809  1
  F  F2  1  -0.07868251  0.84551410  -0.61344809  1
  F  F3  1  1.07868251  0.15448590  -0.61344809  1
  F  F4  1  -0.57868251  -0.34551410  -0.61344809  1
  F  F5  1  0.57868251  0.34551410  -0.61344809  1
  F  F6  1  1.07868251  0.15448590  0.61344809  1
  F  F7  1  -0.07868251  0.84551410  0.61344809  1
  F  F8  1  0.00000000  0.00000000  0.00000000  1
  F  F9  1  0.50000000  0.50000000  0.00000000  1
  Li  Li10  1  0.58233183  0.68373308  0.50000000  1
  Li  Li11  1  0.41766817  0.31626692  0.50000000  1
  Li  Li12  1  0.91766817  0.18373308  0.50000000  1
  Li  Li13  1  0.08233183  0.81626692  0.50000000  1
  Li  Li14  1  0.00000000  0.50000000  0.50000000  1
  Li  Li15  1  0.50000000  0.00000000  0.50000000  1
  Li  Li16  1  0.00000000  0.50000000  0.32545591  1
  Li  Li17  1  0.50000000  0.00000000  0.67454409  1
  Li  Li18  1  0.00000000  0.50000000  0.67454409  1
  Li  Li19  1  0.50000000  0.00000000  0.32545591  1
