# generated using pymatgen
data_Li3TiAlO
_symmetry_space_group_name_H-M   'P 1'
_cell_length_a   3.37220186
_cell_length_b   3.26633845
_cell_length_c   6.89290198
_cell_angle_alpha   102.79185577
_cell_angle_beta   108.76464187
_cell_angle_gamma   94.41311885
_symmetry_Int_Tables_number   1
_chemical_formula_structural   Li3TiAlO
_chemical_formula_sum   'Li3 Ti1 Al1 O1'
_cell_volume   69.19540185
_cell_formula_units_Z   1
loop_
 _symmetry_equiv_pos_site_id
 _symmetry_equiv_pos_as_xyz
  1  'x, y, z'
loop_
 _atom_site_type_symbol
 _atom_site_label
 _atom_site_symmetry_multiplicity
 _atom_site_fract_x
 _atom_site_fract_y
 _atom_site_fract_z
 _atom_site_occupancy
  Al  Al0  1  0.00000000  0.00000000  0.00000000  1
  Li  Li1  1  0.33300000  0.66700000  0.25000000  1
  Li  Li2  1  0.66700000  0.33300000  0.50000000  1
  Li  Li3  1  0.00000000  0.00000000  0.75000000  1
  O  O4  1  0.81819291  0.93868889  0.64860505  1
  Ti  Ti5  1  0.66641714  0.74082952  0.81409268  1
