# generated using pymatgen
data_Na3Li2Se2F
_symmetry_space_group_name_H-M   'P 1'
_cell_length_a   11.03122066
_cell_length_b   11.03122066
_cell_length_c   7.22613920
_cell_angle_alpha   90.00000000
_cell_angle_beta   90.00000000
_cell_angle_gamma   120.00000000
_symmetry_Int_Tables_number   1
_chemical_formula_structural   Na3Li2Se2F
_chemical_formula_sum   'Na12 Li8 Se8 F4'
_cell_volume   761.52488329
_cell_formula_units_Z   4
loop_
 _symmetry_equiv_pos_site_id
 _symmetry_equiv_pos_as_xyz
  1  'x, y, z'
loop_
 _atom_site_type_symbol
 _atom_site_label
 _atom_site_symmetry_multiplicity
 _atom_site_fract_x
 _atom_site_fract_y
 _atom_site_fract_z
 _atom_site_occupancy
  F  F0  1  0.59925288  0.40074712  0.00000000  1
  F  F1  1  0.59925288  0.19850576  0.00000000  1
  F  F2  1  0.80149424  0.40074712  -0.00000000  1
  F  F3  1  0.00000000  0.00000000  0.50000000  1
  Li  Li4  1  0.87476024  0.12523976  0.50000000  1
  Li  Li5  1  0.87476024  0.74952048  0.50000000  1
  Li  Li6  1  0.25047952  0.12523976  0.50000000  1
  Li  Li7  1  0.75182389  0.24817611  0.50000000  1
  Li  Li8  1  0.75182389  0.50364778  0.50000000  1
  Li  Li9  1  0.49635222  0.24817611  0.50000000  1
  Li  Li10  1  0.00000000  0.00000000  0.67337960  1
  Li  Li11  1  0.00000000  0.00000000  0.32662040  1
  Na  Na12  1  0.66666667  0.33333333  0.50000000  1
  Na  Na13  1  0.47016380  0.41327878  0.69550282  1
  Na  Na14  1  0.58672122  0.05688503  0.69550282  1
  Na  Na15  1  0.94311497  0.52983620  0.69550282  1
  Na  Na16  1  0.58672122  0.52983620  0.30449718  1
  Na  Na17  1  0.94311497  0.41327878  0.30449718  1
  Na  Na18  1  0.47016380  0.05688503  0.30449718  1
  Na  Na19  1  0.33333333  0.66666667  0.50000000  1
  Na  Na20  1  0.33333333  0.66666667  -0.00000000  1
  Na  Na21  1  0.20451232  0.79548768  0.00000000  1
  Na  Na22  1  0.20451232  0.40902465  -0.00000000  1
  Na  Na23  1  0.59097535  0.79548768  0.00000000  1
  Se  Se24  1  0.41696174  0.26736857  0.96474120  1
  Se  Se25  1  -0.26736857  0.14959317  0.96474120  1
  Se  Se26  1  -0.14959317  -0.41696174  0.96474120  1
  Se  Se27  1  -0.26736857  -0.41696174  -0.96474120  1
  Se  Se28  1  -0.14959317  0.26736857  -0.96474120  1
  Se  Se29  1  0.41696174  0.14959317  -0.96474120  1
  Se  Se30  1  0.00000000  0.00000000  0.12382020  1
  Se  Se31  1  0.00000000  0.00000000  0.87617980  1
