# generated using pymatgen
data_Li3Y2MoP3Se
_symmetry_space_group_name_H-M   'P 1'
_cell_length_a   5.82873013
_cell_length_b   6.13115653
_cell_length_c   7.37772804
_cell_angle_alpha   93.24328998
_cell_angle_beta   96.84343758
_cell_angle_gamma   102.68234345
_symmetry_Int_Tables_number   1
_chemical_formula_structural   Li3Y2MoP3Se
_chemical_formula_sum   'Li3 Y2 Mo1 P3 Se1'
_cell_volume   254.45825991
_cell_formula_units_Z   1
loop_
 _symmetry_equiv_pos_site_id
 _symmetry_equiv_pos_as_xyz
  1  'x, y, z'
loop_
 _atom_site_type_symbol
 _atom_site_label
 _atom_site_symmetry_multiplicity
 _atom_site_fract_x
 _atom_site_fract_y
 _atom_site_fract_z
 _atom_site_occupancy
  Se  Se0  1  0.12500000  0.00000000  0.25000000  1
  Y  Y1  1  0.00000000  0.00000000  0.00000000  1
  Y  Y2  1  0.37500000  0.00000000  0.25000000  1
  P  P3  1  0.25000000  0.25000000  0.25000000  1
  P  P4  1  0.00000000  0.25000000  0.12500000  1
  P  P5  1  0.05683725  0.22329885  0.86197002  1
  Mo  Mo6  1  0.85948842  0.06573391  0.13834567  1
  Li  Li7  1  0.22616523  0.43807335  0.73448796  1
  Li  Li8  1  0.73240255  0.97093066  0.74159571  1
  Li  Li9  1  0.40618584  0.03267735  0.52598486  1
