# generated using pymatgen
data_Li3YScF
_symmetry_space_group_name_H-M   'P 1'
_cell_length_a   3.24928157
_cell_length_b   3.16599494
_cell_length_c   5.31097353
_cell_angle_alpha   103.17206955
_cell_angle_beta   106.63969445
_cell_angle_gamma   111.96453505
_symmetry_Int_Tables_number   1
_chemical_formula_structural   Li3YScF
_chemical_formula_sum   'Li3 Y1 Sc1 F1'
_cell_volume   44.96574588
_cell_formula_units_Z   1
loop_
 _symmetry_equiv_pos_site_id
 _symmetry_equiv_pos_as_xyz
  1  'x, y, z'
loop_
 _atom_site_type_symbol
 _atom_site_label
 _atom_site_symmetry_multiplicity
 _atom_site_fract_x
 _atom_site_fract_y
 _atom_site_fract_z
 _atom_site_occupancy
  F  F0  1  0.00000000  0.00000000  0.00000000  1
  Li  Li1  1  0.50000000  0.50000000  0.50000000  1
  Li  Li2  1  0.50000000  0.50000000  0.00000000  1
  Li  Li3  1  0.50000000  0.00000000  0.50000000  1
  Sc  Sc4  1  0.00000000  0.50000000  0.50000000  1
  Y  Y5  1  0.84783322  0.54230530  0.58158040  1
