# generated using pymatgen
data_LiF
_symmetry_space_group_name_H-M   'P 1'
_cell_length_a   11.79588609
_cell_length_b   11.79588609
_cell_length_c   15.93559720
_cell_angle_alpha   90.00000000
_cell_angle_beta   90.00000000
_cell_angle_gamma   120.00000000
_symmetry_Int_Tables_number   1
_chemical_formula_structural   LiF
_chemical_formula_sum   'Li66 F66'
_cell_volume   1920.26035393
_cell_formula_units_Z   66
loop_
 _symmetry_equiv_pos_site_id
 _symmetry_equiv_pos_as_xyz
  1  'x, y, z'
loop_
 _atom_site_type_symbol
 _atom_site_label
 _atom_site_symmetry_multiplicity
 _atom_site_fract_x
 _atom_site_fract_y
 _atom_site_fract_z
 _atom_site_occupancy
  F  F0  1  0.18124446  0.79566976  0.67842738  1
  F  F1  1  0.20433024  0.38557470  0.67842738  1
  F  F2  1  0.61442530  0.81875554  0.67842738  1
  F  F3  1  0.79566976  0.18124446  0.82157262  1
  F  F4  1  0.38557470  0.20433024  0.82157262  1
  F  F5  1  0.81875554  0.61442530  0.82157262  1
  F  F6  1  0.81875554  0.20433024  0.32157262  1
  F  F7  1  0.79566976  0.61442530  0.32157262  1
  F  F8  1  0.38557470  0.18124446  0.32157262  1
  F  F9  1  0.20433024  0.81875554  0.17842738  1
  F  F10  1  0.61442530  0.79566976  0.17842738  1
  F  F11  1  0.18124446  0.38557470  0.17842738  1
  F  F12  1  0.84791113  0.12900309  0.01176071  1
  F  F13  1  0.87099691  0.71890804  0.01176071  1
  F  F14  1  0.28109196  0.15208887  0.01176071  1
  F  F15  1  0.46233642  0.51457780  0.15490595  1
  F  F16  1  0.05224137  0.53766358  0.15490595  1
  F  F17  1  0.48542220  0.94775863  0.15490595  1
  F  F18  1  0.48542220  0.53766358  0.65490595  1
  F  F19  1  0.46233642  0.94775863  0.65490595  1
  F  F20  1  0.05224137  0.51457780  0.65490595  1
  F  F21  1  0.87099691  0.15208887  0.51176071  1
  F  F22  1  0.28109196  0.12900309  0.51176071  1
  F  F23  1  0.84791113  0.71890804  0.51176071  1
  F  F24  1  0.51457780  0.46233642  0.34509405  1
  F  F25  1  0.53766358  0.05224137  0.34509405  1
  F  F26  1  0.94775863  0.48542220  0.34509405  1
  F  F27  1  0.12900309  0.84791113  0.48823929  1
  F  F28  1  0.71890804  0.87099691  0.48823929  1
  F  F29  1  0.15208887  0.28109196  0.48823929  1
  F  F30  1  0.15208887  0.87099691  0.98823929  1
  F  F31  1  0.12900309  0.28109196  0.98823929  1
  F  F32  1  0.71890804  0.84791113  0.98823929  1
  F  F33  1  0.53766358  0.48542220  0.84509405  1
  F  F34  1  0.94775863  0.46233642  0.84509405  1
  F  F35  1  0.51457780  0.05224137  0.84509405  1
  F  F36  1  0.50000000  0.00000000  0.00000000  1
  F  F37  1  0.00000000  0.50000000  0.00000000  1
  F  F38  1  0.50000000  0.50000000  0.00000000  1
  F  F39  1  0.00000000  0.50000000  0.50000000  1
  F  F40  1  0.50000000  0.00000000  0.50000000  1
  F  F41  1  0.50000000  0.50000000  0.50000000  1
  F  F42  1  0.16666667  0.33333333  0.33333333  1
  F  F43  1  0.66666667  0.83333333  0.33333333  1
  F  F44  1  0.16666667  0.83333333  0.33333333  1
  F  F45  1  0.66666667  0.83333333  0.83333333  1
  F  F46  1  0.16666667  0.33333333  0.83333333  1
  F  F47  1  0.16666667  0.83333333  0.83333333  1
  F  F48  1  0.83333333  0.66666667  0.66666667  1
  F  F49  1  0.33333333  0.16666667  0.66666667  1
  F  F50  1  0.83333333  0.16666667  0.66666667  1
  F  F51  1  0.33333333  0.16666667  0.16666667  1
  F  F52  1  0.83333333  0.66666667  0.16666667  1
  F  F53  1  0.83333333  0.16666667  0.16666667  1
  F  F54  1  0.00000000  0.00000000  0.06055462  1
  F  F55  1  0.00000000  0.00000000  0.43944538  1
  F  F56  1  0.00000000  0.00000000  0.93944538  1
  F  F57  1  0.00000000  0.00000000  0.56055462  1
  F  F58  1  0.66666667  0.33333333  0.39388795  1
  F  F59  1  0.66666667  0.33333333  0.77277871  1
  F  F60  1  0.66666667  0.33333333  0.27277871  1
  F  F61  1  0.66666667  0.33333333  0.89388795  1
  F  F62  1  0.33333333  0.66666667  0.72722129  1
  F  F63  1  0.33333333  0.66666667  0.10611205  1
  F  F64  1  0.33333333  0.66666667  0.60611205  1
  F  F65  1  0.33333333  0.66666667  0.22722129  1
  Li  Li66  1  0.92263219  0.31541042  0.80838577  1
  Li  Li67  1  -0.31541042  0.60722177  0.80838577  1
  Li  Li68  1  -0.60722177  -0.92263219  0.80838577  1
  Li  Li69  1  0.31541042  0.92263219  -0.30838577  1
  Li  Li70  1  0.60722177  -0.31541042  -0.30838577  1
  Li  Li71  1  -0.92263219  -0.60722177  -0.30838577  1
  Li  Li72  1  -0.92263219  -0.31541042  -0.80838577  1
  Li  Li73  1  0.31541042  -0.60722177  -0.80838577  1
  Li  Li74  1  0.60722177  0.92263219  -0.80838577  1
  Li  Li75  1  -0.31541042  -0.92263219  1.30838577  1
  Li  Li76  1  -0.60722177  0.31541042  1.30838577  1
  Li  Li77  1  0.92263219  0.60722177  1.30838577  1
  Li  Li78  1  1.58929885  0.64874375  1.14171911  1
  Li  Li79  1  0.35125625  0.94055510  1.14171911  1
  Li  Li80  1  0.05944490  -0.58929885  1.14171911  1
  Li  Li81  1  0.98207708  1.25596552  0.02494756  1
  Li  Li82  1  1.27388844  0.01792292  0.02494756  1
  Li  Li83  1  -0.25596552  -0.27388844  0.02494756  1
  Li  Li84  1  -0.25596552  0.01792292  -0.47505244  1
  Li  Li85  1  0.98207708  -0.27388844  -0.47505244  1
  Li  Li86  1  1.27388844  1.25596552  -0.47505244  1
  Li  Li87  1  0.35125625  -0.58929885  1.64171911  1
  Li  Li88  1  0.05944490  0.64874375  1.64171911  1
  Li  Li89  1  1.58929885  0.94055510  1.64171911  1
  Li  Li90  1  1.25596552  0.98207708  1.47505244  1
  Li  Li91  1  0.01792292  1.27388844  1.47505244  1
  Li  Li92  1  -0.27388844  -0.25596552  1.47505244  1
  Li  Li93  1  0.64874375  1.58929885  0.35828089  1
  Li  Li94  1  0.94055510  0.35125625  0.35828089  1
  Li  Li95  1  -0.58929885  0.05944490  0.35828089  1
  Li  Li96  1  -0.58929885  0.35125625  -0.14171911  1
  Li  Li97  1  0.64874375  0.05944490  -0.14171911  1
  Li  Li98  1  0.94055510  1.58929885  -0.14171911  1
  Li  Li99  1  0.01792292  -0.25596552  1.97505244  1
  Li  Li100  1  -0.27388844  0.98207708  1.97505244  1
  Li  Li101  1  1.25596552  1.27388844  1.97505244  1
  Li  Li102  1  0.22046224  0.00000000  0.25000000  1
  Li  Li103  1  0.00000000  0.22046224  0.25000000  1
  Li  Li104  1  0.77953776  0.77953776  0.25000000  1
  Li  Li105  1  0.77953776  0.00000000  0.75000000  1
  Li  Li106  1  0.00000000  0.77953776  0.75000000  1
  Li  Li107  1  0.22046224  0.22046224  0.75000000  1
  Li  Li108  1  0.88712891  0.33333333  0.58333333  1
  Li  Li109  1  0.66666667  0.55379558  0.58333333  1
  Li  Li110  1  0.44620442  0.11287109  0.58333333  1
  Li  Li111  1  0.44620442  0.33333333  0.08333333  1
  Li  Li112  1  0.66666667  0.11287109  0.08333333  1
  Li  Li113  1  0.88712891  0.55379558  0.08333333  1
  Li  Li114  1  0.55379558  0.66666667  0.91666667  1
  Li  Li115  1  0.33333333  0.88712891  0.91666667  1
  Li  Li116  1  0.11287109  0.44620442  0.91666667  1
  Li  Li117  1  0.11287109  0.66666667  0.41666667  1
  Li  Li118  1  0.33333333  0.44620442  0.41666667  1
  Li  Li119  1  0.55379558  0.88712891  0.41666667  1
  Li  Li120  1  0.00000000  0.00000000  0.25000000  1
  Li  Li121  1  0.00000000  0.00000000  0.75000000  1
  Li  Li122  1  0.66666667  0.33333333  0.58333333  1
  Li  Li123  1  0.66666667  0.33333333  0.08333333  1
  Li  Li124  1  0.33333333  0.66666667  0.91666667  1
  Li  Li125  1  0.33333333  0.66666667  0.41666667  1
  Li  Li126  1  0.00000000  0.00000000  0.00000000  1
  Li  Li127  1  0.00000000  0.00000000  0.50000000  1
  Li  Li128  1  0.66666667  0.33333333  0.33333333  1
  Li  Li129  1  0.66666667  0.33333333  0.83333333  1
  Li  Li130  1  0.33333333  0.66666667  0.66666667  1
  Li  Li131  1  0.33333333  0.66666667  0.16666667  1
