# generated using pymatgen
data_Li2Y2As2P3Se
_symmetry_space_group_name_H-M   'P 1'
_cell_length_a   5.61408010
_cell_length_b   5.75182116
_cell_length_c   7.26317018
_cell_angle_alpha   93.16949811
_cell_angle_beta   97.18093630
_cell_angle_gamma   103.06680052
_symmetry_Int_Tables_number   1
_chemical_formula_structural   Li2Y2As2P3Se
_chemical_formula_sum   'Li2 Y2 As2 P3 Se1'
_cell_volume   225.82293711
_cell_formula_units_Z   1
loop_
 _symmetry_equiv_pos_site_id
 _symmetry_equiv_pos_as_xyz
  1  'x, y, z'
loop_
 _atom_site_type_symbol
 _atom_site_label
 _atom_site_symmetry_multiplicity
 _atom_site_fract_x
 _atom_site_fract_y
 _atom_site_fract_z
 _atom_site_occupancy
  Se  Se0  1  0.12500000  0.00000000  0.25000000  1
  Y  Y1  1  0.00000000  0.00000000  0.00000000  1
  Y  Y2  1  0.37500000  0.00000000  0.25000000  1
  P  P3  1  0.25000000  0.25000000  0.25000000  1
  P  P4  1  0.00000000  0.25000000  0.12500000  1
  P  P5  1  0.11913813  0.41369938  0.84726973  1
  As  As6  1  0.44852348  0.26462965  0.12579899  1
  As  As7  1  0.28759256  0.22668050  0.08307112  1
  Li  Li8  1  0.70680523  0.20423744  0.83608191  1
  Li  Li9  1  0.44510965  0.31631563  0.57333732  1
