# generated using pymatgen
data_Li2Y2Te4MoP3
_symmetry_space_group_name_H-M   'P 1'
_cell_length_a   4.13823060
_cell_length_b   4.41958859
_cell_length_c   6.77942264
_cell_angle_alpha   96.41047551
_cell_angle_beta   103.96068295
_cell_angle_gamma   115.74833234
_symmetry_Int_Tables_number   1
_chemical_formula_structural   Li2Y2Te4MoP3
_chemical_formula_sum   'Li2 Y2 Te4 Mo1 P3'
_cell_volume   105.00532518
_cell_formula_units_Z   1
loop_
 _symmetry_equiv_pos_site_id
 _symmetry_equiv_pos_as_xyz
  1  'x, y, z'
loop_
 _atom_site_type_symbol
 _atom_site_label
 _atom_site_symmetry_multiplicity
 _atom_site_fract_x
 _atom_site_fract_y
 _atom_site_fract_z
 _atom_site_occupancy
  Te  Te0  1  0.00000000  0.00000000  0.00000000  1
  Te  Te1  1  0.50000000  0.50000000  0.50000000  1
  Te  Te2  1  0.50000000  0.50000000  0.00000000  1
  Te  Te3  1  0.50000000  0.00000000  0.50000000  1
  P  P4  1  0.00000000  0.50000000  0.50000000  1
  P  P5  1  0.85133575  0.57723312  0.77734289  1
  P  P6  1  0.62734038  0.15370799  0.53701247  1
  Mo  Mo7  1  0.36235760  0.58303100  0.57800099  1
  Li  Li8  1  0.28038779  0.03605034  0.13086192  1
  Li  Li9  1  0.65289885  0.43007948  0.23266978  1
  Y  Y10  1  0.95579661  0.29520794  0.04398242  1
  Y  Y11  1  0.26249285  0.42143071  0.87448973  1
