# generated using pymatgen
data_LiF
_symmetry_space_group_name_H-M   'P 1'
_cell_length_a   5.81246491
_cell_length_b   5.81246491
_cell_length_c   14.48304482
_cell_angle_alpha   90.00000000
_cell_angle_beta   90.00000000
_cell_angle_gamma   90.00000000
_symmetry_Int_Tables_number   1
_chemical_formula_structural   LiF
_chemical_formula_sum   'Li24 F24'
_cell_volume   489.30602467
_cell_formula_units_Z   24
loop_
 _symmetry_equiv_pos_site_id
 _symmetry_equiv_pos_as_xyz
  1  'x, y, z'
loop_
 _atom_site_type_symbol
 _atom_site_label
 _atom_site_symmetry_multiplicity
 _atom_site_fract_x
 _atom_site_fract_y
 _atom_site_fract_z
 _atom_site_occupancy
  F  F0  1  0.11730029  0.36730029  0.87500000  1
  F  F1  1  0.38269971  0.63269971  0.37500000  1
  F  F2  1  -0.11730029  0.86730029  0.12500000  1
  F  F3  1  0.61730029  0.13269971  0.62500000  1
  F  F4  1  -0.11730029  0.63269971  0.12500000  1
  F  F5  1  0.61730029  0.36730029  0.62500000  1
  F  F6  1  0.11730029  0.13269971  0.87500000  1
  F  F7  1  0.38269971  0.86730029  0.37500000  1
  F  F8  1  0.61730029  0.86730029  1.37500000  1
  F  F9  1  0.88269971  1.13269971  0.87500000  1
  F  F10  1  0.38269971  1.36730029  0.62500000  1
  F  F11  1  1.11730029  0.63269971  1.12500000  1
  F  F12  1  0.38269971  1.13269971  0.62500000  1
  F  F13  1  1.11730029  0.86730029  1.12500000  1
  F  F14  1  0.61730029  0.63269971  1.37500000  1
  F  F15  1  0.88269971  1.36730029  0.87500000  1
  F  F16  1  0.00000000  0.00000000  0.00000000  1
  F  F17  1  0.50000000  0.00000000  0.50000000  1
  F  F18  1  0.25000000  0.75000000  0.25000000  1
  F  F19  1  0.25000000  0.25000000  0.75000000  1
  F  F20  1  0.50000000  0.50000000  0.50000000  1
  F  F21  1  0.00000000  0.50000000  0.00000000  1
  F  F22  1  0.75000000  0.25000000  0.75000000  1
  F  F23  1  0.75000000  0.75000000  0.25000000  1
  Li  Li24  1  0.00000000  0.00000000  0.50000000  1
  Li  Li25  1  0.50000000  0.00000000  0.00000000  1
  Li  Li26  1  0.25000000  0.75000000  0.75000000  1
  Li  Li27  1  0.25000000  0.25000000  0.25000000  1
  Li  Li28  1  0.50000000  0.50000000  0.00000000  1
  Li  Li29  1  0.00000000  0.50000000  0.50000000  1
  Li  Li30  1  0.75000000  0.25000000  0.25000000  1
  Li  Li31  1  0.75000000  0.75000000  0.75000000  1
  Li  Li32  1  0.00000000  0.56186096  0.35203533  1
  Li  Li33  1  0.50000000  0.43813904  0.85203533  1
  Li  Li34  1  0.68813904  0.75000000  0.60203533  1
  Li  Li35  1  0.81186096  0.25000000  0.10203533  1
  Li  Li36  1  0.50000000  0.56186096  0.14796467  1
  Li  Li37  1  0.00000000  0.43813904  0.64796467  1
  Li  Li38  1  0.81186096  0.75000000  0.89796467  1
  Li  Li39  1  0.68813904  0.25000000  0.39796467  1
  Li  Li40  1  0.50000000  0.06186096  0.85203533  1
  Li  Li41  1  0.00000000  0.93813904  0.35203533  1
  Li  Li42  1  0.18813904  0.25000000  0.10203533  1
  Li  Li43  1  0.31186096  0.75000000  0.60203533  1
  Li  Li44  1  0.00000000  0.06186096  0.64796467  1
  Li  Li45  1  0.50000000  0.93813904  0.14796467  1
  Li  Li46  1  0.31186096  0.25000000  0.39796467  1
  Li  Li47  1  0.18813904  0.75000000  0.89796467  1
