# generated using pymatgen
data_Li2Si4Te3F12
_symmetry_space_group_name_H-M   'P 1'
_cell_length_a   8.37306594
_cell_length_b   8.37306594
_cell_length_c   21.64130563
_cell_angle_alpha   90.00000000
_cell_angle_beta   90.00000000
_cell_angle_gamma   120.00000000
_symmetry_Int_Tables_number   1
_chemical_formula_structural   Li2Si4Te3F12
_chemical_formula_sum   'Li8 Si16 Te12 F48'
_cell_volume   1313.96293023
_cell_formula_units_Z   4
loop_
 _symmetry_equiv_pos_site_id
 _symmetry_equiv_pos_as_xyz
  1  'x, y, z'
loop_
 _atom_site_type_symbol
 _atom_site_label
 _atom_site_symmetry_multiplicity
 _atom_site_fract_x
 _atom_site_fract_y
 _atom_site_fract_z
 _atom_site_occupancy
  F  F0  1  0.69611300  0.46579879  0.67025917  1
  F  F1  1  0.53420121  0.23031421  0.67025917  1
  F  F2  1  0.76968579  0.30388700  0.67025917  1
  F  F3  1  0.30388700  0.53420121  0.17025917  1
  F  F4  1  0.46579879  0.76968579  0.17025917  1
  F  F5  1  0.23031421  0.69611300  0.17025917  1
  F  F6  1  0.30388700  0.53420121  0.32974083  1
  F  F7  1  0.46579879  0.76968579  0.32974083  1
  F  F8  1  0.23031421  0.69611300  0.32974083  1
  F  F9  1  0.69611300  0.46579879  0.82974083  1
  F  F10  1  0.53420121  0.23031421  0.82974083  1
  F  F11  1  0.76968579  0.30388700  0.82974083  1
  F  F12  1  0.59351069  0.02126174  0.43127554  1
  F  F13  1  0.97873826  0.57224895  0.43127554  1
  F  F14  1  0.42775105  0.40648931  0.43127554  1
  F  F15  1  0.40648931  0.97873826  0.93127554  1
  F  F16  1  0.02126174  0.42775105  0.93127554  1
  F  F17  1  0.57224895  0.59351069  0.93127554  1
  F  F18  1  0.40648931  0.97873826  0.56872446  1
  F  F19  1  0.02126174  0.42775105  0.56872446  1
  F  F20  1  0.57224895  0.59351069  0.56872446  1
  F  F21  1  0.59351069  0.02126174  0.06872446  1
  F  F22  1  0.97873826  0.57224895  0.06872446  1
  F  F23  1  0.42775105  0.40648931  0.06872446  1
  F  F24  1  0.65666981  0.02728537  0.25000000  1
  F  F25  1  0.97271463  0.62938444  0.25000000  1
  F  F26  1  0.37061556  0.34333019  0.25000000  1
  F  F27  1  0.34333019  0.97271463  0.75000000  1
  F  F28  1  0.02728537  0.37061556  0.75000000  1
  F  F29  1  0.62938444  0.65666981  0.75000000  1
  F  F30  1  0.85739847  0.72274980  0.93705531  1
  F  F31  1  0.27725020  0.13464866  0.93705531  1
  F  F32  1  0.86535134  0.14260153  0.93705531  1
  F  F33  1  0.14260153  0.27725020  0.43705531  1
  F  F34  1  0.72274980  0.86535134  0.43705531  1
  F  F35  1  0.13464866  0.85739847  0.43705531  1
  F  F36  1  0.14260153  0.27725020  0.06294469  1
  F  F37  1  0.72274980  0.86535134  0.06294469  1
  F  F38  1  0.13464866  0.85739847  0.06294469  1
  F  F39  1  0.85739847  0.72274980  0.56294469  1
  F  F40  1  0.27725020  0.13464866  0.56294469  1
  F  F41  1  0.86535134  0.14260153  0.56294469  1
  F  F42  1  0.50000000  0.00000000  0.00000000  1
  F  F43  1  0.00000000  0.50000000  0.00000000  1
  F  F44  1  0.50000000  0.50000000  0.00000000  1
  F  F45  1  0.50000000  0.00000000  0.50000000  1
  F  F46  1  0.00000000  0.50000000  0.50000000  1
  F  F47  1  0.50000000  0.50000000  0.50000000  1
  Li  Li48  1  0.00000000  0.00000000  0.00000000  1
  Li  Li49  1  0.00000000  0.00000000  0.50000000  1
  Li  Li50  1  0.37532815  0.08065925  0.25000000  1
  Li  Li51  1  0.91934075  0.29466890  0.25000000  1
  Li  Li52  1  0.70533110  0.62467185  0.25000000  1
  Li  Li53  1  0.62467185  0.91934075  0.75000000  1
  Li  Li54  1  0.08065925  0.70533110  0.75000000  1
  Li  Li55  1  0.29466890  0.37532815  0.75000000  1
  Si  Si56  1  0.58095819  0.97149541  0.97923101  1
  Si  Si57  1  -0.97149541  -0.39053722  0.97923101  1
  Si  Si58  1  0.39053722  -0.58095819  0.97923101  1
  Si  Si59  1  -0.58095819  -0.97149541  1.47923101  1
  Si  Si60  1  0.97149541  0.39053722  1.47923101  1
  Si  Si61  1  -0.39053722  0.58095819  1.47923101  1
  Si  Si62  1  -0.58095819  -0.97149541  -0.97923101  1
  Si  Si63  1  0.97149541  0.39053722  -0.97923101  1
  Si  Si64  1  -0.39053722  0.58095819  -0.97923101  1
  Si  Si65  1  0.58095819  0.97149541  -0.47923101  1
  Si  Si66  1  -0.97149541  -0.39053722  -0.47923101  1
  Si  Si67  1  0.39053722  -0.58095819  -0.47923101  1
  Si  Si68  1  0.00000000  0.00000000  0.11208585  1
  Si  Si69  1  0.00000000  0.00000000  0.61208585  1
  Si  Si70  1  0.00000000  0.00000000  0.88791415  1
  Si  Si71  1  0.00000000  0.00000000  0.38791415  1
  Te  Te72  1  0.84823356  0.28668301  0.85924162  1
  Te  Te73  1  0.71331699  0.56155055  0.85924162  1
  Te  Te74  1  0.43844945  0.15176644  0.85924162  1
  Te  Te75  1  0.15176644  0.71331699  0.35924162  1
  Te  Te76  1  0.28668301  0.43844945  0.35924162  1
  Te  Te77  1  0.56155055  0.84823356  0.35924162  1
  Te  Te78  1  0.15176644  0.71331699  0.14075838  1
  Te  Te79  1  0.28668301  0.43844945  0.14075838  1
  Te  Te80  1  0.56155055  0.84823356  0.14075838  1
  Te  Te81  1  0.84823356  0.28668301  0.64075838  1
  Te  Te82  1  0.71331699  0.56155055  0.64075838  1
  Te  Te83  1  0.43844945  0.15176644  0.64075838  1
