# generated using pymatgen
data_Li2YAs2(PPb)2
_symmetry_space_group_name_H-M   'P 1'
_cell_length_a   5.33480805
_cell_length_b   5.31980252
_cell_length_c   7.31673213
_cell_angle_alpha   95.07080725
_cell_angle_beta   100.48469961
_cell_angle_gamma   107.65346146
_symmetry_Int_Tables_number   1
_chemical_formula_structural   Li2YAs2(PPb)2
_chemical_formula_sum   'Li2 Y1 As2 P2 Pb2'
_cell_volume   192.26981665
_cell_formula_units_Z   1
loop_
 _symmetry_equiv_pos_site_id
 _symmetry_equiv_pos_as_xyz
  1  'x, y, z'
loop_
 _atom_site_type_symbol
 _atom_site_label
 _atom_site_symmetry_multiplicity
 _atom_site_fract_x
 _atom_site_fract_y
 _atom_site_fract_z
 _atom_site_occupancy
  Pb  Pb0  1  0.00000000  0.00000000  0.00000000  1
  Pb  Pb1  1  0.50000000  0.50000000  0.50000000  1
  Y  Y2  1  0.25000000  0.25000000  0.25000000  1
  P  P3  1  0.75000000  0.25000000  0.00000000  1
  P  P4  1  0.25000000  0.75000000  0.50000000  1
  As  As5  1  0.21912407  0.90504251  0.97825006  1
  As  As6  1  0.62376180  0.59604901  0.68551715  1
  Li  Li7  1  0.43008876  0.60387935  0.89571513  1
  Li  Li8  1  0.56118936  0.17671185  0.35898399  1
