# generated using pymatgen
data_Li2YAsP4Se
_symmetry_space_group_name_H-M   'P 1'
_cell_length_a   4.93424113
_cell_length_b   5.06004701
_cell_length_c   7.23538985
_cell_angle_alpha   95.33873577
_cell_angle_beta   101.34885280
_cell_angle_gamma   110.09354326
_symmetry_Int_Tables_number   1
_chemical_formula_structural   Li2YAsP4Se
_chemical_formula_sum   'Li2 Y1 As1 P4 Se1'
_cell_volume   163.78547152
_cell_formula_units_Z   1
loop_
 _symmetry_equiv_pos_site_id
 _symmetry_equiv_pos_as_xyz
  1  'x, y, z'
loop_
 _atom_site_type_symbol
 _atom_site_label
 _atom_site_symmetry_multiplicity
 _atom_site_fract_x
 _atom_site_fract_y
 _atom_site_fract_z
 _atom_site_occupancy
  Se  Se0  1  0.00000000  0.00000000  0.00000000  1
  P  P1  1  0.50000000  0.50000000  0.50000000  1
  P  P2  1  0.25000000  0.25000000  0.25000000  1
  P  P3  1  0.75000000  0.25000000  0.00000000  1
  P  P4  1  0.25000000  0.75000000  0.50000000  1
  As  As5  1  0.68325221  0.57445266  0.15087582  1
  Li  Li6  1  0.43482707  0.25721212  0.49700334  1
  Li  Li7  1  0.27001571  0.66669242  0.61765111  1
  Y  Y8  1  0.32029649  0.71870083  0.66195449  1
