# generated using pymatgen
data_LiF
_symmetry_space_group_name_H-M   'P 1'
_cell_length_a   6.75384036
_cell_length_b   4.53630842
_cell_length_c   7.00945352
_cell_angle_alpha   90.00000000
_cell_angle_beta   90.00000000
_cell_angle_gamma   90.00000000
_symmetry_Int_Tables_number   1
_chemical_formula_structural   LiF
_chemical_formula_sum   'Li8 F8'
_cell_volume   214.75215223
_cell_formula_units_Z   8
loop_
 _symmetry_equiv_pos_site_id
 _symmetry_equiv_pos_as_xyz
  1  'x, y, z'
loop_
 _atom_site_type_symbol
 _atom_site_label
 _atom_site_symmetry_multiplicity
 _atom_site_fract_x
 _atom_site_fract_y
 _atom_site_fract_z
 _atom_site_occupancy
  F  F0  1  0.08365741  0.11364451  0.42726467  1
  F  F1  1  -0.08365741  -0.11364451  0.42726467  1
  F  F2  1  0.41634259  0.61364451  0.07273533  1
  F  F3  1  0.58365741  0.38635549  0.07273533  1
  F  F4  1  -0.08365741  -0.11364451  -0.42726467  1
  F  F5  1  0.08365741  0.11364451  -0.42726467  1
  F  F6  1  0.58365741  0.38635549  0.92726467  1
  F  F7  1  0.41634259  0.61364451  0.92726467  1
  Li  Li8  1  0.56351952  0.84366133  0.73563506  1
  Li  Li9  1  0.43648048  0.15633867  0.73563506  1
  Li  Li10  1  0.93648048  0.34366133  0.76436494  1
  Li  Li11  1  0.06351952  0.65633867  0.76436494  1
  Li  Li12  1  0.43648048  0.15633867  0.26436494  1
  Li  Li13  1  0.56351952  0.84366133  0.26436494  1
  Li  Li14  1  0.06351952  0.65633867  0.23563506  1
  Li  Li15  1  0.93648048  0.34366133  0.23563506  1
