# generated using pymatgen
data_Li2Cu3As4P2Se
_symmetry_space_group_name_H-M   'P 1'
_cell_length_a   4.75691406
_cell_length_b   5.00873155
_cell_length_c   6.46285294
_cell_angle_alpha   94.34868082
_cell_angle_beta   98.15859298
_cell_angle_gamma   105.32479058
_symmetry_Int_Tables_number   1
_chemical_formula_structural   Li2Cu3As4P2Se
_chemical_formula_sum   'Li2 Cu3 As4 P2 Se1'
_cell_volume   145.96682875
_cell_formula_units_Z   1
loop_
 _symmetry_equiv_pos_site_id
 _symmetry_equiv_pos_as_xyz
  1  'x, y, z'
loop_
 _atom_site_type_symbol
 _atom_site_label
 _atom_site_symmetry_multiplicity
 _atom_site_fract_x
 _atom_site_fract_y
 _atom_site_fract_z
 _atom_site_occupancy
  Se  Se0  1  0.00000000  0.00000000  0.00000000  1
  Cu  Cu1  1  0.50000000  0.50000000  0.50000000  1
  Cu  Cu2  1  0.25000000  0.25000000  0.25000000  1
  Cu  Cu3  1  0.75000000  0.25000000  0.00000000  1
  P  P4  1  0.25000000  0.75000000  0.50000000  1
  P  P5  1  0.81615616  0.24441334  0.86621472  1
  As  As6  1  0.98468008  0.91915059  0.97387268  1
  As  As7  1  0.20846689  0.58841169  0.80901363  1
  As  As8  1  0.80443404  0.67136461  0.44955628  1
  As  As9  1  0.69347320  0.52541583  0.32677462  1
  Li  Li10  1  0.89138360  0.93261100  0.39618330  1
  Li  Li11  1  0.79540020  0.96577644  0.83549306  1
