# generated using pymatgen
data_LiYCu3P2Se
_symmetry_space_group_name_H-M   'P 1'
_cell_length_a   5.18212566
_cell_length_b   5.17781790
_cell_length_c   6.96309301
_cell_angle_alpha   94.76411692
_cell_angle_beta   99.01601500
_cell_angle_gamma   106.03847272
_symmetry_Int_Tables_number   1
_chemical_formula_structural   LiYCu3P2Se
_chemical_formula_sum   'Li1 Y1 Cu3 P2 Se1'
_cell_volume   175.76541267
_cell_formula_units_Z   1
loop_
 _symmetry_equiv_pos_site_id
 _symmetry_equiv_pos_as_xyz
  1  'x, y, z'
loop_
 _atom_site_type_symbol
 _atom_site_label
 _atom_site_symmetry_multiplicity
 _atom_site_fract_x
 _atom_site_fract_y
 _atom_site_fract_z
 _atom_site_occupancy
  Se  Se0  1  0.00000000  0.00000000  0.00000000  1
  Cu  Cu1  1  0.50000000  0.50000000  0.50000000  1
  Cu  Cu2  1  0.25000000  0.25000000  0.25000000  1
  Cu  Cu3  1  0.75000000  0.25000000  0.00000000  1
  Y  Y4  1  0.25000000  0.75000000  0.50000000  1
  P  P5  1  0.07634639  0.09856665  0.76272540  1
  P  P6  1  0.46225251  0.68014500  0.63784097  1
  Li  Li7  1  0.42072441  0.56756368  0.80135081  1
