# generated using pymatgen
data_LiCaF3
_symmetry_space_group_name_H-M   'P 1'
_cell_length_a   6.95106860
_cell_length_b   6.95106860
_cell_length_c   30.16983375
_cell_angle_alpha   90.00000000
_cell_angle_beta   90.00000000
_cell_angle_gamma   120.00000000
_symmetry_Int_Tables_number   1
_chemical_formula_structural   LiCaF3
_chemical_formula_sum   'Li18 Ca18 F54'
_cell_volume   1262.42823206
_cell_formula_units_Z   18
loop_
 _symmetry_equiv_pos_site_id
 _symmetry_equiv_pos_as_xyz
  1  'x, y, z'
loop_
 _atom_site_type_symbol
 _atom_site_label
 _atom_site_symmetry_multiplicity
 _atom_site_fract_x
 _atom_site_fract_y
 _atom_site_fract_z
 _atom_site_occupancy
  Ca  Ca0  1  0.39028156  0.00000000  0.25000000  1
  Ca  Ca1  1  0.00000000  0.39028156  0.25000000  1
  Ca  Ca2  1  0.60971844  0.60971844  0.25000000  1
  Ca  Ca3  1  0.60971844  0.00000000  0.75000000  1
  Ca  Ca4  1  0.00000000  0.60971844  0.75000000  1
  Ca  Ca5  1  0.39028156  0.39028156  0.75000000  1
  Ca  Ca6  1  0.05694822  0.33333333  0.58333333  1
  Ca  Ca7  1  0.66666667  0.72361489  0.58333333  1
  Ca  Ca8  1  0.27638511  0.94305178  0.58333333  1
  Ca  Ca9  1  0.27638511  0.33333333  0.08333333  1
  Ca  Ca10  1  0.66666667  0.94305178  0.08333333  1
  Ca  Ca11  1  0.05694822  0.72361489  0.08333333  1
  Ca  Ca12  1  0.72361489  0.66666667  0.91666667  1
  Ca  Ca13  1  0.33333333  0.05694822  0.91666667  1
  Ca  Ca14  1  0.94305178  0.27638511  0.91666667  1
  Ca  Ca15  1  0.94305178  0.66666667  0.41666667  1
  Ca  Ca16  1  0.33333333  0.27638511  0.41666667  1
  Ca  Ca17  1  0.72361489  0.05694822  0.41666667  1
  F  F18  1  0.51064665  0.66831353  0.45764974  1
  F  F19  1  -0.66831353  -0.15766688  0.45764974  1
  F  F20  1  0.15766688  -0.51064665  0.45764974  1
  F  F21  1  0.66831353  0.51064665  0.04235026  1
  F  F22  1  -0.15766688  -0.66831353  0.04235026  1
  F  F23  1  -0.51064665  0.15766688  0.04235026  1
  F  F24  1  -0.51064665  -0.66831353  -0.45764974  1
  F  F25  1  0.66831353  0.15766688  -0.45764974  1
  F  F26  1  -0.15766688  0.51064665  -0.45764974  1
  F  F27  1  -0.66831353  -0.51064665  0.95764974  1
  F  F28  1  0.15766688  0.66831353  0.95764974  1
  F  F29  1  0.51064665  -0.15766688  0.95764974  1
  F  F30  1  1.17731332  1.00164686  0.79098307  1
  F  F31  1  -0.00164686  0.17566645  0.79098307  1
  F  F32  1  0.82433355  -0.17731332  0.79098307  1
  F  F33  1  1.33498020  0.84397998  0.37568360  1
  F  F34  1  0.50899979  -0.33498020  0.37568360  1
  F  F35  1  0.15602002  0.49100021  0.37568360  1
  F  F36  1  0.15602002  -0.33498020  -0.12431640  1
  F  F37  1  1.33498020  0.49100021  -0.12431640  1
  F  F38  1  0.50899979  0.84397998  -0.12431640  1
  F  F39  1  -0.00164686  -0.17731332  1.29098307  1
  F  F40  1  0.82433355  1.00164686  1.29098307  1
  F  F41  1  1.17731332  0.17566645  1.29098307  1
  F  F42  1  0.84397998  1.33498020  1.12431640  1
  F  F43  1  -0.33498020  0.50899979  1.12431640  1
  F  F44  1  0.49100021  0.15602002  1.12431640  1
  F  F45  1  1.00164686  1.17731332  0.70901693  1
  F  F46  1  0.17566645  -0.00164686  0.70901693  1
  F  F47  1  -0.17731332  0.82433355  0.70901693  1
  F  F48  1  -0.17731332  -0.00164686  0.20901693  1
  F  F49  1  1.00164686  0.82433355  0.20901693  1
  F  F50  1  0.17566645  1.17731332  0.20901693  1
  F  F51  1  -0.33498020  0.15602002  1.62431640  1
  F  F52  1  0.49100021  1.33498020  1.62431640  1
  F  F53  1  0.84397998  0.50899979  1.62431640  1
  F  F54  1  0.00000000  0.00000000  0.00000000  1
  F  F55  1  0.00000000  0.00000000  0.50000000  1
  F  F56  1  0.66666667  0.33333333  0.33333333  1
  F  F57  1  0.66666667  0.33333333  0.83333333  1
  F  F58  1  0.33333333  0.66666667  0.66666667  1
  F  F59  1  0.33333333  0.66666667  0.16666667  1
  F  F60  1  0.00000000  0.00000000  0.95323384  1
  F  F61  1  0.00000000  0.00000000  0.54676616  1
  F  F62  1  0.00000000  0.00000000  0.04676616  1
  F  F63  1  0.00000000  0.00000000  0.45323384  1
  F  F64  1  0.66666667  0.33333333  0.28656717  1
  F  F65  1  0.66666667  0.33333333  0.88009949  1
  F  F66  1  0.66666667  0.33333333  0.38009949  1
  F  F67  1  0.66666667  0.33333333  0.78656717  1
  F  F68  1  0.33333333  0.66666667  0.61990051  1
  F  F69  1  0.33333333  0.66666667  0.21343283  1
  F  F70  1  0.33333333  0.66666667  0.71343283  1
  F  F71  1  0.33333333  0.66666667  0.11990051  1
  Li  Li72  1  0.50000000  0.00000000  0.00000000  1
  Li  Li73  1  0.00000000  0.50000000  0.00000000  1
  Li  Li74  1  0.50000000  0.50000000  0.00000000  1
  Li  Li75  1  0.00000000  0.50000000  0.50000000  1
  Li  Li76  1  0.50000000  0.00000000  0.50000000  1
  Li  Li77  1  0.50000000  0.50000000  0.50000000  1
  Li  Li78  1  0.16666667  0.33333333  0.33333333  1
  Li  Li79  1  0.66666667  0.83333333  0.33333333  1
  Li  Li80  1  0.16666667  0.83333333  0.33333333  1
  Li  Li81  1  0.66666667  0.83333333  0.83333333  1
  Li  Li82  1  0.16666667  0.33333333  0.83333333  1
  Li  Li83  1  0.16666667  0.83333333  0.83333333  1
  Li  Li84  1  0.83333333  0.66666667  0.66666667  1
  Li  Li85  1  0.33333333  0.16666667  0.66666667  1
  Li  Li86  1  0.83333333  0.16666667  0.66666667  1
  Li  Li87  1  0.33333333  0.16666667  0.16666667  1
  Li  Li88  1  0.83333333  0.66666667  0.16666667  1
  Li  Li89  1  0.83333333  0.16666667  0.16666667  1
