# generated using pymatgen
data_Li4SnF8
_symmetry_space_group_name_H-M   'P 1'
_cell_length_a   6.80790418
_cell_length_b   6.80790418
_cell_length_c   19.01613384
_cell_angle_alpha   90.00000000
_cell_angle_beta   90.00000000
_cell_angle_gamma   120.00000000
_symmetry_Int_Tables_number   1
_chemical_formula_structural   Li4SnF8
_chemical_formula_sum   'Li24 Sn6 F48'
_cell_volume   763.27269541
_cell_formula_units_Z   6
loop_
 _symmetry_equiv_pos_site_id
 _symmetry_equiv_pos_as_xyz
  1  'x, y, z'
loop_
 _atom_site_type_symbol
 _atom_site_label
 _atom_site_symmetry_multiplicity
 _atom_site_fract_x
 _atom_site_fract_y
 _atom_site_fract_z
 _atom_site_occupancy
  F  F0  1  0.00000000  0.00000000  0.25000000  1
  F  F1  1  0.00000000  0.00000000  0.75000000  1
  F  F2  1  0.50000000  0.00000000  -0.00000000  1
  F  F3  1  0.00000000  0.50000000  -0.00000000  1
  F  F4  1  0.50000000  0.50000000  -0.00000000  1
  F  F5  1  0.50000000  0.00000000  0.50000000  1
  F  F6  1  0.00000000  0.50000000  0.50000000  1
  F  F7  1  0.50000000  0.50000000  0.50000000  1
  F  F8  1  0.70147494  0.61191584  0.21639567  1
  F  F9  1  -0.61191584  0.08955910  0.21639567  1
  F  F10  1  -0.08955910  -0.70147494  0.21639567  1
  F  F11  1  -0.70147494  -0.61191584  0.71639567  1
  F  F12  1  0.61191584  -0.08955910  0.71639567  1
  F  F13  1  0.08955910  0.70147494  0.71639567  1
  F  F14  1  -0.70147494  -0.61191584  -0.21639567  1
  F  F15  1  0.61191584  -0.08955910  -0.21639567  1
  F  F16  1  0.08955910  0.70147494  -0.21639567  1
  F  F17  1  0.70147494  0.61191584  0.28360433  1
  F  F18  1  -0.61191584  0.08955910  0.28360433  1
  F  F19  1  -0.08955910  -0.70147494  0.28360433  1
  F  F20  1  0.09018717  0.21050884  0.47382811  1
  F  F21  1  0.78949116  0.87967833  0.47382811  1
  F  F22  1  0.12032167  0.90981283  0.47382811  1
  F  F23  1  0.90981283  0.78949116  0.97382811  1
  F  F24  1  0.21050884  0.12032167  0.97382811  1
  F  F25  1  0.87967833  0.09018717  0.97382811  1
  F  F26  1  0.90981283  0.78949116  0.52617189  1
  F  F27  1  0.21050884  0.12032167  0.52617189  1
  F  F28  1  0.87967833  0.09018717  0.52617189  1
  F  F29  1  0.09018717  0.21050884  0.02617189  1
  F  F30  1  0.78949116  0.87967833  0.02617189  1
  F  F31  1  0.12032167  0.90981283  0.02617189  1
  F  F32  1  0.01236847  0.95505563  0.32607626  1
  F  F33  1  0.04494437  0.05731284  0.32607626  1
  F  F34  1  0.94268716  0.98763153  0.32607626  1
  F  F35  1  0.98763153  0.04494437  0.82607626  1
  F  F36  1  0.95505563  0.94268716  0.82607626  1
  F  F37  1  0.05731284  0.01236847  0.82607626  1
  F  F38  1  0.98763153  0.04494437  0.67392374  1
  F  F39  1  0.95505563  0.94268716  0.67392374  1
  F  F40  1  0.05731284  0.01236847  0.67392374  1
  F  F41  1  0.01236847  0.95505563  0.17392374  1
  F  F42  1  0.04494437  0.05731284  0.17392374  1
  F  F43  1  0.94268716  0.98763153  0.17392374  1
  F  F44  1  0.33333333  0.66666667  0.40720038  1
  F  F45  1  0.66666667  0.33333333  0.90720038  1
  F  F46  1  0.66666667  0.33333333  0.59279962  1
  F  F47  1  0.33333333  0.66666667  0.09279962  1
  Li  Li48  1  0.70599149  0.50097030  0.95427700  1
  Li  Li49  1  0.49902970  0.20502119  0.95427700  1
  Li  Li50  1  0.79497881  0.29400851  0.95427700  1
  Li  Li51  1  0.29400851  0.49902970  0.45427700  1
  Li  Li52  1  0.50097030  0.79497881  0.45427700  1
  Li  Li53  1  0.20502119  0.70599149  0.45427700  1
  Li  Li54  1  0.29400851  0.49902970  0.04572300  1
  Li  Li55  1  0.50097030  0.79497881  0.04572300  1
  Li  Li56  1  0.20502119  0.70599149  0.04572300  1
  Li  Li57  1  0.70599149  0.50097030  0.54572300  1
  Li  Li58  1  0.49902970  0.20502119  0.54572300  1
  Li  Li59  1  0.79497881  0.29400851  0.54572300  1
  Li  Li60  1  0.24202644  0.94068589  0.67352999  1
  Li  Li61  1  0.05931411  0.30134055  0.67352999  1
  Li  Li62  1  0.69865945  0.75797356  0.67352999  1
  Li  Li63  1  0.75797356  0.05931411  0.17352999  1
  Li  Li64  1  0.94068589  0.69865945  0.17352999  1
  Li  Li65  1  0.30134055  0.24202644  0.17352999  1
  Li  Li66  1  0.75797356  0.05931411  0.32647001  1
  Li  Li67  1  0.94068589  0.69865945  0.32647001  1
  Li  Li68  1  0.30134055  0.24202644  0.32647001  1
  Li  Li69  1  0.24202644  0.94068589  0.82647001  1
  Li  Li70  1  0.05931411  0.30134055  0.82647001  1
  Li  Li71  1  0.69865945  0.75797356  0.82647001  1
  Sn  Sn72  1  0.00000000  0.00000000  0.00000000  1
  Sn  Sn73  1  0.00000000  0.00000000  0.50000000  1
  Sn  Sn74  1  0.33333333  0.66666667  0.91211360  1
  Sn  Sn75  1  0.66666667  0.33333333  0.41211360  1
  Sn  Sn76  1  0.66666667  0.33333333  0.08788640  1
  Sn  Sn77  1  0.33333333  0.66666667  0.58788640  1
