# generated using pymatgen
data_LiF
_symmetry_space_group_name_H-M   'P 1'
_cell_length_a   6.63588512
_cell_length_b   9.89614263
_cell_length_c   7.56106475
_cell_angle_alpha   90.00000000
_cell_angle_beta   90.00000000
_cell_angle_gamma   90.00000000
_symmetry_Int_Tables_number   1
_chemical_formula_structural   LiF
_chemical_formula_sum   'Li14 F14'
_cell_volume   496.53259410
_cell_formula_units_Z   14
loop_
 _symmetry_equiv_pos_site_id
 _symmetry_equiv_pos_as_xyz
  1  'x, y, z'
loop_
 _atom_site_type_symbol
 _atom_site_label
 _atom_site_symmetry_multiplicity
 _atom_site_fract_x
 _atom_site_fract_y
 _atom_site_fract_z
 _atom_site_occupancy
  F  F0  1  0.55272714  0.85297584  0.40441984  1
  F  F1  1  -0.55272714  -0.85297584  0.40441984  1
  F  F2  1  -0.05272714  1.35297584  -0.40441984  1
  F  F3  1  1.05272714  -0.35297584  -0.40441984  1
  F  F4  1  -0.55272714  -0.85297584  -0.40441984  1
  F  F5  1  0.55272714  0.85297584  -0.40441984  1
  F  F6  1  1.05272714  -0.35297584  0.40441984  1
  F  F7  1  -0.05272714  1.35297584  0.40441984  1
  F  F8  1  0.00000000  0.50000000  0.08570762  1
  F  F9  1  0.50000000  -0.00000000  0.91429238  1
  F  F10  1  0.00000000  0.50000000  0.91429238  1
  F  F11  1  0.50000000  -0.00000000  0.08570762  1
  F  F12  1  0.00000000  0.50000000  0.00000000  1
  F  F13  1  0.50000000  -0.00000000  0.00000000  1
  Li  Li14  1  0.79247077  0.88445660  0.00000000  1
  Li  Li15  1  0.20752923  0.11554340  0.00000000  1
  Li  Li16  1  0.70752923  0.38445660  0.00000000  1
  Li  Li17  1  0.29247077  0.61554340  0.00000000  1
  Li  Li18  1  0.91659229  0.46059447  0.50000000  1
  Li  Li19  1  0.08340771  0.53940553  0.50000000  1
  Li  Li20  1  0.58340771  0.96059447  0.50000000  1
  Li  Li21  1  0.41659229  0.03940553  0.50000000  1
  Li  Li22  1  0.00000000  0.00000000  0.35677330  1
  Li  Li23  1  0.50000000  0.50000000  0.64322670  1
  Li  Li24  1  0.00000000  0.00000000  0.64322670  1
  Li  Li25  1  0.50000000  0.50000000  0.35677330  1
  Li  Li26  1  0.00000000  0.00000000  0.00000000  1
  Li  Li27  1  0.50000000  0.50000000  0.00000000  1
