# generated using pymatgen
data_LiF
_symmetry_space_group_name_H-M   'P 1'
_cell_length_a   7.46602487
_cell_length_b   7.46602487
_cell_length_c   11.69962020
_cell_angle_alpha   90.00000000
_cell_angle_beta   90.00000000
_cell_angle_gamma   120.00000000
_symmetry_Int_Tables_number   1
_chemical_formula_structural   LiF
_chemical_formula_sum   'Li31 F31'
_cell_volume   564.78253628
_cell_formula_units_Z   31
loop_
 _symmetry_equiv_pos_site_id
 _symmetry_equiv_pos_as_xyz
  1  'x, y, z'
loop_
 _atom_site_type_symbol
 _atom_site_label
 _atom_site_symmetry_multiplicity
 _atom_site_fract_x
 _atom_site_fract_y
 _atom_site_fract_z
 _atom_site_occupancy
  F  F0  1  0.81568652  0.96662760  0.62515118  1
  F  F1  1  0.03337240  0.84905892  0.62515118  1
  F  F2  1  0.15094108  0.18431348  0.62515118  1
  F  F3  1  0.03337240  0.18431348  0.37484882  1
  F  F4  1  0.15094108  0.96662760  0.37484882  1
  F  F5  1  0.81568652  0.84905892  0.37484882  1
  F  F6  1  0.66666667  0.33333333  0.16689439  1
  F  F7  1  0.66666667  0.33333333  0.83310561  1
  F  F8  1  0.49836281  0.34945923  0.09208323  1
  F  F9  1  0.65054077  0.14890358  0.09208323  1
  F  F10  1  0.85109642  0.50163719  0.09208323  1
  F  F11  1  0.65054077  0.50163719  0.90791677  1
  F  F12  1  0.85109642  0.34945923  0.90791677  1
  F  F13  1  0.49836281  0.14890358  0.90791677  1
  F  F14  1  0.00000000  0.00000000  0.50000000  1
  F  F15  1  0.84638434  0.63510010  0.96114797  1
  F  F16  1  0.36489990  0.21128425  0.96114797  1
  F  F17  1  0.78871575  0.15361566  0.96114797  1
  F  F18  1  0.36489990  0.15361566  0.03885203  1
  F  F19  1  0.78871575  0.63510010  0.03885203  1
  F  F20  1  0.84638434  0.21128425  0.03885203  1
  F  F21  1  0.93776821  0.65007938  0.84024295  1
  F  F22  1  0.34992062  0.28768883  0.84024295  1
  F  F23  1  0.71231117  0.06223179  0.84024295  1
  F  F24  1  0.34992062  0.06223179  0.15975705  1
  F  F25  1  0.71231117  0.65007938  0.15975705  1
  F  F26  1  0.93776821  0.28768883  0.15975705  1
  F  F27  1  0.17486003  0.82513997  0.00000000  1
  F  F28  1  0.17486003  0.34972007  0.00000000  1
  F  F29  1  0.65027993  0.82513997  0.00000000  1
  F  F30  1  0.33333333  0.66666667  0.50000000  1
  Li  Li31  1  0.91890383  0.20543005  0.87427139  1
  Li  Li32  1  -0.20543005  0.71347378  0.87427139  1
  Li  Li33  1  -0.71347378  -0.91890383  0.87427139  1
  Li  Li34  1  -0.20543005  -0.91890383  -0.87427139  1
  Li  Li35  1  -0.71347378  0.20543005  -0.87427139  1
  Li  Li36  1  0.91890383  0.71347378  -0.87427139  1
  Li  Li37  1  0.03164111  0.44632254  0.61113854  1
  Li  Li38  1  0.55367746  0.58531857  0.61113854  1
  Li  Li39  1  0.41468143  0.96835889  0.61113854  1
  Li  Li40  1  0.55367746  0.96835889  0.38886146  1
  Li  Li41  1  0.41468143  0.44632254  0.38886146  1
  Li  Li42  1  0.03164111  0.58531857  0.38886146  1
  Li  Li43  1  0.66666667  0.33333333  0.50000000  1
  Li  Li44  1  0.00000000  0.00000000  0.72217919  1
  Li  Li45  1  0.00000000  0.00000000  0.27782081  1
  Li  Li46  1  0.73460313  0.50748418  0.44202734  1
  Li  Li47  1  0.49251582  0.22711895  0.44202734  1
  Li  Li48  1  0.77288105  0.26539687  0.44202734  1
  Li  Li49  1  0.49251582  0.26539687  0.55797266  1
  Li  Li50  1  0.77288105  0.50748418  0.55797266  1
  Li  Li51  1  0.73460313  0.22711895  0.55797266  1
  Li  Li52  1  0.33333333  0.66666667  0.06597548  1
  Li  Li53  1  0.33333333  0.66666667  0.93402452  1
  Li  Li54  1  0.95119566  0.30964627  0.74815227  1
  Li  Li55  1  0.69035373  0.64154939  0.74815227  1
  Li  Li56  1  0.35845061  0.04880434  0.74815227  1
  Li  Li57  1  0.69035373  0.04880434  0.25184773  1
  Li  Li58  1  0.35845061  0.30964627  0.25184773  1
  Li  Li59  1  0.95119566  0.64154939  0.25184773  1
  Li  Li60  1  0.66666667  0.33333333  0.00000000  1
  Li  Li61  1  0.00000000  0.00000000  0.00000000  1
