# generated using pymatgen
data_Li2Y2As3P2Se
_symmetry_space_group_name_H-M   'P 1'
_cell_length_a   5.29003001
_cell_length_b   5.38234957
_cell_length_c   7.16172801
_cell_angle_alpha   94.25528362
_cell_angle_beta   99.26712306
_cell_angle_gamma   107.09178306
_symmetry_Int_Tables_number   1
_chemical_formula_structural   Li2Y2As3P2Se
_chemical_formula_sum   'Li2 Y2 As3 P2 Se1'
_cell_volume   190.76169842
_cell_formula_units_Z   1
loop_
 _symmetry_equiv_pos_site_id
 _symmetry_equiv_pos_as_xyz
  1  'x, y, z'
loop_
 _atom_site_type_symbol
 _atom_site_label
 _atom_site_symmetry_multiplicity
 _atom_site_fract_x
 _atom_site_fract_y
 _atom_site_fract_z
 _atom_site_occupancy
  Se  Se0  1  0.12500000  0.00000000  0.25000000  1
  P  P1  1  0.00000000  0.00000000  0.00000000  1
  P  P2  1  0.37500000  0.00000000  0.25000000  1
  As  As3  1  0.25000000  0.25000000  0.25000000  1
  As  As4  1  0.00000000  0.25000000  0.12500000  1
  As  As5  1  0.93586570  0.51466115  0.62317252  1
  Li  Li6  1  0.24499218  0.07715226  0.44568727  1
  Li  Li7  1  0.52935508  0.48963622  0.01914039  1
  Y  Y8  1  0.90398589  0.44530438  0.29849599  1
  Y  Y9  1  0.80408072  0.43540693  0.44347695  1
