# generated using pymatgen
data_Li2TiIO
_symmetry_space_group_name_H-M   'P 1'
_cell_length_a   3.41732240
_cell_length_b   3.02252117
_cell_length_c   5.16484499
_cell_angle_alpha   92.01083066
_cell_angle_beta   93.07354160
_cell_angle_gamma   94.06821207
_symmetry_Int_Tables_number   1
_chemical_formula_structural   Li2TiIO
_chemical_formula_sum   'Li2 Ti1 I1 O1'
_cell_volume   53.09583197
_cell_formula_units_Z   1
loop_
 _symmetry_equiv_pos_site_id
 _symmetry_equiv_pos_as_xyz
  1  'x, y, z'
loop_
 _atom_site_type_symbol
 _atom_site_label
 _atom_site_symmetry_multiplicity
 _atom_site_fract_x
 _atom_site_fract_y
 _atom_site_fract_z
 _atom_site_occupancy
  O  O0  1  0.12500000  0.12500000  0.12500000  1
  Ti  Ti1  1  0.50000000  0.50000000  0.50000000  1
  I  I2  1  0.25000000  0.25000000  0.25000000  1
  Li  Li3  1  0.75000000  0.75000000  0.75000000  1
  Li  Li4  1  0.33070855  0.19312008  0.47573786  1
