# generated using pymatgen
data_Li2Sb2As4PSe
_symmetry_space_group_name_H-M   'P 1'
_cell_length_a   5.23800493
_cell_length_b   5.19868280
_cell_length_c   6.29282583
_cell_angle_alpha   93.67760167
_cell_angle_beta   95.58332272
_cell_angle_gamma   100.96727897
_symmetry_Int_Tables_number   1
_chemical_formula_structural   Li2Sb2As4PSe
_chemical_formula_sum   'Li2 Sb2 As4 P1 Se1'
_cell_volume   166.83030153
_cell_formula_units_Z   1
loop_
 _symmetry_equiv_pos_site_id
 _symmetry_equiv_pos_as_xyz
  1  'x, y, z'
loop_
 _atom_site_type_symbol
 _atom_site_label
 _atom_site_symmetry_multiplicity
 _atom_site_fract_x
 _atom_site_fract_y
 _atom_site_fract_z
 _atom_site_occupancy
  Se  Se0  1  0.00000000  0.00000000  0.00000000  1
  P  P1  1  0.50000000  0.50000000  0.50000000  1
  As  As2  1  0.25000000  0.25000000  0.25000000  1
  As  As3  1  0.75000000  0.25000000  0.00000000  1
  As  As4  1  0.25000000  0.75000000  0.50000000  1
  As  As5  1  0.88416861  0.13265943  0.89729410  1
  Li  Li6  1  0.43571476  0.35083194  0.52366898  1
  Li  Li7  1  0.47158346  0.57292027  0.04391522  1
  Sb  Sb8  1  0.02669749  0.53467794  0.52052292  1
  Sb  Sb9  1  0.88638929  0.54735650  0.64703436  1
