# generated using pymatgen
data_LiF
_symmetry_space_group_name_H-M   'P 1'
_cell_length_a   6.25832448
_cell_length_b   6.25832448
_cell_length_c   13.61276548
_cell_angle_alpha   90.00000000
_cell_angle_beta   90.00000000
_cell_angle_gamma   120.00000000
_symmetry_Int_Tables_number   1
_chemical_formula_structural   LiF
_chemical_formula_sum   'Li22 F22'
_cell_volume   461.73537444
_cell_formula_units_Z   22
loop_
 _symmetry_equiv_pos_site_id
 _symmetry_equiv_pos_as_xyz
  1  'x, y, z'
loop_
 _atom_site_type_symbol
 _atom_site_label
 _atom_site_symmetry_multiplicity
 _atom_site_fract_x
 _atom_site_fract_y
 _atom_site_fract_z
 _atom_site_occupancy
  F  F0  1  0.74904133  0.71533648  0.50516622  1
  F  F1  1  0.28466352  0.03370485  0.50516622  1
  F  F2  1  0.96629515  0.25095867  0.50516622  1
  F  F3  1  0.28466352  0.25095867  0.49483378  1
  F  F4  1  0.96629515  0.71533648  0.49483378  1
  F  F5  1  0.74904133  0.03370485  0.49483378  1
  F  F6  1  0.33333333  0.66666667  -0.00000000  1
  F  F7  1  0.27095462  0.39006200  0.55345722  1
  F  F8  1  0.60993800  0.88089261  0.55345722  1
  F  F9  1  0.11910739  0.72904538  0.55345722  1
  F  F10  1  0.60993800  0.72904538  0.44654278  1
  F  F11  1  0.11910739  0.39006200  0.44654278  1
  F  F12  1  0.27095462  0.88089261  0.44654278  1
  F  F13  1  0.05362394  0.91359628  0.85952566  1
  F  F14  1  0.08640372  0.14002765  0.85952566  1
  F  F15  1  0.85997235  0.94637606  0.85952566  1
  F  F16  1  0.08640372  0.94637606  0.14047434  1
  F  F17  1  0.85997235  0.91359628  0.14047434  1
  F  F18  1  0.05362394  0.14002765  0.14047434  1
  F  F19  1  0.00000000  0.00000000  0.00000000  1
  F  F20  1  0.33333333  0.66666667  0.70920352  1
  F  F21  1  0.33333333  0.66666667  0.29079648  1
  Li  Li22  1  0.66666667  0.33333333  0.50000000  1
  Li  Li23  1  0.71733587  0.90988901  0.82009017  1
  Li  Li24  1  -0.90988901  -0.19255313  0.82009017  1
  Li  Li25  1  0.19255313  -0.71733587  0.82009017  1
  Li  Li26  1  -0.90988901  -0.71733587  -0.82009017  1
  Li  Li27  1  0.19255313  0.90988901  -0.82009017  1
  Li  Li28  1  0.71733587  -0.19255313  -0.82009017  1
  Li  Li29  1  0.00000000  0.00000000  0.50000000  1
  Li  Li30  1  0.15398090  0.12924581  0.74236486  1
  Li  Li31  1  0.87075419  0.02473509  0.74236486  1
  Li  Li32  1  0.97526491  0.84601910  0.74236486  1
  Li  Li33  1  0.87075419  0.84601910  0.25763514  1
  Li  Li34  1  0.97526491  0.12924581  0.25763514  1
  Li  Li35  1  0.15398090  0.02473509  0.25763514  1
  Li  Li36  1  0.66666667  0.33333333  -0.00000000  1
  Li  Li37  1  0.73400743  0.08428352  0.23257819  1
  Li  Li38  1  0.91571648  0.64972392  0.23257819  1
  Li  Li39  1  0.35027608  0.26599257  0.23257819  1
  Li  Li40  1  0.91571648  0.26599257  0.76742181  1
  Li  Li41  1  0.35027608  0.08428352  0.76742181  1
  Li  Li42  1  0.73400743  0.64972392  0.76742181  1
  Li  Li43  1  0.33333333  0.66666667  0.50000000  1
