# generated using pymatgen
data_Li2Y2P3Se
_symmetry_space_group_name_H-M   'P 1'
_cell_length_a   4.74288042
_cell_length_b   5.00119827
_cell_length_c   6.85911320
_cell_angle_alpha   95.03747527
_cell_angle_beta   100.27686407
_cell_angle_gamma   109.14561551
_symmetry_Int_Tables_number   1
_chemical_formula_structural   Li2Y2P3Se
_chemical_formula_sum   'Li2 Y2 P3 Se1'
_cell_volume   149.34838778
_cell_formula_units_Z   1
loop_
 _symmetry_equiv_pos_site_id
 _symmetry_equiv_pos_as_xyz
  1  'x, y, z'
loop_
 _atom_site_type_symbol
 _atom_site_label
 _atom_site_symmetry_multiplicity
 _atom_site_fract_x
 _atom_site_fract_y
 _atom_site_fract_z
 _atom_site_occupancy
  Y  Y0  1  0.12500000  0.12500000  0.12500000  1
  Y  Y1  1  0.50000000  0.50000000  0.50000000  1
  P  P2  1  0.25000000  0.25000000  0.25000000  1
  P  P3  1  0.75000000  0.75000000  0.75000000  1
  P  P4  1  0.57924540  0.39347824  0.75974721  1
  Se  Se5  1  0.86116238  0.63785525  0.15065557  1
  Li  Li6  1  0.60404558  0.04417417  0.36011055  1
  Li  Li7  1  0.24760663  0.18337059  0.35740044  1
