# generated using pymatgen
data_LiF
_symmetry_space_group_name_H-M   'P 1'
_cell_length_a   6.22607769
_cell_length_b   7.30576414
_cell_length_c   9.22394660
_cell_angle_alpha   90.00000000
_cell_angle_beta   90.00000000
_cell_angle_gamma   90.00000000
_symmetry_Int_Tables_number   1
_chemical_formula_structural   LiF
_chemical_formula_sum   'Li24 F24'
_cell_volume   419.56278813
_cell_formula_units_Z   24
loop_
 _symmetry_equiv_pos_site_id
 _symmetry_equiv_pos_as_xyz
  1  'x, y, z'
loop_
 _atom_site_type_symbol
 _atom_site_label
 _atom_site_symmetry_multiplicity
 _atom_site_fract_x
 _atom_site_fract_y
 _atom_site_fract_z
 _atom_site_occupancy
  F  F0  1  0.36100694  0.13245528  0.56273206  1
  F  F1  1  0.13899306  0.86754472  0.06273206  1
  F  F2  1  0.63899306  0.63245528  0.43726794  1
  F  F3  1  0.86100694  0.36754472  0.93726794  1
  F  F4  1  0.63899306  0.86754472  0.43726794  1
  F  F5  1  0.86100694  0.13245528  0.93726794  1
  F  F6  1  0.36100694  0.36754472  0.56273206  1
  F  F7  1  0.13899306  0.63245528  0.06273206  1
  F  F8  1  0.00000000  0.00000000  0.50000000  1
  F  F9  1  0.50000000  0.00000000  0.00000000  1
  F  F10  1  0.00000000  0.50000000  0.50000000  1
  F  F11  1  0.50000000  0.50000000  0.00000000  1
  F  F12  1  0.75999718  0.25000000  0.50706966  1
  F  F13  1  0.74000282  0.75000000  0.00706966  1
  F  F14  1  0.24000282  0.75000000  0.49293034  1
  F  F15  1  0.25999718  0.25000000  0.99293034  1
  F  F16  1  0.82822328  0.65752722  0.10882158  1
  F  F17  1  0.67177672  0.34247278  0.60882158  1
  F  F18  1  0.17177672  0.15752722  0.89117842  1
  F  F19  1  0.32822328  0.84247278  0.39117842  1
  F  F20  1  0.17177672  0.34247278  0.89117842  1
  F  F21  1  0.32822328  0.65752722  0.39117842  1
  F  F22  1  0.82822328  0.84247278  0.10882158  1
  F  F23  1  0.67177672  0.15752722  0.60882158  1
  Li  Li24  1  0.89595709  0.25000000  0.32815387  1
  Li  Li25  1  0.60404291  0.75000000  0.82815387  1
  Li  Li26  1  0.10404291  0.75000000  0.67184613  1
  Li  Li27  1  0.39595709  0.25000000  0.17184613  1
  Li  Li28  1  0.35114904  0.99378760  0.91031101  1
  Li  Li29  1  0.14885096  -0.99378760  1.41031101  1
  Li  Li30  1  -0.35114904  1.49378760  -0.91031101  1
  Li  Li31  1  0.85114904  -0.49378760  -0.41031101  1
  Li  Li32  1  -0.35114904  -0.99378760  -0.91031101  1
  Li  Li33  1  0.85114904  0.99378760  -0.41031101  1
  Li  Li34  1  0.35114904  -0.49378760  0.91031101  1
  Li  Li35  1  0.14885096  1.49378760  1.41031101  1
  Li  Li36  1  0.00000000  0.00000000  0.00000000  1
  Li  Li37  1  0.50000000  0.00000000  0.50000000  1
  Li  Li38  1  0.00000000  0.50000000  0.00000000  1
  Li  Li39  1  0.50000000  0.50000000  0.50000000  1
  Li  Li40  1  0.08435825  0.25000000  0.39511187  1
  Li  Li41  1  0.41564175  0.75000000  0.89511187  1
  Li  Li42  1  0.91564175  0.75000000  0.60488813  1
  Li  Li43  1  0.58435825  0.25000000  0.10488813  1
  Li  Li44  1  0.80659468  0.25000000  0.82617831  1
  Li  Li45  1  0.69340532  0.75000000  0.32617831  1
  Li  Li46  1  0.19340532  0.75000000  0.17382169  1
  Li  Li47  1  0.30659468  0.25000000  0.67382169  1
