# generated using pymatgen
data_Li4Y2As4P3Se
_symmetry_space_group_name_H-M   'P 1'
_cell_length_a   5.32284361
_cell_length_b   5.55130008
_cell_length_c   7.03036646
_cell_angle_alpha   93.56997782
_cell_angle_beta   98.09105425
_cell_angle_gamma   104.72119854
_symmetry_Int_Tables_number   1
_chemical_formula_structural   Li4Y2As4P3Se
_chemical_formula_sum   'Li4 Y2 As4 P3 Se1'
_cell_volume   197.87368468
_cell_formula_units_Z   1
loop_
 _symmetry_equiv_pos_site_id
 _symmetry_equiv_pos_as_xyz
  1  'x, y, z'
loop_
 _atom_site_type_symbol
 _atom_site_label
 _atom_site_symmetry_multiplicity
 _atom_site_fract_x
 _atom_site_fract_y
 _atom_site_fract_z
 _atom_site_occupancy
  Y  Y0  1  0.00000000  0.00000000  0.00000000  1
  Y  Y1  1  0.50000000  0.50000000  0.50000000  1
  P  P2  1  0.50000000  0.50000000  0.00000000  1
  P  P3  1  0.50000000  0.00000000  0.50000000  1
  P  P4  1  0.00000000  0.50000000  0.50000000  1
  Se  Se5  1  0.07508202  0.81947668  0.30801926  1
  As  As6  1  0.04221443  0.51284397  0.93180286  1
  As  As7  1  0.84162535  0.39858663  0.49544417  1
  As  As8  1  0.22359722  0.91194718  0.24516554  1
  As  As9  1  0.68122026  0.36502757  0.81078718  1
  Li  Li10  1  0.01494653  0.73162587  0.06085290  1
  Li  Li11  1  0.12584787  0.88530443  0.57258861  1
  Li  Li12  1  0.69353137  0.21844853  0.38307719  1
  Li  Li13  1  0.20917355  0.21887218  0.85311565  1
