# generated using pymatgen
data_LiF
_symmetry_space_group_name_H-M   'P 1'
_cell_length_a   10.39531862
_cell_length_b   7.79299171
_cell_length_c   8.63186263
_cell_angle_alpha   90.00000000
_cell_angle_beta   90.00000000
_cell_angle_gamma   90.00000000
_symmetry_Int_Tables_number   1
_chemical_formula_structural   LiF
_chemical_formula_sum   'Li28 F28'
_cell_volume   699.27264564
_cell_formula_units_Z   28
loop_
 _symmetry_equiv_pos_site_id
 _symmetry_equiv_pos_as_xyz
  1  'x, y, z'
loop_
 _atom_site_type_symbol
 _atom_site_label
 _atom_site_symmetry_multiplicity
 _atom_site_fract_x
 _atom_site_fract_y
 _atom_site_fract_z
 _atom_site_occupancy
  F  F0  1  0.04130967  0.42983499  0.30797492  1
  F  F1  1  0.45869033  0.57016501  0.80797492  1
  F  F2  1  0.95869033  0.92983499  0.69202508  1
  F  F3  1  0.54130967  0.07016501  0.19202508  1
  F  F4  1  0.95869033  0.57016501  0.69202508  1
  F  F5  1  0.54130967  0.42983499  0.19202508  1
  F  F6  1  0.04130967  0.07016501  0.30797492  1
  F  F7  1  0.45869033  0.92983499  0.80797492  1
  F  F8  1  0.16008444  0.25000000  0.86251346  1
  F  F9  1  0.33991556  0.75000000  0.36251346  1
  F  F10  1  0.83991556  0.75000000  0.13748654  1
  F  F11  1  0.66008444  0.25000000  0.63748654  1
  F  F12  1  0.57489909  0.29165557  0.38779497  1
  F  F13  1  0.92510091  0.70834443  0.88779497  1
  F  F14  1  0.42510091  0.79165557  0.61220503  1
  F  F15  1  0.07489909  0.20834443  0.11220503  1
  F  F16  1  0.42510091  0.70834443  0.61220503  1
  F  F17  1  0.07489909  0.29165557  0.11220503  1
  F  F18  1  0.57489909  0.20834443  0.38779497  1
  F  F19  1  0.92510091  0.79165557  0.88779497  1
  F  F20  1  0.62916079  0.34905172  0.93931126  1
  F  F21  1  0.87083921  0.65094828  0.43931126  1
  F  F22  1  0.37083921  0.84905172  0.06068874  1
  F  F23  1  0.12916079  0.15094828  0.56068874  1
  F  F24  1  0.37083921  0.65094828  0.06068874  1
  F  F25  1  0.12916079  0.34905172  0.56068874  1
  F  F26  1  0.62916079  0.15094828  0.93931126  1
  F  F27  1  0.87083921  0.84905172  0.43931126  1
  Li  Li28  1  0.00000000  0.00000000  0.00000000  1
  Li  Li29  1  0.50000000  0.00000000  0.50000000  1
  Li  Li30  1  0.00000000  0.50000000  -0.00000000  1
  Li  Li31  1  0.50000000  0.50000000  0.50000000  1
  Li  Li32  1  0.42957734  0.37747610  0.58018939  1
  Li  Li33  1  0.07042266  -0.37747610  1.08018939  1
  Li  Li34  1  -0.42957734  0.87747610  -0.58018939  1
  Li  Li35  1  0.92957734  0.12252390  -0.08018939  1
  Li  Li36  1  -0.42957734  -0.37747610  -0.58018939  1
  Li  Li37  1  0.92957734  0.37747610  -0.08018939  1
  Li  Li38  1  0.42957734  0.12252390  0.58018939  1
  Li  Li39  1  0.07042266  0.87747610  1.08018939  1
  Li  Li40  1  0.04869195  0.61363223  0.80247873  1
  Li  Li41  1  0.45130805  0.38636777  0.30247873  1
  Li  Li42  1  0.95130805  0.11363223  0.19752127  1
  Li  Li43  1  0.54869195  0.88636777  0.69752127  1
  Li  Li44  1  0.95130805  0.38636777  0.19752127  1
  Li  Li45  1  0.54869195  0.61363223  0.69752127  1
  Li  Li46  1  0.04869195  0.88636777  0.80247873  1
  Li  Li47  1  0.45130805  0.11363223  0.30247873  1
  Li  Li48  1  0.86206212  0.00247022  0.49944926  1
  Li  Li49  1  0.63793788  0.99752978  0.99944926  1
  Li  Li50  1  0.13793788  0.50247022  0.50055074  1
  Li  Li51  1  0.36206212  0.49752978  0.00055074  1
  Li  Li52  1  0.13793788  0.99752978  0.50055074  1
  Li  Li53  1  0.36206212  0.00247022  0.00055074  1
  Li  Li54  1  0.86206212  0.49752978  0.49944926  1
  Li  Li55  1  0.63793788  0.50247022  0.99944926  1
