# generated using pymatgen
data_LiF
_symmetry_space_group_name_H-M   'P 1'
_cell_length_a   6.58997602
_cell_length_b   8.81228821
_cell_length_c   10.25282651
_cell_angle_alpha   90.00000000
_cell_angle_beta   90.00000000
_cell_angle_gamma   90.00000000
_symmetry_Int_Tables_number   1
_chemical_formula_structural   LiF
_chemical_formula_sum   'Li24 F24'
_cell_volume   595.41001555
_cell_formula_units_Z   24
loop_
 _symmetry_equiv_pos_site_id
 _symmetry_equiv_pos_as_xyz
  1  'x, y, z'
loop_
 _atom_site_type_symbol
 _atom_site_label
 _atom_site_symmetry_multiplicity
 _atom_site_fract_x
 _atom_site_fract_y
 _atom_site_fract_z
 _atom_site_occupancy
  F  F0  1  0.00000000  0.50000000  0.50000000  1
  F  F1  1  0.50000000  0.00000000  0.50000000  1
  F  F2  1  0.68225089  0.84262213  0.85330930  1
  F  F3  1  -0.68225089  -0.84262213  0.85330930  1
  F  F4  1  -0.18225089  1.34262213  -0.85330930  1
  F  F5  1  1.18225089  -0.34262213  -0.85330930  1
  F  F6  1  -0.68225089  -0.84262213  -0.85330930  1
  F  F7  1  0.68225089  0.84262213  -0.85330930  1
  F  F8  1  1.18225089  -0.34262213  0.85330930  1
  F  F9  1  -0.18225089  1.34262213  0.85330930  1
  F  F10  1  0.41939055  0.05803187  0.50000000  1
  F  F11  1  0.58060945  0.94196813  0.50000000  1
  F  F12  1  0.08060945  0.55803187  0.50000000  1
  F  F13  1  0.91939055  0.44196813  0.50000000  1
  F  F14  1  0.00000000  0.50000000  0.12580442  1
  F  F15  1  0.50000000  0.00000000  0.87419558  1
  F  F16  1  0.00000000  0.50000000  0.87419558  1
  F  F17  1  0.50000000  0.00000000  0.12580442  1
  F  F18  1  0.70111467  0.53077823  0.00000000  1
  F  F19  1  0.29888533  0.46922177  0.00000000  1
  F  F20  1  0.79888533  0.03077823  0.00000000  1
  F  F21  1  0.20111467  0.96922177  0.00000000  1
  F  F22  1  0.00000000  0.00000000  0.00000000  1
  F  F23  1  0.50000000  0.50000000  0.00000000  1
  Li  Li24  1  0.52799588  0.35313173  0.84387486  1
  Li  Li25  1  0.47200412  0.64686827  0.84387486  1
  Li  Li26  1  0.97200412  0.85313173  0.15612514  1
  Li  Li27  1  0.02799588  0.14686827  0.15612514  1
  Li  Li28  1  0.47200412  0.64686827  0.15612514  1
  Li  Li29  1  0.52799588  0.35313173  0.15612514  1
  Li  Li30  1  0.02799588  0.14686827  0.84387486  1
  Li  Li31  1  0.97200412  0.85313173  0.84387486  1
  Li  Li32  1  0.00000000  0.00000000  0.14662289  1
  Li  Li33  1  0.50000000  0.50000000  0.85337711  1
  Li  Li34  1  0.00000000  0.00000000  0.85337711  1
  Li  Li35  1  0.50000000  0.50000000  0.14662289  1
  Li  Li36  1  0.67762594  0.19623033  0.41745612  1
  Li  Li37  1  0.32237406  0.80376967  0.41745612  1
  Li  Li38  1  0.82237406  0.69623033  0.58254388  1
  Li  Li39  1  0.17762594  0.30376967  0.58254388  1
  Li  Li40  1  0.32237406  0.80376967  0.58254388  1
  Li  Li41  1  0.67762594  0.19623033  0.58254388  1
  Li  Li42  1  0.17762594  0.30376967  0.41745612  1
  Li  Li43  1  0.82237406  0.69623033  0.41745612  1
  Li  Li44  1  0.00000000  0.00000000  0.50000000  1
  Li  Li45  1  0.50000000  0.50000000  0.50000000  1
  Li  Li46  1  0.00000000  0.50000000  0.00000000  1
  Li  Li47  1  0.50000000  0.00000000  0.00000000  1
