# generated using pymatgen
data_LiCu3PSe
_symmetry_space_group_name_H-M   'P 1'
_cell_length_a   4.09013642
_cell_length_b   4.42656633
_cell_length_c   5.87317918
_cell_angle_alpha   95.21077737
_cell_angle_beta   98.40181738
_cell_angle_gamma   106.23459756
_symmetry_Int_Tables_number   1
_chemical_formula_structural   LiCu3PSe
_chemical_formula_sum   'Li1 Cu3 P1 Se1'
_cell_volume   100.02443639
_cell_formula_units_Z   1
loop_
 _symmetry_equiv_pos_site_id
 _symmetry_equiv_pos_as_xyz
  1  'x, y, z'
loop_
 _atom_site_type_symbol
 _atom_site_label
 _atom_site_symmetry_multiplicity
 _atom_site_fract_x
 _atom_site_fract_y
 _atom_site_fract_z
 _atom_site_occupancy
  Se  Se0  1  0.12500000  0.12500000  0.12500000  1
  Cu  Cu1  1  0.50000000  0.50000000  0.50000000  1
  Cu  Cu2  1  0.25000000  0.25000000  0.25000000  1
  Cu  Cu3  1  0.75000000  0.75000000  0.75000000  1
  P  P4  1  0.57548612  0.13339792  0.08756517  1
  Li  Li5  1  0.57770237  0.33135225  0.05869948  1
