# generated using pymatgen
data_LiF
_symmetry_space_group_name_H-M   'P 1'
_cell_length_a   9.02221090
_cell_length_b   12.13653935
_cell_length_c   6.93569891
_cell_angle_alpha   90.00000000
_cell_angle_beta   90.00000000
_cell_angle_gamma   90.00000000
_symmetry_Int_Tables_number   1
_chemical_formula_structural   LiF
_chemical_formula_sum   'Li36 F36'
_cell_volume   759.44805570
_cell_formula_units_Z   36
loop_
 _symmetry_equiv_pos_site_id
 _symmetry_equiv_pos_as_xyz
  1  'x, y, z'
loop_
 _atom_site_type_symbol
 _atom_site_label
 _atom_site_symmetry_multiplicity
 _atom_site_fract_x
 _atom_site_fract_y
 _atom_site_fract_z
 _atom_site_occupancy
  F  F0  1  0.14223472  0.52406691  0.71502488  1
  F  F1  1  0.35776528  -0.52406691  1.21502488  1
  F  F2  1  -0.14223472  1.02406691  -0.71502488  1
  F  F3  1  0.64223472  -0.02406691  -0.21502488  1
  F  F4  1  -0.14223472  -0.52406691  -0.71502488  1
  F  F5  1  0.64223472  0.52406691  -0.21502488  1
  F  F6  1  0.14223472  -0.02406691  0.71502488  1
  F  F7  1  0.35776528  1.02406691  1.21502488  1
  F  F8  1  0.42798819  0.25000000  0.58297721  1
  F  F9  1  0.07201181  0.75000000  0.08297721  1
  F  F10  1  0.57201181  0.75000000  0.41702279  1
  F  F11  1  0.92798819  0.25000000  0.91702279  1
  F  F12  1  0.63826971  0.47107404  0.09696105  1
  F  F13  1  0.86173029  0.52892596  0.59696105  1
  F  F14  1  0.36173029  0.97107404  0.90303895  1
  F  F15  1  0.13826971  0.02892596  0.40303895  1
  F  F16  1  0.36173029  0.52892596  0.90303895  1
  F  F17  1  0.13826971  0.47107404  0.40303895  1
  F  F18  1  0.63826971  0.02892596  0.09696105  1
  F  F19  1  0.86173029  0.97107404  0.59696105  1
  F  F20  1  0.00000000  0.00000000  0.50000000  1
  F  F21  1  0.50000000  0.00000000  0.00000000  1
  F  F22  1  0.00000000  0.50000000  0.50000000  1
  F  F23  1  0.50000000  0.50000000  0.00000000  1
  F  F24  1  0.09654590  0.62325363  0.77334725  1
  F  F25  1  0.40345410  0.37674637  0.27334725  1
  F  F26  1  0.90345410  0.12325363  0.22665275  1
  F  F27  1  0.59654590  0.87674637  0.72665275  1
  F  F28  1  0.90345410  0.37674637  0.22665275  1
  F  F29  1  0.59654590  0.62325363  0.72665275  1
  F  F30  1  0.09654590  0.87674637  0.77334725  1
  F  F31  1  0.40345410  0.12325363  0.27334725  1
  F  F32  1  0.00000000  0.00000000  0.00000000  1
  F  F33  1  0.50000000  0.00000000  0.50000000  1
  F  F34  1  0.00000000  0.50000000  0.00000000  1
  F  F35  1  0.50000000  0.50000000  0.50000000  1
  Li  Li36  1  0.86763776  0.68244046  0.26299791  1
  Li  Li37  1  0.63236224  0.31755954  0.76299791  1
  Li  Li38  1  0.13236224  0.18244046  0.73700209  1
  Li  Li39  1  0.36763776  0.81755954  0.23700209  1
  Li  Li40  1  0.13236224  0.31755954  0.73700209  1
  Li  Li41  1  0.36763776  0.68244046  0.23700209  1
  Li  Li42  1  0.86763776  0.81755954  0.26299791  1
  Li  Li43  1  0.63236224  0.18244046  0.76299791  1
  Li  Li44  1  0.01098124  0.30739869  0.84378525  1
  Li  Li45  1  0.48901876  0.69260131  0.34378525  1
  Li  Li46  1  0.98901876  0.80739869  0.15621475  1
  Li  Li47  1  0.51098124  0.19260131  0.65621475  1
  Li  Li48  1  0.98901876  0.69260131  0.15621475  1
  Li  Li49  1  0.51098124  0.30739869  0.65621475  1
  Li  Li50  1  0.01098124  0.19260131  0.84378525  1
  Li  Li51  1  0.48901876  0.80739869  0.34378525  1
  Li  Li52  1  0.34776398  0.18257579  0.93879132  1
  Li  Li53  1  0.15223602  0.81742421  0.43879132  1
  Li  Li54  1  0.65223602  0.68257579  0.06120868  1
  Li  Li55  1  0.84776398  0.31742421  0.56120868  1
  Li  Li56  1  0.65223602  0.81742421  0.06120868  1
  Li  Li57  1  0.84776398  0.18257579  0.56120868  1
  Li  Li58  1  0.34776398  0.31742421  0.93879132  1
  Li  Li59  1  0.15223602  0.68257579  0.43879132  1
  Li  Li60  1  0.18626819  0.83011537  0.68679427  1
  Li  Li61  1  0.31373181  0.16988463  0.18679427  1
  Li  Li62  1  0.81373181  0.33011537  0.31320573  1
  Li  Li63  1  0.68626819  0.66988463  0.81320573  1
  Li  Li64  1  0.81373181  0.16988463  0.31320573  1
  Li  Li65  1  0.68626819  0.83011537  0.81320573  1
  Li  Li66  1  0.18626819  0.66988463  0.68679427  1
  Li  Li67  1  0.31373181  0.33011537  0.18679427  1
  Li  Li68  1  0.18011254  0.25000000  0.58203252  1
  Li  Li69  1  0.31988746  0.75000000  0.08203252  1
  Li  Li70  1  0.81988746  0.75000000  0.41796748  1
  Li  Li71  1  0.68011254  0.25000000  0.91796748  1
