# generated using pymatgen
data_Li2As3P2Se
_symmetry_space_group_name_H-M   'P 1'
_cell_length_a   4.90377250
_cell_length_b   5.01920642
_cell_length_c   6.77094919
_cell_angle_alpha   94.44826522
_cell_angle_beta   99.19379331
_cell_angle_gamma   107.03134775
_symmetry_Int_Tables_number   1
_chemical_formula_structural   Li2As3P2Se
_chemical_formula_sum   'Li2 As3 P2 Se1'
_cell_volume   155.92679830
_cell_formula_units_Z   1
loop_
 _symmetry_equiv_pos_site_id
 _symmetry_equiv_pos_as_xyz
  1  'x, y, z'
loop_
 _atom_site_type_symbol
 _atom_site_label
 _atom_site_symmetry_multiplicity
 _atom_site_fract_x
 _atom_site_fract_y
 _atom_site_fract_z
 _atom_site_occupancy
  Se  Se0  1  0.12500000  0.12500000  0.12500000  1
  P  P1  1  0.50000000  0.50000000  0.50000000  1
  P  P2  1  0.25000000  0.25000000  0.25000000  1
  As  As3  1  0.75000000  0.75000000  0.75000000  1
  As  As4  1  0.69496776  0.52107130  0.54164342  1
  As  As5  1  0.18381060  0.85100816  0.66740878  1
  Li  Li6  1  0.37995898  0.97871055  0.96851349  1
  Li  Li7  1  0.65272542  0.25368576  0.73037925  1
