# generated using pymatgen
data_LiYCu3P2
_symmetry_space_group_name_H-M   'P 1'
_cell_length_a   5.02477678
_cell_length_b   4.95274849
_cell_length_c   7.02646931
_cell_angle_alpha   95.16437239
_cell_angle_beta   99.75557133
_cell_angle_gamma   108.40438718
_symmetry_Int_Tables_number   1
_chemical_formula_structural   LiYCu3P2
_chemical_formula_sum   'Li1 Y1 Cu3 P2'
_cell_volume   161.58359920
_cell_formula_units_Z   1
loop_
 _symmetry_equiv_pos_site_id
 _symmetry_equiv_pos_as_xyz
  1  'x, y, z'
loop_
 _atom_site_type_symbol
 _atom_site_label
 _atom_site_symmetry_multiplicity
 _atom_site_fract_x
 _atom_site_fract_y
 _atom_site_fract_z
 _atom_site_occupancy
  Cu  Cu0  1  0.12500000  0.00000000  0.25000000  1
  Cu  Cu1  1  0.00000000  0.00000000  0.00000000  1
  Cu  Cu2  1  0.37500000  0.00000000  0.25000000  1
  P  P3  1  0.25000000  0.25000000  0.25000000  1
  P  P4  1  0.00000000  0.25000000  0.12500000  1
  Li  Li5  1  0.47099691  0.48087856  0.21222274  1
  Y  Y6  1  0.59254158  0.27380657  0.15185087  1
