# generated using pymatgen
data_LiF
_symmetry_space_group_name_H-M   'P 1'
_cell_length_a   6.82637168
_cell_length_b   7.95453770
_cell_length_c   9.37110963
_cell_angle_alpha   90.00000000
_cell_angle_beta   90.00000000
_cell_angle_gamma   90.00000000
_symmetry_Int_Tables_number   1
_chemical_formula_structural   LiF
_chemical_formula_sum   'Li26 F26'
_cell_volume   508.85716498
_cell_formula_units_Z   26
loop_
 _symmetry_equiv_pos_site_id
 _symmetry_equiv_pos_as_xyz
  1  'x, y, z'
loop_
 _atom_site_type_symbol
 _atom_site_label
 _atom_site_symmetry_multiplicity
 _atom_site_fract_x
 _atom_site_fract_y
 _atom_site_fract_z
 _atom_site_occupancy
  F  F0  1  0.71032510  0.74887579  0.91646349  1
  F  F1  1  -0.71032510  -0.74887579  0.91646349  1
  F  F2  1  -0.21032510  1.24887579  -0.91646349  1
  F  F3  1  1.21032510  -0.24887579  -0.91646349  1
  F  F4  1  -0.71032510  -0.74887579  -0.91646349  1
  F  F5  1  0.71032510  0.74887579  -0.91646349  1
  F  F6  1  1.21032510  -0.24887579  0.91646349  1
  F  F7  1  -0.21032510  1.24887579  0.91646349  1
  F  F8  1  0.69750065  0.24890724  0.84912557  1
  F  F9  1  0.30249935  0.75109276  0.84912557  1
  F  F10  1  0.80249935  0.74890724  0.15087443  1
  F  F11  1  0.19750065  0.25109276  0.15087443  1
  F  F12  1  0.30249935  0.75109276  0.15087443  1
  F  F13  1  0.69750065  0.24890724  0.15087443  1
  F  F14  1  0.19750065  0.25109276  0.84912557  1
  F  F15  1  0.80249935  0.74890724  0.84912557  1
  F  F16  1  0.30261414  0.43983314  0.16275637  1
  F  F17  1  0.69738586  0.56016686  0.16275637  1
  F  F18  1  0.19738586  0.93983314  0.83724363  1
  F  F19  1  0.80261414  0.06016686  0.83724363  1
  F  F20  1  0.69738586  0.56016686  0.83724363  1
  F  F21  1  0.30261414  0.43983314  0.83724363  1
  F  F22  1  0.80261414  0.06016686  0.16275637  1
  F  F23  1  0.19738586  0.93983314  0.16275637  1
  F  F24  1  0.00000000  0.50000000  0.50000000  1
  F  F25  1  0.50000000  -0.00000000  0.50000000  1
  Li  Li26  1  0.53355567  0.85776404  0.63434545  1
  Li  Li27  1  0.46644433  0.14223596  0.63434545  1
  Li  Li28  1  0.96644433  0.35776404  0.36565455  1
  Li  Li29  1  0.03355567  0.64223596  0.36565455  1
  Li  Li30  1  0.46644433  0.14223596  0.36565455  1
  Li  Li31  1  0.53355567  0.85776404  0.36565455  1
  Li  Li32  1  0.03355567  0.64223596  0.63434545  1
  Li  Li33  1  0.96644433  0.35776404  0.63434545  1
  Li  Li34  1  0.00000000  0.00000000  0.74919220  1
  Li  Li35  1  0.50000000  0.50000000  0.25080780  1
  Li  Li36  1  0.00000000  0.00000000  0.25080780  1
  Li  Li37  1  0.50000000  0.50000000  0.74919220  1
  Li  Li38  1  0.65736332  0.55755589  0.50000000  1
  Li  Li39  1  0.34263668  0.44244411  0.50000000  1
  Li  Li40  1  0.84263668  0.05755589  0.50000000  1
  Li  Li41  1  0.15736332  0.94244411  0.50000000  1
  Li  Li42  1  0.50258796  0.21604017  0.50000000  1
  Li  Li43  1  0.49741204  0.78395983  0.50000000  1
  Li  Li44  1  0.99741204  0.71604017  0.50000000  1
  Li  Li45  1  0.00258796  0.28395983  0.50000000  1
  Li  Li46  1  0.60469922  0.25778751  0.00000000  1
  Li  Li47  1  0.39530078  0.74221249  0.00000000  1
  Li  Li48  1  0.89530078  0.75778751  -0.00000000  1
  Li  Li49  1  0.10469922  0.24221249  -0.00000000  1
  Li  Li50  1  0.00000000  0.50000000  -0.00000000  1
  Li  Li51  1  0.50000000  -0.00000000  0.00000000  1
