# generated using pymatgen
data_LiF
_symmetry_space_group_name_H-M   'P 1'
_cell_length_a   9.00040377
_cell_length_b   9.00040377
_cell_length_c   19.71479495
_cell_angle_alpha   90.00000000
_cell_angle_beta   90.00000000
_cell_angle_gamma   120.00000000
_symmetry_Int_Tables_number   1
_chemical_formula_structural   LiF
_chemical_formula_sum   'Li44 F44'
_cell_volume   1383.07866359
_cell_formula_units_Z   44
loop_
 _symmetry_equiv_pos_site_id
 _symmetry_equiv_pos_as_xyz
  1  'x, y, z'
loop_
 _atom_site_type_symbol
 _atom_site_label
 _atom_site_symmetry_multiplicity
 _atom_site_fract_x
 _atom_site_fract_y
 _atom_site_fract_z
 _atom_site_occupancy
  F  F0  1  0.61967099  0.89102710  0.17154530  1
  F  F1  1  0.10897290  0.72864390  0.17154530  1
  F  F2  1  0.27135610  0.38032901  0.17154530  1
  F  F3  1  0.10897290  0.38032901  0.82845470  1
  F  F4  1  0.27135610  0.89102710  0.82845470  1
  F  F5  1  0.61967099  0.72864390  0.82845470  1
  F  F6  1  0.30709666  0.76673516  0.16173468  1
  F  F7  1  0.23326484  0.54036150  0.16173468  1
  F  F8  1  0.45963850  0.69290334  0.16173468  1
  F  F9  1  0.23326484  0.69290334  0.83826532  1
  F  F10  1  0.45963850  0.76673516  0.83826532  1
  F  F11  1  0.30709666  0.54036150  0.83826532  1
  F  F12  1  0.66666667  0.33333333  0.50000000  1
  F  F13  1  0.66666667  0.33333333  0.73389003  1
  F  F14  1  0.66666667  0.33333333  0.26610997  1
  F  F15  1  0.81681833  0.18318167  0.00000000  1
  F  F16  1  0.81681833  0.63363667  0.00000000  1
  F  F17  1  0.36636333  0.18318167  0.00000000  1
  F  F18  1  0.69116773  0.75779440  0.53114978  1
  F  F19  1  0.24220560  0.93337332  0.53114978  1
  F  F20  1  0.06662668  0.30883227  0.53114978  1
  F  F21  1  0.24220560  0.30883227  0.46885022  1
  F  F22  1  0.06662668  0.75779440  0.46885022  1
  F  F23  1  0.69116773  0.93337332  0.46885022  1
  F  F24  1  0.33333333  0.66666667  0.00000000  1
  F  F25  1  0.91609597  0.47061641  0.87538814  1
  F  F26  1  0.52938359  0.44547956  0.87538814  1
  F  F27  1  0.55452044  0.08390403  0.87538814  1
  F  F28  1  0.52938359  0.08390403  0.12461186  1
  F  F29  1  0.55452044  0.47061641  0.12461186  1
  F  F30  1  0.91609597  0.44547956  0.12461186  1
  F  F31  1  0.12331270  0.87668730  0.50000000  1
  F  F32  1  0.12331270  0.24662539  0.50000000  1
  F  F33  1  0.75337461  0.87668730  0.50000000  1
  F  F34  1  0.73934651  0.67449363  0.99670628  1
  F  F35  1  0.32550637  0.06485288  0.99670628  1
  F  F36  1  0.93514712  0.26065349  0.99670628  1
  F  F37  1  0.32550637  0.26065349  0.00329372  1
  F  F38  1  0.93514712  0.67449363  0.00329372  1
  F  F39  1  0.73934651  0.06485288  0.00329372  1
  F  F40  1  0.33333333  0.66666667  0.85559743  1
  F  F41  1  0.33333333  0.66666667  0.14440257  1
  F  F42  1  0.33333333  0.66666667  0.39210429  1
  F  F43  1  0.33333333  0.66666667  0.60789571  1
  Li  Li44  1  0.49154290  0.58840607  0.56487121  1
  Li  Li45  1  -0.58840607  -0.09686317  0.56487121  1
  Li  Li46  1  0.09686317  -0.49154290  0.56487121  1
  Li  Li47  1  -0.58840607  -0.49154290  -0.56487121  1
  Li  Li48  1  0.09686317  0.58840607  -0.56487121  1
  Li  Li49  1  0.49154290  -0.09686317  -0.56487121  1
  Li  Li50  1  0.91104953  0.84200572  0.38367257  1
  Li  Li51  1  0.15799428  0.06904381  0.38367257  1
  Li  Li52  1  0.93095619  0.08895047  0.38367257  1
  Li  Li53  1  0.15799428  0.08895047  0.61632743  1
  Li  Li54  1  0.93095619  0.84200572  0.61632743  1
  Li  Li55  1  0.91104953  0.06904381  0.61632743  1
  Li  Li56  1  0.00000000  0.00000000  0.50000000  1
  Li  Li57  1  0.25748455  0.69375013  0.55753750  1
  Li  Li58  1  0.30624987  0.56373443  0.55753750  1
  Li  Li59  1  0.43626557  0.74251545  0.55753750  1
  Li  Li60  1  0.30624987  0.74251545  0.44246250  1
  Li  Li61  1  0.43626557  0.69375013  0.44246250  1
  Li  Li62  1  0.25748455  0.56373443  0.44246250  1
  Li  Li63  1  0.00000000  0.00000000  0.13555930  1
  Li  Li64  1  0.00000000  0.00000000  0.86444070  1
  Li  Li65  1  0.06706072  0.27220766  0.76242058  1
  Li  Li66  1  0.72779234  0.79485306  0.76242058  1
  Li  Li67  1  0.20514694  0.93293928  0.76242058  1
  Li  Li68  1  0.72779234  0.93293928  0.23757942  1
  Li  Li69  1  0.20514694  0.27220766  0.23757942  1
  Li  Li70  1  0.06706072  0.79485306  0.23757942  1
  Li  Li71  1  0.78873349  0.20330898  0.19043166  1
  Li  Li72  1  0.79669102  0.58542451  0.19043166  1
  Li  Li73  1  0.41457549  0.21126651  0.19043166  1
  Li  Li74  1  0.79669102  0.21126651  0.80956834  1
  Li  Li75  1  0.41457549  0.20330898  0.80956834  1
  Li  Li76  1  0.78873349  0.58542451  0.80956834  1
  Li  Li77  1  0.00000000  0.00000000  0.00000000  1
  Li  Li78  1  0.87504693  0.12495307  0.50000000  1
  Li  Li79  1  0.87504693  0.75009386  0.50000000  1
  Li  Li80  1  0.24990614  0.12495307  0.50000000  1
  Li  Li81  1  0.33333333  0.66666667  0.50000000  1
  Li  Li82  1  0.74820950  0.32364659  0.89681361  1
  Li  Li83  1  0.67635341  0.42456292  0.89681361  1
  Li  Li84  1  0.57543708  0.25179050  0.89681361  1
  Li  Li85  1  0.67635341  0.25179050  0.10318639  1
  Li  Li86  1  0.57543708  0.32364659  0.10318639  1
  Li  Li87  1  0.74820950  0.42456292  0.10318639  1
