# generated using pymatgen
data_LiF
_symmetry_space_group_name_H-M   'P 1'
_cell_length_a   5.86947594
_cell_length_b   6.17181641
_cell_length_c   12.62367090
_cell_angle_alpha   90.00000000
_cell_angle_beta   90.00000000
_cell_angle_gamma   90.00000000
_symmetry_Int_Tables_number   1
_chemical_formula_structural   LiF
_chemical_formula_sum   'Li16 F16'
_cell_volume   457.29661751
_cell_formula_units_Z   16
loop_
 _symmetry_equiv_pos_site_id
 _symmetry_equiv_pos_as_xyz
  1  'x, y, z'
loop_
 _atom_site_type_symbol
 _atom_site_label
 _atom_site_symmetry_multiplicity
 _atom_site_fract_x
 _atom_site_fract_y
 _atom_site_fract_z
 _atom_site_occupancy
  F  F0  1  0.42273790  0.76142570  0.39594759  1
  F  F1  1  0.57726210  0.23857430  0.39594759  1
  F  F2  1  0.07726210  0.26142570  0.60405241  1
  F  F3  1  0.92273790  0.73857430  0.60405241  1
  F  F4  1  0.57726210  0.23857430  0.60405241  1
  F  F5  1  0.42273790  0.76142570  0.60405241  1
  F  F6  1  0.92273790  0.73857430  0.39594759  1
  F  F7  1  0.07726210  0.26142570  0.39594759  1
  F  F8  1  0.31961284  0.31739314  0.05685676  1
  F  F9  1  0.68038716  0.68260686  0.05685676  1
  F  F10  1  0.18038716  0.81739314  0.94314324  1
  F  F11  1  0.81961284  0.18260686  0.94314324  1
  F  F12  1  0.68038716  0.68260686  0.94314324  1
  F  F13  1  0.31961284  0.31739314  0.94314324  1
  F  F14  1  0.81961284  0.18260686  0.05685676  1
  F  F15  1  0.18038716  0.81739314  0.05685676  1
  Li  Li16  1  0.00000000  0.00000000  0.50000000  1
  Li  Li17  1  0.50000000  0.50000000  0.50000000  1
  Li  Li18  1  0.19852943  0.88323320  0.15430893  1
  Li  Li19  1  -0.19852943  -0.88323320  0.15430893  1
  Li  Li20  1  0.30147057  1.38323320  -0.15430893  1
  Li  Li21  1  0.69852943  -0.38323320  -0.15430893  1
  Li  Li22  1  -0.19852943  -0.88323320  -0.15430893  1
  Li  Li23  1  0.19852943  0.88323320  -0.15430893  1
  Li  Li24  1  0.69852943  -0.38323320  0.15430893  1
  Li  Li25  1  0.30147057  1.38323320  0.15430893  1
  Li  Li26  1  0.23569954  0.14636259  0.00000000  1
  Li  Li27  1  0.76430046  0.85363741  0.00000000  1
  Li  Li28  1  0.26430046  0.64636259  -0.00000000  1
  Li  Li29  1  0.73569954  0.35363741  0.00000000  1
  Li  Li30  1  0.00000000  0.50000000  0.00000000  1
  Li  Li31  1  0.50000000  0.00000000  0.00000000  1
