# generated using pymatgen
data_Li3TiP2O
_symmetry_space_group_name_H-M   'P 1'
_cell_length_a   6.99319458
_cell_length_b   7.88613075
_cell_length_c   6.72066152
_cell_angle_alpha   99.00973903
_cell_angle_beta   94.27309969
_cell_angle_gamma   90.86013029
_symmetry_Int_Tables_number   1
_chemical_formula_structural   Li3TiP2O
_chemical_formula_sum   'Li3 Ti1 P2 O1'
_cell_volume   364.91483212
_cell_formula_units_Z   1
loop_
 _symmetry_equiv_pos_site_id
 _symmetry_equiv_pos_as_xyz
  1  'x, y, z'
loop_
 _atom_site_type_symbol
 _atom_site_label
 _atom_site_symmetry_multiplicity
 _atom_site_fract_x
 _atom_site_fract_y
 _atom_site_fract_z
 _atom_site_occupancy
  P  P0  1  0.00000000  0.00000000  0.00000000  1
  P  P1  1  0.50000000  0.50000000  0.50000000  1
  Ti  Ti2  1  0.25000000  0.25000000  0.25000000  1
  O  O3  1  0.75000000  0.25000000  0.00000000  1
  Li  Li4  1  0.25000000  0.75000000  0.50000000  1
  Li  Li5  1  0.85434845  0.71240850  0.02068141  1
  Li  Li6  1  0.61410573  0.84794355  0.04191453  1
