# generated using pymatgen
data_LiF
_symmetry_space_group_name_H-M   'P 1'
_cell_length_a   8.88529394
_cell_length_b   4.82335464
_cell_length_c   11.54237065
_cell_angle_alpha   90.00000000
_cell_angle_beta   90.00000000
_cell_angle_gamma   90.00000000
_symmetry_Int_Tables_number   1
_chemical_formula_structural   LiF
_chemical_formula_sum   'Li20 F20'
_cell_volume   494.67049862
_cell_formula_units_Z   20
loop_
 _symmetry_equiv_pos_site_id
 _symmetry_equiv_pos_as_xyz
  1  'x, y, z'
loop_
 _atom_site_type_symbol
 _atom_site_label
 _atom_site_symmetry_multiplicity
 _atom_site_fract_x
 _atom_site_fract_y
 _atom_site_fract_z
 _atom_site_occupancy
  F  F0  1  0.94311761  0.81798557  0.83123572  1
  F  F1  1  -0.94311761  -0.81798557  0.83123572  1
  F  F2  1  -0.44311761  1.31798557  -0.83123572  1
  F  F3  1  1.44311761  -0.31798557  -0.83123572  1
  F  F4  1  -0.94311761  -0.81798557  -0.83123572  1
  F  F5  1  0.94311761  0.81798557  -0.83123572  1
  F  F6  1  1.44311761  -0.31798557  0.83123572  1
  F  F7  1  -0.44311761  1.31798557  0.83123572  1
  F  F8  1  0.00000000  0.00000000  0.66762911  1
  F  F9  1  0.50000000  0.50000000  0.33237089  1
  F  F10  1  0.00000000  0.00000000  0.33237089  1
  F  F11  1  0.50000000  0.50000000  0.66762911  1
  F  F12  1  0.52386858  0.80648111  0.35094638  1
  F  F13  1  0.47613142  0.19351889  0.35094638  1
  F  F14  1  0.97613142  0.30648111  0.64905362  1
  F  F15  1  0.02386858  0.69351889  0.64905362  1
  F  F16  1  0.47613142  0.19351889  0.64905362  1
  F  F17  1  0.52386858  0.80648111  0.64905362  1
  F  F18  1  0.02386858  0.69351889  0.35094638  1
  F  F19  1  0.97613142  0.30648111  0.35094638  1
  Li  Li20  1  0.00000000  0.50000000  0.64511386  1
  Li  Li21  1  0.50000000  0.00000000  0.35488614  1
  Li  Li22  1  0.00000000  0.50000000  0.35488614  1
  Li  Li23  1  0.50000000  0.00000000  0.64511386  1
  Li  Li24  1  0.49315887  0.66553435  0.50000000  1
  Li  Li25  1  0.50684113  0.33446565  0.50000000  1
  Li  Li26  1  0.00684113  0.16553435  0.50000000  1
  Li  Li27  1  0.99315887  0.83446565  0.50000000  1
  Li  Li28  1  0.59468865  0.67614141  0.84378365  1
  Li  Li29  1  0.40531135  0.32385859  0.84378365  1
  Li  Li30  1  0.90531135  0.17614141  0.15621635  1
  Li  Li31  1  0.09468865  0.82385859  0.15621635  1
  Li  Li32  1  0.40531135  0.32385859  0.15621635  1
  Li  Li33  1  0.59468865  0.67614141  0.15621635  1
  Li  Li34  1  0.09468865  0.82385859  0.84378365  1
  Li  Li35  1  0.90531135  0.17614141  0.84378365  1
  Li  Li36  1  0.00000000  0.50000000  0.00000000  1
  Li  Li37  1  0.50000000  0.00000000  0.00000000  1
  Li  Li38  1  0.00000000  0.00000000  0.00000000  1
  Li  Li39  1  0.50000000  0.50000000  0.00000000  1
