# generated using pymatgen
data_Li3YAlO
_symmetry_space_group_name_H-M   'P 1'
_cell_length_a   3.04015520
_cell_length_b   2.74802149
_cell_length_c   6.12703320
_cell_angle_alpha   102.95131735
_cell_angle_beta   107.37705891
_cell_angle_gamma   105.20217078
_symmetry_Int_Tables_number   1
_chemical_formula_structural   Li3YAlO
_chemical_formula_sum   'Li3 Y1 Al1 O1'
_cell_volume   44.52760276
_cell_formula_units_Z   1
loop_
 _symmetry_equiv_pos_site_id
 _symmetry_equiv_pos_as_xyz
  1  'x, y, z'
loop_
 _atom_site_type_symbol
 _atom_site_label
 _atom_site_symmetry_multiplicity
 _atom_site_fract_x
 _atom_site_fract_y
 _atom_site_fract_z
 _atom_site_occupancy
  Al  Al0  1  0.00000000  0.00000000  0.00000000  1
  Li  Li1  1  0.33300000  0.66700000  0.25000000  1
  Li  Li2  1  0.66700000  0.33300000  0.50000000  1
  Li  Li3  1  0.00000000  0.00000000  0.75000000  1
  O  O4  1  0.51972359  0.99112992  0.24723023  1
  Y  Y5  1  0.33394026  0.94908850  0.06460866  1
