# generated using pymatgen
data_Li2Y2P3Se2
_symmetry_space_group_name_H-M   'P 1'
_cell_length_a   4.84821863
_cell_length_b   5.05330356
_cell_length_c   7.01468106
_cell_angle_alpha   94.97832705
_cell_angle_beta   100.84176134
_cell_angle_gamma   109.99596116
_symmetry_Int_Tables_number   1
_chemical_formula_structural   Li2Y2P3Se2
_chemical_formula_sum   'Li2 Y2 P3 Se2'
_cell_volume   156.47355726
_cell_formula_units_Z   1
loop_
 _symmetry_equiv_pos_site_id
 _symmetry_equiv_pos_as_xyz
  1  'x, y, z'
loop_
 _atom_site_type_symbol
 _atom_site_label
 _atom_site_symmetry_multiplicity
 _atom_site_fract_x
 _atom_site_fract_y
 _atom_site_fract_z
 _atom_site_occupancy
  Se  Se0  1  0.00000000  0.00000000  0.00000000  1
  Se  Se1  1  0.33300000  0.66700000  0.25000000  1
  Y  Y2  1  0.66700000  0.33300000  0.50000000  1
  Y  Y3  1  0.00000000  0.00000000  0.75000000  1
  P  P4  1  0.74744822  0.38614482  0.31099431  1
  P  P5  1  0.63130086  0.87174536  0.99862072  1
  P  P6  1  0.87086416  0.27260171  0.22929620  1
  Li  Li7  1  0.67924288  0.92570890  0.93890833  1
  Li  Li8  1  0.04357150  0.36961456  0.79732334  1
