# generated using pymatgen
data_Li2YMoP3Se2
_symmetry_space_group_name_H-M   'P 1'
_cell_length_a   5.67337021
_cell_length_b   5.83473763
_cell_length_c   7.40373280
_cell_angle_alpha   93.97189720
_cell_angle_beta   98.64996635
_cell_angle_gamma   105.95353244
_symmetry_Int_Tables_number   1
_chemical_formula_structural   Li2YMoP3Se2
_chemical_formula_sum   'Li2 Y1 Mo1 P3 Se2'
_cell_volume   231.38083327
_cell_formula_units_Z   1
loop_
 _symmetry_equiv_pos_site_id
 _symmetry_equiv_pos_as_xyz
  1  'x, y, z'
loop_
 _atom_site_type_symbol
 _atom_site_label
 _atom_site_symmetry_multiplicity
 _atom_site_fract_x
 _atom_site_fract_y
 _atom_site_fract_z
 _atom_site_occupancy
  Se  Se0  1  0.00000000  0.00000000  0.00000000  1
  Se  Se1  1  0.50000000  0.50000000  0.50000000  1
  P  P2  1  0.25000000  0.25000000  0.25000000  1
  P  P3  1  0.75000000  0.25000000  0.00000000  1
  P  P4  1  0.25000000  0.75000000  0.50000000  1
  Mo  Mo5  1  0.49617158  0.51555785  0.24735128  1
  Li  Li6  1  0.78379792  0.66987299  0.76770192  1
  Li  Li7  1  0.73483368  0.18646767  0.11595927  1
  Y  Y8  1  0.92905607  0.92421801  0.43722339  1
