# generated using pymatgen
data_LiF
_symmetry_space_group_name_H-M   'P 1'
_cell_length_a   4.07902287
_cell_length_b   5.53458546
_cell_length_c   8.52521118
_cell_angle_alpha   90.00000000
_cell_angle_beta   90.00000000
_cell_angle_gamma   90.00000000
_symmetry_Int_Tables_number   1
_chemical_formula_structural   LiF
_chemical_formula_sum   'Li6 F6'
_cell_volume   192.46261575
_cell_formula_units_Z   6
loop_
 _symmetry_equiv_pos_site_id
 _symmetry_equiv_pos_as_xyz
  1  'x, y, z'
loop_
 _atom_site_type_symbol
 _atom_site_label
 _atom_site_symmetry_multiplicity
 _atom_site_fract_x
 _atom_site_fract_y
 _atom_site_fract_z
 _atom_site_occupancy
  F  F0  1  0.00000000  0.50000000  -0.00000000  1
  F  F1  1  0.50000000  0.00000000  0.50000000  1
  F  F2  1  0.00000000  0.00000000  0.07813626  1
  F  F3  1  0.50000000  0.50000000  0.42186374  1
  F  F4  1  0.00000000  0.00000000  -0.07813626  1
  F  F5  1  0.50000000  0.50000000  0.57813626  1
  Li  Li6  1  0.00000000  0.50000000  0.50000000  1
  Li  Li7  1  0.50000000  0.00000000  0.00000000  1
  Li  Li8  1  0.00000000  0.50000000  0.33542634  1
  Li  Li9  1  0.50000000  0.00000000  0.16457366  1
  Li  Li10  1  0.00000000  0.50000000  0.66457366  1
  Li  Li11  1  0.50000000  0.00000000  0.83542634  1
