# generated using pymatgen
data_K4SiSe3F2
_symmetry_space_group_name_H-M   'P 1'
_cell_length_a   11.31106508
_cell_length_b   27.71286763
_cell_length_c   22.57381850
_cell_angle_alpha   90.00000000
_cell_angle_beta   90.00000000
_cell_angle_gamma   90.00000000
_symmetry_Int_Tables_number   1
_chemical_formula_structural   K4SiSe3F2
_chemical_formula_sum   'K64 Si16 Se48 F32'
_cell_volume   7076.03540585
_cell_formula_units_Z   16
loop_
 _symmetry_equiv_pos_site_id
 _symmetry_equiv_pos_as_xyz
  1  'x, y, z'
loop_
 _atom_site_type_symbol
 _atom_site_label
 _atom_site_symmetry_multiplicity
 _atom_site_fract_x
 _atom_site_fract_y
 _atom_site_fract_z
 _atom_site_occupancy
  F  F0  1  0.00000000  0.50000000  0.00000000  1
  F  F1  1  0.50000000  0.00000000  -0.00000000  1
  F  F2  1  0.00000000  0.50000000  0.05518611  1
  F  F3  1  0.50000000  0.00000000  0.94481389  1
  F  F4  1  0.00000000  0.50000000  0.94481389  1
  F  F5  1  0.50000000  0.00000000  0.05518611  1
  F  F6  1  0.91715381  0.65213599  0.05666443  1
  F  F7  1  0.08284619  0.34786401  0.05666443  1
  F  F8  1  0.58284619  0.15213599  0.94333557  1
  F  F9  1  0.41715381  0.84786401  0.94333557  1
  F  F10  1  0.08284619  0.34786401  0.94333557  1
  F  F11  1  0.91715381  0.65213599  0.94333557  1
  F  F12  1  0.41715381  0.84786401  0.05666443  1
  F  F13  1  0.58284619  0.15213599  0.05666443  1
  F  F14  1  0.61621901  0.89076672  0.52360679  1
  F  F15  1  0.38378099  0.10923328  0.52360679  1
  F  F16  1  0.88378099  0.39076672  0.47639321  1
  F  F17  1  0.11621901  0.60923328  0.47639321  1
  F  F18  1  0.38378099  0.10923328  0.47639321  1
  F  F19  1  0.61621901  0.89076672  0.47639321  1
  F  F20  1  0.11621901  0.60923328  0.52360679  1
  F  F21  1  0.88378099  0.39076672  0.52360679  1
  F  F22  1  0.43486570  0.76754843  0.00000000  1
  F  F23  1  0.56513430  0.23245157  -0.00000000  1
  F  F24  1  0.06513430  0.26754843  0.00000000  1
  F  F25  1  0.93486570  0.73245157  -0.00000000  1
  F  F26  1  0.00000000  0.50000000  0.68655302  1
  F  F27  1  0.50000000  0.00000000  0.31344698  1
  F  F28  1  0.00000000  0.50000000  0.31344698  1
  F  F29  1  0.50000000  0.00000000  0.68655302  1
  F  F30  1  0.00000000  0.00000000  0.50000000  1
  F  F31  1  0.50000000  0.50000000  0.50000000  1
  K  K32  1  0.00000000  0.50000000  0.62272482  1
  K  K33  1  0.50000000  0.00000000  0.37727518  1
  K  K34  1  0.00000000  0.50000000  0.37727518  1
  K  K35  1  0.50000000  0.00000000  0.62272482  1
  K  K36  1  0.53774485  0.41969592  0.00000000  1
  K  K37  1  0.46225515  0.58030408  0.00000000  1
  K  K38  1  0.96225515  0.91969592  0.00000000  1
  K  K39  1  0.03774485  0.08030408  0.00000000  1
  K  K40  1  0.39227580  0.32596380  0.77494394  1
  K  K41  1  0.60772420  0.67403620  0.77494394  1
  K  K42  1  0.10772420  0.82596380  0.22505606  1
  K  K43  1  0.89227580  0.17403620  0.22505606  1
  K  K44  1  0.60772420  0.67403620  0.22505606  1
  K  K45  1  0.39227580  0.32596380  0.22505606  1
  K  K46  1  0.89227580  0.17403620  0.77494394  1
  K  K47  1  0.10772420  0.82596380  0.77494394  1
  K  K48  1  0.74345677  0.88653087  0.78919520  1
  K  K49  1  0.25654323  0.11346913  0.78919520  1
  K  K50  1  0.75654323  0.38653087  0.21080480  1
  K  K51  1  0.24345677  0.61346913  0.21080480  1
  K  K52  1  0.25654323  0.11346913  0.21080480  1
  K  K53  1  0.74345677  0.88653087  0.21080480  1
  K  K54  1  0.24345677  0.61346913  0.78919520  1
  K  K55  1  0.75654323  0.38653087  0.78919520  1
  K  K56  1  0.86029569  0.11293100  0.50000000  1
  K  K57  1  0.13970431  0.88706900  0.50000000  1
  K  K58  1  0.63970431  0.61293100  0.50000000  1
  K  K59  1  0.36029569  0.38706900  0.50000000  1
  K  K60  1  0.77958237  0.30470491  0.17033610  1
  K  K61  1  0.22041763  0.69529509  0.17033610  1
  K  K62  1  0.72041763  0.80470491  0.82966390  1
  K  K63  1  0.27958237  0.19529509  0.82966390  1
  K  K64  1  0.22041763  0.69529509  0.82966390  1
  K  K65  1  0.77958237  0.30470491  0.82966390  1
  K  K66  1  0.27958237  0.19529509  0.17033610  1
  K  K67  1  0.72041763  0.80470491  0.17033610  1
  K  K68  1  0.24010553  0.54478970  0.00000000  1
  K  K69  1  0.75989447  0.45521030  0.00000000  1
  K  K70  1  0.25989447  0.04478970  -0.00000000  1
  K  K71  1  0.74010553  0.95521030  -0.00000000  1
  K  K72  1  0.93712730  0.94207907  0.71192897  1
  K  K73  1  0.06287270  0.05792093  0.71192897  1
  K  K74  1  0.56287270  0.44207907  0.28807103  1
  K  K75  1  0.43712730  0.55792093  0.28807103  1
  K  K76  1  0.06287270  0.05792093  0.28807103  1
  K  K77  1  0.93712730  0.94207907  0.28807103  1
  K  K78  1  0.43712730  0.55792093  0.71192897  1
  K  K79  1  0.56287270  0.44207907  0.71192897  1
  K  K80  1  0.91608285  0.94443092  0.50000000  1
  K  K81  1  0.08391715  0.05556908  0.50000000  1
  K  K82  1  0.58391715  0.44443092  0.50000000  1
  K  K83  1  0.41608285  0.55556908  0.50000000  1
  K  K84  1  0.09233289  0.59834275  0.25621161  1
  K  K85  1  0.90766711  0.40165725  0.25621161  1
  K  K86  1  0.40766711  0.09834275  0.74378839  1
  K  K87  1  0.59233289  0.90165725  0.74378839  1
  K  K88  1  0.90766711  0.40165725  0.74378839  1
  K  K89  1  0.09233289  0.59834275  0.74378839  1
  K  K90  1  0.59233289  0.90165725  0.25621161  1
  K  K91  1  0.40766711  0.09834275  0.25621161  1
  K  K92  1  0.00000000  0.00000000  0.05448649  1
  K  K93  1  0.50000000  0.50000000  0.94551351  1
  K  K94  1  0.00000000  0.00000000  0.94551351  1
  K  K95  1  0.50000000  0.50000000  0.05448649  1
  Se  Se96  1  0.87828086  0.13505091  0.41245604  1
  Se  Se97  1  0.12171914  0.86494909  0.41245604  1
  Se  Se98  1  0.62171914  0.63505091  0.58754396  1
  Se  Se99  1  0.37828086  0.36494909  0.58754396  1
  Se  Se100  1  0.12171914  0.86494909  0.58754396  1
  Se  Se101  1  0.87828086  0.13505091  0.58754396  1
  Se  Se102  1  0.37828086  0.36494909  0.41245604  1
  Se  Se103  1  0.62171914  0.63505091  0.41245604  1
  Se  Se104  1  0.30703018  0.31487717  0.92242140  1
  Se  Se105  1  0.69296982  0.68512283  0.92242140  1
  Se  Se106  1  0.19296982  0.81487717  0.07757860  1
  Se  Se107  1  0.80703018  0.18512283  0.07757860  1
  Se  Se108  1  0.69296982  0.68512283  0.07757860  1
  Se  Se109  1  0.30703018  0.31487717  0.07757860  1
  Se  Se110  1  0.80703018  0.18512283  0.92242140  1
  Se  Se111  1  0.19296982  0.81487717  0.92242140  1
  Se  Se112  1  0.30569407  0.85290614  0.60194693  1
  Se  Se113  1  0.69430593  0.14709386  0.60194693  1
  Se  Se114  1  0.19430593  0.35290614  0.39805307  1
  Se  Se115  1  0.80569407  0.64709386  0.39805307  1
  Se  Se116  1  0.69430593  0.14709386  0.39805307  1
  Se  Se117  1  0.30569407  0.85290614  0.39805307  1
  Se  Se118  1  0.80569407  0.64709386  0.60194693  1
  Se  Se119  1  0.19430593  0.35290614  0.60194693  1
  Se  Se120  1  0.69468628  0.41328330  0.14830156  1
  Se  Se121  1  0.30531372  0.58671670  0.14830156  1
  Se  Se122  1  0.80531372  0.91328330  0.85169844  1
  Se  Se123  1  0.19468628  0.08671670  0.85169844  1
  Se  Se124  1  0.30531372  0.58671670  0.85169844  1
  Se  Se125  1  0.69468628  0.41328330  0.85169844  1
  Se  Se126  1  0.19468628  0.08671670  0.14830156  1
  Se  Se127  1  0.80531372  0.91328330  0.14830156  1
  Se  Se128  1  0.95019168  0.27525167  0.50000000  1
  Se  Se129  1  0.04980832  0.72474833  0.50000000  1
  Se  Se130  1  0.54980832  0.77525167  0.50000000  1
  Se  Se131  1  0.45019168  0.22474833  0.50000000  1
  Se  Se132  1  0.20948763  0.44913139  0.95458570  1
  Se  Se133  1  0.79051237  0.55086861  0.95458570  1
  Se  Se134  1  0.29051237  0.94913139  0.04541430  1
  Se  Se135  1  0.70948763  0.05086861  0.04541430  1
  Se  Se136  1  0.79051237  0.55086861  0.04541430  1
  Se  Se137  1  0.20948763  0.44913139  0.04541430  1
  Se  Se138  1  0.70948763  0.05086861  0.95458570  1
  Se  Se139  1  0.29051237  0.94913139  0.95458570  1
  Se  Se140  1  0.66365784  0.89438571  0.00000000  1
  Se  Se141  1  0.33634216  0.10561429  -0.00000000  1
  Se  Se142  1  0.83634216  0.39438571  -0.00000000  1
  Se  Se143  1  0.16365784  0.60561429  0.00000000  1
  Si  Si144  1  0.92021373  0.19922488  0.34428344  1
  Si  Si145  1  -0.92021373  -0.19922488  0.34428344  1
  Si  Si146  1  -0.42021373  0.69922488  -0.34428344  1
  Si  Si147  1  1.42021373  0.30077512  -0.34428344  1
  Si  Si148  1  -0.92021373  -0.19922488  -0.34428344  1
  Si  Si149  1  0.92021373  0.19922488  -0.34428344  1
  Si  Si150  1  1.42021373  0.30077512  0.34428344  1
  Si  Si151  1  -0.42021373  0.69922488  0.34428344  1
  Si  Si152  1  0.85768631  0.25779530  -0.00000000  1
  Si  Si153  1  0.14231369  0.74220470  0.00000000  1
  Si  Si154  1  0.64231369  0.75779530  0.00000000  1
  Si  Si155  1  0.35768631  0.24220470  -0.00000000  1
  Si  Si156  1  0.31533050  0.44428915  0.50000000  1
  Si  Si157  1  0.68466950  0.55571085  0.50000000  1
  Si  Si158  1  0.18466950  0.94428915  0.50000000  1
  Si  Si159  1  0.81533050  0.05571085  0.50000000  1
