# generated using pymatgen
data_LiCaF3
_symmetry_space_group_name_H-M   'P 1'
_cell_length_a   5.91204163
_cell_length_b   5.91204163
_cell_length_c   46.09696970
_cell_angle_alpha   90.00000000
_cell_angle_beta   90.00000000
_cell_angle_gamma   120.00000000
_symmetry_Int_Tables_number   1
_chemical_formula_structural   LiCaF3
_chemical_formula_sum   'Li18 Ca18 F54'
_cell_volume   1395.33335479
_cell_formula_units_Z   18
loop_
 _symmetry_equiv_pos_site_id
 _symmetry_equiv_pos_as_xyz
  1  'x, y, z'
loop_
 _atom_site_type_symbol
 _atom_site_label
 _atom_site_symmetry_multiplicity
 _atom_site_fract_x
 _atom_site_fract_y
 _atom_site_fract_z
 _atom_site_occupancy
  Ca  Ca0  1  0.50000000  0.00000000  0.00000000  1
  Ca  Ca1  1  0.00000000  0.50000000  0.00000000  1
  Ca  Ca2  1  0.50000000  0.50000000  0.00000000  1
  Ca  Ca3  1  0.00000000  0.50000000  0.50000000  1
  Ca  Ca4  1  0.50000000  0.00000000  0.50000000  1
  Ca  Ca5  1  0.50000000  0.50000000  0.50000000  1
  Ca  Ca6  1  0.16666667  0.33333333  0.33333333  1
  Ca  Ca7  1  0.66666667  0.83333333  0.33333333  1
  Ca  Ca8  1  0.16666667  0.83333333  0.33333333  1
  Ca  Ca9  1  0.66666667  0.83333333  0.83333333  1
  Ca  Ca10  1  0.16666667  0.33333333  0.83333333  1
  Ca  Ca11  1  0.16666667  0.83333333  0.83333333  1
  Ca  Ca12  1  0.83333333  0.66666667  0.66666667  1
  Ca  Ca13  1  0.33333333  0.16666667  0.66666667  1
  Ca  Ca14  1  0.83333333  0.16666667  0.66666667  1
  Ca  Ca15  1  0.33333333  0.16666667  0.16666667  1
  Ca  Ca16  1  0.83333333  0.66666667  0.16666667  1
  Ca  Ca17  1  0.83333333  0.16666667  0.16666667  1
  F  F18  1  0.00000000  0.00000000  0.00000000  1
  F  F19  1  0.00000000  0.00000000  0.50000000  1
  F  F20  1  0.66666667  0.33333333  0.33333333  1
  F  F21  1  0.66666667  0.33333333  0.83333333  1
  F  F22  1  0.33333333  0.66666667  0.66666667  1
  F  F23  1  0.33333333  0.66666667  0.16666667  1
  F  F24  1  0.55697579  0.15231725  0.84686660  1
  F  F25  1  -0.15231725  0.40465854  0.84686660  1
  F  F26  1  -0.40465854  -0.55697579  0.84686660  1
  F  F27  1  0.15231725  0.55697579  -0.34686660  1
  F  F28  1  0.40465854  -0.15231725  -0.34686660  1
  F  F29  1  -0.55697579  -0.40465854  -0.34686660  1
  F  F30  1  -0.55697579  -0.15231725  -0.84686660  1
  F  F31  1  0.15231725  -0.40465854  -0.84686660  1
  F  F32  1  0.40465854  0.55697579  -0.84686660  1
  F  F33  1  -0.15231725  -0.55697579  1.34686660  1
  F  F34  1  -0.40465854  0.15231725  1.34686660  1
  F  F35  1  0.55697579  0.40465854  1.34686660  1
  F  F36  1  1.22364245  0.48565058  1.18019993  1
  F  F37  1  0.51434942  0.73799187  1.18019993  1
  F  F38  1  0.26200813  -0.22364245  1.18019993  1
  F  F39  1  0.81898391  0.89030912  -0.01353327  1
  F  F40  1  1.07132521  0.18101609  -0.01353327  1
  F  F41  1  0.10969088  -0.07132521  -0.01353327  1
  F  F42  1  0.10969088  0.18101609  -0.51353327  1
  F  F43  1  0.81898391  -0.07132521  -0.51353327  1
  F  F44  1  1.07132521  0.89030912  -0.51353327  1
  F  F45  1  0.51434942  -0.22364245  1.68019993  1
  F  F46  1  0.26200813  0.48565058  1.68019993  1
  F  F47  1  1.22364245  0.73799187  1.68019993  1
  F  F48  1  0.89030912  0.81898391  1.51353327  1
  F  F49  1  0.18101609  1.07132521  1.51353327  1
  F  F50  1  -0.07132521  0.10969088  1.51353327  1
  F  F51  1  0.48565058  1.22364245  0.31980007  1
  F  F52  1  0.73799187  0.51434942  0.31980007  1
  F  F53  1  -0.22364245  0.26200813  0.31980007  1
  F  F54  1  -0.22364245  0.51434942  -0.18019993  1
  F  F55  1  0.48565058  0.26200813  -0.18019993  1
  F  F56  1  0.73799187  1.22364245  -0.18019993  1
  F  F57  1  0.18101609  0.10969088  2.01353327  1
  F  F58  1  -0.07132521  0.81898391  2.01353327  1
  F  F59  1  0.89030912  1.07132521  2.01353327  1
  F  F60  1  0.00000000  0.00000000  0.84915905  1
  F  F61  1  0.00000000  0.00000000  0.65084095  1
  F  F62  1  0.00000000  0.00000000  0.15084095  1
  F  F63  1  0.00000000  0.00000000  0.34915905  1
  F  F64  1  0.66666667  0.33333333  0.18249238  1
  F  F65  1  0.66666667  0.33333333  0.98417428  1
  F  F66  1  0.66666667  0.33333333  0.48417428  1
  F  F67  1  0.66666667  0.33333333  0.68249238  1
  F  F68  1  0.33333333  0.66666667  0.51582572  1
  F  F69  1  0.33333333  0.66666667  0.31750762  1
  F  F70  1  0.33333333  0.66666667  0.81750762  1
  F  F71  1  0.33333333  0.66666667  0.01582572  1
  Li  Li72  1  0.26472853  0.00000000  0.25000000  1
  Li  Li73  1  0.00000000  0.26472853  0.25000000  1
  Li  Li74  1  0.73527147  0.73527147  0.25000000  1
  Li  Li75  1  0.73527147  -0.00000000  0.75000000  1
  Li  Li76  1  0.00000000  0.73527147  0.75000000  1
  Li  Li77  1  0.26472853  0.26472853  0.75000000  1
  Li  Li78  1  0.93139519  0.33333333  0.58333333  1
  Li  Li79  1  0.66666667  0.59806186  0.58333333  1
  Li  Li80  1  0.40193814  0.06860481  0.58333333  1
  Li  Li81  1  0.40193814  0.33333333  0.08333333  1
  Li  Li82  1  0.66666667  0.06860481  0.08333333  1
  Li  Li83  1  0.93139519  0.59806186  0.08333333  1
  Li  Li84  1  0.59806186  0.66666667  0.91666667  1
  Li  Li85  1  0.33333333  0.93139519  0.91666667  1
  Li  Li86  1  0.06860481  0.40193814  0.91666667  1
  Li  Li87  1  0.06860481  0.66666667  0.41666667  1
  Li  Li88  1  0.33333333  0.40193814  0.41666667  1
  Li  Li89  1  0.59806186  0.93139519  0.41666667  1
