# generated using pymatgen
data_LiF
_symmetry_space_group_name_H-M   'P 1'
_cell_length_a   14.17202789
_cell_length_b   11.32302549
_cell_length_c   4.99881410
_cell_angle_alpha   90.00000000
_cell_angle_beta   90.00000000
_cell_angle_gamma   90.00000000
_symmetry_Int_Tables_number   1
_chemical_formula_structural   LiF
_chemical_formula_sum   'Li24 F24'
_cell_volume   802.16086388
_cell_formula_units_Z   24
loop_
 _symmetry_equiv_pos_site_id
 _symmetry_equiv_pos_as_xyz
  1  'x, y, z'
loop_
 _atom_site_type_symbol
 _atom_site_label
 _atom_site_symmetry_multiplicity
 _atom_site_fract_x
 _atom_site_fract_y
 _atom_site_fract_z
 _atom_site_occupancy
  F  F0  1  0.89750091  0.25000000  0.98434095  1
  F  F1  1  0.60249909  0.75000000  0.48434095  1
  F  F2  1  0.10249909  0.75000000  0.01565905  1
  F  F3  1  0.39750091  0.25000000  0.51565905  1
  F  F4  1  0.71841757  0.25000000  0.63722443  1
  F  F5  1  0.78158243  0.75000000  0.13722443  1
  F  F6  1  0.28158243  0.75000000  0.36277557  1
  F  F7  1  0.21841757  0.25000000  0.86277557  1
  F  F8  1  0.16659333  0.25000000  0.37211484  1
  F  F9  1  0.33340667  0.75000000  0.87211484  1
  F  F10  1  0.83340667  0.75000000  0.62788516  1
  F  F11  1  0.66659333  0.25000000  0.12788516  1
  F  F12  1  0.24745519  0.49603642  0.31827256  1
  F  F13  1  0.25254481  0.50396358  0.81827256  1
  F  F14  1  0.75254481  0.99603642  0.68172744  1
  F  F15  1  0.74745519  0.00396358  0.18172744  1
  F  F16  1  0.75254481  0.50396358  0.68172744  1
  F  F17  1  0.74745519  0.49603642  0.18172744  1
  F  F18  1  0.24745519  0.00396358  0.31827256  1
  F  F19  1  0.25254481  0.99603642  0.81827256  1
  F  F20  1  0.00000000  0.00000000  0.50000000  1
  F  F21  1  0.50000000  0.00000000  0.00000000  1
  F  F22  1  0.00000000  0.50000000  0.50000000  1
  F  F23  1  0.50000000  0.50000000  0.00000000  1
  Li  Li24  1  0.14156078  0.98921658  0.46138397  1
  Li  Li25  1  0.35843922  -0.98921658  0.96138397  1
  Li  Li26  1  -0.14156078  1.48921658  -0.46138397  1
  Li  Li27  1  0.64156078  -0.48921658  0.03861603  1
  Li  Li28  1  -0.14156078  -0.98921658  -0.46138397  1
  Li  Li29  1  0.64156078  0.98921658  0.03861603  1
  Li  Li30  1  0.14156078  -0.48921658  0.46138397  1
  Li  Li31  1  0.35843922  1.48921658  0.96138397  1
  Li  Li32  1  0.20584979  0.61708597  0.55590968  1
  Li  Li33  1  0.29415021  0.38291403  0.05590968  1
  Li  Li34  1  0.79415021  0.11708597  0.44409032  1
  Li  Li35  1  0.70584979  0.88291403  0.94409032  1
  Li  Li36  1  0.79415021  0.38291403  0.44409032  1
  Li  Li37  1  0.70584979  0.61708597  0.94409032  1
  Li  Li38  1  0.20584979  0.88291403  0.55590968  1
  Li  Li39  1  0.29415021  0.11708597  0.05590968  1
  Li  Li40  1  0.90358799  0.33470392  0.66529539  1
  Li  Li41  1  0.59641201  0.66529608  0.16529539  1
  Li  Li42  1  0.09641201  0.83470392  0.33470461  1
  Li  Li43  1  0.40358799  0.16529608  0.83470461  1
  Li  Li44  1  0.09641201  0.66529608  0.33470461  1
  Li  Li45  1  0.40358799  0.33470392  0.83470461  1
  Li  Li46  1  0.90358799  0.16529608  0.66529539  1
  Li  Li47  1  0.59641201  0.83470392  0.16529539  1
