# generated using pymatgen
data_K4Li3B3(SO3)2
_symmetry_space_group_name_H-M   'P 1'
_cell_length_a   18.72884584
_cell_length_b   18.72884584
_cell_length_c   11.83238782
_cell_angle_alpha   90.00000000
_cell_angle_beta   90.00000000
_cell_angle_gamma   90.00000000
_symmetry_Int_Tables_number   1
_chemical_formula_structural   K4Li3B3(SO3)2
_chemical_formula_sum   'K32 Li24 B24 S16 O48'
_cell_volume   4150.44273081
_cell_formula_units_Z   8
loop_
 _symmetry_equiv_pos_site_id
 _symmetry_equiv_pos_as_xyz
  1  'x, y, z'
loop_
 _atom_site_type_symbol
 _atom_site_label
 _atom_site_symmetry_multiplicity
 _atom_site_fract_x
 _atom_site_fract_y
 _atom_site_fract_z
 _atom_site_occupancy
  B  B0  1  0.19675287  0.19675287  0.34052127  1
  B  B1  1  0.80324713  0.80324713  0.34052127  1
  B  B2  1  0.80324713  0.19675287  0.34052127  1
  B  B3  1  0.19675287  0.80324713  0.34052127  1
  B  B4  1  0.80324713  0.19675287  0.65947873  1
  B  B5  1  0.19675287  0.80324713  0.65947873  1
  B  B6  1  0.19675287  0.19675287  0.65947873  1
  B  B7  1  0.80324713  0.80324713  0.65947873  1
  B  B8  1  0.92049051  0.65573990  0.86647513  1
  B  B9  1  0.07950949  0.34426010  0.86647513  1
  B  B10  1  0.34426010  0.92049051  0.86647513  1
  B  B11  1  0.65573990  0.07950949  0.86647513  1
  B  B12  1  0.07950949  0.65573990  0.13352487  1
  B  B13  1  0.92049051  0.34426010  0.13352487  1
  B  B14  1  0.65573990  0.92049051  0.13352487  1
  B  B15  1  0.34426010  0.07950949  0.13352487  1
  B  B16  1  0.07950949  0.34426010  0.13352487  1
  B  B17  1  0.92049051  0.65573990  0.13352487  1
  B  B18  1  0.65573990  0.07950949  0.13352487  1
  B  B19  1  0.34426010  0.92049051  0.13352487  1
  B  B20  1  0.92049051  0.34426010  0.86647513  1
  B  B21  1  0.07950949  0.65573990  0.86647513  1
  B  B22  1  0.34426010  0.07950949  0.86647513  1
  B  B23  1  0.65573990  0.92049051  0.86647513  1
  K  K24  1  0.41030023  0.14447652  0.62543713  1
  K  K25  1  0.58969977  0.85552348  0.62543713  1
  K  K26  1  0.85552348  0.41030023  0.62543713  1
  K  K27  1  0.14447652  0.58969977  0.62543713  1
  K  K28  1  0.58969977  0.14447652  0.37456287  1
  K  K29  1  0.41030023  0.85552348  0.37456287  1
  K  K30  1  0.14447652  0.41030023  0.37456287  1
  K  K31  1  0.85552348  0.58969977  0.37456287  1
  K  K32  1  0.58969977  0.85552348  0.37456287  1
  K  K33  1  0.41030023  0.14447652  0.37456287  1
  K  K34  1  0.14447652  0.58969977  0.37456287  1
  K  K35  1  0.85552348  0.41030023  0.37456287  1
  K  K36  1  0.41030023  0.85552348  0.62543713  1
  K  K37  1  0.58969977  0.14447652  0.62543713  1
  K  K38  1  0.85552348  0.58969977  0.62543713  1
  K  K39  1  0.14447652  0.41030023  0.62543713  1
  K  K40  1  0.18781908  0.50000000  0.50000000  1
  K  K41  1  0.81218092  0.50000000  0.50000000  1
  K  K42  1  0.50000000  0.18781908  0.50000000  1
  K  K43  1  0.50000000  0.81218092  0.50000000  1
  K  K44  1  0.50000000  0.50000000  0.50000000  1
  K  K45  1  0.00000000  0.00000000  0.50000000  1
  K  K46  1  0.89008426  0.50000000  0.86568876  1
  K  K47  1  0.10991574  0.50000000  0.86568876  1
  K  K48  1  0.50000000  0.89008426  0.86568876  1
  K  K49  1  0.50000000  0.10991574  0.86568876  1
  K  K50  1  0.10991574  0.50000000  0.13431124  1
  K  K51  1  0.89008426  0.50000000  0.13431124  1
  K  K52  1  0.50000000  0.89008426  0.13431124  1
  K  K53  1  0.50000000  0.10991574  0.13431124  1
  K  K54  1  0.00000000  0.50000000  0.50000000  1
  K  K55  1  0.50000000  0.00000000  0.50000000  1
  Li  Li56  1  0.73915037  0.73915037  0.00000000  1
  Li  Li57  1  0.26084963  0.26084963  -0.00000000  1
  Li  Li58  1  0.26084963  0.73915037  0.00000000  1
  Li  Li59  1  0.73915037  0.26084963  -0.00000000  1
  Li  Li60  1  0.00000000  0.00000000  0.00000000  1
  Li  Li61  1  0.00000000  0.50000000  0.00000000  1
  Li  Li62  1  0.50000000  0.00000000  0.00000000  1
  Li  Li63  1  0.69849050  0.76319218  0.74439440  1
  Li  Li64  1  -0.69849050  -0.76319218  0.74439440  1
  Li  Li65  1  -0.76319218  0.69849050  0.74439440  1
  Li  Li66  1  0.76319218  -0.69849050  0.74439440  1
  Li  Li67  1  -0.69849050  0.76319218  -0.74439440  1
  Li  Li68  1  0.69849050  -0.76319218  -0.74439440  1
  Li  Li69  1  0.76319218  0.69849050  -0.74439440  1
  Li  Li70  1  -0.76319218  -0.69849050  -0.74439440  1
  Li  Li71  1  -0.69849050  -0.76319218  -0.74439440  1
  Li  Li72  1  0.69849050  0.76319218  -0.74439440  1
  Li  Li73  1  0.76319218  -0.69849050  -0.74439440  1
  Li  Li74  1  -0.76319218  0.69849050  -0.74439440  1
  Li  Li75  1  0.69849050  -0.76319218  0.74439440  1
  Li  Li76  1  -0.69849050  0.76319218  0.74439440  1
  Li  Li77  1  -0.76319218  -0.69849050  0.74439440  1
  Li  Li78  1  0.76319218  0.69849050  0.74439440  1
  Li  Li79  1  0.50000000  0.50000000  0.00000000  1
  O  O80  1  0.60377167  0.16577419  0.19072054  1
  O  O81  1  0.39622833  0.83422581  0.19072054  1
  O  O82  1  0.83422581  0.60377167  0.19072054  1
  O  O83  1  0.16577419  0.39622833  0.19072054  1
  O  O84  1  0.39622833  0.16577419  0.80927946  1
  O  O85  1  0.60377167  0.83422581  0.80927946  1
  O  O86  1  0.16577419  0.60377167  0.80927946  1
  O  O87  1  0.83422581  0.39622833  0.80927946  1
  O  O88  1  0.39622833  0.83422581  0.80927946  1
  O  O89  1  0.60377167  0.16577419  0.80927946  1
  O  O90  1  0.16577419  0.39622833  0.80927946  1
  O  O91  1  0.83422581  0.60377167  0.80927946  1
  O  O92  1  0.60377167  0.83422581  0.19072054  1
  O  O93  1  0.39622833  0.16577419  0.19072054  1
  O  O94  1  0.83422581  0.39622833  0.19072054  1
  O  O95  1  0.16577419  0.60377167  0.19072054  1
  O  O96  1  0.67421727  0.50000000  0.44785428  1
  O  O97  1  0.32578273  0.50000000  0.44785428  1
  O  O98  1  0.50000000  0.67421727  0.44785428  1
  O  O99  1  0.50000000  0.32578273  0.44785428  1
  O  O100  1  0.32578273  0.50000000  0.55214572  1
  O  O101  1  0.67421727  0.50000000  0.55214572  1
  O  O102  1  0.50000000  0.67421727  0.55214572  1
  O  O103  1  0.50000000  0.32578273  0.55214572  1
  O  O104  1  0.71634299  0.89288019  0.34688201  1
  O  O105  1  0.28365701  0.10711981  0.34688201  1
  O  O106  1  0.10711981  0.71634299  0.34688201  1
  O  O107  1  0.89288019  0.28365701  0.34688201  1
  O  O108  1  0.28365701  0.89288019  0.65311799  1
  O  O109  1  0.71634299  0.10711981  0.65311799  1
  O  O110  1  0.89288019  0.71634299  0.65311799  1
  O  O111  1  0.10711981  0.28365701  0.65311799  1
  O  O112  1  0.28365701  0.10711981  0.65311799  1
  O  O113  1  0.71634299  0.89288019  0.65311799  1
  O  O114  1  0.89288019  0.28365701  0.65311799  1
  O  O115  1  0.10711981  0.71634299  0.65311799  1
  O  O116  1  0.71634299  0.10711981  0.34688201  1
  O  O117  1  0.28365701  0.89288019  0.34688201  1
  O  O118  1  0.10711981  0.28365701  0.34688201  1
  O  O119  1  0.89288019  0.71634299  0.34688201  1
  O  O120  1  0.24612833  0.50000000  0.24301066  1
  O  O121  1  0.75387167  0.50000000  0.24301066  1
  O  O122  1  0.50000000  0.24612833  0.24301066  1
  O  O123  1  0.50000000  0.75387167  0.24301066  1
  O  O124  1  0.75387167  0.50000000  0.75698934  1
  O  O125  1  0.24612833  0.50000000  0.75698934  1
  O  O126  1  0.50000000  0.24612833  0.75698934  1
  O  O127  1  0.50000000  0.75387167  0.75698934  1
  S  S128  1  0.21831010  0.21831010  0.50000000  1
  S  S129  1  0.78168990  0.78168990  0.50000000  1
  S  S130  1  0.78168990  0.21831010  0.50000000  1
  S  S131  1  0.21831010  0.78168990  0.50000000  1
  S  S132  1  0.27211650  0.04361433  -0.00000000  1
  S  S133  1  0.72788350  0.95638567  -0.00000000  1
  S  S134  1  0.95638567  0.27211650  -0.00000000  1
  S  S135  1  0.04361433  0.72788350  -0.00000000  1
  S  S136  1  0.72788350  0.04361433  -0.00000000  1
  S  S137  1  0.27211650  0.95638567  0.00000000  1
  S  S138  1  0.04361433  0.27211650  0.00000000  1
  S  S139  1  0.95638567  0.72788350  -0.00000000  1
  S  S140  1  0.20770632  0.20770632  -0.00000000  1
  S  S141  1  0.79229368  0.79229368  0.00000000  1
  S  S142  1  0.79229368  0.20770632  -0.00000000  1
  S  S143  1  0.20770632  0.79229368  0.00000000  1
