# generated using pymatgen
data_Li2YAs4P3
_symmetry_space_group_name_H-M   'P 1'
_cell_length_a   5.00363083
_cell_length_b   5.06164204
_cell_length_c   7.21646624
_cell_angle_alpha   95.46153444
_cell_angle_beta   101.89408658
_cell_angle_gamma   111.93681320
_symmetry_Int_Tables_number   1
_chemical_formula_structural   Li2YAs4P3
_chemical_formula_sum   'Li2 Y1 As4 P3'
_cell_volume   162.88363445
_cell_formula_units_Z   1
loop_
 _symmetry_equiv_pos_site_id
 _symmetry_equiv_pos_as_xyz
  1  'x, y, z'
loop_
 _atom_site_type_symbol
 _atom_site_label
 _atom_site_symmetry_multiplicity
 _atom_site_fract_x
 _atom_site_fract_y
 _atom_site_fract_z
 _atom_site_occupancy
  P  P0  1  0.00000000  0.00000000  0.00000000  1
  P  P1  1  0.50000000  0.50000000  0.50000000  1
  P  P2  1  0.25000000  0.25000000  0.25000000  1
  As  As3  1  0.75000000  0.25000000  0.00000000  1
  As  As4  1  0.25000000  0.75000000  0.50000000  1
  As  As5  1  0.60359690  0.04489221  0.24600243  1
  As  As6  1  0.30967207  0.56442129  0.15661800  1
  Li  Li7  1  0.99709584  0.98692658  0.17227401  1
  Li  Li8  1  0.58260983  0.05660588  0.69613021  1
  Y  Y9  1  0.35199727  0.25815694  0.21827328  1
