# generated using pymatgen
data_LiCaF3
_symmetry_space_group_name_H-M   'P 1'
_cell_length_a   9.72262487
_cell_length_b   9.72262487
_cell_length_c   12.85195693
_cell_angle_alpha   90.00000000
_cell_angle_beta   90.00000000
_cell_angle_gamma   120.00000000
_symmetry_Int_Tables_number   1
_chemical_formula_structural   LiCaF3
_chemical_formula_sum   'Li18 Ca18 F54'
_cell_volume   1052.12406057
_cell_formula_units_Z   18
loop_
 _symmetry_equiv_pos_site_id
 _symmetry_equiv_pos_as_xyz
  1  'x, y, z'
loop_
 _atom_site_type_symbol
 _atom_site_label
 _atom_site_symmetry_multiplicity
 _atom_site_fract_x
 _atom_site_fract_y
 _atom_site_fract_z
 _atom_site_occupancy
  Ca  Ca0  1  0.50000000  -0.00000000  0.00000000  1
  Ca  Ca1  1  0.00000000  0.50000000  0.00000000  1
  Ca  Ca2  1  0.50000000  0.50000000  0.00000000  1
  Ca  Ca3  1  0.00000000  0.50000000  0.50000000  1
  Ca  Ca4  1  0.50000000  -0.00000000  0.50000000  1
  Ca  Ca5  1  0.50000000  0.50000000  0.50000000  1
  Ca  Ca6  1  0.16666667  0.33333333  0.33333333  1
  Ca  Ca7  1  0.66666667  0.83333333  0.33333333  1
  Ca  Ca8  1  0.16666667  0.83333333  0.33333333  1
  Ca  Ca9  1  0.66666667  0.83333333  0.83333333  1
  Ca  Ca10  1  0.16666667  0.33333333  0.83333333  1
  Ca  Ca11  1  0.16666667  0.83333333  0.83333333  1
  Ca  Ca12  1  0.83333333  0.66666667  0.66666667  1
  Ca  Ca13  1  0.33333333  0.16666667  0.66666667  1
  Ca  Ca14  1  0.83333333  0.16666667  0.66666667  1
  Ca  Ca15  1  0.33333333  0.16666667  0.16666667  1
  Ca  Ca16  1  0.83333333  0.66666667  0.16666667  1
  Ca  Ca17  1  0.83333333  0.16666667  0.16666667  1
  F  F18  1  0.08083119  0.53651980  0.69682769  1
  F  F19  1  -0.53651980  -0.45568861  0.69682769  1
  F  F20  1  0.45568861  -0.08083119  0.69682769  1
  F  F21  1  0.53651980  0.08083119  -0.19682769  1
  F  F22  1  -0.45568861  -0.53651980  -0.19682769  1
  F  F23  1  -0.08083119  0.45568861  -0.19682769  1
  F  F24  1  -0.08083119  -0.53651980  -0.69682769  1
  F  F25  1  0.53651980  0.45568861  -0.69682769  1
  F  F26  1  -0.45568861  0.08083119  -0.69682769  1
  F  F27  1  -0.53651980  -0.08083119  1.19682769  1
  F  F28  1  0.45568861  0.53651980  1.19682769  1
  F  F29  1  0.08083119  -0.45568861  1.19682769  1
  F  F30  1  0.74749786  0.86985314  1.03016103  1
  F  F31  1  0.13014686  -0.12235528  1.03016103  1
  F  F32  1  1.12235528  0.25250214  1.03016103  1
  F  F33  1  1.20318647  0.41416453  0.13650564  1
  F  F34  1  0.21097806  -0.20318647  0.13650564  1
  F  F35  1  0.58583547  0.78902194  0.13650564  1
  F  F36  1  0.58583547  -0.20318647  -0.36349436  1
  F  F37  1  1.20318647  0.78902194  -0.36349436  1
  F  F38  1  0.21097806  0.41416453  -0.36349436  1
  F  F39  1  0.13014686  0.25250214  1.53016103  1
  F  F40  1  1.12235528  0.86985314  1.53016103  1
  F  F41  1  0.74749786  -0.12235528  1.53016103  1
  F  F42  1  0.41416453  1.20318647  1.36349436  1
  F  F43  1  -0.20318647  0.21097806  1.36349436  1
  F  F44  1  0.78902194  0.58583547  1.36349436  1
  F  F45  1  0.86985314  0.74749786  0.46983897  1
  F  F46  1  -0.12235528  0.13014686  0.46983897  1
  F  F47  1  0.25250214  1.12235528  0.46983897  1
  F  F48  1  0.25250214  0.13014686  -0.03016103  1
  F  F49  1  0.86985314  1.12235528  -0.03016103  1
  F  F50  1  -0.12235528  0.74749786  -0.03016103  1
  F  F51  1  -0.20318647  0.58583547  1.86349436  1
  F  F52  1  0.78902194  1.20318647  1.86349436  1
  F  F53  1  0.41416453  0.21097806  1.86349436  1
  F  F54  1  0.72061648  0.00000000  0.25000000  1
  F  F55  1  0.00000000  0.72061648  0.25000000  1
  F  F56  1  0.27938352  0.27938352  0.25000000  1
  F  F57  1  0.27938352  -0.00000000  0.75000000  1
  F  F58  1  0.00000000  0.27938352  0.75000000  1
  F  F59  1  0.72061648  0.72061648  0.75000000  1
  F  F60  1  0.38728314  0.33333333  0.58333333  1
  F  F61  1  0.66666667  0.05394981  0.58333333  1
  F  F62  1  0.94605019  0.61271686  0.58333333  1
  F  F63  1  0.94605019  0.33333333  0.08333333  1
  F  F64  1  0.66666667  0.61271686  0.08333333  1
  F  F65  1  0.38728314  0.05394981  0.08333333  1
  F  F66  1  0.05394981  0.66666667  0.91666667  1
  F  F67  1  0.33333333  0.38728314  0.91666667  1
  F  F68  1  0.61271686  0.94605019  0.91666667  1
  F  F69  1  0.61271686  0.66666667  0.41666667  1
  F  F70  1  0.33333333  0.94605019  0.41666667  1
  F  F71  1  0.05394981  0.38728314  0.41666667  1
  Li  Li72  1  0.29817667  0.00000000  0.25000000  1
  Li  Li73  1  0.00000000  0.29817667  0.25000000  1
  Li  Li74  1  0.70182333  0.70182333  0.25000000  1
  Li  Li75  1  0.70182333  0.00000000  0.75000000  1
  Li  Li76  1  0.00000000  0.70182333  0.75000000  1
  Li  Li77  1  0.29817667  0.29817667  0.75000000  1
  Li  Li78  1  0.96484334  0.33333333  0.58333333  1
  Li  Li79  1  0.66666667  0.63151001  0.58333333  1
  Li  Li80  1  0.36848999  0.03515666  0.58333333  1
  Li  Li81  1  0.36848999  0.33333333  0.08333333  1
  Li  Li82  1  0.66666667  0.03515666  0.08333333  1
  Li  Li83  1  0.96484334  0.63151001  0.08333333  1
  Li  Li84  1  0.63151001  0.66666667  0.91666667  1
  Li  Li85  1  0.33333333  0.96484334  0.91666667  1
  Li  Li86  1  0.03515666  0.36848999  0.91666667  1
  Li  Li87  1  0.03515666  0.66666667  0.41666667  1
  Li  Li88  1  0.33333333  0.36848999  0.41666667  1
  Li  Li89  1  0.63151001  0.96484334  0.41666667  1
