# generated using pymatgen
data_Li2Si4Te3F12
_symmetry_space_group_name_H-M   'P 1'
_cell_length_a   7.52687916
_cell_length_b   7.52687916
_cell_length_c   14.46364742
_cell_angle_alpha   90.00000000
_cell_angle_beta   90.00000000
_cell_angle_gamma   90.00000000
_symmetry_Int_Tables_number   1
_chemical_formula_structural   Li2Si4Te3F12
_chemical_formula_sum   'Li8 Si16 Te12 F48'
_cell_volume   819.42217839
_cell_formula_units_Z   4
loop_
 _symmetry_equiv_pos_site_id
 _symmetry_equiv_pos_as_xyz
  1  'x, y, z'
loop_
 _atom_site_type_symbol
 _atom_site_label
 _atom_site_symmetry_multiplicity
 _atom_site_fract_x
 _atom_site_fract_y
 _atom_site_fract_z
 _atom_site_occupancy
  F  F0  1  0.00000000  0.21052885  0.19890264  1
  F  F1  1  0.50000000  0.78947115  0.69890264  1
  F  F2  1  0.03947115  0.75000000  0.44890264  1
  F  F3  1  0.46052885  0.25000000  0.94890264  1
  F  F4  1  0.50000000  0.21052885  0.30109736  1
  F  F5  1  0.00000000  0.78947115  0.80109736  1
  F  F6  1  0.46052885  0.75000000  0.05109736  1
  F  F7  1  0.03947115  0.25000000  0.55109736  1
  F  F8  1  0.50000000  0.71052885  0.69890264  1
  F  F9  1  0.00000000  0.28947115  0.19890264  1
  F  F10  1  0.53947115  0.25000000  0.94890264  1
  F  F11  1  0.96052885  0.75000000  0.44890264  1
  F  F12  1  0.00000000  0.71052885  0.80109736  1
  F  F13  1  0.50000000  0.28947115  0.30109736  1
  F  F14  1  0.96052885  0.25000000  0.55109736  1
  F  F15  1  0.53947115  0.75000000  0.05109736  1
  F  F16  1  0.00000000  0.25000000  0.60098355  1
  F  F17  1  0.00000000  0.75000000  0.85098355  1
  F  F18  1  0.50000000  0.25000000  0.89901645  1
  F  F19  1  0.50000000  0.75000000  0.64901645  1
  F  F20  1  0.50000000  0.75000000  0.10098355  1
  F  F21  1  0.50000000  0.25000000  0.35098355  1
  F  F22  1  0.00000000  0.75000000  0.39901645  1
  F  F23  1  0.00000000  0.25000000  0.14901645  1
  F  F24  1  0.00000000  0.43090975  0.87892169  1
  F  F25  1  0.50000000  0.56909025  0.37892169  1
  F  F26  1  0.81909025  0.75000000  0.12892169  1
  F  F27  1  0.68090975  0.25000000  0.62892169  1
  F  F28  1  0.50000000  0.43090975  0.62107831  1
  F  F29  1  0.00000000  0.56909025  0.12107831  1
  F  F30  1  0.68090975  0.75000000  0.37107831  1
  F  F31  1  0.81909025  0.25000000  0.87107831  1
  F  F32  1  0.50000000  0.93090975  0.37892169  1
  F  F33  1  0.00000000  0.06909025  0.87892169  1
  F  F34  1  0.31909025  0.25000000  0.62892169  1
  F  F35  1  0.18090975  0.75000000  0.12892169  1
  F  F36  1  0.00000000  0.93090975  0.12107831  1
  F  F37  1  0.50000000  0.06909025  0.62107831  1
  F  F38  1  0.18090975  0.25000000  0.87107831  1
  F  F39  1  0.31909025  0.75000000  0.37107831  1
  F  F40  1  0.00000000  0.25000000  0.31723070  1
  F  F41  1  0.00000000  0.75000000  0.56723070  1
  F  F42  1  0.50000000  0.25000000  0.18276930  1
  F  F43  1  0.50000000  0.75000000  0.93276930  1
  F  F44  1  0.50000000  0.75000000  0.81723070  1
  F  F45  1  0.50000000  0.25000000  0.06723070  1
  F  F46  1  0.00000000  0.75000000  0.68276930  1
  F  F47  1  0.00000000  0.25000000  0.43276930  1
  Li  Li48  1  0.00000000  0.00000000  0.00000000  1
  Li  Li49  1  0.50000000  0.00000000  0.50000000  1
  Li  Li50  1  0.25000000  0.75000000  0.25000000  1
  Li  Li51  1  0.25000000  0.25000000  0.75000000  1
  Li  Li52  1  0.50000000  0.50000000  0.50000000  1
  Li  Li53  1  0.00000000  0.50000000  0.00000000  1
  Li  Li54  1  0.75000000  0.25000000  0.75000000  1
  Li  Li55  1  0.75000000  0.75000000  0.25000000  1
  Si  Si56  1  0.28649534  0.53649534  0.87500000  1
  Si  Si57  1  0.21350466  0.46350466  0.37500000  1
  Si  Si58  1  -0.28649534  1.03649534  0.12500000  1
  Si  Si59  1  0.78649534  -0.03649534  0.62500000  1
  Si  Si60  1  -0.28649534  0.46350466  0.12500000  1
  Si  Si61  1  0.78649534  0.53649534  0.62500000  1
  Si  Si62  1  0.28649534  -0.03649534  0.87500000  1
  Si  Si63  1  0.21350466  1.03649534  0.37500000  1
  Si  Si64  1  0.78649534  1.03649534  1.37500000  1
  Si  Si65  1  0.71350466  0.96350466  0.87500000  1
  Si  Si66  1  0.21350466  1.53649534  0.62500000  1
  Si  Si67  1  1.28649534  0.46350466  1.12500000  1
  Si  Si68  1  0.21350466  0.96350466  0.62500000  1
  Si  Si69  1  1.28649534  1.03649534  1.12500000  1
  Si  Si70  1  0.78649534  0.46350466  1.37500000  1
  Si  Si71  1  0.71350466  1.53649534  0.87500000  1
  Te  Te72  1  0.00000000  0.00000000  0.50000000  1
  Te  Te73  1  0.50000000  0.00000000  0.00000000  1
  Te  Te74  1  0.25000000  0.75000000  0.75000000  1
  Te  Te75  1  0.25000000  0.25000000  0.25000000  1
  Te  Te76  1  0.50000000  0.50000000  -0.00000000  1
  Te  Te77  1  0.00000000  0.50000000  0.50000000  1
  Te  Te78  1  0.75000000  0.25000000  0.25000000  1
  Te  Te79  1  0.75000000  0.75000000  0.75000000  1
  Te  Te80  1  0.00000000  0.75000000  0.12500000  1
  Te  Te81  1  0.50000000  0.75000000  0.37500000  1
  Te  Te82  1  0.50000000  0.25000000  0.62500000  1
  Te  Te83  1  0.00000000  0.25000000  0.87500000  1
