# generated using pymatgen
data_LiF
_symmetry_space_group_name_H-M   'P 1'
_cell_length_a   5.80421596
_cell_length_b   13.19471662
_cell_length_c   9.29321443
_cell_angle_alpha   90.00000000
_cell_angle_beta   90.00000000
_cell_angle_gamma   90.00000000
_symmetry_Int_Tables_number   1
_chemical_formula_structural   LiF
_chemical_formula_sum   'Li26 F26'
_cell_volume   711.72068631
_cell_formula_units_Z   26
loop_
 _symmetry_equiv_pos_site_id
 _symmetry_equiv_pos_as_xyz
  1  'x, y, z'
loop_
 _atom_site_type_symbol
 _atom_site_label
 _atom_site_symmetry_multiplicity
 _atom_site_fract_x
 _atom_site_fract_y
 _atom_site_fract_z
 _atom_site_occupancy
  F  F0  1  0.00000000  0.00000000  0.50000000  1
  F  F1  1  0.50000000  0.50000000  0.50000000  1
  F  F2  1  0.33683673  0.53596826  0.59252009  1
  F  F3  1  -0.33683673  -0.53596826  0.59252009  1
  F  F4  1  0.16316327  1.03596826  -0.59252009  1
  F  F5  1  0.83683673  -0.03596826  -0.59252009  1
  F  F6  1  -0.33683673  -0.53596826  -0.59252009  1
  F  F7  1  0.33683673  0.53596826  -0.59252009  1
  F  F8  1  0.83683673  -0.03596826  0.59252009  1
  F  F9  1  0.16316327  1.03596826  0.59252009  1
  F  F10  1  0.39130059  0.60647630  0.93178733  1
  F  F11  1  0.60869941  0.39352370  0.93178733  1
  F  F12  1  0.10869941  0.10647630  0.06821267  1
  F  F13  1  0.89130059  0.89352370  0.06821267  1
  F  F14  1  0.60869941  0.39352370  0.06821267  1
  F  F15  1  0.39130059  0.60647630  0.06821267  1
  F  F16  1  0.89130059  0.89352370  0.93178733  1
  F  F17  1  0.10869941  0.10647630  0.93178733  1
  F  F18  1  0.68367877  0.11080760  0.32377498  1
  F  F19  1  0.31632123  0.88919240  0.32377498  1
  F  F20  1  0.81632123  0.61080760  0.67622502  1
  F  F21  1  0.18367877  0.38919240  0.67622502  1
  F  F22  1  0.31632123  0.88919240  0.67622502  1
  F  F23  1  0.68367877  0.11080760  0.67622502  1
  F  F24  1  0.18367877  0.38919240  0.32377498  1
  F  F25  1  0.81632123  0.61080760  0.32377498  1
  Li  Li26  1  0.98316933  0.27554500  0.57364507  1
  Li  Li27  1  0.01683067  0.72445500  0.57364507  1
  Li  Li28  1  0.51683067  0.77554500  0.42635493  1
  Li  Li29  1  0.48316933  0.22445500  0.42635493  1
  Li  Li30  1  0.01683067  0.72445500  0.42635493  1
  Li  Li31  1  0.98316933  0.27554500  0.42635493  1
  Li  Li32  1  0.48316933  0.22445500  0.57364507  1
  Li  Li33  1  0.51683067  0.77554500  0.57364507  1
  Li  Li34  1  0.77414915  0.87276747  0.76770720  1
  Li  Li35  1  0.22585085  0.12723253  0.76770720  1
  Li  Li36  1  0.72585085  0.37276747  0.23229280  1
  Li  Li37  1  0.27414915  0.62723253  0.23229280  1
  Li  Li38  1  0.22585085  0.12723253  0.23229280  1
  Li  Li39  1  0.77414915  0.87276747  0.23229280  1
  Li  Li40  1  0.27414915  0.62723253  0.76770720  1
  Li  Li41  1  0.72585085  0.37276747  0.76770720  1
  Li  Li42  1  0.00000000  0.00000000  0.00000000  1
  Li  Li43  1  0.50000000  0.50000000  0.00000000  1
  Li  Li44  1  0.32993821  0.31093903  0.82476542  1
  Li  Li45  1  0.67006179  0.68906097  0.82476542  1
  Li  Li46  1  0.17006179  0.81093903  0.17523458  1
  Li  Li47  1  0.82993821  0.18906097  0.17523458  1
  Li  Li48  1  0.67006179  0.68906097  0.17523458  1
  Li  Li49  1  0.32993821  0.31093903  0.17523458  1
  Li  Li50  1  0.82993821  0.18906097  0.82476542  1
  Li  Li51  1  0.17006179  0.81093903  0.82476542  1
