# generated using pymatgen
data_Li2YCu3(As2P)2
_symmetry_space_group_name_H-M   'P 1'
_cell_length_a   4.98571747
_cell_length_b   5.06614129
_cell_length_c   6.94677803
_cell_angle_alpha   94.92060548
_cell_angle_beta   100.41183873
_cell_angle_gamma   109.24914192
_symmetry_Int_Tables_number   1
_chemical_formula_structural   Li2YCu3(As2P)2
_chemical_formula_sum   'Li2 Y1 Cu3 As4 P2'
_cell_volume   160.91836431
_cell_formula_units_Z   1
loop_
 _symmetry_equiv_pos_site_id
 _symmetry_equiv_pos_as_xyz
  1  'x, y, z'
loop_
 _atom_site_type_symbol
 _atom_site_label
 _atom_site_symmetry_multiplicity
 _atom_site_fract_x
 _atom_site_fract_y
 _atom_site_fract_z
 _atom_site_occupancy
  Y  Y0  1  0.12500000  0.00000000  0.25000000  1
  P  P1  1  0.00000000  0.00000000  0.00000000  1
  P  P2  1  0.37500000  0.00000000  0.25000000  1
  As  As3  1  0.25000000  0.25000000  0.25000000  1
  As  As4  1  0.00000000  0.25000000  0.12500000  1
  As  As5  1  0.01788504  0.94693360  0.95059104  1
  As  As6  1  0.41885373  0.42410493  0.72250874  1
  Li  Li7  1  0.04020530  0.38982426  0.64608113  1
  Li  Li8  1  0.10140805  0.02999591  0.96244466  1
  Cu  Cu9  1  0.12963779  0.06891102  0.06883839  1
  Cu  Cu10  1  0.71749727  0.86800730  0.00076396  1
  Cu  Cu11  1  0.65500501  0.72696102  0.40543946  1
