# generated using pymatgen
data_LiF
_symmetry_space_group_name_H-M   'P 1'
_cell_length_a   7.00754275
_cell_length_b   7.47626725
_cell_length_c   10.48410703
_cell_angle_alpha   90.00000000
_cell_angle_beta   90.00000000
_cell_angle_gamma   90.00000000
_symmetry_Int_Tables_number   1
_chemical_formula_structural   LiF
_chemical_formula_sum   'Li20 F20'
_cell_volume   549.26511812
_cell_formula_units_Z   20
loop_
 _symmetry_equiv_pos_site_id
 _symmetry_equiv_pos_as_xyz
  1  'x, y, z'
loop_
 _atom_site_type_symbol
 _atom_site_label
 _atom_site_symmetry_multiplicity
 _atom_site_fract_x
 _atom_site_fract_y
 _atom_site_fract_z
 _atom_site_occupancy
  F  F0  1  0.13901583  0.55467124  0.50000000  1
  F  F1  1  0.86098417  0.44532876  0.50000000  1
  F  F2  1  0.36098417  0.05467124  0.50000000  1
  F  F3  1  0.63901583  0.94532876  0.50000000  1
  F  F4  1  0.41966259  0.13087627  0.96449878  1
  F  F5  1  0.58033741  0.86912373  0.96449878  1
  F  F6  1  0.08033741  0.63087627  0.03550122  1
  F  F7  1  0.91966259  0.36912373  0.03550122  1
  F  F8  1  0.58033741  0.86912373  0.03550122  1
  F  F9  1  0.41966259  0.13087627  0.03550122  1
  F  F10  1  0.91966259  0.36912373  0.96449878  1
  F  F11  1  0.08033741  0.63087627  0.96449878  1
  F  F12  1  0.35008665  0.81690450  0.61407066  1
  F  F13  1  0.64991335  0.18309550  0.61407066  1
  F  F14  1  0.14991335  0.31690450  0.38592934  1
  F  F15  1  0.85008665  0.68309550  0.38592934  1
  F  F16  1  0.64991335  0.18309550  0.38592934  1
  F  F17  1  0.35008665  0.81690450  0.38592934  1
  F  F18  1  0.85008665  0.68309550  0.61407066  1
  F  F19  1  0.14991335  0.31690450  0.61407066  1
  Li  Li20  1  0.23196906  0.31199309  0.00000000  1
  Li  Li21  1  0.76803094  0.68800691  0.00000000  1
  Li  Li22  1  0.26803094  0.81199309  0.00000000  1
  Li  Li23  1  0.73196906  0.18800691  0.00000000  1
  Li  Li24  1  0.09544186  0.13468785  0.50000000  1
  Li  Li25  1  0.90455814  0.86531215  0.50000000  1
  Li  Li26  1  0.40455814  0.63468785  0.50000000  1
  Li  Li27  1  0.59544186  0.36531215  0.50000000  1
  Li  Li28  1  0.00000000  0.50000000  0.50000000  1
  Li  Li29  1  0.50000000  0.00000000  0.50000000  1
  Li  Li30  1  0.48867106  0.17862746  0.13251798  1
  Li  Li31  1  -0.48867106  -0.17862746  0.13251798  1
  Li  Li32  1  0.01132894  0.67862746  -0.13251798  1
  Li  Li33  1  0.98867106  0.32137254  -0.13251798  1
  Li  Li34  1  -0.48867106  -0.17862746  -0.13251798  1
  Li  Li35  1  0.48867106  0.17862746  -0.13251798  1
  Li  Li36  1  0.98867106  0.32137254  0.13251798  1
  Li  Li37  1  0.01132894  0.67862746  0.13251798  1
  Li  Li38  1  0.00000000  0.00000000  0.00000000  1
  Li  Li39  1  0.50000000  0.50000000  0.00000000  1
