# generated using pymatgen
data_LiF
_symmetry_space_group_name_H-M   'P 1'
_cell_length_a   6.46425977
_cell_length_b   6.46425977
_cell_length_c   20.56922539
_cell_angle_alpha   90.00000000
_cell_angle_beta   90.00000000
_cell_angle_gamma   120.00000000
_symmetry_Int_Tables_number   1
_chemical_formula_structural   LiF
_chemical_formula_sum   'Li21 F21'
_cell_volume   744.36538556
_cell_formula_units_Z   21
loop_
 _symmetry_equiv_pos_site_id
 _symmetry_equiv_pos_as_xyz
  1  'x, y, z'
loop_
 _atom_site_type_symbol
 _atom_site_label
 _atom_site_symmetry_multiplicity
 _atom_site_fract_x
 _atom_site_fract_y
 _atom_site_fract_z
 _atom_site_occupancy
  F  F0  1  0.33333333  0.66666667  0.50000000  1
  F  F1  1  0.16771943  0.64003017  0.02094678  1
  F  F2  1  0.35996983  0.52768927  0.02094678  1
  F  F3  1  0.47231073  0.83228057  0.02094678  1
  F  F4  1  0.35996983  0.83228057  0.97905322  1
  F  F5  1  0.47231073  0.64003017  0.97905322  1
  F  F6  1  0.16771943  0.52768927  0.97905322  1
  F  F7  1  0.65339517  0.39201895  0.65986994  1
  F  F8  1  0.60798105  0.26137622  0.65986994  1
  F  F9  1  0.73862378  0.34660483  0.65986994  1
  F  F10  1  0.60798105  0.34660483  0.34013006  1
  F  F11  1  0.73862378  0.39201895  0.34013006  1
  F  F12  1  0.65339517  0.26137622  0.34013006  1
  F  F13  1  0.87870034  0.63242644  0.12858384  1
  F  F14  1  0.36757356  0.24627390  0.12858384  1
  F  F15  1  0.75372610  0.12129966  0.12858384  1
  F  F16  1  0.36757356  0.12129966  0.87141616  1
  F  F17  1  0.75372610  0.63242644  0.87141616  1
  F  F18  1  0.87870034  0.24627390  0.87141616  1
  F  F19  1  0.66666667  0.33333333  0.73718371  1
  F  F20  1  0.66666667  0.33333333  0.26281629  1
  Li  Li21  1  0.31375087  0.80989997  0.70734237  1
  Li  Li22  1  -0.80989997  -0.49614910  0.70734237  1
  Li  Li23  1  0.49614910  -0.31375087  0.70734237  1
  Li  Li24  1  -0.80989997  -0.31375087  -0.70734237  1
  Li  Li25  1  0.49614910  0.80989997  -0.70734237  1
  Li  Li26  1  0.31375087  -0.49614910  -0.70734237  1
  Li  Li27  1  0.24670487  0.73019611  0.61977040  1
  Li  Li28  1  0.26980389  0.51650876  0.61977040  1
  Li  Li29  1  0.48349124  0.75329513  0.61977040  1
  Li  Li30  1  0.26980389  0.75329513  0.38022960  1
  Li  Li31  1  0.48349124  0.73019611  0.38022960  1
  Li  Li32  1  0.24670487  0.51650876  0.38022960  1
  Li  Li33  1  0.33578304  0.30357288  0.88333350  1
  Li  Li34  1  0.69642712  0.03221016  0.88333350  1
  Li  Li35  1  0.96778984  0.66421696  0.88333350  1
  Li  Li36  1  0.69642712  0.66421696  0.11666650  1
  Li  Li37  1  0.96778984  0.30357288  0.11666650  1
  Li  Li38  1  0.33578304  0.03221016  0.11666650  1
  Li  Li39  1  0.83235170  0.16764830  0.50000000  1
  Li  Li40  1  0.83235170  0.66470340  0.50000000  1
  Li  Li41  1  0.33529660  0.16764830  0.50000000  1
