# generated using pymatgen
data_Li2YP3Se
_symmetry_space_group_name_H-M   'P 1'
_cell_length_a   5.39111596
_cell_length_b   5.46345914
_cell_length_c   7.10937239
_cell_angle_alpha   94.00447511
_cell_angle_beta   98.97308365
_cell_angle_gamma   106.38886507
_symmetry_Int_Tables_number   1
_chemical_formula_structural   Li2YP3Se
_chemical_formula_sum   'Li2 Y1 P3 Se1'
_cell_volume   196.99658314
_cell_formula_units_Z   1
loop_
 _symmetry_equiv_pos_site_id
 _symmetry_equiv_pos_as_xyz
  1  'x, y, z'
loop_
 _atom_site_type_symbol
 _atom_site_label
 _atom_site_symmetry_multiplicity
 _atom_site_fract_x
 _atom_site_fract_y
 _atom_site_fract_z
 _atom_site_occupancy
  Y  Y0  1  0.12500000  0.12500000  0.12500000  1
  P  P1  1  0.50000000  0.50000000  0.50000000  1
  P  P2  1  0.25000000  0.25000000  0.25000000  1
  P  P3  1  0.75000000  0.75000000  0.75000000  1
  Se  Se4  1  0.46791548  0.46238231  0.30016129  1
  Li  Li5  1  0.92480809  0.00821236  0.57599234  1
  Li  Li6  1  0.57422113  0.91138660  0.34404815  1
