# generated using pymatgen
data_LiF
_symmetry_space_group_name_H-M   'P 1'
_cell_length_a   9.17004564
_cell_length_b   9.17004564
_cell_length_c   10.61595683
_cell_angle_alpha   90.00000000
_cell_angle_beta   90.00000000
_cell_angle_gamma   120.00000000
_symmetry_Int_Tables_number   1
_chemical_formula_structural   LiF
_chemical_formula_sum   'Li39 F39'
_cell_volume   773.09483205
_cell_formula_units_Z   39
loop_
 _symmetry_equiv_pos_site_id
 _symmetry_equiv_pos_as_xyz
  1  'x, y, z'
loop_
 _atom_site_type_symbol
 _atom_site_label
 _atom_site_symmetry_multiplicity
 _atom_site_fract_x
 _atom_site_fract_y
 _atom_site_fract_z
 _atom_site_occupancy
  F  F0  1  0.33333333  0.66666667  0.00000000  1
  F  F1  1  0.88039819  0.32756531  0.37683848  1
  F  F2  1  0.67243469  0.55283289  0.37683848  1
  F  F3  1  0.44716711  0.11960181  0.37683848  1
  F  F4  1  0.67243469  0.11960181  0.62316152  1
  F  F5  1  0.44716711  0.32756531  0.62316152  1
  F  F6  1  0.88039819  0.55283289  0.62316152  1
  F  F7  1  0.33333333  0.66666667  0.83601317  1
  F  F8  1  0.33333333  0.66666667  0.16398683  1
  F  F9  1  0.52233328  0.47766672  0.50000000  1
  F  F10  1  0.52233328  0.04466657  0.50000000  1
  F  F11  1  0.95533343  0.47766672  0.50000000  1
  F  F12  1  0.21289404  0.22848418  0.48460220  1
  F  F13  1  0.77151582  0.98440986  0.48460220  1
  F  F14  1  0.01559014  0.78710596  0.48460220  1
  F  F15  1  0.77151582  0.78710596  0.51539780  1
  F  F16  1  0.01559014  0.22848418  0.51539780  1
  F  F17  1  0.21289404  0.98440986  0.51539780  1
  F  F18  1  0.34202304  0.42720512  0.35741384  1
  F  F19  1  0.57279488  0.91481793  0.35741384  1
  F  F20  1  0.08518207  0.65797696  0.35741384  1
  F  F21  1  0.57279488  0.65797696  0.64258616  1
  F  F22  1  0.08518207  0.42720512  0.64258616  1
  F  F23  1  0.34202304  0.91481793  0.64258616  1
  F  F24  1  0.68450466  0.30821386  0.82355447  1
  F  F25  1  0.69178614  0.37629080  0.82355447  1
  F  F26  1  0.62370920  0.31549534  0.82355447  1
  F  F27  1  0.69178614  0.31549534  0.17644553  1
  F  F28  1  0.62370920  0.30821386  0.17644553  1
  F  F29  1  0.68450466  0.37629080  0.17644553  1
  F  F30  1  0.72755186  0.23040719  0.56002448  1
  F  F31  1  0.76959281  0.49714467  0.56002448  1
  F  F32  1  0.50285533  0.27244814  0.56002448  1
  F  F33  1  0.76959281  0.27244814  0.43997552  1
  F  F34  1  0.50285533  0.23040719  0.43997552  1
  F  F35  1  0.72755186  0.49714467  0.43997552  1
  F  F36  1  0.60144471  0.39855529  0.50000000  1
  F  F37  1  0.60144471  0.20288941  0.50000000  1
  F  F38  1  0.79711059  0.39855529  0.50000000  1
  Li  Li39  1  0.44706698  0.55293302  0.50000000  1
  Li  Li40  1  0.44706698  0.89413397  0.50000000  1
  Li  Li41  1  0.10586603  0.55293302  0.50000000  1
  Li  Li42  1  0.66666667  0.33333333  0.34222787  1
  Li  Li43  1  0.66666667  0.33333333  0.65777213  1
  Li  Li44  1  0.82308120  0.75448421  0.25393013  1
  Li  Li45  1  -0.75448421  0.06859699  0.25393013  1
  Li  Li46  1  -0.06859699  -0.82308120  0.25393013  1
  Li  Li47  1  -0.75448421  -0.82308120  -0.25393013  1
  Li  Li48  1  -0.06859699  0.75448421  -0.25393013  1
  Li  Li49  1  0.82308120  0.06859699  -0.25393013  1
  Li  Li50  1  0.00616262  0.77618094  0.58110810  1
  Li  Li51  1  0.22381906  0.22998168  0.58110810  1
  Li  Li52  1  0.77001832  0.99383738  0.58110810  1
  Li  Li53  1  0.22381906  0.99383738  0.41889190  1
  Li  Li54  1  0.77001832  0.77618094  0.41889190  1
  Li  Li55  1  0.00616262  0.22998168  0.41889190  1
  Li  Li56  1  0.33333333  0.66666667  0.67163654  1
  Li  Li57  1  0.33333333  0.66666667  0.32836346  1
  Li  Li58  1  0.38657942  0.98090905  0.93732738  1
  Li  Li59  1  0.01909095  0.40567036  0.93732738  1
  Li  Li60  1  0.59432964  0.61342058  0.93732738  1
  Li  Li61  1  0.01909095  0.61342058  0.06267262  1
  Li  Li62  1  0.59432964  0.98090905  0.06267262  1
  Li  Li63  1  0.38657942  0.40567036  0.06267262  1
  Li  Li64  1  0.74910296  0.42543416  0.90143481  1
  Li  Li65  1  0.57456584  0.32366880  0.90143481  1
  Li  Li66  1  0.67633120  0.25089704  0.90143481  1
  Li  Li67  1  0.57456584  0.25089704  0.09856519  1
  Li  Li68  1  0.67633120  0.42543416  0.09856519  1
  Li  Li69  1  0.74910296  0.32366880  0.09856519  1
  Li  Li70  1  0.82567712  0.73573819  0.59238996  1
  Li  Li71  1  0.26426181  0.08993893  0.59238996  1
  Li  Li72  1  0.91006107  0.17432288  0.59238996  1
  Li  Li73  1  0.26426181  0.17432288  0.40761004  1
  Li  Li74  1  0.91006107  0.73573819  0.40761004  1
  Li  Li75  1  0.82567712  0.08993893  0.40761004  1
  Li  Li76  1  0.00000000  0.00000000  0.00000000  1
  Li  Li77  1  0.66666667  0.33333333  0.50000000  1
