# generated using pymatgen
data_Li2Si4Te3F12
_symmetry_space_group_name_H-M   'P 1'
_cell_length_a   10.93155878
_cell_length_b   10.93155878
_cell_length_c   10.18442415
_cell_angle_alpha   90.00000000
_cell_angle_beta   90.00000000
_cell_angle_gamma   90.00000000
_symmetry_Int_Tables_number   1
_chemical_formula_structural   Li2Si4Te3F12
_chemical_formula_sum   'Li8 Si16 Te12 F48'
_cell_volume   1217.02826996
_cell_formula_units_Z   4
loop_
 _symmetry_equiv_pos_site_id
 _symmetry_equiv_pos_as_xyz
  1  'x, y, z'
loop_
 _atom_site_type_symbol
 _atom_site_label
 _atom_site_symmetry_multiplicity
 _atom_site_fract_x
 _atom_site_fract_y
 _atom_site_fract_z
 _atom_site_occupancy
  F  F0  1  0.44244749  0.46232695  0.79929989  1
  F  F1  1  0.05755251  -0.46232695  1.29929989  1
  F  F2  1  -0.21232695  1.19244749  1.04929989  1
  F  F3  1  0.71232695  -0.19244749  1.54929989  1
  F  F4  1  0.05755251  0.46232695  -0.29929989  1
  F  F5  1  0.44244749  -0.46232695  -0.79929989  1
  F  F6  1  0.71232695  1.19244749  -0.54929989  1
  F  F7  1  -0.21232695  -0.19244749  -0.04929989  1
  F  F8  1  -0.44244749  -0.46232695  -0.79929989  1
  F  F9  1  0.94244749  0.46232695  -0.29929989  1
  F  F10  1  1.21232695  -0.19244749  -0.04929989  1
  F  F11  1  0.28767305  1.19244749  -0.54929989  1
  F  F12  1  0.94244749  -0.46232695  1.29929989  1
  F  F13  1  -0.44244749  0.46232695  0.79929989  1
  F  F14  1  0.28767305  -0.19244749  1.54929989  1
  F  F15  1  1.21232695  1.19244749  1.04929989  1
  F  F16  1  0.94244749  0.96232695  1.29929989  1
  F  F17  1  0.55755251  0.03767305  1.79929989  1
  F  F18  1  0.28767305  1.69244749  1.54929989  1
  F  F19  1  1.21232695  0.30755251  2.04929989  1
  F  F20  1  0.55755251  0.96232695  0.20070011  1
  F  F21  1  0.94244749  0.03767305  -0.29929989  1
  F  F22  1  1.21232695  1.69244749  -0.04929989  1
  F  F23  1  0.28767305  0.30755251  0.45070011  1
  F  F24  1  0.05755251  0.03767305  -0.29929989  1
  F  F25  1  1.44244749  0.96232695  0.20070011  1
  F  F26  1  1.71232695  0.30755251  0.45070011  1
  F  F27  1  0.78767305  1.69244749  -0.04929989  1
  F  F28  1  1.44244749  0.03767305  1.79929989  1
  F  F29  1  0.05755251  0.96232695  1.29929989  1
  F  F30  1  0.78767305  0.30755251  2.04929989  1
  F  F31  1  1.71232695  1.69244749  1.54929989  1
  F  F32  1  0.31635246  0.56635246  0.87500000  1
  F  F33  1  0.18364754  0.43364754  0.37500000  1
  F  F34  1  0.68364754  0.06635246  0.12500000  1
  F  F35  1  0.81635246  0.93364754  0.62500000  1
  F  F36  1  0.68364754  0.43364754  0.12500000  1
  F  F37  1  0.81635246  0.56635246  0.62500000  1
  F  F38  1  0.31635246  0.93364754  0.87500000  1
  F  F39  1  0.18364754  0.06635246  0.37500000  1
  F  F40  1  0.81635246  0.06635246  0.37500000  1
  F  F41  1  0.68364754  0.93364754  0.87500000  1
  F  F42  1  0.18364754  0.56635246  0.62500000  1
  F  F43  1  0.31635246  0.43364754  0.12500000  1
  F  F44  1  0.18364754  0.93364754  0.62500000  1
  F  F45  1  0.31635246  0.06635246  0.12500000  1
  F  F46  1  0.81635246  0.43364754  0.37500000  1
  F  F47  1  0.68364754  0.56635246  0.87500000  1
  Li  Li48  1  0.00000000  0.00000000  0.00000000  1
  Li  Li49  1  0.50000000  0.00000000  0.50000000  1
  Li  Li50  1  0.25000000  0.75000000  0.25000000  1
  Li  Li51  1  0.25000000  0.25000000  0.75000000  1
  Li  Li52  1  0.50000000  0.50000000  0.50000000  1
  Li  Li53  1  0.00000000  0.50000000  0.00000000  1
  Li  Li54  1  0.75000000  0.25000000  0.75000000  1
  Li  Li55  1  0.75000000  0.75000000  0.25000000  1
  Si  Si56  1  0.38988395  0.63988395  0.87500000  1
  Si  Si57  1  0.11011605  0.36011605  0.37500000  1
  Si  Si58  1  0.61011605  0.13988395  0.12500000  1
  Si  Si59  1  0.88988395  0.86011605  0.62500000  1
  Si  Si60  1  0.61011605  0.36011605  0.12500000  1
  Si  Si61  1  0.88988395  0.63988395  0.62500000  1
  Si  Si62  1  0.38988395  0.86011605  0.87500000  1
  Si  Si63  1  0.11011605  0.13988395  0.37500000  1
  Si  Si64  1  0.88988395  0.13988395  0.37500000  1
  Si  Si65  1  0.61011605  0.86011605  0.87500000  1
  Si  Si66  1  0.11011605  0.63988395  0.62500000  1
  Si  Si67  1  0.38988395  0.36011605  0.12500000  1
  Si  Si68  1  0.11011605  0.86011605  0.62500000  1
  Si  Si69  1  0.38988395  0.13988395  0.12500000  1
  Si  Si70  1  0.88988395  0.36011605  0.37500000  1
  Si  Si71  1  0.61011605  0.63988395  0.87500000  1
  Te  Te72  1  0.00000000  0.00000000  0.50000000  1
  Te  Te73  1  0.50000000  0.00000000  0.00000000  1
  Te  Te74  1  0.25000000  0.75000000  0.75000000  1
  Te  Te75  1  0.25000000  0.25000000  0.25000000  1
  Te  Te76  1  0.50000000  0.50000000  0.00000000  1
  Te  Te77  1  0.00000000  0.50000000  0.50000000  1
  Te  Te78  1  0.75000000  0.25000000  0.25000000  1
  Te  Te79  1  0.75000000  0.75000000  0.75000000  1
  Te  Te80  1  0.00000000  0.25000000  0.37500000  1
  Te  Te81  1  0.00000000  0.75000000  0.62500000  1
  Te  Te82  1  0.50000000  0.75000000  0.87500000  1
  Te  Te83  1  0.50000000  0.25000000  0.12500000  1
