# generated using pymatgen
data_Li2O
_symmetry_space_group_name_H-M   'P 1'
_cell_length_a   8.88607217
_cell_length_b   8.88607217
_cell_length_c   4.62312281
_cell_angle_alpha   90.00000000
_cell_angle_beta   90.00000000
_cell_angle_gamma   120.00000000
_symmetry_Int_Tables_number   1
_chemical_formula_structural   Li2O
_chemical_formula_sum   'Li18 O9'
_cell_volume   316.14457568
_cell_formula_units_Z   9
loop_
 _symmetry_equiv_pos_site_id
 _symmetry_equiv_pos_as_xyz
  1  'x, y, z'
loop_
 _atom_site_type_symbol
 _atom_site_label
 _atom_site_symmetry_multiplicity
 _atom_site_fract_x
 _atom_site_fract_y
 _atom_site_fract_z
 _atom_site_occupancy
  Li  Li0  1  0.77569693  0.35169135  0.00000000  1
  Li  Li1  1  0.64830865  0.42400558  0.00000000  1
  Li  Li2  1  0.57599442  0.22430307  0.00000000  1
  Li  Li3  1  0.35169135  0.77569693  -0.00000000  1
  Li  Li4  1  0.42400558  0.64830865  0.00000000  1
  Li  Li5  1  0.22430307  0.57599442  0.00000000  1
  Li  Li6  1  0.35565859  0.49542469  0.35419538  1
  Li  Li7  1  -0.49542469  -0.13976610  0.35419538  1
  Li  Li8  1  0.13976610  -0.35565859  0.35419538  1
  Li  Li9  1  0.35565859  0.49542469  -0.35419538  1
  Li  Li10  1  -0.49542469  -0.13976610  -0.35419538  1
  Li  Li11  1  0.13976610  -0.35565859  -0.35419538  1
  Li  Li12  1  0.49542469  0.35565859  -0.35419538  1
  Li  Li13  1  -0.13976610  -0.49542469  -0.35419538  1
  Li  Li14  1  -0.35565859  0.13976610  -0.35419538  1
  Li  Li15  1  0.49542469  0.35565859  0.35419538  1
  Li  Li16  1  -0.13976610  -0.49542469  0.35419538  1
  Li  Li17  1  -0.35565859  0.13976610  0.35419538  1
  O  O18  1  0.00000000  0.00000000  0.50000000  1
  O  O19  1  0.76037786  0.00000000  0.00000000  1
  O  O20  1  0.00000000  0.76037786  0.00000000  1
  O  O21  1  0.23962214  0.23962214  0.00000000  1
  O  O22  1  0.33333333  0.66666667  0.64324002  1
  O  O23  1  0.33333333  0.66666667  0.35675998  1
  O  O24  1  0.66666667  0.33333333  0.35675998  1
  O  O25  1  0.66666667  0.33333333  0.64324002  1
  O  O26  1  0.00000000  0.00000000  0.00000000  1
