# generated using pymatgen
data_Li4TiSe2(SF)2
_symmetry_space_group_name_H-M   'P 1'
_cell_length_a   5.61634382
_cell_length_b   5.48118086
_cell_length_c   7.46055535
_cell_angle_alpha   105.42731270
_cell_angle_beta   91.20434013
_cell_angle_gamma   95.54274236
_symmetry_Int_Tables_number   1
_chemical_formula_structural   Li4TiSe2(SF)2
_chemical_formula_sum   'Li4 Ti1 Se2 S2 F2'
_cell_volume   220.09554598
_cell_formula_units_Z   1
loop_
 _symmetry_equiv_pos_site_id
 _symmetry_equiv_pos_as_xyz
  1  'x, y, z'
loop_
 _atom_site_type_symbol
 _atom_site_label
 _atom_site_symmetry_multiplicity
 _atom_site_fract_x
 _atom_site_fract_y
 _atom_site_fract_z
 _atom_site_occupancy
  S  S0  1  0.00000000  0.00000000  0.00000000  1
  S  S1  1  0.50000000  0.50000000  0.50000000  1
  Se  Se2  1  0.25000000  0.25000000  0.25000000  1
  Se  Se3  1  0.75000000  0.25000000  0.00000000  1
  Ti  Ti4  1  0.25000000  0.75000000  0.50000000  1
  F  F5  1  0.06036131  0.53143042  0.76134808  1
  F  F6  1  0.17088045  0.99180346  0.91321291  1
  Li  Li7  1  0.14934741  0.57828271  0.48062200  1
  Li  Li8  1  0.29404954  0.80207124  0.26804757  1
  Li  Li9  1  0.45962362  0.03938381  0.97400608  1
  Li  Li10  1  0.03634371  0.54362050  0.19755380  1
