# generated using pymatgen
data_Li4TeF2
_symmetry_space_group_name_H-M   'P 1'
_cell_length_a   15.30371764
_cell_length_b   15.30371764
_cell_length_c   15.30371764
_cell_angle_alpha   90.00000000
_cell_angle_beta   90.00000000
_cell_angle_gamma   90.00000000
_symmetry_Int_Tables_number   1
_chemical_formula_structural   Li4TeF2
_chemical_formula_sum   'Li96 Te24 F48'
_cell_volume   3584.18841990
_cell_formula_units_Z   24
loop_
 _symmetry_equiv_pos_site_id
 _symmetry_equiv_pos_as_xyz
  1  'x, y, z'
loop_
 _atom_site_type_symbol
 _atom_site_label
 _atom_site_symmetry_multiplicity
 _atom_site_fract_x
 _atom_site_fract_y
 _atom_site_fract_z
 _atom_site_occupancy
  F  F0  1  0.12500000  0.82954525  0.07954525  1
  F  F1  1  0.37500000  0.17045475  0.57954525  1
  F  F2  1  0.87500000  0.32954525  0.42045475  1
  F  F3  1  0.62500000  0.67045475  0.92045475  1
  F  F4  1  0.07954525  0.12500000  0.82954525  1
  F  F5  1  0.57954525  0.37500000  0.17045475  1
  F  F6  1  0.42045475  0.87500000  0.32954525  1
  F  F7  1  0.92045475  0.62500000  0.67045475  1
  F  F8  1  0.82954525  0.07954525  0.12500000  1
  F  F9  1  0.17045475  0.57954525  0.37500000  1
  F  F10  1  0.32954525  0.42045475  0.87500000  1
  F  F11  1  0.67045475  0.92045475  0.62500000  1
  F  F12  1  0.62500000  0.32954525  0.57954525  1
  F  F13  1  0.87500000  0.67045475  0.07954525  1
  F  F14  1  0.37500000  0.82954525  0.92045475  1
  F  F15  1  0.12500000  0.17045475  0.42045475  1
  F  F16  1  0.57954525  0.62500000  0.32954525  1
  F  F17  1  0.07954525  0.87500000  0.67045475  1
  F  F18  1  0.92045475  0.37500000  0.82954525  1
  F  F19  1  0.42045475  0.12500000  0.17045475  1
  F  F20  1  0.32954525  0.57954525  0.62500000  1
  F  F21  1  0.67045475  0.07954525  0.87500000  1
  F  F22  1  0.82954525  0.92045475  0.37500000  1
  F  F23  1  0.17045475  0.42045475  0.12500000  1
  F  F24  1  0.12500000  0.39676411  0.64676411  1
  F  F25  1  0.37500000  0.60323589  0.14676411  1
  F  F26  1  0.87500000  0.89676411  0.85323589  1
  F  F27  1  0.62500000  0.10323589  0.35323589  1
  F  F28  1  0.64676411  0.12500000  0.39676411  1
  F  F29  1  0.14676411  0.37500000  0.60323589  1
  F  F30  1  0.85323589  0.87500000  0.89676411  1
  F  F31  1  0.35323589  0.62500000  0.10323589  1
  F  F32  1  0.39676411  0.64676411  0.12500000  1
  F  F33  1  0.60323589  0.14676411  0.37500000  1
  F  F34  1  0.89676411  0.85323589  0.87500000  1
  F  F35  1  0.10323589  0.35323589  0.62500000  1
  F  F36  1  0.62500000  0.89676411  0.14676411  1
  F  F37  1  0.87500000  0.10323589  0.64676411  1
  F  F38  1  0.37500000  0.39676411  0.35323589  1
  F  F39  1  0.12500000  0.60323589  0.85323589  1
  F  F40  1  0.14676411  0.62500000  0.89676411  1
  F  F41  1  0.64676411  0.87500000  0.10323589  1
  F  F42  1  0.35323589  0.37500000  0.39676411  1
  F  F43  1  0.85323589  0.12500000  0.60323589  1
  F  F44  1  0.89676411  0.14676411  0.62500000  1
  F  F45  1  0.10323589  0.64676411  0.87500000  1
  F  F46  1  0.39676411  0.35323589  0.37500000  1
  F  F47  1  0.60323589  0.85323589  0.12500000  1
  Li  Li48  1  0.41511625  0.67202993  0.85421985  1
  Li  Li49  1  0.08488375  -0.67202993  1.35421985  1
  Li  Li50  1  -0.41511625  1.17202993  -0.35421985  1
  Li  Li51  1  0.91511625  -0.17202993  -0.85421985  1
  Li  Li52  1  0.85421985  0.41511625  0.67202993  1
  Li  Li53  1  1.35421985  0.08488375  -0.67202993  1
  Li  Li54  1  -0.35421985  -0.41511625  1.17202993  1
  Li  Li55  1  -0.85421985  0.91511625  -0.17202993  1
  Li  Li56  1  0.67202993  0.85421985  0.41511625  1
  Li  Li57  1  -0.67202993  1.35421985  0.08488375  1
  Li  Li58  1  1.17202993  -0.35421985  -0.41511625  1
  Li  Li59  1  -0.17202993  -0.85421985  0.91511625  1
  Li  Li60  1  1.42202993  0.66511625  -0.60421985  1
  Li  Li61  1  0.07797007  0.33488375  -0.10421985  1
  Li  Li62  1  0.92202993  -0.16511625  1.60421985  1
  Li  Li63  1  -0.42202993  1.16511625  1.10421985  1
  Li  Li64  1  1.16511625  1.10421985  -0.42202993  1
  Li  Li65  1  -0.16511625  1.60421985  0.92202993  1
  Li  Li66  1  0.33488375  -0.10421985  0.07797007  1
  Li  Li67  1  0.66511625  -0.60421985  1.42202993  1
  Li  Li68  1  1.60421985  0.92202993  -0.16511625  1
  Li  Li69  1  1.10421985  -0.42202993  1.16511625  1
  Li  Li70  1  -0.60421985  1.42202993  0.66511625  1
  Li  Li71  1  -0.10421985  0.07797007  0.33488375  1
  Li  Li72  1  0.91511625  1.17202993  1.35421985  1
  Li  Li73  1  0.58488375  -0.17202993  1.85421985  1
  Li  Li74  1  0.08488375  1.67202993  0.14578015  1
  Li  Li75  1  1.41511625  0.32797007  -0.35421985  1
  Li  Li76  1  1.35421985  0.91511625  1.17202993  1
  Li  Li77  1  1.85421985  0.58488375  -0.17202993  1
  Li  Li78  1  0.14578015  0.08488375  1.67202993  1
  Li  Li79  1  -0.35421985  1.41511625  0.32797007  1
  Li  Li80  1  1.17202993  1.35421985  0.91511625  1
  Li  Li81  1  -0.17202993  1.85421985  0.58488375  1
  Li  Li82  1  1.67202993  0.14578015  0.08488375  1
  Li  Li83  1  0.32797007  -0.35421985  1.41511625  1
  Li  Li84  1  1.92202993  1.16511625  -0.10421985  1
  Li  Li85  1  0.57797007  0.83488375  0.39578015  1
  Li  Li86  1  1.42202993  0.33488375  2.10421985  1
  Li  Li87  1  0.07797007  1.66511625  1.60421985  1
  Li  Li88  1  1.66511625  1.60421985  0.07797007  1
  Li  Li89  1  0.33488375  2.10421985  1.42202993  1
  Li  Li90  1  0.83488375  0.39578015  0.57797007  1
  Li  Li91  1  1.16511625  -0.10421985  1.92202993  1
  Li  Li92  1  2.10421985  1.42202993  0.33488375  1
  Li  Li93  1  1.60421985  0.07797007  1.66511625  1
  Li  Li94  1  -0.10421985  1.92202993  1.16511625  1
  Li  Li95  1  0.39578015  0.57797007  0.83488375  1
  Li  Li96  1  0.72481440  0.99502985  0.92688213  1
  Li  Li97  1  0.77518560  0.00497015  0.42688213  1
  Li  Li98  1  0.27518560  0.49502985  0.57311787  1
  Li  Li99  1  0.22481440  0.50497015  0.07311787  1
  Li  Li100  1  0.92688213  0.72481440  0.99502985  1
  Li  Li101  1  0.42688213  0.77518560  0.00497015  1
  Li  Li102  1  0.57311787  0.27518560  0.49502985  1
  Li  Li103  1  0.07311787  0.22481440  0.50497015  1
  Li  Li104  1  0.99502985  0.92688213  0.72481440  1
  Li  Li105  1  0.00497015  0.42688213  0.77518560  1
  Li  Li106  1  0.49502985  0.57311787  0.27518560  1
  Li  Li107  1  0.50497015  0.07311787  0.22481440  1
  Li  Li108  1  0.74502985  0.97481440  0.32311787  1
  Li  Li109  1  0.75497015  0.02518560  0.82311787  1
  Li  Li110  1  0.24502985  0.52518560  0.67688213  1
  Li  Li111  1  0.25497015  0.47481440  0.17688213  1
  Li  Li112  1  0.47481440  0.17688213  0.25497015  1
  Li  Li113  1  0.52518560  0.67688213  0.24502985  1
  Li  Li114  1  0.02518560  0.82311787  0.75497015  1
  Li  Li115  1  0.97481440  0.32311787  0.74502985  1
  Li  Li116  1  0.67688213  0.24502985  0.52518560  1
  Li  Li117  1  0.17688213  0.25497015  0.47481440  1
  Li  Li118  1  0.32311787  0.74502985  0.97481440  1
  Li  Li119  1  0.82311787  0.75497015  0.02518560  1
  Li  Li120  1  0.22481440  0.49502985  0.42688213  1
  Li  Li121  1  0.27518560  0.50497015  0.92688213  1
  Li  Li122  1  0.77518560  0.99502985  0.07311787  1
  Li  Li123  1  0.72481440  0.00497015  0.57311787  1
  Li  Li124  1  0.42688213  0.22481440  0.49502985  1
  Li  Li125  1  0.92688213  0.27518560  0.50497015  1
  Li  Li126  1  0.07311787  0.77518560  0.99502985  1
  Li  Li127  1  0.57311787  0.72481440  0.00497015  1
  Li  Li128  1  0.49502985  0.42688213  0.22481440  1
  Li  Li129  1  0.50497015  0.92688213  0.27518560  1
  Li  Li130  1  0.99502985  0.07311787  0.77518560  1
  Li  Li131  1  0.00497015  0.57311787  0.72481440  1
  Li  Li132  1  0.24502985  0.47481440  0.82311787  1
  Li  Li133  1  0.25497015  0.52518560  0.32311787  1
  Li  Li134  1  0.74502985  0.02518560  0.17688213  1
  Li  Li135  1  0.75497015  0.97481440  0.67688213  1
  Li  Li136  1  0.97481440  0.67688213  0.75497015  1
  Li  Li137  1  0.02518560  0.17688213  0.74502985  1
  Li  Li138  1  0.52518560  0.32311787  0.25497015  1
  Li  Li139  1  0.47481440  0.82311787  0.24502985  1
  Li  Li140  1  0.17688213  0.74502985  0.02518560  1
  Li  Li141  1  0.67688213  0.75497015  0.97481440  1
  Li  Li142  1  0.82311787  0.24502985  0.47481440  1
  Li  Li143  1  0.32311787  0.25497015  0.52518560  1
  Te  Te144  1  0.28334024  0.28334024  0.28334024  1
  Te  Te145  1  0.21665976  0.71665976  0.78334024  1
  Te  Te146  1  0.71665976  0.78334024  0.21665976  1
  Te  Te147  1  0.78334024  0.21665976  0.71665976  1
  Te  Te148  1  0.03334024  0.53334024  0.96665976  1
  Te  Te149  1  0.46665976  0.46665976  0.46665976  1
  Te  Te150  1  0.53334024  0.96665976  0.03334024  1
  Te  Te151  1  0.96665976  0.03334024  0.53334024  1
  Te  Te152  1  0.78334024  0.78334024  0.78334024  1
  Te  Te153  1  0.71665976  0.21665976  0.28334024  1
  Te  Te154  1  0.21665976  0.28334024  0.71665976  1
  Te  Te155  1  0.28334024  0.71665976  0.21665976  1
  Te  Te156  1  0.53334024  0.03334024  0.46665976  1
  Te  Te157  1  0.96665976  0.96665976  0.96665976  1
  Te  Te158  1  0.03334024  0.46665976  0.53334024  1
  Te  Te159  1  0.46665976  0.53334024  0.03334024  1
  Te  Te160  1  0.12500000  0.12500000  0.12500000  1
  Te  Te161  1  0.37500000  0.87500000  0.62500000  1
  Te  Te162  1  0.87500000  0.62500000  0.37500000  1
  Te  Te163  1  0.62500000  0.37500000  0.87500000  1
  Te  Te164  1  0.62500000  0.62500000  0.62500000  1
  Te  Te165  1  0.87500000  0.37500000  0.12500000  1
  Te  Te166  1  0.37500000  0.12500000  0.87500000  1
  Te  Te167  1  0.12500000  0.87500000  0.37500000  1
