# generated using pymatgen
data_LiF
_symmetry_space_group_name_H-M   'P 1'
_cell_length_a   10.21811833
_cell_length_b   16.00659966
_cell_length_c   7.04820606
_cell_angle_alpha   90.00000000
_cell_angle_beta   90.00000000
_cell_angle_gamma   90.00000000
_symmetry_Int_Tables_number   1
_chemical_formula_structural   LiF
_chemical_formula_sum   'Li30 F30'
_cell_volume   1152.78575901
_cell_formula_units_Z   30
loop_
 _symmetry_equiv_pos_site_id
 _symmetry_equiv_pos_as_xyz
  1  'x, y, z'
loop_
 _atom_site_type_symbol
 _atom_site_label
 _atom_site_symmetry_multiplicity
 _atom_site_fract_x
 _atom_site_fract_y
 _atom_site_fract_z
 _atom_site_occupancy
  F  F0  1  0.00000000  0.50000000  0.50000000  1
  F  F1  1  0.50000000  0.00000000  0.50000000  1
  F  F2  1  0.09185711  0.10738383  0.16318338  1
  F  F3  1  -0.09185711  -0.10738383  0.16318338  1
  F  F4  1  0.40814289  0.60738383  -0.16318338  1
  F  F5  1  0.59185711  0.39261617  -0.16318338  1
  F  F6  1  -0.09185711  -0.10738383  -0.16318338  1
  F  F7  1  0.09185711  0.10738383  -0.16318338  1
  F  F8  1  0.59185711  0.39261617  0.16318338  1
  F  F9  1  0.40814289  0.60738383  0.16318338  1
  F  F10  1  0.17870002  0.49484196  0.23067991  1
  F  F11  1  0.82129998  0.50515804  0.23067991  1
  F  F12  1  0.32129998  0.99484196  0.76932009  1
  F  F13  1  0.67870002  0.00515804  0.76932009  1
  F  F14  1  0.82129998  0.50515804  0.76932009  1
  F  F15  1  0.17870002  0.49484196  0.76932009  1
  F  F16  1  0.67870002  0.00515804  0.23067991  1
  F  F17  1  0.32129998  0.99484196  0.23067991  1
  F  F18  1  0.23896762  0.99420354  0.35846715  1
  F  F19  1  0.76103238  0.00579646  0.35846715  1
  F  F20  1  0.26103238  0.49420354  0.64153285  1
  F  F21  1  0.73896762  0.50579646  0.64153285  1
  F  F22  1  0.76103238  0.00579646  0.64153285  1
  F  F23  1  0.23896762  0.99420354  0.64153285  1
  F  F24  1  0.73896762  0.50579646  0.35846715  1
  F  F25  1  0.26103238  0.49420354  0.35846715  1
  F  F26  1  0.49723009  0.82236428  0.00000000  1
  F  F27  1  0.50276991  0.17763572  0.00000000  1
  F  F28  1  0.00276991  0.32236428  -0.00000000  1
  F  F29  1  0.99723009  0.67763572  0.00000000  1
  Li  Li30  1  0.67612315  0.67131993  0.50000000  1
  Li  Li31  1  0.32387685  0.32868007  0.50000000  1
  Li  Li32  1  0.82387685  0.17131993  0.50000000  1
  Li  Li33  1  0.17612315  0.82868007  0.50000000  1
  Li  Li34  1  0.18847961  0.65523738  -0.00000000  1
  Li  Li35  1  0.81152039  0.34476262  0.00000000  1
  Li  Li36  1  0.31152039  0.15523738  0.00000000  1
  Li  Li37  1  0.68847961  0.84476262  0.00000000  1
  Li  Li38  1  0.00000000  0.50000000  0.00000000  1
  Li  Li39  1  0.50000000  0.00000000  0.00000000  1
  Li  Li40  1  0.65278883  0.35849945  0.36496756  1
  Li  Li41  1  0.34721117  0.64150055  0.36496756  1
  Li  Li42  1  0.84721117  0.85849945  0.63503244  1
  Li  Li43  1  0.15278883  0.14150055  0.63503244  1
  Li  Li44  1  0.34721117  0.64150055  0.63503244  1
  Li  Li45  1  0.65278883  0.35849945  0.63503244  1
  Li  Li46  1  0.15278883  0.14150055  0.36496756  1
  Li  Li47  1  0.84721117  0.85849945  0.36496756  1
  Li  Li48  1  0.11759647  0.89189096  0.00000000  1
  Li  Li49  1  0.88240353  0.10810904  0.00000000  1
  Li  Li50  1  0.38240353  0.39189096  0.00000000  1
  Li  Li51  1  0.61759647  0.60810904  -0.00000000  1
  Li  Li52  1  0.98160232  0.80854225  0.19865809  1
  Li  Li53  1  0.01839768  0.19145775  0.19865809  1
  Li  Li54  1  0.51839768  0.30854225  0.80134191  1
  Li  Li55  1  0.48160232  0.69145775  0.80134191  1
  Li  Li56  1  0.01839768  0.19145775  0.80134191  1
  Li  Li57  1  0.98160232  0.80854225  0.80134191  1
  Li  Li58  1  0.48160232  0.69145775  0.19865809  1
  Li  Li59  1  0.51839768  0.30854225  0.19865809  1
