# generated using pymatgen
data_Li2Y2MoP3Se2
_symmetry_space_group_name_H-M   'P 1'
_cell_length_a   3.78290748
_cell_length_b   4.07791876
_cell_length_c   6.63288291
_cell_angle_alpha   96.91505686
_cell_angle_beta   104.72788583
_cell_angle_gamma   116.16322441
_symmetry_Int_Tables_number   1
_chemical_formula_structural   Li2Y2MoP3Se2
_chemical_formula_sum   'Li2 Y2 Mo1 P3 Se2'
_cell_volume   85.57526281
_cell_formula_units_Z   1
loop_
 _symmetry_equiv_pos_site_id
 _symmetry_equiv_pos_as_xyz
  1  'x, y, z'
loop_
 _atom_site_type_symbol
 _atom_site_label
 _atom_site_symmetry_multiplicity
 _atom_site_fract_x
 _atom_site_fract_y
 _atom_site_fract_z
 _atom_site_occupancy
  Se  Se0  1  0.12500000  0.00000000  0.25000000  1
  Se  Se1  1  0.00000000  0.00000000  0.00000000  1
  P  P2  1  0.37500000  0.00000000  0.25000000  1
  P  P3  1  0.25000000  0.25000000  0.25000000  1
  P  P4  1  0.00000000  0.25000000  0.12500000  1
  Mo  Mo5  1  0.51426804  0.79908836  0.23622474  1
  Li  Li6  1  0.70743869  0.56659825  0.78821162  1
  Li  Li7  1  0.31336430  0.04775227  0.36974172  1
  Y  Y8  1  0.65773267  0.96850968  0.69908688  1
  Y  Y9  1  0.46125924  0.37765823  0.83094650  1
