# generated using pymatgen
data_LiF
_symmetry_space_group_name_H-M   'P 1'
_cell_length_a   8.35282789
_cell_length_b   7.38605519
_cell_length_c   6.79602790
_cell_angle_alpha   90.00000000
_cell_angle_beta   90.00000000
_cell_angle_gamma   90.00000000
_symmetry_Int_Tables_number   1
_chemical_formula_structural   LiF
_chemical_formula_sum   'Li24 F24'
_cell_volume   419.27718874
_cell_formula_units_Z   24
loop_
 _symmetry_equiv_pos_site_id
 _symmetry_equiv_pos_as_xyz
  1  'x, y, z'
loop_
 _atom_site_type_symbol
 _atom_site_label
 _atom_site_symmetry_multiplicity
 _atom_site_fract_x
 _atom_site_fract_y
 _atom_site_fract_z
 _atom_site_occupancy
  F  F0  1  0.00000000  0.00000000  0.50000000  1
  F  F1  1  0.50000000  0.50000000  0.50000000  1
  F  F2  1  0.00000000  0.50000000  0.77887556  1
  F  F3  1  0.50000000  0.00000000  0.22112444  1
  F  F4  1  0.00000000  0.50000000  0.22112444  1
  F  F5  1  0.50000000  0.00000000  0.77887556  1
  F  F6  1  0.44439805  0.84334100  0.50000000  1
  F  F7  1  0.55560195  0.15665900  0.50000000  1
  F  F8  1  0.05560195  0.34334100  0.50000000  1
  F  F9  1  0.94439805  0.65665900  0.50000000  1
  F  F10  1  0.63386900  0.45627635  0.66460160  1
  F  F11  1  -0.63386900  -0.45627635  0.66460160  1
  F  F12  1  -0.13386900  0.95627635  -0.66460160  1
  F  F13  1  1.13386900  0.04372365  -0.66460160  1
  F  F14  1  -0.63386900  -0.45627635  -0.66460160  1
  F  F15  1  0.63386900  0.45627635  -0.66460160  1
  F  F16  1  1.13386900  0.04372365  0.66460160  1
  F  F17  1  -0.13386900  0.95627635  0.66460160  1
  F  F18  1  0.00000000  0.00000000  0.72579606  1
  F  F19  1  0.50000000  0.50000000  0.27420394  1
  F  F20  1  0.00000000  0.00000000  0.27420394  1
  F  F21  1  0.50000000  0.50000000  0.72579606  1
  F  F22  1  0.00000000  0.00000000  0.00000000  1
  F  F23  1  0.50000000  0.50000000  -0.00000000  1
  Li  Li24  1  0.39362743  0.23931486  0.72281958  1
  Li  Li25  1  0.60637257  0.76068514  0.72281958  1
  Li  Li26  1  0.10637257  0.73931486  0.27718042  1
  Li  Li27  1  0.89362743  0.26068514  0.27718042  1
  Li  Li28  1  0.60637257  0.76068514  0.27718042  1
  Li  Li29  1  0.39362743  0.23931486  0.27718042  1
  Li  Li30  1  0.89362743  0.26068514  0.72281958  1
  Li  Li31  1  0.10637257  0.73931486  0.72281958  1
  Li  Li32  1  0.18958621  0.21098390  0.00000000  1
  Li  Li33  1  0.81041379  0.78901610  0.00000000  1
  Li  Li34  1  0.31041379  0.71098390  0.00000000  1
  Li  Li35  1  0.68958621  0.28901610  0.00000000  1
  Li  Li36  1  0.10728125  0.46373191  0.00000000  1
  Li  Li37  1  0.89271875  0.53626809  0.00000000  1
  Li  Li38  1  0.39271875  0.96373191  0.00000000  1
  Li  Li39  1  0.60728125  0.03626809  0.00000000  1
  Li  Li40  1  0.00000000  0.50000000  0.37199902  1
  Li  Li41  1  0.50000000  0.00000000  0.62800098  1
  Li  Li42  1  0.00000000  0.50000000  0.62800098  1
  Li  Li43  1  0.50000000  0.00000000  0.37199902  1
  Li  Li44  1  0.01593566  0.86601131  0.50000000  1
  Li  Li45  1  0.98406434  0.13398869  0.50000000  1
  Li  Li46  1  0.48406434  0.36601131  0.50000000  1
  Li  Li47  1  0.51593566  0.63398869  0.50000000  1
