# generated using pymatgen
data_LiF
_symmetry_space_group_name_H-M   'P 1'
_cell_length_a   14.28176885
_cell_length_b   14.28176885
_cell_length_c   1.87196082
_cell_angle_alpha   90.00000000
_cell_angle_beta   90.00000000
_cell_angle_gamma   120.00000000
_symmetry_Int_Tables_number   1
_chemical_formula_structural   LiF
_chemical_formula_sum   'Li14 F14'
_cell_volume   330.66740355
_cell_formula_units_Z   14
loop_
 _symmetry_equiv_pos_site_id
 _symmetry_equiv_pos_as_xyz
  1  'x, y, z'
loop_
 _atom_site_type_symbol
 _atom_site_label
 _atom_site_symmetry_multiplicity
 _atom_site_fract_x
 _atom_site_fract_y
 _atom_site_fract_z
 _atom_site_occupancy
  F  F0  1  0.70110465  0.29889535  0.00000000  1
  F  F1  1  0.70110465  0.40220930  0.00000000  1
  F  F2  1  0.59779070  0.29889535  0.00000000  1
  F  F3  1  0.66666667  0.33333333  0.50000000  1
  F  F4  1  0.80526857  0.93379352  0.64864090  1
  F  F5  1  0.06620648  0.87147505  0.64864090  1
  F  F6  1  0.12852495  0.19473143  0.64864090  1
  F  F7  1  0.06620648  0.19473143  0.35135910  1
  F  F8  1  0.12852495  0.93379352  0.35135910  1
  F  F9  1  0.80526857  0.87147505  0.35135910  1
  F  F10  1  0.75206978  0.24793022  0.50000000  1
  F  F11  1  0.75206978  0.50413955  0.50000000  1
  F  F12  1  0.49586045  0.24793022  0.50000000  1
  F  F13  1  0.00000000  0.00000000  0.50000000  1
  Li  Li14  1  0.24896188  0.02750232  0.59717611  1
  Li  Li15  1  -0.02750232  0.22145956  0.59717611  1
  Li  Li16  1  -0.22145956  -0.24896188  0.59717611  1
  Li  Li17  1  -0.02750232  -0.24896188  -0.59717611  1
  Li  Li18  1  -0.22145956  0.02750232  -0.59717611  1
  Li  Li19  1  0.24896188  0.22145956  -0.59717611  1
  Li  Li20  1  0.87749339  0.12250661  0.50000000  1
  Li  Li21  1  0.87749339  0.75498677  0.50000000  1
  Li  Li22  1  0.24501323  0.12250661  0.50000000  1
  Li  Li23  1  0.00000000  0.00000000  0.00000000  1
  Li  Li24  1  0.15916763  0.84083237  0.50000000  1
  Li  Li25  1  0.15916763  0.31833526  0.50000000  1
  Li  Li26  1  0.68166474  0.84083237  0.50000000  1
  Li  Li27  1  0.33333333  0.66666667  0.00000000  1
