# generated using pymatgen
data_LiF
_symmetry_space_group_name_H-M   'P 1'
_cell_length_a   9.54322237
_cell_length_b   6.96335537
_cell_length_c   7.45476448
_cell_angle_alpha   90.00000000
_cell_angle_beta   90.00000000
_cell_angle_gamma   90.00000000
_symmetry_Int_Tables_number   1
_chemical_formula_structural   LiF
_chemical_formula_sum   'Li14 F14'
_cell_volume   495.39033646
_cell_formula_units_Z   14
loop_
 _symmetry_equiv_pos_site_id
 _symmetry_equiv_pos_as_xyz
  1  'x, y, z'
loop_
 _atom_site_type_symbol
 _atom_site_label
 _atom_site_symmetry_multiplicity
 _atom_site_fract_x
 _atom_site_fract_y
 _atom_site_fract_z
 _atom_site_occupancy
  F  F0  1  0.00000000  0.00000000  0.00000000  1
  F  F1  1  0.50000000  0.50000000  0.00000000  1
  F  F2  1  0.93027246  0.95341598  0.61338475  1
  F  F3  1  -0.93027246  -0.95341598  0.61338475  1
  F  F4  1  -0.43027246  1.45341598  -0.61338475  1
  F  F5  1  1.43027246  -0.45341598  -0.61338475  1
  F  F6  1  -0.93027246  -0.95341598  -0.61338475  1
  F  F7  1  0.93027246  0.95341598  -0.61338475  1
  F  F8  1  1.43027246  -0.45341598  0.61338475  1
  F  F9  1  -0.43027246  1.45341598  0.61338475  1
  F  F10  1  0.00000000  0.00000000  0.50000000  1
  F  F11  1  0.50000000  0.50000000  0.50000000  1
  F  F12  1  0.00000000  0.50000000  0.00000000  1
  F  F13  1  0.50000000  0.00000000  0.00000000  1
  Li  Li14  1  0.00000000  0.00000000  0.22604288  1
  Li  Li15  1  0.50000000  0.50000000  0.77395712  1
  Li  Li16  1  0.00000000  0.00000000  0.77395712  1
  Li  Li17  1  0.50000000  0.50000000  0.22604288  1
  Li  Li18  1  0.25122273  0.04899171  0.88691289  1
  Li  Li19  1  0.74877727  0.95100829  0.88691289  1
  Li  Li20  1  0.24877727  0.54899171  0.11308711  1
  Li  Li21  1  0.75122273  0.45100829  0.11308711  1
  Li  Li22  1  0.74877727  0.95100829  0.11308711  1
  Li  Li23  1  0.25122273  0.04899171  0.11308711  1
  Li  Li24  1  0.75122273  0.45100829  0.88691289  1
  Li  Li25  1  0.24877727  0.54899171  0.88691289  1
  Li  Li26  1  0.00000000  0.50000000  0.50000000  1
  Li  Li27  1  0.50000000  0.00000000  0.50000000  1
