# generated using pymatgen
data_Li2Y2Sb2P2Se
_symmetry_space_group_name_H-M   'P 1'
_cell_length_a   5.49776294
_cell_length_b   5.55875967
_cell_length_c   6.73120852
_cell_angle_alpha   93.45398478
_cell_angle_beta   96.07802129
_cell_angle_gamma   101.60864800
_symmetry_Int_Tables_number   1
_chemical_formula_structural   Li2Y2Sb2P2Se
_chemical_formula_sum   'Li2 Y2 Sb2 P2 Se1'
_cell_volume   199.66662377
_cell_formula_units_Z   1
loop_
 _symmetry_equiv_pos_site_id
 _symmetry_equiv_pos_as_xyz
  1  'x, y, z'
loop_
 _atom_site_type_symbol
 _atom_site_label
 _atom_site_symmetry_multiplicity
 _atom_site_fract_x
 _atom_site_fract_y
 _atom_site_fract_z
 _atom_site_occupancy
  Se  Se0  1  0.00000000  0.00000000  0.00000000  1
  Y  Y1  1  0.50000000  0.50000000  0.50000000  1
  Y  Y2  1  0.25000000  0.25000000  0.25000000  1
  P  P3  1  0.75000000  0.25000000  0.00000000  1
  P  P4  1  0.25000000  0.75000000  0.50000000  1
  Li  Li5  1  0.93429215  0.74941939  0.56733050  1
  Li  Li6  1  0.62729632  0.60647851  0.07137647  1
  Sb  Sb7  1  0.59050638  0.60055793  0.27242073  1
  Sb  Sb8  1  0.40300204  0.14776523  0.43242691  1
