# generated using pymatgen
data_LiF
_symmetry_space_group_name_H-M   'P 1'
_cell_length_a   12.25950529
_cell_length_b   12.25950529
_cell_length_c   4.50579196
_cell_angle_alpha   90.00000000
_cell_angle_beta   90.00000000
_cell_angle_gamma   120.00000000
_symmetry_Int_Tables_number   1
_chemical_formula_structural   LiF
_chemical_formula_sum   'Li20 F20'
_cell_volume   586.47250763
_cell_formula_units_Z   20
loop_
 _symmetry_equiv_pos_site_id
 _symmetry_equiv_pos_as_xyz
  1  'x, y, z'
loop_
 _atom_site_type_symbol
 _atom_site_label
 _atom_site_symmetry_multiplicity
 _atom_site_fract_x
 _atom_site_fract_y
 _atom_site_fract_z
 _atom_site_occupancy
  F  F0  1  0.00000000  0.00000000  0.25000000  1
  F  F1  1  0.00000000  0.00000000  0.75000000  1
  F  F2  1  0.93144172  0.55400290  0.25000000  1
  F  F3  1  -0.55400290  0.37743883  0.25000000  1
  F  F4  1  -0.37743883  -0.93144172  0.25000000  1
  F  F5  1  -0.93144172  -0.55400290  0.75000000  1
  F  F6  1  0.55400290  -0.37743883  0.75000000  1
  F  F7  1  0.37743883  0.93144172  0.75000000  1
  F  F8  1  0.55400290  0.93144172  0.75000000  1
  F  F9  1  0.37743883  -0.55400290  0.75000000  1
  F  F10  1  -0.93144172  -0.37743883  0.75000000  1
  F  F11  1  -0.55400290  -0.93144172  0.25000000  1
  F  F12  1  -0.37743883  0.55400290  0.25000000  1
  F  F13  1  0.93144172  0.37743883  0.25000000  1
  F  F14  1  0.50000000  0.00000000  -0.00000000  1
  F  F15  1  0.00000000  0.50000000  0.00000000  1
  F  F16  1  0.50000000  0.50000000  -0.00000000  1
  F  F17  1  0.50000000  0.00000000  0.50000000  1
  F  F18  1  0.00000000  0.50000000  0.50000000  1
  F  F19  1  0.50000000  0.50000000  0.50000000  1
  Li  Li20  1  0.33333333  0.66666667  0.90216001  1
  Li  Li21  1  0.66666667  0.33333333  0.40216001  1
  Li  Li22  1  0.66666667  0.33333333  0.09783999  1
  Li  Li23  1  0.33333333  0.66666667  0.59783999  1
  Li  Li24  1  0.82409608  0.64819216  0.25000000  1
  Li  Li25  1  0.35180784  0.17590392  0.25000000  1
  Li  Li26  1  0.82409608  0.17590392  0.25000000  1
  Li  Li27  1  0.17590392  0.35180784  0.75000000  1
  Li  Li28  1  0.64819216  0.82409608  0.75000000  1
  Li  Li29  1  0.17590392  0.82409608  0.75000000  1
  Li  Li30  1  0.74372341  0.48744682  0.25000000  1
  Li  Li31  1  0.51255318  0.25627659  0.25000000  1
  Li  Li32  1  0.74372341  0.25627659  0.25000000  1
  Li  Li33  1  0.25627659  0.51255318  0.75000000  1
  Li  Li34  1  0.48744682  0.74372341  0.75000000  1
  Li  Li35  1  0.25627659  0.74372341  0.75000000  1
  Li  Li36  1  0.00000000  0.00000000  0.00000000  1
  Li  Li37  1  0.00000000  0.00000000  0.50000000  1
  Li  Li38  1  0.33333333  0.66666667  0.25000000  1
  Li  Li39  1  0.66666667  0.33333333  0.75000000  1
