# generated using pymatgen
data_Li2Y2MoP3Se2
_symmetry_space_group_name_H-M   'P 1'
_cell_length_a   4.70256880
_cell_length_b   4.90168670
_cell_length_c   6.94708712
_cell_angle_alpha   95.26203417
_cell_angle_beta   101.45961647
_cell_angle_gamma   111.13549990
_symmetry_Int_Tables_number   1
_chemical_formula_structural   Li2Y2MoP3Se2
_chemical_formula_sum   'Li2 Y2 Mo1 P3 Se2'
_cell_volume   144.02822650
_cell_formula_units_Z   1
loop_
 _symmetry_equiv_pos_site_id
 _symmetry_equiv_pos_as_xyz
  1  'x, y, z'
loop_
 _atom_site_type_symbol
 _atom_site_label
 _atom_site_symmetry_multiplicity
 _atom_site_fract_x
 _atom_site_fract_y
 _atom_site_fract_z
 _atom_site_occupancy
  Se  Se0  1  0.12500000  0.00000000  0.25000000  1
  Se  Se1  1  0.00000000  0.00000000  0.00000000  1
  Y  Y2  1  0.37500000  0.00000000  0.25000000  1
  Y  Y3  1  0.25000000  0.25000000  0.25000000  1
  P  P4  1  0.00000000  0.25000000  0.12500000  1
  P  P5  1  0.97818331  0.64383038  0.07106273  1
  P  P6  1  0.38785913  0.43543759  0.78092127  1
  Mo  Mo7  1  0.37951052  0.35623184  0.36716262  1
  Li  Li8  1  0.07504427  0.80456935  0.11798113  1
  Li  Li9  1  0.83500576  0.16980555  0.66770157  1
