# generated using pymatgen
data_Li2Y2MoP2Se
_symmetry_space_group_name_H-M   'P 1'
_cell_length_a   4.32536443
_cell_length_b   4.57754834
_cell_length_c   6.66272320
_cell_angle_alpha   95.86275315
_cell_angle_beta   102.01595434
_cell_angle_gamma   110.99047936
_symmetry_Int_Tables_number   1
_chemical_formula_structural   Li2Y2MoP2Se
_chemical_formula_sum   'Li2 Y2 Mo1 P2 Se1'
_cell_volume   118.18900998
_cell_formula_units_Z   1
loop_
 _symmetry_equiv_pos_site_id
 _symmetry_equiv_pos_as_xyz
  1  'x, y, z'
loop_
 _atom_site_type_symbol
 _atom_site_label
 _atom_site_symmetry_multiplicity
 _atom_site_fract_x
 _atom_site_fract_y
 _atom_site_fract_z
 _atom_site_occupancy
  Se  Se0  1  0.00000000  0.00000000  0.00000000  1
  P  P1  1  0.50000000  0.50000000  0.50000000  1
  P  P2  1  0.25000000  0.25000000  0.25000000  1
  Mo  Mo3  1  0.75000000  0.25000000  0.00000000  1
  Li  Li4  1  0.25000000  0.75000000  0.50000000  1
  Li  Li5  1  0.55428807  0.79853912  0.28937216  1
  Y  Y6  1  0.15261959  0.41795769  0.39718618  1
  Y  Y7  1  0.63265045  0.58365819  0.89802845  1
