# generated using pymatgen
data_LiF
_symmetry_space_group_name_H-M   'P 1'
_cell_length_a   8.22792690
_cell_length_b   10.00387625
_cell_length_c   8.10074676
_cell_angle_alpha   90.00000000
_cell_angle_beta   90.00000000
_cell_angle_gamma   90.00000000
_symmetry_Int_Tables_number   1
_chemical_formula_structural   LiF
_chemical_formula_sum   'Li24 F24'
_cell_volume   666.78188311
_cell_formula_units_Z   24
loop_
 _symmetry_equiv_pos_site_id
 _symmetry_equiv_pos_as_xyz
  1  'x, y, z'
loop_
 _atom_site_type_symbol
 _atom_site_label
 _atom_site_symmetry_multiplicity
 _atom_site_fract_x
 _atom_site_fract_y
 _atom_site_fract_z
 _atom_site_occupancy
  F  F0  1  0.93715316  0.56245566  0.75989496  1
  F  F1  1  -0.43715316  -0.56245566  1.25989496  1
  F  F2  1  -0.93715316  1.06245566  -0.75989496  1
  F  F3  1  1.43715316  -0.06245566  -0.25989496  1
  F  F4  1  -0.93715316  -0.56245566  -0.75989496  1
  F  F5  1  1.43715316  0.56245566  -0.25989496  1
  F  F6  1  0.93715316  -0.06245566  0.75989496  1
  F  F7  1  -0.43715316  1.06245566  1.25989496  1
  F  F8  1  0.47277120  0.46340610  0.85351360  1
  F  F9  1  0.02722880  0.53659390  0.35351360  1
  F  F10  1  0.52722880  0.96340610  0.14648640  1
  F  F11  1  0.97277120  0.03659390  0.64648640  1
  F  F12  1  0.52722880  0.53659390  0.14648640  1
  F  F13  1  0.97277120  0.46340610  0.64648640  1
  F  F14  1  0.47277120  0.03659390  0.85351360  1
  F  F15  1  0.02722880  0.96340610  0.35351360  1
  F  F16  1  0.68490407  0.09058528  0.08148542  1
  F  F17  1  0.81509593  0.90941472  0.58148542  1
  F  F18  1  0.31509593  0.59058528  0.91851458  1
  F  F19  1  0.18490407  0.40941472  0.41851458  1
  F  F20  1  0.31509593  0.90941472  0.91851458  1
  F  F21  1  0.18490407  0.09058528  0.41851458  1
  F  F22  1  0.68490407  0.40941472  0.08148542  1
  F  F23  1  0.81509593  0.59058528  0.58148542  1
  Li  Li24  1  0.06419142  0.25000000  0.24391010  1
  Li  Li25  1  0.43580858  0.75000000  0.74391010  1
  Li  Li26  1  0.93580858  0.75000000  0.75608990  1
  Li  Li27  1  0.56419142  0.25000000  0.25608990  1
  Li  Li28  1  0.28325857  0.67550767  0.52781624  1
  Li  Li29  1  0.21674143  0.32449233  0.02781624  1
  Li  Li30  1  0.71674143  0.17550767  0.47218376  1
  Li  Li31  1  0.78325857  0.82449233  0.97218376  1
  Li  Li32  1  0.71674143  0.32449233  0.47218376  1
  Li  Li33  1  0.78325857  0.67550767  0.97218376  1
  Li  Li34  1  0.28325857  0.82449233  0.52781624  1
  Li  Li35  1  0.21674143  0.17550767  0.02781624  1
  Li  Li36  1  0.46197353  0.35964109  0.92224869  1
  Li  Li37  1  0.03802647  0.64035891  0.42224869  1
  Li  Li38  1  0.53802647  0.85964109  0.07775131  1
  Li  Li39  1  0.96197353  0.14035891  0.57775131  1
  Li  Li40  1  0.53802647  0.64035891  0.07775131  1
  Li  Li41  1  0.96197353  0.35964109  0.57775131  1
  Li  Li42  1  0.46197353  0.14035891  0.92224869  1
  Li  Li43  1  0.03802647  0.85964109  0.42224869  1
  Li  Li44  1  0.02199161  0.25000000  0.80229615  1
  Li  Li45  1  0.47800839  0.75000000  0.30229615  1
  Li  Li46  1  0.97800839  0.75000000  0.19770385  1
  Li  Li47  1  0.52199161  0.25000000  0.69770385  1
