# generated using pymatgen
data_LiF
_symmetry_space_group_name_H-M   'P 1'
_cell_length_a   8.92223980
_cell_length_b   9.20025375
_cell_length_c   7.41745124
_cell_angle_alpha   90.00000000
_cell_angle_beta   90.00000000
_cell_angle_gamma   90.00000000
_symmetry_Int_Tables_number   1
_chemical_formula_structural   LiF
_chemical_formula_sum   'Li24 F24'
_cell_volume   608.87535743
_cell_formula_units_Z   24
loop_
 _symmetry_equiv_pos_site_id
 _symmetry_equiv_pos_as_xyz
  1  'x, y, z'
loop_
 _atom_site_type_symbol
 _atom_site_label
 _atom_site_symmetry_multiplicity
 _atom_site_fract_x
 _atom_site_fract_y
 _atom_site_fract_z
 _atom_site_occupancy
  F  F0  1  0.40936721  0.25000000  0.83987856  1
  F  F1  1  0.09063279  0.75000000  0.33987856  1
  F  F2  1  0.59063279  0.75000000  0.16012144  1
  F  F3  1  0.90936721  0.25000000  0.66012144  1
  F  F4  1  0.64424110  0.25000000  0.66522548  1
  F  F5  1  0.85575890  0.75000000  0.16522548  1
  F  F6  1  0.35575890  0.75000000  0.33477452  1
  F  F7  1  0.14424110  0.25000000  0.83477452  1
  F  F8  1  0.80927501  0.25000000  0.67325752  1
  F  F9  1  0.69072499  0.75000000  0.17325752  1
  F  F10  1  0.19072499  0.75000000  0.32674248  1
  F  F11  1  0.30927501  0.25000000  0.82674248  1
  F  F12  1  0.30271356  0.52833051  0.33865433  1
  F  F13  1  0.19728644  0.47166949  0.83865433  1
  F  F14  1  0.69728644  0.02833051  0.66134567  1
  F  F15  1  0.80271356  0.97166949  0.16134567  1
  F  F16  1  0.69728644  0.47166949  0.66134567  1
  F  F17  1  0.80271356  0.52833051  0.16134567  1
  F  F18  1  0.30271356  0.97166949  0.33865433  1
  F  F19  1  0.19728644  0.02833051  0.83865433  1
  F  F20  1  0.99066795  0.25000000  0.47188169  1
  F  F21  1  0.50933205  0.75000000  0.97188169  1
  F  F22  1  0.00933205  0.75000000  0.52811831  1
  F  F23  1  0.49066795  0.25000000  0.02811831  1
  Li  Li24  1  0.00000000  0.00000000  0.50000000  1
  Li  Li25  1  0.50000000  0.00000000  0.00000000  1
  Li  Li26  1  0.00000000  0.50000000  0.50000000  1
  Li  Li27  1  0.50000000  0.50000000  0.00000000  1
  Li  Li28  1  0.35163392  0.63446354  0.79914944  1
  Li  Li29  1  0.14836608  -0.63446354  1.29914944  1
  Li  Li30  1  -0.35163392  1.13446354  -0.79914944  1
  Li  Li31  1  0.85163392  -0.13446354  -0.29914944  1
  Li  Li32  1  -0.35163392  -0.63446354  -0.79914944  1
  Li  Li33  1  0.85163392  0.63446354  -0.29914944  1
  Li  Li34  1  0.35163392  -0.13446354  0.79914944  1
  Li  Li35  1  0.14836608  1.13446354  1.29914944  1
  Li  Li36  1  0.91590942  0.52015532  0.95696571  1
  Li  Li37  1  0.58409058  0.47984468  0.45696571  1
  Li  Li38  1  0.08409058  0.02015532  0.04303429  1
  Li  Li39  1  0.41590942  0.97984468  0.54303429  1
  Li  Li40  1  0.08409058  0.47984468  0.04303429  1
  Li  Li41  1  0.41590942  0.52015532  0.54303429  1
  Li  Li42  1  0.91590942  0.97984468  0.95696571  1
  Li  Li43  1  0.58409058  0.02015532  0.45696571  1
  Li  Li44  1  0.22948915  0.25000000  0.20024544  1
  Li  Li45  1  0.27051085  0.75000000  0.70024544  1
  Li  Li46  1  0.77051085  0.75000000  0.79975456  1
  Li  Li47  1  0.72948915  0.25000000  0.29975456  1
