# generated using pymatgen
data_LiF
_symmetry_space_group_name_H-M   'P 1'
_cell_length_a   15.12664948
_cell_length_b   7.28355899
_cell_length_c   6.96958408
_cell_angle_alpha   90.00000000
_cell_angle_beta   90.00000000
_cell_angle_gamma   90.00000000
_symmetry_Int_Tables_number   1
_chemical_formula_structural   LiF
_chemical_formula_sum   'Li32 F32'
_cell_volume   767.87980769
_cell_formula_units_Z   32
loop_
 _symmetry_equiv_pos_site_id
 _symmetry_equiv_pos_as_xyz
  1  'x, y, z'
loop_
 _atom_site_type_symbol
 _atom_site_label
 _atom_site_symmetry_multiplicity
 _atom_site_fract_x
 _atom_site_fract_y
 _atom_site_fract_z
 _atom_site_occupancy
  F  F0  1  0.00000000  0.00000000  0.90008775  1
  F  F1  1  0.50000000  0.50000000  0.09991225  1
  F  F2  1  0.00000000  0.00000000  0.09991225  1
  F  F3  1  0.50000000  0.50000000  0.90008775  1
  F  F4  1  0.14476641  0.54427352  0.50000000  1
  F  F5  1  0.85523359  0.45572648  0.50000000  1
  F  F6  1  0.35523359  0.04427352  0.50000000  1
  F  F7  1  0.64476641  0.95572648  0.50000000  1
  F  F8  1  0.72717176  0.97878787  0.00000000  1
  F  F9  1  0.27282824  0.02121213  0.00000000  1
  F  F10  1  0.77282824  0.47878787  -0.00000000  1
  F  F11  1  0.22717176  0.52121213  0.00000000  1
  F  F12  1  0.33728246  0.42213088  0.43687945  1
  F  F13  1  -0.33728246  -0.42213088  0.43687945  1
  F  F14  1  0.16271754  0.92213088  -0.43687945  1
  F  F15  1  0.83728246  0.07786912  -0.43687945  1
  F  F16  1  -0.33728246  -0.42213088  -0.43687945  1
  F  F17  1  0.33728246  0.42213088  -0.43687945  1
  F  F18  1  0.83728246  0.07786912  0.43687945  1
  F  F19  1  0.16271754  0.92213088  0.43687945  1
  F  F20  1  0.48068496  0.21945750  0.00000000  1
  F  F21  1  0.51931504  0.78054250  0.00000000  1
  F  F22  1  0.01931504  0.71945750  0.00000000  1
  F  F23  1  0.98068496  0.28054250  0.00000000  1
  F  F24  1  0.00000000  0.00000000  0.50000000  1
  F  F25  1  0.50000000  0.50000000  0.50000000  1
  F  F26  1  0.50136147  0.08559418  0.00000000  1
  F  F27  1  0.49863853  0.91440582  0.00000000  1
  F  F28  1  0.99863853  0.58559418  0.00000000  1
  F  F29  1  0.00136147  0.41440582  0.00000000  1
  F  F30  1  0.00000000  0.50000000  0.50000000  1
  F  F31  1  0.50000000  0.00000000  0.50000000  1
  Li  Li32  1  0.27016782  0.87772653  0.50000000  1
  Li  Li33  1  0.72983218  0.12227347  0.50000000  1
  Li  Li34  1  0.22983218  0.37772653  0.50000000  1
  Li  Li35  1  0.77016782  0.62227347  0.50000000  1
  Li  Li36  1  0.18128658  0.20717262  0.84464583  1
  Li  Li37  1  0.81871342  0.79282738  0.84464583  1
  Li  Li38  1  0.31871342  0.70717262  0.15535417  1
  Li  Li39  1  0.68128658  0.29282738  0.15535417  1
  Li  Li40  1  0.81871342  0.79282738  0.15535417  1
  Li  Li41  1  0.18128658  0.20717262  0.15535417  1
  Li  Li42  1  0.68128658  0.29282738  0.84464583  1
  Li  Li43  1  0.31871342  0.70717262  0.84464583  1
  Li  Li44  1  0.62539966  0.63324034  0.85216574  1
  Li  Li45  1  0.37460034  0.36675966  0.85216574  1
  Li  Li46  1  0.87460034  0.13324034  0.14783426  1
  Li  Li47  1  0.12539966  0.86675966  0.14783426  1
  Li  Li48  1  0.37460034  0.36675966  0.14783426  1
  Li  Li49  1  0.62539966  0.63324034  0.14783426  1
  Li  Li50  1  0.12539966  0.86675966  0.85216574  1
  Li  Li51  1  0.87460034  0.13324034  0.85216574  1
  Li  Li52  1  0.85710873  0.73024166  0.50000000  1
  Li  Li53  1  0.14289127  0.26975834  0.50000000  1
  Li  Li54  1  0.64289127  0.23024166  0.50000000  1
  Li  Li55  1  0.35710873  0.76975834  0.50000000  1
  Li  Li56  1  0.90960237  0.83592522  0.72304562  1
  Li  Li57  1  0.09039763  0.16407478  0.72304562  1
  Li  Li58  1  0.59039763  0.33592522  0.27695438  1
  Li  Li59  1  0.40960237  0.66407478  0.27695438  1
  Li  Li60  1  0.09039763  0.16407478  0.27695438  1
  Li  Li61  1  0.90960237  0.83592522  0.27695438  1
  Li  Li62  1  0.40960237  0.66407478  0.72304562  1
  Li  Li63  1  0.59039763  0.33592522  0.72304562  1
