# generated using pymatgen
data_Li4TeF2
_symmetry_space_group_name_H-M   'P 1'
_cell_length_a   12.89022251
_cell_length_b   12.89022251
_cell_length_c   16.72363225
_cell_angle_alpha   90.00000000
_cell_angle_beta   90.00000000
_cell_angle_gamma   90.00000000
_symmetry_Int_Tables_number   1
_chemical_formula_structural   Li4TeF2
_chemical_formula_sum   'Li96 Te24 F48'
_cell_volume   2778.76255022
_cell_formula_units_Z   24
loop_
 _symmetry_equiv_pos_site_id
 _symmetry_equiv_pos_as_xyz
  1  'x, y, z'
loop_
 _atom_site_type_symbol
 _atom_site_label
 _atom_site_symmetry_multiplicity
 _atom_site_fract_x
 _atom_site_fract_y
 _atom_site_fract_z
 _atom_site_occupancy
  F  F0  1  0.65411391  0.12662361  0.50000000  1
  F  F1  1  0.34588609  0.87337639  0.50000000  1
  F  F2  1  0.87337639  0.65411391  0.50000000  1
  F  F3  1  0.12662361  0.34588609  0.50000000  1
  F  F4  1  0.34588609  0.12662361  0.50000000  1
  F  F5  1  0.65411391  0.87337639  0.50000000  1
  F  F6  1  0.12662361  0.65411391  0.50000000  1
  F  F7  1  0.87337639  0.34588609  0.50000000  1
  F  F8  1  0.65726118  0.65726118  0.23183941  1
  F  F9  1  0.34273882  0.34273882  0.23183941  1
  F  F10  1  0.34273882  0.65726118  0.23183941  1
  F  F11  1  0.65726118  0.34273882  0.23183941  1
  F  F12  1  0.34273882  0.65726118  0.76816059  1
  F  F13  1  0.65726118  0.34273882  0.76816059  1
  F  F14  1  0.65726118  0.65726118  0.76816059  1
  F  F15  1  0.34273882  0.34273882  0.76816059  1
  F  F16  1  0.58003999  0.50000000  0.50000000  1
  F  F17  1  0.41996001  0.50000000  0.50000000  1
  F  F18  1  0.50000000  0.58003999  0.50000000  1
  F  F19  1  0.50000000  0.41996001  0.50000000  1
  F  F20  1  0.08033280  0.35858059  0.35298167  1
  F  F21  1  -0.08033280  -0.35858059  0.35298167  1
  F  F22  1  -0.35858059  0.08033280  0.35298167  1
  F  F23  1  0.35858059  -0.08033280  0.35298167  1
  F  F24  1  -0.08033280  0.35858059  -0.35298167  1
  F  F25  1  0.08033280  -0.35858059  -0.35298167  1
  F  F26  1  0.35858059  0.08033280  -0.35298167  1
  F  F27  1  -0.35858059  -0.08033280  -0.35298167  1
  F  F28  1  -0.08033280  -0.35858059  -0.35298167  1
  F  F29  1  0.08033280  0.35858059  -0.35298167  1
  F  F30  1  0.35858059  -0.08033280  -0.35298167  1
  F  F31  1  -0.35858059  0.08033280  -0.35298167  1
  F  F32  1  0.08033280  -0.35858059  0.35298167  1
  F  F33  1  -0.08033280  0.35858059  0.35298167  1
  F  F34  1  -0.35858059  -0.08033280  0.35298167  1
  F  F35  1  0.35858059  0.08033280  0.35298167  1
  F  F36  1  0.31751785  0.50000000  0.00000000  1
  F  F37  1  0.68248215  0.50000000  0.00000000  1
  F  F38  1  0.50000000  0.31751785  0.00000000  1
  F  F39  1  0.50000000  0.68248215  0.00000000  1
  F  F40  1  0.84004814  0.84004814  0.34018847  1
  F  F41  1  0.15995186  0.15995186  0.34018847  1
  F  F42  1  0.15995186  0.84004814  0.34018847  1
  F  F43  1  0.84004814  0.15995186  0.34018847  1
  F  F44  1  0.15995186  0.84004814  0.65981153  1
  F  F45  1  0.84004814  0.15995186  0.65981153  1
  F  F46  1  0.84004814  0.84004814  0.65981153  1
  F  F47  1  0.15995186  0.15995186  0.65981153  1
  Li  Li48  1  0.87566895  0.87566895  0.91487069  1
  Li  Li49  1  0.12433105  0.12433105  0.91487069  1
  Li  Li50  1  0.12433105  0.87566895  0.91487069  1
  Li  Li51  1  0.87566895  0.12433105  0.91487069  1
  Li  Li52  1  0.12433105  0.87566895  0.08512931  1
  Li  Li53  1  0.87566895  0.12433105  0.08512931  1
  Li  Li54  1  0.87566895  0.87566895  0.08512931  1
  Li  Li55  1  0.12433105  0.12433105  0.08512931  1
  Li  Li56  1  0.25434684  0.25434684  0.50000000  1
  Li  Li57  1  0.74565316  0.74565316  0.50000000  1
  Li  Li58  1  0.74565316  0.25434684  0.50000000  1
  Li  Li59  1  0.25434684  0.74565316  0.50000000  1
  Li  Li60  1  0.44717564  0.44717564  0.57172524  1
  Li  Li61  1  0.55282436  0.55282436  0.57172524  1
  Li  Li62  1  0.55282436  0.44717564  0.57172524  1
  Li  Li63  1  0.44717564  0.55282436  0.57172524  1
  Li  Li64  1  0.55282436  0.44717564  0.42827476  1
  Li  Li65  1  0.44717564  0.55282436  0.42827476  1
  Li  Li66  1  0.44717564  0.44717564  0.42827476  1
  Li  Li67  1  0.55282436  0.55282436  0.42827476  1
  Li  Li68  1  0.50000000  0.50000000  0.50000000  1
  Li  Li69  1  0.18367550  0.50000000  0.74713843  1
  Li  Li70  1  0.81632450  0.50000000  0.74713843  1
  Li  Li71  1  0.50000000  0.18367550  0.74713843  1
  Li  Li72  1  0.50000000  0.81632450  0.74713843  1
  Li  Li73  1  0.81632450  0.50000000  0.25286157  1
  Li  Li74  1  0.18367550  0.50000000  0.25286157  1
  Li  Li75  1  0.50000000  0.18367550  0.25286157  1
  Li  Li76  1  0.50000000  0.81632450  0.25286157  1
  Li  Li77  1  0.62595858  0.07994293  0.90104334  1
  Li  Li78  1  0.37404142  0.92005707  0.90104334  1
  Li  Li79  1  0.92005707  0.62595858  0.90104334  1
  Li  Li80  1  0.07994293  0.37404142  0.90104334  1
  Li  Li81  1  0.37404142  0.07994293  0.09895666  1
  Li  Li82  1  0.62595858  0.92005707  0.09895666  1
  Li  Li83  1  0.07994293  0.62595858  0.09895666  1
  Li  Li84  1  0.92005707  0.37404142  0.09895666  1
  Li  Li85  1  0.37404142  0.92005707  0.09895666  1
  Li  Li86  1  0.62595858  0.07994293  0.09895666  1
  Li  Li87  1  0.07994293  0.37404142  0.09895666  1
  Li  Li88  1  0.92005707  0.62595858  0.09895666  1
  Li  Li89  1  0.62595858  0.92005707  0.90104334  1
  Li  Li90  1  0.37404142  0.07994293  0.90104334  1
  Li  Li91  1  0.92005707  0.37404142  0.90104334  1
  Li  Li92  1  0.07994293  0.62595858  0.90104334  1
  Li  Li93  1  0.61144020  0.61144020  0.19107259  1
  Li  Li94  1  0.38855980  0.38855980  0.19107259  1
  Li  Li95  1  0.38855980  0.61144020  0.19107259  1
  Li  Li96  1  0.61144020  0.38855980  0.19107259  1
  Li  Li97  1  0.38855980  0.61144020  0.80892741  1
  Li  Li98  1  0.61144020  0.38855980  0.80892741  1
  Li  Li99  1  0.61144020  0.61144020  0.80892741  1
  Li  Li100  1  0.38855980  0.38855980  0.80892741  1
  Li  Li101  1  0.85761617  0.41034613  0.24241175  1
  Li  Li102  1  0.14238383  0.58965387  0.24241175  1
  Li  Li103  1  0.58965387  0.85761617  0.24241175  1
  Li  Li104  1  0.41034613  0.14238383  0.24241175  1
  Li  Li105  1  0.14238383  0.41034613  0.75758825  1
  Li  Li106  1  0.85761617  0.58965387  0.75758825  1
  Li  Li107  1  0.41034613  0.85761617  0.75758825  1
  Li  Li108  1  0.58965387  0.14238383  0.75758825  1
  Li  Li109  1  0.14238383  0.58965387  0.75758825  1
  Li  Li110  1  0.85761617  0.41034613  0.75758825  1
  Li  Li111  1  0.41034613  0.14238383  0.75758825  1
  Li  Li112  1  0.58965387  0.85761617  0.75758825  1
  Li  Li113  1  0.85761617  0.58965387  0.24241175  1
  Li  Li114  1  0.14238383  0.41034613  0.24241175  1
  Li  Li115  1  0.58965387  0.14238383  0.24241175  1
  Li  Li116  1  0.41034613  0.85761617  0.24241175  1
  Li  Li117  1  0.90550154  0.50000000  0.34628679  1
  Li  Li118  1  0.09449846  0.50000000  0.34628679  1
  Li  Li119  1  0.50000000  0.90550154  0.34628679  1
  Li  Li120  1  0.50000000  0.09449846  0.34628679  1
  Li  Li121  1  0.09449846  0.50000000  0.65371321  1
  Li  Li122  1  0.90550154  0.50000000  0.65371321  1
  Li  Li123  1  0.50000000  0.90550154  0.65371321  1
  Li  Li124  1  0.50000000  0.09449846  0.65371321  1
  Li  Li125  1  0.32816620  0.81814559  0.09066108  1
  Li  Li126  1  0.67183380  0.18185441  0.09066108  1
  Li  Li127  1  0.18185441  0.32816620  0.09066108  1
  Li  Li128  1  0.81814559  0.67183380  0.09066108  1
  Li  Li129  1  0.67183380  0.81814559  0.90933892  1
  Li  Li130  1  0.32816620  0.18185441  0.90933892  1
  Li  Li131  1  0.81814559  0.32816620  0.90933892  1
  Li  Li132  1  0.18185441  0.67183380  0.90933892  1
  Li  Li133  1  0.67183380  0.18185441  0.90933892  1
  Li  Li134  1  0.32816620  0.81814559  0.90933892  1
  Li  Li135  1  0.81814559  0.67183380  0.90933892  1
  Li  Li136  1  0.18185441  0.32816620  0.90933892  1
  Li  Li137  1  0.32816620  0.18185441  0.09066108  1
  Li  Li138  1  0.67183380  0.81814559  0.09066108  1
  Li  Li139  1  0.18185441  0.67183380  0.09066108  1
  Li  Li140  1  0.81814559  0.32816620  0.09066108  1
  Li  Li141  1  0.50000000  0.50000000  0.91401677  1
  Li  Li142  1  0.50000000  0.50000000  0.08598323  1
  Li  Li143  1  0.00000000  0.00000000  0.50000000  1
  Te  Te144  1  0.35266776  0.15516038  0.82821782  1
  Te  Te145  1  0.64733224  0.84483962  0.82821782  1
  Te  Te146  1  0.84483962  0.35266776  0.82821782  1
  Te  Te147  1  0.15516038  0.64733224  0.82821782  1
  Te  Te148  1  0.64733224  0.15516038  0.17178218  1
  Te  Te149  1  0.35266776  0.84483962  0.17178218  1
  Te  Te150  1  0.15516038  0.35266776  0.17178218  1
  Te  Te151  1  0.84483962  0.64733224  0.17178218  1
  Te  Te152  1  0.64733224  0.84483962  0.17178218  1
  Te  Te153  1  0.35266776  0.15516038  0.17178218  1
  Te  Te154  1  0.15516038  0.64733224  0.17178218  1
  Te  Te155  1  0.84483962  0.35266776  0.17178218  1
  Te  Te156  1  0.35266776  0.84483962  0.82821782  1
  Te  Te157  1  0.64733224  0.15516038  0.82821782  1
  Te  Te158  1  0.84483962  0.64733224  0.82821782  1
  Te  Te159  1  0.15516038  0.35266776  0.82821782  1
  Te  Te160  1  0.33653824  0.50000000  0.66301034  1
  Te  Te161  1  0.66346176  0.50000000  0.66301034  1
  Te  Te162  1  0.50000000  0.33653824  0.66301034  1
  Te  Te163  1  0.50000000  0.66346176  0.66301034  1
  Te  Te164  1  0.66346176  0.50000000  0.33698966  1
  Te  Te165  1  0.33653824  0.50000000  0.33698966  1
  Te  Te166  1  0.50000000  0.33653824  0.33698966  1
  Te  Te167  1  0.50000000  0.66346176  0.33698966  1
