# generated using pymatgen
data_LiF
_symmetry_space_group_name_H-M   'P 1'
_cell_length_a   5.71093350
_cell_length_b   5.71093350
_cell_length_c   6.29082919
_cell_angle_alpha   90.00000000
_cell_angle_beta   90.00000000
_cell_angle_gamma   120.00000000
_symmetry_Int_Tables_number   1
_chemical_formula_structural   LiF
_chemical_formula_sum   'Li12 F12'
_cell_volume   177.68580381
_cell_formula_units_Z   12
loop_
 _symmetry_equiv_pos_site_id
 _symmetry_equiv_pos_as_xyz
  1  'x, y, z'
loop_
 _atom_site_type_symbol
 _atom_site_label
 _atom_site_symmetry_multiplicity
 _atom_site_fract_x
 _atom_site_fract_y
 _atom_site_fract_z
 _atom_site_occupancy
  F  F0  1  0.15811518  0.42639704  0.84355845  1
  F  F1  1  -0.42639704  -0.26828186  0.84355845  1
  F  F2  1  0.26828186  -0.15811518  0.84355845  1
  F  F3  1  -0.42639704  -0.15811518  -0.84355845  1
  F  F4  1  0.26828186  0.42639704  -0.84355845  1
  F  F5  1  0.15811518  -0.26828186  -0.84355845  1
  F  F6  1  0.38588919  0.57294142  0.17888795  1
  F  F7  1  0.42705858  0.81294778  0.17888795  1
  F  F8  1  0.18705222  0.61411081  0.17888795  1
  F  F9  1  0.42705858  0.61411081  0.82111205  1
  F  F10  1  0.18705222  0.57294142  0.82111205  1
  F  F11  1  0.38588919  0.81294778  0.82111205  1
  Li  Li12  1  0.20567170  0.79432830  0.50000000  1
  Li  Li13  1  0.20567170  0.41134339  0.50000000  1
  Li  Li14  1  0.58865661  0.79432830  0.50000000  1
  Li  Li15  1  0.00000000  0.00000000  0.35344780  1
  Li  Li16  1  0.00000000  0.00000000  0.64655220  1
  Li  Li17  1  0.88031716  0.71818296  0.34278550  1
  Li  Li18  1  0.28181704  0.16213420  0.34278550  1
  Li  Li19  1  0.83786580  0.11968284  0.34278550  1
  Li  Li20  1  0.28181704  0.11968284  0.65721450  1
  Li  Li21  1  0.83786580  0.71818296  0.65721450  1
  Li  Li22  1  0.88031716  0.16213420  0.65721450  1
  Li  Li23  1  0.66666667  0.33333333  0.50000000  1
