# generated using pymatgen
data_Li2TiAlO
_symmetry_space_group_name_H-M   'P 1'
_cell_length_a   3.43671314
_cell_length_b   3.22627077
_cell_length_c   5.26716634
_cell_angle_alpha   94.12848543
_cell_angle_beta   106.71936158
_cell_angle_gamma   111.18708408
_symmetry_Int_Tables_number   1
_chemical_formula_structural   Li2TiAlO
_chemical_formula_sum   'Li2 Ti1 Al1 O1'
_cell_volume   51.12895494
_cell_formula_units_Z   1
loop_
 _symmetry_equiv_pos_site_id
 _symmetry_equiv_pos_as_xyz
  1  'x, y, z'
loop_
 _atom_site_type_symbol
 _atom_site_label
 _atom_site_symmetry_multiplicity
 _atom_site_fract_x
 _atom_site_fract_y
 _atom_site_fract_z
 _atom_site_occupancy
  Al  Al0  1  0.12500000  0.00000000  0.25000000  1
  Li  Li1  1  0.00000000  0.00000000  0.00000000  1
  Li  Li2  1  0.37500000  0.00000000  0.25000000  1
  O  O3  1  0.25000000  0.25000000  0.25000000  1
  Ti  Ti4  1  0.00000000  0.25000000  0.12500000  1
