# generated using pymatgen
data_LiF
_symmetry_space_group_name_H-M   'P 1'
_cell_length_a   13.33099478
_cell_length_b   9.74484463
_cell_length_c   12.55536591
_cell_angle_alpha   90.00000000
_cell_angle_beta   90.00000000
_cell_angle_gamma   90.00000000
_symmetry_Int_Tables_number   1
_chemical_formula_structural   LiF
_chemical_formula_sum   'Li52 F52'
_cell_volume   1631.04841356
_cell_formula_units_Z   52
loop_
 _symmetry_equiv_pos_site_id
 _symmetry_equiv_pos_as_xyz
  1  'x, y, z'
loop_
 _atom_site_type_symbol
 _atom_site_label
 _atom_site_symmetry_multiplicity
 _atom_site_fract_x
 _atom_site_fract_y
 _atom_site_fract_z
 _atom_site_occupancy
  F  F0  1  0.81096250  0.50127968  0.96724856  1
  F  F1  1  0.68903750  0.49872032  0.46724856  1
  F  F2  1  0.18903750  0.00127968  0.03275144  1
  F  F3  1  0.31096250  0.99872032  0.53275144  1
  F  F4  1  0.18903750  0.49872032  0.03275144  1
  F  F5  1  0.31096250  0.50127968  0.53275144  1
  F  F6  1  0.81096250  0.99872032  0.96724856  1
  F  F7  1  0.68903750  0.00127968  0.46724856  1
  F  F8  1  0.55699200  0.87742879  0.93248573  1
  F  F9  1  0.94300800  0.12257121  0.43248573  1
  F  F10  1  0.44300800  0.37742879  0.06751427  1
  F  F11  1  0.05699200  0.62257121  0.56751427  1
  F  F12  1  0.44300800  0.12257121  0.06751427  1
  F  F13  1  0.05699200  0.87742879  0.56751427  1
  F  F14  1  0.55699200  0.62257121  0.93248573  1
  F  F15  1  0.94300800  0.37742879  0.43248573  1
  F  F16  1  0.21264890  0.94072532  0.09574428  1
  F  F17  1  0.28735110  0.05927468  0.59574428  1
  F  F18  1  0.78735110  0.44072532  0.90425572  1
  F  F19  1  0.71264890  0.55927468  0.40425572  1
  F  F20  1  0.78735110  0.05927468  0.90425572  1
  F  F21  1  0.71264890  0.94072532  0.40425572  1
  F  F22  1  0.21264890  0.55927468  0.09574428  1
  F  F23  1  0.28735110  0.44072532  0.59574428  1
  F  F24  1  0.01908991  0.10697569  0.44836314  1
  F  F25  1  0.48091009  0.89302431  0.94836314  1
  F  F26  1  0.98091009  0.60697569  0.55163686  1
  F  F27  1  0.51908991  0.39302431  0.05163686  1
  F  F28  1  0.98091009  0.89302431  0.55163686  1
  F  F29  1  0.51908991  0.10697569  0.05163686  1
  F  F30  1  0.01908991  0.39302431  0.44836314  1
  F  F31  1  0.48091009  0.60697569  0.94836314  1
  F  F32  1  0.76480656  0.63977847  0.19354817  1
  F  F33  1  0.73519344  0.36022153  0.69354817  1
  F  F34  1  0.23519344  0.13977847  0.80645183  1
  F  F35  1  0.26480656  0.86022153  0.30645183  1
  F  F36  1  0.23519344  0.36022153  0.80645183  1
  F  F37  1  0.26480656  0.63977847  0.30645183  1
  F  F38  1  0.76480656  0.86022153  0.19354817  1
  F  F39  1  0.73519344  0.13977847  0.69354817  1
  F  F40  1  0.00000000  0.00000000  0.00000000  1
  F  F41  1  0.50000000  0.00000000  0.50000000  1
  F  F42  1  0.00000000  0.50000000  0.00000000  1
  F  F43  1  0.50000000  0.50000000  0.50000000  1
  F  F44  1  0.70431775  0.11229011  0.45422345  1
  F  F45  1  0.79568225  0.88770989  0.95422345  1
  F  F46  1  0.29568225  0.61229011  0.54577655  1
  F  F47  1  0.20431775  0.38770989  0.04577655  1
  F  F48  1  0.29568225  0.88770989  0.54577655  1
  F  F49  1  0.20431775  0.11229011  0.04577655  1
  F  F50  1  0.70431775  0.38770989  0.45422345  1
  F  F51  1  0.79568225  0.61229011  0.95422345  1
  Li  Li52  1  0.08494178  0.00359878  0.42531053  1
  Li  Li53  1  0.41505822  -0.00359878  0.92531053  1
  Li  Li54  1  -0.08494178  0.50359878  -0.42531053  1
  Li  Li55  1  0.58494178  0.49640122  0.07468947  1
  Li  Li56  1  -0.08494178  -0.00359878  -0.42531053  1
  Li  Li57  1  0.58494178  0.00359878  0.07468947  1
  Li  Li58  1  0.08494178  0.49640122  0.42531053  1
  Li  Li59  1  0.41505822  0.50359878  0.92531053  1
  Li  Li60  1  0.57788383  0.91823908  0.45274976  1
  Li  Li61  1  0.92211617  0.08176092  0.95274976  1
  Li  Li62  1  0.42211617  0.41823908  0.54725024  1
  Li  Li63  1  0.07788383  0.58176092  0.04725024  1
  Li  Li64  1  0.42211617  0.08176092  0.54725024  1
  Li  Li65  1  0.07788383  0.91823908  0.04725024  1
  Li  Li66  1  0.57788383  0.58176092  0.45274976  1
  Li  Li67  1  0.92211617  0.41823908  0.95274976  1
  Li  Li68  1  0.43928505  0.97801868  0.45761993  1
  Li  Li69  1  0.06071495  0.02198132  0.95761993  1
  Li  Li70  1  0.56071495  0.47801868  0.54238007  1
  Li  Li71  1  0.93928505  0.52198132  0.04238007  1
  Li  Li72  1  0.56071495  0.02198132  0.54238007  1
  Li  Li73  1  0.93928505  0.97801868  0.04238007  1
  Li  Li74  1  0.43928505  0.52198132  0.45761993  1
  Li  Li75  1  0.06071495  0.47801868  0.95761993  1
  Li  Li76  1  0.92457670  0.36919867  0.54737596  1
  Li  Li77  1  0.57542330  0.63080133  0.04737596  1
  Li  Li78  1  0.07542330  0.86919867  0.45262404  1
  Li  Li79  1  0.42457670  0.13080133  0.95262404  1
  Li  Li80  1  0.07542330  0.63080133  0.45262404  1
  Li  Li81  1  0.42457670  0.36919867  0.95262404  1
  Li  Li82  1  0.92457670  0.13080133  0.54737596  1
  Li  Li83  1  0.57542330  0.86919867  0.04737596  1
  Li  Li84  1  0.00000000  0.00000000  0.50000000  1
  Li  Li85  1  0.50000000  0.00000000  0.00000000  1
  Li  Li86  1  0.00000000  0.50000000  0.50000000  1
  Li  Li87  1  0.50000000  0.50000000  0.00000000  1
  Li  Li88  1  0.06367329  0.57652178  0.20554852  1
  Li  Li89  1  0.43632671  0.42347822  0.70554852  1
  Li  Li90  1  0.93632671  0.07652178  0.79445148  1
  Li  Li91  1  0.56367329  0.92347822  0.29445148  1
  Li  Li92  1  0.93632671  0.42347822  0.79445148  1
  Li  Li93  1  0.56367329  0.57652178  0.29445148  1
  Li  Li94  1  0.06367329  0.92347822  0.20554852  1
  Li  Li95  1  0.43632671  0.07652178  0.70554852  1
  Li  Li96  1  0.77962889  0.36904310  0.76518979  1
  Li  Li97  1  0.72037111  0.63095690  0.26518979  1
  Li  Li98  1  0.22037111  0.86904310  0.23481021  1
  Li  Li99  1  0.27962889  0.13095690  0.73481021  1
  Li  Li100  1  0.22037111  0.63095690  0.23481021  1
  Li  Li101  1  0.27962889  0.36904310  0.73481021  1
  Li  Li102  1  0.77962889  0.13095690  0.76518979  1
  Li  Li103  1  0.72037111  0.86904310  0.26518979  1
