# generated using pymatgen
data_LiCaF3
_symmetry_space_group_name_H-M   'P 1'
_cell_length_a   14.99192388
_cell_length_b   14.99192388
_cell_length_c   7.28552553
_cell_angle_alpha   90.00000000
_cell_angle_beta   90.00000000
_cell_angle_gamma   120.00000000
_symmetry_Int_Tables_number   1
_chemical_formula_structural   LiCaF3
_chemical_formula_sum   'Li18 Ca18 F54'
_cell_volume   1418.09802651
_cell_formula_units_Z   18
loop_
 _symmetry_equiv_pos_site_id
 _symmetry_equiv_pos_as_xyz
  1  'x, y, z'
loop_
 _atom_site_type_symbol
 _atom_site_label
 _atom_site_symmetry_multiplicity
 _atom_site_fract_x
 _atom_site_fract_y
 _atom_site_fract_z
 _atom_site_occupancy
  Ca  Ca0  1  0.73602411  0.00000000  0.25000000  1
  Ca  Ca1  1  0.00000000  0.73602411  0.25000000  1
  Ca  Ca2  1  0.26397589  0.26397589  0.25000000  1
  Ca  Ca3  1  0.26397589  0.00000000  0.75000000  1
  Ca  Ca4  1  0.00000000  0.26397589  0.75000000  1
  Ca  Ca5  1  0.73602411  0.73602411  0.75000000  1
  Ca  Ca6  1  0.40269078  0.33333333  0.58333333  1
  Ca  Ca7  1  0.66666667  0.06935744  0.58333333  1
  Ca  Ca8  1  0.93064256  0.59730922  0.58333333  1
  Ca  Ca9  1  0.93064256  0.33333333  0.08333333  1
  Ca  Ca10  1  0.66666667  0.59730922  0.08333333  1
  Ca  Ca11  1  0.40269078  0.06935744  0.08333333  1
  Ca  Ca12  1  0.06935744  0.66666667  0.91666667  1
  Ca  Ca13  1  0.33333333  0.40269078  0.91666667  1
  Ca  Ca14  1  0.59730922  0.93064256  0.91666667  1
  Ca  Ca15  1  0.59730922  0.66666667  0.41666667  1
  Ca  Ca16  1  0.33333333  0.93064256  0.41666667  1
  Ca  Ca17  1  0.06935744  0.40269078  0.41666667  1
  F  F18  1  0.50000000  0.00000000  0.00000000  1
  F  F19  1  0.00000000  0.50000000  0.00000000  1
  F  F20  1  0.50000000  0.50000000  0.00000000  1
  F  F21  1  0.00000000  0.50000000  0.50000000  1
  F  F22  1  0.50000000  0.00000000  0.50000000  1
  F  F23  1  0.50000000  0.50000000  0.50000000  1
  F  F24  1  0.16666667  0.33333333  0.33333333  1
  F  F25  1  0.66666667  0.83333333  0.33333333  1
  F  F26  1  0.16666667  0.83333333  0.33333333  1
  F  F27  1  0.66666667  0.83333333  0.83333333  1
  F  F28  1  0.16666667  0.33333333  0.83333333  1
  F  F29  1  0.16666667  0.83333333  0.83333333  1
  F  F30  1  0.83333333  0.66666667  0.66666667  1
  F  F31  1  0.33333333  0.16666667  0.66666667  1
  F  F32  1  0.83333333  0.16666667  0.66666667  1
  F  F33  1  0.33333333  0.16666667  0.16666667  1
  F  F34  1  0.83333333  0.66666667  0.16666667  1
  F  F35  1  0.83333333  0.16666667  0.16666667  1
  F  F36  1  0.23060939  0.95679886  0.59313282  1
  F  F37  1  -0.95679886  -0.72618947  0.59313282  1
  F  F38  1  0.72618947  -0.23060939  0.59313282  1
  F  F39  1  0.95679886  0.23060939  -0.09313282  1
  F  F40  1  -0.72618947  -0.95679886  -0.09313282  1
  F  F41  1  -0.23060939  0.72618947  -0.09313282  1
  F  F42  1  -0.23060939  -0.95679886  -0.59313282  1
  F  F43  1  0.95679886  0.72618947  -0.59313282  1
  F  F44  1  -0.72618947  0.23060939  -0.59313282  1
  F  F45  1  -0.95679886  -0.23060939  1.09313282  1
  F  F46  1  0.72618947  0.95679886  1.09313282  1
  F  F47  1  0.23060939  -0.72618947  1.09313282  1
  F  F48  1  0.89727606  1.29013220  0.92646615  1
  F  F49  1  -0.29013220  -0.39285614  0.92646615  1
  F  F50  1  1.39285614  0.10272394  0.92646615  1
  F  F51  1  1.62346553  0.56394273  0.24020051  1
  F  F52  1  -0.05952280  -0.62346553  0.24020051  1
  F  F53  1  0.43605727  1.05952280  0.24020051  1
  F  F54  1  0.43605727  -0.62346553  -0.25979949  1
  F  F55  1  1.62346553  1.05952280  -0.25979949  1
  F  F56  1  -0.05952280  0.56394273  -0.25979949  1
  F  F57  1  -0.29013220  0.10272394  1.42646615  1
  F  F58  1  1.39285614  1.29013220  1.42646615  1
  F  F59  1  0.89727606  -0.39285614  1.42646615  1
  F  F60  1  0.56394273  1.62346553  1.25979949  1
  F  F61  1  -0.62346553  -0.05952280  1.25979949  1
  F  F62  1  1.05952280  0.43605727  1.25979949  1
  F  F63  1  1.29013220  0.89727606  0.57353385  1
  F  F64  1  -0.39285614  -0.29013220  0.57353385  1
  F  F65  1  0.10272394  1.39285614  0.57353385  1
  F  F66  1  0.10272394  -0.29013220  0.07353385  1
  F  F67  1  1.29013220  1.39285614  0.07353385  1
  F  F68  1  -0.39285614  0.89727606  0.07353385  1
  F  F69  1  -0.62346553  0.43605727  1.75979949  1
  F  F70  1  1.05952280  1.62346553  1.75979949  1
  F  F71  1  0.56394273  -0.05952280  1.75979949  1
  Li  Li72  1  0.56977582  0.00000000  0.25000000  1
  Li  Li73  1  0.00000000  0.56977582  0.25000000  1
  Li  Li74  1  0.43022418  0.43022418  0.25000000  1
  Li  Li75  1  0.43022418  0.00000000  0.75000000  1
  Li  Li76  1  0.00000000  0.43022418  0.75000000  1
  Li  Li77  1  0.56977582  0.56977582  0.75000000  1
  Li  Li78  1  0.23644249  0.33333333  0.58333333  1
  Li  Li79  1  0.66666667  0.90310915  0.58333333  1
  Li  Li80  1  0.09689085  0.76355751  0.58333333  1
  Li  Li81  1  0.09689085  0.33333333  0.08333333  1
  Li  Li82  1  0.66666667  0.76355751  0.08333333  1
  Li  Li83  1  0.23644249  0.90310915  0.08333333  1
  Li  Li84  1  0.90310915  0.66666667  0.91666667  1
  Li  Li85  1  0.33333333  0.23644249  0.91666667  1
  Li  Li86  1  0.76355751  0.09689085  0.91666667  1
  Li  Li87  1  0.76355751  0.66666667  0.41666667  1
  Li  Li88  1  0.33333333  0.09689085  0.41666667  1
  Li  Li89  1  0.90310915  0.23644249  0.41666667  1
