# generated using pymatgen
data_LiF
_symmetry_space_group_name_H-M   'P 1'
_cell_length_a   8.20538965
_cell_length_b   8.20538965
_cell_length_c   18.19103314
_cell_angle_alpha   90.00000000
_cell_angle_beta   90.00000000
_cell_angle_gamma   120.00000000
_symmetry_Int_Tables_number   1
_chemical_formula_structural   LiF
_chemical_formula_sum   'Li29 F29'
_cell_volume   1060.68497073
_cell_formula_units_Z   29
loop_
 _symmetry_equiv_pos_site_id
 _symmetry_equiv_pos_as_xyz
  1  'x, y, z'
loop_
 _atom_site_type_symbol
 _atom_site_label
 _atom_site_symmetry_multiplicity
 _atom_site_fract_x
 _atom_site_fract_y
 _atom_site_fract_z
 _atom_site_occupancy
  F  F0  1  0.08320093  0.18381320  0.31046015  1
  F  F1  1  0.81618680  0.89938772  0.31046015  1
  F  F2  1  0.10061228  0.91679907  0.31046015  1
  F  F3  1  0.08320093  0.18381320  0.68953985  1
  F  F4  1  0.81618680  0.89938772  0.68953985  1
  F  F5  1  0.10061228  0.91679907  0.68953985  1
  F  F6  1  0.18381320  0.08320093  0.68953985  1
  F  F7  1  0.89938772  0.81618680  0.68953985  1
  F  F8  1  0.91679907  0.10061228  0.68953985  1
  F  F9  1  0.18381320  0.08320093  0.31046015  1
  F  F10  1  0.89938772  0.81618680  0.31046015  1
  F  F11  1  0.91679907  0.10061228  0.31046015  1
  F  F12  1  0.11858314  0.68240791  0.07656728  1
  F  F13  1  0.31759209  0.43617523  0.07656728  1
  F  F14  1  0.56382477  0.88141686  0.07656728  1
  F  F15  1  0.11858314  0.68240791  0.92343272  1
  F  F16  1  0.31759209  0.43617523  0.92343272  1
  F  F17  1  0.56382477  0.88141686  0.92343272  1
  F  F18  1  0.68240791  0.11858314  0.92343272  1
  F  F19  1  0.43617523  0.31759209  0.92343272  1
  F  F20  1  0.88141686  0.56382477  0.92343272  1
  F  F21  1  0.68240791  0.11858314  0.07656728  1
  F  F22  1  0.43617523  0.31759209  0.07656728  1
  F  F23  1  0.88141686  0.56382477  0.07656728  1
  F  F24  1  0.00000000  0.00000000  0.82267716  1
  F  F25  1  0.00000000  0.00000000  0.17732284  1
  F  F26  1  0.33333333  0.66666667  0.50000000  1
  F  F27  1  0.66666667  0.33333333  0.50000000  1
  F  F28  1  0.00000000  0.00000000  0.50000000  1
  Li  Li29  1  0.43466131  0.00000000  0.72611136  1
  Li  Li30  1  0.00000000  0.43466131  0.72611136  1
  Li  Li31  1  0.56533869  0.56533869  0.72611136  1
  Li  Li32  1  0.43466131  0.00000000  0.27388864  1
  Li  Li33  1  0.00000000  0.43466131  0.27388864  1
  Li  Li34  1  0.56533869  0.56533869  0.27388864  1
  Li  Li35  1  0.21691265  0.00000000  0.40103036  1
  Li  Li36  1  0.00000000  0.21691265  0.40103036  1
  Li  Li37  1  0.78308735  0.78308735  0.40103036  1
  Li  Li38  1  0.21691265  0.00000000  0.59896964  1
  Li  Li39  1  0.00000000  0.21691265  0.59896964  1
  Li  Li40  1  0.78308735  0.78308735  0.59896964  1
  Li  Li41  1  0.68464494  0.50985199  0.21358675  1
  Li  Li42  1  -0.50985199  0.17479295  0.21358675  1
  Li  Li43  1  -0.17479295  -0.68464494  0.21358675  1
  Li  Li44  1  0.68464494  0.50985199  -0.21358675  1
  Li  Li45  1  -0.50985199  0.17479295  -0.21358675  1
  Li  Li46  1  -0.17479295  -0.68464494  -0.21358675  1
  Li  Li47  1  0.50985199  0.68464494  -0.21358675  1
  Li  Li48  1  0.17479295  -0.50985199  -0.21358675  1
  Li  Li49  1  -0.68464494  -0.17479295  -0.21358675  1
  Li  Li50  1  0.50985199  0.68464494  0.21358675  1
  Li  Li51  1  0.17479295  -0.50985199  0.21358675  1
  Li  Li52  1  -0.68464494  -0.17479295  0.21358675  1
  Li  Li53  1  0.33333333  0.66666667  0.66176839  1
  Li  Li54  1  0.33333333  0.66666667  0.33823161  1
  Li  Li55  1  0.66666667  0.33333333  0.33823161  1
  Li  Li56  1  0.66666667  0.33333333  0.66176839  1
  Li  Li57  1  0.00000000  0.00000000  0.00000000  1
