# generated using pymatgen
data_LiF
_symmetry_space_group_name_H-M   'P 1'
_cell_length_a   5.24345522
_cell_length_b   5.24345522
_cell_length_c   8.05025036
_cell_angle_alpha   90.00000000
_cell_angle_beta   90.00000000
_cell_angle_gamma   120.00000000
_symmetry_Int_Tables_number   1
_chemical_formula_structural   LiF
_chemical_formula_sum   'Li16 F16'
_cell_volume   191.67926951
_cell_formula_units_Z   16
loop_
 _symmetry_equiv_pos_site_id
 _symmetry_equiv_pos_as_xyz
  1  'x, y, z'
loop_
 _atom_site_type_symbol
 _atom_site_label
 _atom_site_symmetry_multiplicity
 _atom_site_fract_x
 _atom_site_fract_y
 _atom_site_fract_z
 _atom_site_occupancy
  F  F0  1  0.33333333  0.66666667  0.09785087  1
  F  F1  1  0.66666667  0.33333333  0.59785087  1
  F  F2  1  0.66666667  0.33333333  0.90214913  1
  F  F3  1  0.33333333  0.66666667  0.40214913  1
  F  F4  1  0.58704160  1.17408319  0.36210457  1
  F  F5  1  -1.17408319  -0.58704160  0.36210457  1
  F  F6  1  0.58704160  -0.58704160  0.36210457  1
  F  F7  1  -0.58704160  -1.17408319  0.86210457  1
  F  F8  1  1.17408319  0.58704160  0.86210457  1
  F  F9  1  -0.58704160  0.58704160  0.86210457  1
  F  F10  1  1.17408319  0.58704160  -0.36210457  1
  F  F11  1  -0.58704160  -1.17408319  -0.36210457  1
  F  F12  1  -0.58704160  0.58704160  -0.36210457  1
  F  F13  1  -1.17408319  -0.58704160  0.13789543  1
  F  F14  1  0.58704160  1.17408319  0.13789543  1
  F  F15  1  0.58704160  -0.58704160  0.13789543  1
  Li  Li16  1  0.44964400  0.89928800  0.25000000  1
  Li  Li17  1  0.10071200  0.55035600  0.25000000  1
  Li  Li18  1  0.44964400  0.55035600  0.25000000  1
  Li  Li19  1  0.55035600  0.10071200  0.75000000  1
  Li  Li20  1  0.89928800  0.44964400  0.75000000  1
  Li  Li21  1  0.55035600  0.44964400  0.75000000  1
  Li  Li22  1  0.00000000  0.00000000  0.25000000  1
  Li  Li23  1  0.00000000  0.00000000  0.75000000  1
  Li  Li24  1  0.50000000  -0.00000000  0.00000000  1
  Li  Li25  1  0.00000000  0.50000000  -0.00000000  1
  Li  Li26  1  0.50000000  0.50000000  0.00000000  1
  Li  Li27  1  0.50000000  -0.00000000  0.50000000  1
  Li  Li28  1  0.00000000  0.50000000  0.50000000  1
  Li  Li29  1  0.50000000  0.50000000  0.50000000  1
  Li  Li30  1  0.00000000  0.00000000  0.00000000  1
  Li  Li31  1  0.00000000  0.00000000  0.50000000  1
