# generated using pymatgen
data_LiF
_symmetry_space_group_name_H-M   'P 1'
_cell_length_a   7.71088680
_cell_length_b   7.71088680
_cell_length_c   14.16204254
_cell_angle_alpha   90.00000000
_cell_angle_beta   90.00000000
_cell_angle_gamma   120.00000000
_symmetry_Int_Tables_number   1
_chemical_formula_structural   LiF
_chemical_formula_sum   'Li23 F23'
_cell_volume   729.23109878
_cell_formula_units_Z   23
loop_
 _symmetry_equiv_pos_site_id
 _symmetry_equiv_pos_as_xyz
  1  'x, y, z'
loop_
 _atom_site_type_symbol
 _atom_site_label
 _atom_site_symmetry_multiplicity
 _atom_site_fract_x
 _atom_site_fract_y
 _atom_site_fract_z
 _atom_site_occupancy
  F  F0  1  0.19318155  0.48495323  0.66668230  1
  F  F1  1  0.51504677  0.70822832  0.66668230  1
  F  F2  1  0.29177168  0.80681845  0.66668230  1
  F  F3  1  0.51504677  0.80681845  0.33331770  1
  F  F4  1  0.29177168  0.48495323  0.33331770  1
  F  F5  1  0.19318155  0.70822832  0.33331770  1
  F  F6  1  0.81326999  0.18673001  0.00000000  1
  F  F7  1  0.81326999  0.62653998  0.00000000  1
  F  F8  1  0.37346002  0.18673001  0.00000000  1
  F  F9  1  0.75723640  0.76619869  0.33188974  1
  F  F10  1  0.23380131  0.99103771  0.33188974  1
  F  F11  1  0.00896229  0.24276360  0.33188974  1
  F  F12  1  0.23380131  0.24276360  0.66811026  1
  F  F13  1  0.00896229  0.76619869  0.66811026  1
  F  F14  1  0.75723640  0.99103771  0.66811026  1
  F  F15  1  0.66632732  0.61771481  0.93521182  1
  F  F16  1  0.38228519  0.04861252  0.93521182  1
  F  F17  1  0.95138748  0.33367268  0.93521182  1
  F  F18  1  0.38228519  0.33367268  0.06478818  1
  F  F19  1  0.95138748  0.61771481  0.06478818  1
  F  F20  1  0.66632732  0.04861252  0.06478818  1
  F  F21  1  0.33333333  0.66666667  0.89361483  1
  F  F22  1  0.33333333  0.66666667  0.10638517  1
  Li  Li23  1  0.33333333  0.66666667  0.00000000  1
  Li  Li24  1  0.86667747  0.13332253  0.50000000  1
  Li  Li25  1  0.86667747  0.73335495  0.50000000  1
  Li  Li26  1  0.26664505  0.13332253  0.50000000  1
  Li  Li27  1  0.00000000  0.00000000  0.00000000  1
  Li  Li28  1  0.86736254  0.45734519  0.67869282  1
  Li  Li29  1  -0.45734519  0.41001735  0.67869282  1
  Li  Li30  1  -0.41001735  -0.86736254  0.67869282  1
  Li  Li31  1  -0.45734519  -0.86736254  -0.67869282  1
  Li  Li32  1  -0.41001735  0.45734519  -0.67869282  1
  Li  Li33  1  0.86736254  0.41001735  -0.67869282  1
  Li  Li34  1  0.50243779  0.49756221  0.00000000  1
  Li  Li35  1  0.50243779  0.00487557  0.00000000  1
  Li  Li36  1  0.99512443  0.49756221  0.00000000  1
  Li  Li37  1  0.00000000  0.00000000  0.36744776  1
  Li  Li38  1  0.00000000  0.00000000  0.63255224  1
  Li  Li39  1  0.54996078  0.88960157  0.38966493  1
  Li  Li40  1  0.11039843  0.66035921  0.38966493  1
  Li  Li41  1  0.33964079  0.45003922  0.38966493  1
  Li  Li42  1  0.11039843  0.45003922  0.61033507  1
  Li  Li43  1  0.33964079  0.88960157  0.61033507  1
  Li  Li44  1  0.54996078  0.66035921  0.61033507  1
  Li  Li45  1  0.66666667  0.33333333  0.00000000  1
