# generated using pymatgen
data_LiF
_symmetry_space_group_name_H-M   'P 1'
_cell_length_a   6.53051806
_cell_length_b   8.23906145
_cell_length_c   7.66870624
_cell_angle_alpha   90.00000000
_cell_angle_beta   90.00000000
_cell_angle_gamma   90.00000000
_symmetry_Int_Tables_number   1
_chemical_formula_structural   LiF
_chemical_formula_sum   'Li16 F16'
_cell_volume   412.61734329
_cell_formula_units_Z   16
loop_
 _symmetry_equiv_pos_site_id
 _symmetry_equiv_pos_as_xyz
  1  'x, y, z'
loop_
 _atom_site_type_symbol
 _atom_site_label
 _atom_site_symmetry_multiplicity
 _atom_site_fract_x
 _atom_site_fract_y
 _atom_site_fract_z
 _atom_site_occupancy
  F  F0  1  0.45141671  0.21458934  0.92494652  1
  F  F1  1  -0.45141671  -0.21458934  0.92494652  1
  F  F2  1  0.04858329  0.71458934  -0.92494652  1
  F  F3  1  0.95141671  0.28541066  -0.92494652  1
  F  F4  1  -0.45141671  -0.21458934  -0.92494652  1
  F  F5  1  0.45141671  0.21458934  -0.92494652  1
  F  F6  1  0.95141671  0.28541066  0.92494652  1
  F  F7  1  0.04858329  0.71458934  0.92494652  1
  F  F8  1  0.43492091  0.04005264  0.10955231  1
  F  F9  1  0.56507909  0.95994736  0.10955231  1
  F  F10  1  0.06507909  0.54005264  0.89044769  1
  F  F11  1  0.93492091  0.45994736  0.89044769  1
  F  F12  1  0.56507909  0.95994736  0.89044769  1
  F  F13  1  0.43492091  0.04005264  0.89044769  1
  F  F14  1  0.93492091  0.45994736  0.10955231  1
  F  F15  1  0.06507909  0.54005264  0.10955231  1
  Li  Li16  1  0.00000000  0.00000000  0.23366381  1
  Li  Li17  1  0.50000000  0.50000000  0.76633619  1
  Li  Li18  1  0.00000000  0.00000000  0.76633619  1
  Li  Li19  1  0.50000000  0.50000000  0.23366381  1
  Li  Li20  1  0.00000000  0.50000000  0.72272973  1
  Li  Li21  1  0.50000000  0.00000000  0.27727027  1
  Li  Li22  1  0.00000000  0.50000000  0.27727027  1
  Li  Li23  1  0.50000000  0.00000000  0.72272973  1
  Li  Li24  1  0.43206293  0.31498664  0.67088590  1
  Li  Li25  1  0.56793707  0.68501336  0.67088590  1
  Li  Li26  1  0.06793707  0.81498664  0.32911410  1
  Li  Li27  1  0.93206293  0.18501336  0.32911410  1
  Li  Li28  1  0.56793707  0.68501336  0.32911410  1
  Li  Li29  1  0.43206293  0.31498664  0.32911410  1
  Li  Li30  1  0.93206293  0.18501336  0.67088590  1
  Li  Li31  1  0.06793707  0.81498664  0.67088590  1
