# generated using pymatgen
data_LiF
_symmetry_space_group_name_H-M   'P 1'
_cell_length_a   9.22967650
_cell_length_b   9.22967650
_cell_length_c   10.11330055
_cell_angle_alpha   90.00000000
_cell_angle_beta   90.00000000
_cell_angle_gamma   120.00000000
_symmetry_Int_Tables_number   1
_chemical_formula_structural   LiF
_chemical_formula_sum   'Li36 F36'
_cell_volume   746.09907954
_cell_formula_units_Z   36
loop_
 _symmetry_equiv_pos_site_id
 _symmetry_equiv_pos_as_xyz
  1  'x, y, z'
loop_
 _atom_site_type_symbol
 _atom_site_label
 _atom_site_symmetry_multiplicity
 _atom_site_fract_x
 _atom_site_fract_y
 _atom_site_fract_z
 _atom_site_occupancy
  F  F0  1  0.47803335  0.84796137  0.99737371  1
  F  F1  1  0.15203863  0.63007198  0.99737371  1
  F  F2  1  0.36992802  0.52196665  0.99737371  1
  F  F3  1  0.84796137  0.47803335  0.50262629  1
  F  F4  1  0.63007198  0.15203863  0.50262629  1
  F  F5  1  0.52196665  0.36992802  0.50262629  1
  F  F6  1  0.52196665  0.15203863  0.00262629  1
  F  F7  1  0.84796137  0.36992802  0.00262629  1
  F  F8  1  0.63007198  0.47803335  0.00262629  1
  F  F9  1  0.15203863  0.52196665  0.49737371  1
  F  F10  1  0.36992802  0.84796137  0.49737371  1
  F  F11  1  0.47803335  0.63007198  0.49737371  1
  F  F12  1  0.14470002  0.18129470  0.33070704  1
  F  F13  1  0.81870530  0.96340532  0.33070704  1
  F  F14  1  0.03659468  0.85529998  0.33070704  1
  F  F15  1  0.51462804  0.81136669  0.83595962  1
  F  F16  1  0.29673865  0.48537196  0.83595962  1
  F  F17  1  0.18863331  0.70326135  0.83595962  1
  F  F18  1  0.18863331  0.48537196  0.33595962  1
  F  F19  1  0.51462804  0.70326135  0.33595962  1
  F  F20  1  0.29673865  0.81136669  0.33595962  1
  F  F21  1  0.81870530  0.85529998  0.83070704  1
  F  F22  1  0.03659468  0.18129470  0.83070704  1
  F  F23  1  0.14470002  0.96340532  0.83070704  1
  F  F24  1  0.81136669  0.51462804  0.66404038  1
  F  F25  1  0.48537196  0.29673865  0.66404038  1
  F  F26  1  0.70326135  0.18863331  0.66404038  1
  F  F27  1  0.18129470  0.14470002  0.16929296  1
  F  F28  1  0.96340532  0.81870530  0.16929296  1
  F  F29  1  0.85529998  0.03659468  0.16929296  1
  F  F30  1  0.85529998  0.81870530  0.66929296  1
  F  F31  1  0.18129470  0.03659468  0.66929296  1
  F  F32  1  0.96340532  0.14470002  0.66929296  1
  F  F33  1  0.48537196  0.18863331  0.16404038  1
  F  F34  1  0.70326135  0.51462804  0.16404038  1
  F  F35  1  0.81136669  0.29673865  0.16404038  1
  Li  Li36  1  0.99481181  0.11049728  0.42290896  1
  Li  Li37  1  -0.11049728  0.88431453  0.42290896  1
  Li  Li38  1  -0.88431453  -0.99481181  0.42290896  1
  Li  Li39  1  0.11049728  0.99481181  0.07709104  1
  Li  Li40  1  0.88431453  -0.11049728  0.07709104  1
  Li  Li41  1  -0.99481181  -0.88431453  0.07709104  1
  Li  Li42  1  -0.99481181  -0.11049728  -0.42290896  1
  Li  Li43  1  0.11049728  -0.88431453  -0.42290896  1
  Li  Li44  1  0.88431453  0.99481181  -0.42290896  1
  Li  Li45  1  -0.11049728  -0.99481181  0.92290896  1
  Li  Li46  1  -0.88431453  0.11049728  0.92290896  1
  Li  Li47  1  0.99481181  0.88431453  0.92290896  1
  Li  Li48  1  1.66147847  0.44383061  0.75624229  1
  Li  Li49  1  0.55616939  1.21764786  0.75624229  1
  Li  Li50  1  -0.21764786  -0.66147847  0.75624229  1
  Li  Li51  1  0.77716395  1.32814514  0.41042438  1
  Li  Li52  1  1.55098120  0.22283605  0.41042438  1
  Li  Li53  1  -0.32814514  -0.55098120  0.41042438  1
  Li  Li54  1  -0.32814514  0.22283605  -0.08957562  1
  Li  Li55  1  0.77716395  -0.55098120  -0.08957562  1
  Li  Li56  1  1.55098120  1.32814514  -0.08957562  1
  Li  Li57  1  0.55616939  -0.66147847  1.25624229  1
  Li  Li58  1  -0.21764786  0.44383061  1.25624229  1
  Li  Li59  1  1.66147847  1.21764786  1.25624229  1
  Li  Li60  1  1.32814514  0.77716395  1.08957562  1
  Li  Li61  1  0.22283605  1.55098120  1.08957562  1
  Li  Li62  1  -0.55098120  -0.32814514  1.08957562  1
  Li  Li63  1  0.44383061  1.66147847  0.74375771  1
  Li  Li64  1  1.21764786  0.55616939  0.74375771  1
  Li  Li65  1  -0.66147847  -0.21764786  0.74375771  1
  Li  Li66  1  -0.66147847  0.55616939  0.24375771  1
  Li  Li67  1  0.44383061  -0.21764786  0.24375771  1
  Li  Li68  1  1.21764786  1.66147847  0.24375771  1
  Li  Li69  1  0.22283605  -0.32814514  1.58957562  1
  Li  Li70  1  -0.55098120  0.77716395  1.58957562  1
  Li  Li71  1  1.32814514  1.55098120  1.58957562  1
