# generated using pymatgen
data_Li2LaSOF
_symmetry_space_group_name_H-M   'P 1'
_cell_length_a   3.30254593
_cell_length_b   2.70057324
_cell_length_c   4.91733076
_cell_angle_alpha   93.41854023
_cell_angle_beta   92.56985952
_cell_angle_gamma   96.22070099
_symmetry_Int_Tables_number   1
_chemical_formula_structural   Li2LaSOF
_chemical_formula_sum   'Li2 La1 S1 O1 F1'
_cell_volume   43.46252617
_cell_formula_units_Z   1
loop_
 _symmetry_equiv_pos_site_id
 _symmetry_equiv_pos_as_xyz
  1  'x, y, z'
loop_
 _atom_site_type_symbol
 _atom_site_label
 _atom_site_symmetry_multiplicity
 _atom_site_fract_x
 _atom_site_fract_y
 _atom_site_fract_z
 _atom_site_occupancy
  F  F0  1  0.00000000  0.00000000  0.00000000  1
  O  O1  1  0.50000000  0.50000000  0.50000000  1
  S  S2  1  0.25000000  0.25000000  0.25000000  1
  Li  Li3  1  0.75000000  0.25000000  0.00000000  1
  Li  Li4  1  0.25000000  0.75000000  0.50000000  1
  La  La5  1  0.54523316  0.92663024  0.28714992  1
