# generated using pymatgen
data_LiF
_symmetry_space_group_name_H-M   'P 1'
_cell_length_a   10.10354726
_cell_length_b   6.68796516
_cell_length_c   7.00493816
_cell_angle_alpha   90.00000000
_cell_angle_beta   90.00000000
_cell_angle_gamma   90.00000000
_symmetry_Int_Tables_number   1
_chemical_formula_structural   LiF
_chemical_formula_sum   'Li24 F24'
_cell_volume   473.33888651
_cell_formula_units_Z   24
loop_
 _symmetry_equiv_pos_site_id
 _symmetry_equiv_pos_as_xyz
  1  'x, y, z'
loop_
 _atom_site_type_symbol
 _atom_site_label
 _atom_site_symmetry_multiplicity
 _atom_site_fract_x
 _atom_site_fract_y
 _atom_site_fract_z
 _atom_site_occupancy
  F  F0  1  0.45544405  0.13988449  0.31082502  1
  F  F1  1  0.04455595  0.86011551  0.81082502  1
  F  F2  1  0.54455595  0.63988449  0.68917498  1
  F  F3  1  0.95544405  0.36011551  0.18917498  1
  F  F4  1  0.54455595  0.86011551  0.68917498  1
  F  F5  1  0.95544405  0.13988449  0.18917498  1
  F  F6  1  0.45544405  0.36011551  0.31082502  1
  F  F7  1  0.04455595  0.63988449  0.81082502  1
  F  F8  1  0.80522799  0.16934181  0.45454220  1
  F  F9  1  0.69477201  0.83065819  0.95454220  1
  F  F10  1  0.19477201  0.66934181  0.54545780  1
  F  F11  1  0.30522799  0.33065819  0.04545780  1
  F  F12  1  0.19477201  0.83065819  0.54545780  1
  F  F13  1  0.30522799  0.16934181  0.04545780  1
  F  F14  1  0.80522799  0.33065819  0.45454220  1
  F  F15  1  0.69477201  0.66934181  0.95454220  1
  F  F16  1  0.79825747  0.09246850  0.01563994  1
  F  F17  1  0.70174253  0.90753150  0.51563994  1
  F  F18  1  0.20174253  0.59246850  0.98436006  1
  F  F19  1  0.29825747  0.40753150  0.48436006  1
  F  F20  1  0.20174253  0.90753150  0.98436006  1
  F  F21  1  0.29825747  0.09246850  0.48436006  1
  F  F22  1  0.79825747  0.40753150  0.01563994  1
  F  F23  1  0.70174253  0.59246850  0.51563994  1
  Li  Li24  1  0.52709065  0.25000000  0.54837530  1
  Li  Li25  1  0.97290935  0.75000000  0.04837530  1
  Li  Li26  1  0.47290935  0.75000000  0.45162470  1
  Li  Li27  1  0.02709065  0.25000000  0.95162470  1
  Li  Li28  1  0.90557262  0.25000000  0.34584156  1
  Li  Li29  1  0.59442738  0.75000000  0.84584156  1
  Li  Li30  1  0.09442738  0.75000000  0.65415844  1
  Li  Li31  1  0.40557262  0.25000000  0.15415844  1
  Li  Li32  1  0.36802096  0.89167256  0.43975923  1
  Li  Li33  1  0.13197904  -0.89167256  0.93975923  1
  Li  Li34  1  -0.36802096  1.39167256  -0.43975923  1
  Li  Li35  1  0.86802096  -0.39167256  0.06024077  1
  Li  Li36  1  -0.36802096  -0.89167256  -0.43975923  1
  Li  Li37  1  0.86802096  0.89167256  0.06024077  1
  Li  Li38  1  0.36802096  -0.39167256  0.43975923  1
  Li  Li39  1  0.13197904  1.39167256  0.93975923  1
  Li  Li40  1  0.00000000  0.00000000  0.50000000  1
  Li  Li41  1  0.50000000  0.00000000  0.00000000  1
  Li  Li42  1  0.00000000  0.50000000  0.50000000  1
  Li  Li43  1  0.50000000  0.50000000  -0.00000000  1
  Li  Li44  1  0.67267944  0.25000000  0.05763917  1
  Li  Li45  1  0.82732056  0.75000000  0.55763917  1
  Li  Li46  1  0.32732056  0.75000000  0.94236083  1
  Li  Li47  1  0.17267944  0.25000000  0.44236083  1
