# generated using pymatgen
data_LiF
_symmetry_space_group_name_H-M   'P 1'
_cell_length_a   7.34122059
_cell_length_b   7.04930715
_cell_length_c   13.28282088
_cell_angle_alpha   90.00000000
_cell_angle_beta   90.00000000
_cell_angle_gamma   90.00000000
_symmetry_Int_Tables_number   1
_chemical_formula_structural   LiF
_chemical_formula_sum   'Li24 F24'
_cell_volume   687.39287128
_cell_formula_units_Z   24
loop_
 _symmetry_equiv_pos_site_id
 _symmetry_equiv_pos_as_xyz
  1  'x, y, z'
loop_
 _atom_site_type_symbol
 _atom_site_label
 _atom_site_symmetry_multiplicity
 _atom_site_fract_x
 _atom_site_fract_y
 _atom_site_fract_z
 _atom_site_occupancy
  F  F0  1  0.27978629  0.35826391  0.01554099  1
  F  F1  1  0.22021371  0.64173609  0.51554099  1
  F  F2  1  0.72021371  0.85826391  0.98445901  1
  F  F3  1  0.77978629  0.14173609  0.48445901  1
  F  F4  1  0.72021371  0.64173609  0.98445901  1
  F  F5  1  0.77978629  0.35826391  0.48445901  1
  F  F6  1  0.27978629  0.14173609  0.01554099  1
  F  F7  1  0.22021371  0.85826391  0.51554099  1
  F  F8  1  0.89593877  0.08552227  0.24468308  1
  F  F9  1  0.60406123  0.91447773  0.74468308  1
  F  F10  1  0.10406123  0.58552227  0.75531692  1
  F  F11  1  0.39593877  0.41447773  0.25531692  1
  F  F12  1  0.10406123  0.91447773  0.75531692  1
  F  F13  1  0.39593877  0.08552227  0.25531692  1
  F  F14  1  0.89593877  0.41447773  0.24468308  1
  F  F15  1  0.60406123  0.58552227  0.74468308  1
  F  F16  1  0.87725038  0.25000000  0.34095129  1
  F  F17  1  0.62274962  0.75000000  0.84095129  1
  F  F18  1  0.12274962  0.75000000  0.65904871  1
  F  F19  1  0.37725038  0.25000000  0.15904871  1
  F  F20  1  0.00000000  0.00000000  0.00000000  1
  F  F21  1  0.50000000  0.00000000  0.50000000  1
  F  F22  1  0.00000000  0.50000000  0.00000000  1
  F  F23  1  0.50000000  0.50000000  0.50000000  1
  Li  Li24  1  0.21577139  0.57284108  0.89061730  1
  Li  Li25  1  0.28422861  -0.57284108  1.39061730  1
  Li  Li26  1  -0.21577139  1.07284108  -0.89061730  1
  Li  Li27  1  0.71577139  -0.07284108  -0.39061730  1
  Li  Li28  1  -0.21577139  -0.57284108  -0.89061730  1
  Li  Li29  1  0.71577139  0.57284108  -0.39061730  1
  Li  Li30  1  0.21577139  -0.07284108  0.89061730  1
  Li  Li31  1  0.28422861  1.07284108  1.39061730  1
  Li  Li32  1  0.88639133  0.61074432  0.63804068  1
  Li  Li33  1  0.61360867  0.38925568  0.13804068  1
  Li  Li34  1  0.11360867  0.11074432  0.36195932  1
  Li  Li35  1  0.38639133  0.88925568  0.86195932  1
  Li  Li36  1  0.11360867  0.38925568  0.36195932  1
  Li  Li37  1  0.38639133  0.61074432  0.86195932  1
  Li  Li38  1  0.88639133  0.88925568  0.63804068  1
  Li  Li39  1  0.61360867  0.11074432  0.13804068  1
  Li  Li40  1  0.00000000  0.00000000  0.50000000  1
  Li  Li41  1  0.50000000  0.00000000  0.00000000  1
  Li  Li42  1  0.00000000  0.50000000  0.50000000  1
  Li  Li43  1  0.50000000  0.50000000  0.00000000  1
  Li  Li44  1  0.77680527  0.25000000  0.68792456  1
  Li  Li45  1  0.72319473  0.75000000  0.18792456  1
  Li  Li46  1  0.22319473  0.75000000  0.31207544  1
  Li  Li47  1  0.27680527  0.25000000  0.81207544  1
