# generated using pymatgen
data_LiF
_symmetry_space_group_name_H-M   'P 1'
_cell_length_a   9.64765474
_cell_length_b   12.44854437
_cell_length_c   7.07579909
_cell_angle_alpha   90.00000000
_cell_angle_beta   90.00000000
_cell_angle_gamma   90.00000000
_symmetry_Int_Tables_number   1
_chemical_formula_structural   LiF
_chemical_formula_sum   'Li24 F24'
_cell_volume   849.79822053
_cell_formula_units_Z   24
loop_
 _symmetry_equiv_pos_site_id
 _symmetry_equiv_pos_as_xyz
  1  'x, y, z'
loop_
 _atom_site_type_symbol
 _atom_site_label
 _atom_site_symmetry_multiplicity
 _atom_site_fract_x
 _atom_site_fract_y
 _atom_site_fract_z
 _atom_site_occupancy
  F  F0  1  0.38933461  0.86840183  0.24964555  1
  F  F1  1  0.11066539  0.13159817  0.74964555  1
  F  F2  1  0.61066539  0.36840183  0.75035445  1
  F  F3  1  0.88933461  0.63159817  0.25035445  1
  F  F4  1  0.61066539  0.13159817  0.75035445  1
  F  F5  1  0.88933461  0.86840183  0.25035445  1
  F  F6  1  0.38933461  0.63159817  0.24964555  1
  F  F7  1  0.11066539  0.36840183  0.74964555  1
  F  F8  1  0.79193524  0.60318807  0.97084292  1
  F  F9  1  0.70806476  0.39681193  0.47084292  1
  F  F10  1  0.20806476  0.10318807  0.02915708  1
  F  F11  1  0.29193524  0.89681193  0.52915708  1
  F  F12  1  0.20806476  0.39681193  0.02915708  1
  F  F13  1  0.29193524  0.60318807  0.52915708  1
  F  F14  1  0.79193524  0.89681193  0.97084292  1
  F  F15  1  0.70806476  0.10318807  0.47084292  1
  F  F16  1  0.24487526  0.25000000  0.88735749  1
  F  F17  1  0.25512474  0.75000000  0.38735749  1
  F  F18  1  0.75512474  0.75000000  0.11264251  1
  F  F19  1  0.74487526  0.25000000  0.61264251  1
  F  F20  1  0.00000000  0.00000000  0.00000000  1
  F  F21  1  0.50000000  0.00000000  0.50000000  1
  F  F22  1  0.00000000  0.50000000  0.00000000  1
  F  F23  1  0.50000000  0.50000000  0.50000000  1
  Li  Li24  1  0.99509983  0.88140373  0.78994952  1
  Li  Li25  1  -0.49509983  -0.88140373  1.28994952  1
  Li  Li26  1  -0.99509983  1.38140373  -0.78994952  1
  Li  Li27  1  1.49509983  -0.38140373  -0.28994952  1
  Li  Li28  1  -0.99509983  -0.88140373  -0.78994952  1
  Li  Li29  1  1.49509983  0.88140373  -0.28994952  1
  Li  Li30  1  0.99509983  -0.38140373  0.78994952  1
  Li  Li31  1  -0.49509983  1.38140373  1.28994952  1
  Li  Li32  1  0.50768730  0.25000000  0.03377504  1
  Li  Li33  1  0.99231270  0.75000000  0.53377504  1
  Li  Li34  1  0.49231270  0.75000000  0.96622496  1
  Li  Li35  1  0.00768730  0.25000000  0.46622496  1
  Li  Li36  1  0.00000000  0.00000000  0.50000000  1
  Li  Li37  1  0.50000000  0.00000000  -0.00000000  1
  Li  Li38  1  0.00000000  0.50000000  0.50000000  1
  Li  Li39  1  0.50000000  0.50000000  0.00000000  1
  Li  Li40  1  0.77147298  0.16548983  0.87184002  1
  Li  Li41  1  0.72852702  0.83451017  0.37184002  1
  Li  Li42  1  0.22852702  0.66548983  0.12815998  1
  Li  Li43  1  0.27147298  0.33451017  0.62815998  1
  Li  Li44  1  0.22852702  0.83451017  0.12815998  1
  Li  Li45  1  0.27147298  0.16548983  0.62815998  1
  Li  Li46  1  0.77147298  0.33451017  0.87184002  1
  Li  Li47  1  0.72852702  0.66548983  0.37184002  1
