# generated using pymatgen
data_Li6Te2O
_symmetry_space_group_name_H-M   'P 1'
_cell_length_a   14.56021606
_cell_length_b   14.56021606
_cell_length_c   14.56021606
_cell_angle_alpha   90.00000000
_cell_angle_beta   90.00000000
_cell_angle_gamma   90.00000000
_symmetry_Int_Tables_number   1
_chemical_formula_structural   Li6Te2O
_chemical_formula_sum   'Li96 Te32 O16'
_cell_volume   3086.76422662
_cell_formula_units_Z   16
loop_
 _symmetry_equiv_pos_site_id
 _symmetry_equiv_pos_as_xyz
  1  'x, y, z'
loop_
 _atom_site_type_symbol
 _atom_site_label
 _atom_site_symmetry_multiplicity
 _atom_site_fract_x
 _atom_site_fract_y
 _atom_site_fract_z
 _atom_site_occupancy
  Li  Li0  1  0.50000000  0.92953502  0.92953502  1
  Li  Li1  1  0.50000000  -0.92953502  0.92953502  1
  Li  Li2  1  0.50000000  0.92953502  -0.92953502  1
  Li  Li3  1  0.50000000  -0.92953502  -0.92953502  1
  Li  Li4  1  0.92953502  0.50000000  0.92953502  1
  Li  Li5  1  0.92953502  0.50000000  -0.92953502  1
  Li  Li6  1  -0.92953502  0.50000000  0.92953502  1
  Li  Li7  1  -0.92953502  0.50000000  -0.92953502  1
  Li  Li8  1  0.92953502  0.92953502  0.50000000  1
  Li  Li9  1  -0.92953502  0.92953502  0.50000000  1
  Li  Li10  1  0.92953502  -0.92953502  0.50000000  1
  Li  Li11  1  -0.92953502  -0.92953502  0.50000000  1
  Li  Li12  1  0.50000000  1.42953502  1.42953502  1
  Li  Li13  1  0.50000000  -0.42953502  1.42953502  1
  Li  Li14  1  0.50000000  1.42953502  -0.42953502  1
  Li  Li15  1  0.50000000  -0.42953502  -0.42953502  1
  Li  Li16  1  0.92953502  1.00000000  1.42953502  1
  Li  Li17  1  0.92953502  1.00000000  -0.42953502  1
  Li  Li18  1  -0.92953502  1.00000000  1.42953502  1
  Li  Li19  1  -0.92953502  1.00000000  -0.42953502  1
  Li  Li20  1  0.92953502  1.42953502  1.00000000  1
  Li  Li21  1  -0.92953502  1.42953502  1.00000000  1
  Li  Li22  1  0.92953502  -0.42953502  1.00000000  1
  Li  Li23  1  -0.92953502  -0.42953502  1.00000000  1
  Li  Li24  1  1.00000000  0.92953502  1.42953502  1
  Li  Li25  1  1.00000000  -0.92953502  1.42953502  1
  Li  Li26  1  1.00000000  0.92953502  -0.42953502  1
  Li  Li27  1  1.00000000  -0.92953502  -0.42953502  1
  Li  Li28  1  1.42953502  0.50000000  1.42953502  1
  Li  Li29  1  1.42953502  0.50000000  -0.42953502  1
  Li  Li30  1  -0.42953502  0.50000000  1.42953502  1
  Li  Li31  1  -0.42953502  0.50000000  -0.42953502  1
  Li  Li32  1  1.42953502  0.92953502  1.00000000  1
  Li  Li33  1  -0.42953502  0.92953502  1.00000000  1
  Li  Li34  1  1.42953502  -0.92953502  1.00000000  1
  Li  Li35  1  -0.42953502  -0.92953502  1.00000000  1
  Li  Li36  1  1.00000000  1.42953502  0.92953502  1
  Li  Li37  1  1.00000000  -0.42953502  0.92953502  1
  Li  Li38  1  1.00000000  1.42953502  -0.92953502  1
  Li  Li39  1  1.00000000  -0.42953502  -0.92953502  1
  Li  Li40  1  1.42953502  1.00000000  0.92953502  1
  Li  Li41  1  1.42953502  1.00000000  -0.92953502  1
  Li  Li42  1  -0.42953502  1.00000000  0.92953502  1
  Li  Li43  1  -0.42953502  1.00000000  -0.92953502  1
  Li  Li44  1  1.42953502  1.42953502  0.50000000  1
  Li  Li45  1  -0.42953502  1.42953502  0.50000000  1
  Li  Li46  1  1.42953502  -0.42953502  0.50000000  1
  Li  Li47  1  -0.42953502  -0.42953502  0.50000000  1
  Li  Li48  1  0.00000000  0.25000000  0.25000000  1
  Li  Li49  1  0.00000000  0.75000000  0.25000000  1
  Li  Li50  1  0.25000000  0.00000000  0.25000000  1
  Li  Li51  1  0.25000000  0.00000000  0.75000000  1
  Li  Li52  1  0.25000000  0.25000000  -0.00000000  1
  Li  Li53  1  0.75000000  0.25000000  0.00000000  1
  Li  Li54  1  0.00000000  0.75000000  0.75000000  1
  Li  Li55  1  0.00000000  0.25000000  0.75000000  1
  Li  Li56  1  0.25000000  0.50000000  0.75000000  1
  Li  Li57  1  0.25000000  0.50000000  0.25000000  1
  Li  Li58  1  0.25000000  0.75000000  0.50000000  1
  Li  Li59  1  0.75000000  0.75000000  0.50000000  1
  Li  Li60  1  0.50000000  0.25000000  0.75000000  1
  Li  Li61  1  0.50000000  0.75000000  0.75000000  1
  Li  Li62  1  0.75000000  0.00000000  0.75000000  1
  Li  Li63  1  0.75000000  0.00000000  0.25000000  1
  Li  Li64  1  0.75000000  0.25000000  0.50000000  1
  Li  Li65  1  0.25000000  0.25000000  0.50000000  1
  Li  Li66  1  0.50000000  0.75000000  0.25000000  1
  Li  Li67  1  0.50000000  0.25000000  0.25000000  1
  Li  Li68  1  0.75000000  0.50000000  0.25000000  1
  Li  Li69  1  0.75000000  0.50000000  0.75000000  1
  Li  Li70  1  0.75000000  0.75000000  0.00000000  1
  Li  Li71  1  0.25000000  0.75000000  0.00000000  1
  Li  Li72  1  0.08906778  0.00000000  0.00000000  1
  Li  Li73  1  0.91093222  0.00000000  0.00000000  1
  Li  Li74  1  0.00000000  0.08906778  0.00000000  1
  Li  Li75  1  0.00000000  0.91093222  0.00000000  1
  Li  Li76  1  0.00000000  0.00000000  0.08906778  1
  Li  Li77  1  0.00000000  0.00000000  0.91093222  1
  Li  Li78  1  0.08906778  0.50000000  0.50000000  1
  Li  Li79  1  0.91093222  0.50000000  0.50000000  1
  Li  Li80  1  0.00000000  0.58906778  0.50000000  1
  Li  Li81  1  0.00000000  0.41093222  0.50000000  1
  Li  Li82  1  0.00000000  0.50000000  0.58906778  1
  Li  Li83  1  0.00000000  0.50000000  0.41093222  1
  Li  Li84  1  0.58906778  0.00000000  0.50000000  1
  Li  Li85  1  0.41093222  0.00000000  0.50000000  1
  Li  Li86  1  0.50000000  0.08906778  0.50000000  1
  Li  Li87  1  0.50000000  0.91093222  0.50000000  1
  Li  Li88  1  0.50000000  0.00000000  0.58906778  1
  Li  Li89  1  0.50000000  0.00000000  0.41093222  1
  Li  Li90  1  0.58906778  0.50000000  -0.00000000  1
  Li  Li91  1  0.41093222  0.50000000  0.00000000  1
  Li  Li92  1  0.50000000  0.58906778  0.00000000  1
  Li  Li93  1  0.50000000  0.41093222  0.00000000  1
  Li  Li94  1  0.50000000  0.50000000  0.08906778  1
  Li  Li95  1  0.50000000  0.50000000  0.91093222  1
  O  O96  1  0.25000000  0.25000000  0.25000000  1
  O  O97  1  0.25000000  0.25000000  0.75000000  1
  O  O98  1  0.25000000  0.75000000  0.75000000  1
  O  O99  1  0.25000000  0.75000000  0.25000000  1
  O  O100  1  0.75000000  0.25000000  0.75000000  1
  O  O101  1  0.75000000  0.25000000  0.25000000  1
  O  O102  1  0.75000000  0.75000000  0.25000000  1
  O  O103  1  0.75000000  0.75000000  0.75000000  1
  O  O104  1  0.50000000  0.50000000  0.50000000  1
  O  O105  1  0.50000000  0.00000000  0.00000000  1
  O  O106  1  0.00000000  0.50000000  0.00000000  1
  O  O107  1  0.00000000  0.00000000  0.50000000  1
  O  O108  1  0.00000000  0.00000000  0.00000000  1
  O  O109  1  0.00000000  0.50000000  0.50000000  1
  O  O110  1  0.50000000  0.00000000  0.50000000  1
  O  O111  1  0.50000000  0.50000000  -0.00000000  1
  Te  Te112  1  0.09010254  0.09010254  0.09010254  1
  Te  Te113  1  0.90989746  0.90989746  0.09010254  1
  Te  Te114  1  0.90989746  0.09010254  0.90989746  1
  Te  Te115  1  0.09010254  0.90989746  0.90989746  1
  Te  Te116  1  0.09010254  0.09010254  0.90989746  1
  Te  Te117  1  0.90989746  0.90989746  0.90989746  1
  Te  Te118  1  0.09010254  0.90989746  0.09010254  1
  Te  Te119  1  0.90989746  0.09010254  0.09010254  1
  Te  Te120  1  0.09010254  0.59010254  0.59010254  1
  Te  Te121  1  0.90989746  0.40989746  0.59010254  1
  Te  Te122  1  0.90989746  0.59010254  0.40989746  1
  Te  Te123  1  0.09010254  0.40989746  0.40989746  1
  Te  Te124  1  0.09010254  0.59010254  0.40989746  1
  Te  Te125  1  0.90989746  0.40989746  0.40989746  1
  Te  Te126  1  0.09010254  0.40989746  0.59010254  1
  Te  Te127  1  0.90989746  0.59010254  0.59010254  1
  Te  Te128  1  0.59010254  0.09010254  0.59010254  1
  Te  Te129  1  0.40989746  0.90989746  0.59010254  1
  Te  Te130  1  0.40989746  0.09010254  0.40989746  1
  Te  Te131  1  0.59010254  0.90989746  0.40989746  1
  Te  Te132  1  0.59010254  0.09010254  0.40989746  1
  Te  Te133  1  0.40989746  0.90989746  0.40989746  1
  Te  Te134  1  0.59010254  0.90989746  0.59010254  1
  Te  Te135  1  0.40989746  0.09010254  0.59010254  1
  Te  Te136  1  0.59010254  0.59010254  0.09010254  1
  Te  Te137  1  0.40989746  0.40989746  0.09010254  1
  Te  Te138  1  0.40989746  0.59010254  0.90989746  1
  Te  Te139  1  0.59010254  0.40989746  0.90989746  1
  Te  Te140  1  0.59010254  0.59010254  0.90989746  1
  Te  Te141  1  0.40989746  0.40989746  0.90989746  1
  Te  Te142  1  0.59010254  0.40989746  0.09010254  1
  Te  Te143  1  0.40989746  0.59010254  0.09010254  1
