# generated using pymatgen
data_Li2Y2Mo(As2P)2
_symmetry_space_group_name_H-M   'P 1'
_cell_length_a   5.50469076
_cell_length_b   5.60957290
_cell_length_c   7.11179854
_cell_angle_alpha   93.87432959
_cell_angle_beta   98.43748438
_cell_angle_gamma   105.56164212
_symmetry_Int_Tables_number   1
_chemical_formula_structural   Li2Y2Mo(As2P)2
_chemical_formula_sum   'Li2 Y2 Mo1 As4 P2'
_cell_volume   207.94327421
_cell_formula_units_Z   1
loop_
 _symmetry_equiv_pos_site_id
 _symmetry_equiv_pos_as_xyz
  1  'x, y, z'
loop_
 _atom_site_type_symbol
 _atom_site_label
 _atom_site_symmetry_multiplicity
 _atom_site_fract_x
 _atom_site_fract_y
 _atom_site_fract_z
 _atom_site_occupancy
  P  P0  1  0.00000000  0.00000000  0.00000000  1
  P  P1  1  0.50000000  0.50000000  0.50000000  1
  Mo  Mo2  1  0.25000000  0.25000000  0.25000000  1
  As  As3  1  0.75000000  0.25000000  0.00000000  1
  As  As4  1  0.25000000  0.75000000  0.50000000  1
  As  As5  1  0.92152863  0.96017259  0.31573960  1
  As  As6  1  0.48384184  0.20922702  0.79502133  1
  Li  Li7  1  0.09504083  0.77241692  0.87391641  1
  Li  Li8  1  0.97199792  0.77725862  0.72578588  1
  Y  Y9  1  0.56792300  0.29164137  0.69500870  1
  Y  Y10  1  0.26276308  0.60506739  0.26114694  1
