# generated using pymatgen
data_LiF
_symmetry_space_group_name_H-M   'P 1'
_cell_length_a   8.78910596
_cell_length_b   4.86481770
_cell_length_c   8.46390135
_cell_angle_alpha   90.00000000
_cell_angle_beta   90.00000000
_cell_angle_gamma   90.00000000
_symmetry_Int_Tables_number   1
_chemical_formula_structural   LiF
_chemical_formula_sum   'Li24 F24'
_cell_volume   361.89440110
_cell_formula_units_Z   24
loop_
 _symmetry_equiv_pos_site_id
 _symmetry_equiv_pos_as_xyz
  1  'x, y, z'
loop_
 _atom_site_type_symbol
 _atom_site_label
 _atom_site_symmetry_multiplicity
 _atom_site_fract_x
 _atom_site_fract_y
 _atom_site_fract_z
 _atom_site_occupancy
  F  F0  1  0.42102893  0.25000000  0.86173583  1
  F  F1  1  0.07897107  0.75000000  0.36173583  1
  F  F2  1  0.57897107  0.75000000  0.13826417  1
  F  F3  1  0.92102893  0.25000000  0.63826417  1
  F  F4  1  0.94084167  0.83495678  0.56492014  1
  F  F5  1  0.55915833  0.16504322  0.06492014  1
  F  F6  1  0.05915833  0.33495678  0.43507986  1
  F  F7  1  0.44084167  0.66504322  0.93507986  1
  F  F8  1  0.05915833  0.16504322  0.43507986  1
  F  F9  1  0.44084167  0.83495678  0.93507986  1
  F  F10  1  0.94084167  0.66504322  0.56492014  1
  F  F11  1  0.55915833  0.33495678  0.06492014  1
  F  F12  1  0.17648283  0.56067500  0.39799442  1
  F  F13  1  0.32351717  0.43932500  0.89799442  1
  F  F14  1  0.82351717  0.06067500  0.60200558  1
  F  F15  1  0.67648283  0.93932500  0.10200558  1
  F  F16  1  0.82351717  0.43932500  0.60200558  1
  F  F17  1  0.67648283  0.56067500  0.10200558  1
  F  F18  1  0.17648283  0.93932500  0.39799442  1
  F  F19  1  0.32351717  0.06067500  0.89799442  1
  F  F20  1  0.09481587  0.25000000  0.93834718  1
  F  F21  1  0.40518413  0.75000000  0.43834718  1
  F  F22  1  0.90518413  0.75000000  0.06165282  1
  F  F23  1  0.59481587  0.25000000  0.56165282  1
  Li  Li24  1  0.30467034  0.50937325  0.35397167  1
  Li  Li25  1  0.19532966  -0.50937325  0.85397167  1
  Li  Li26  1  -0.30467034  1.00937325  -0.35397167  1
  Li  Li27  1  0.80467034  -0.00937325  0.14602833  1
  Li  Li28  1  -0.30467034  -0.50937325  -0.35397167  1
  Li  Li29  1  0.80467034  0.50937325  0.14602833  1
  Li  Li30  1  0.30467034  -0.00937325  0.35397167  1
  Li  Li31  1  0.19532966  1.00937325  0.85397167  1
  Li  Li32  1  0.00000000  0.00000000  0.50000000  1
  Li  Li33  1  0.50000000  0.00000000  0.00000000  1
  Li  Li34  1  0.00000000  0.50000000  0.50000000  1
  Li  Li35  1  0.50000000  0.50000000  0.00000000  1
  Li  Li36  1  0.00000000  0.00000000  0.00000000  1
  Li  Li37  1  0.50000000  0.00000000  0.50000000  1
  Li  Li38  1  0.00000000  0.50000000  0.00000000  1
  Li  Li39  1  0.50000000  0.50000000  0.50000000  1
  Li  Li40  1  0.31174362  0.05129471  0.55245794  1
  Li  Li41  1  0.18825638  0.94870529  0.05245794  1
  Li  Li42  1  0.68825638  0.55129471  0.44754206  1
  Li  Li43  1  0.81174362  0.44870529  0.94754206  1
  Li  Li44  1  0.68825638  0.94870529  0.44754206  1
  Li  Li45  1  0.81174362  0.05129471  0.94754206  1
  Li  Li46  1  0.31174362  0.44870529  0.55245794  1
  Li  Li47  1  0.18825638  0.55129471  0.05245794  1
