# generated using pymatgen
data_Li2YMoP3
_symmetry_space_group_name_H-M   'P 1'
_cell_length_a   5.61744285
_cell_length_b   5.69977851
_cell_length_c   7.51472468
_cell_angle_alpha   94.59044171
_cell_angle_beta   100.19560941
_cell_angle_gamma   108.67775596
_symmetry_Int_Tables_number   1
_chemical_formula_structural   Li2YMoP3
_chemical_formula_sum   'Li2 Y1 Mo1 P3'
_cell_volume   221.91188402
_cell_formula_units_Z   1
loop_
 _symmetry_equiv_pos_site_id
 _symmetry_equiv_pos_as_xyz
  1  'x, y, z'
loop_
 _atom_site_type_symbol
 _atom_site_label
 _atom_site_symmetry_multiplicity
 _atom_site_fract_x
 _atom_site_fract_y
 _atom_site_fract_z
 _atom_site_occupancy
  Y  Y0  1  0.12500000  0.00000000  0.25000000  1
  P  P1  1  0.00000000  0.00000000  0.00000000  1
  P  P2  1  0.37500000  0.00000000  0.25000000  1
  P  P3  1  0.25000000  0.25000000  0.25000000  1
  Mo  Mo4  1  0.00000000  0.25000000  0.12500000  1
  Li  Li5  1  0.99361393  0.54936162  0.36225970  1
  Li  Li6  1  0.38717027  0.92201131  0.24377672  1
