# generated using pymatgen
data_LiF
_symmetry_space_group_name_H-M   'P 1'
_cell_length_a   4.44022482
_cell_length_b   4.44022482
_cell_length_c   17.43452993
_cell_angle_alpha   90.00000000
_cell_angle_beta   90.00000000
_cell_angle_gamma   90.00000000
_symmetry_Int_Tables_number   1
_chemical_formula_structural   LiF
_chemical_formula_sum   'Li20 F20'
_cell_volume   343.73215667
_cell_formula_units_Z   20
loop_
 _symmetry_equiv_pos_site_id
 _symmetry_equiv_pos_as_xyz
  1  'x, y, z'
loop_
 _atom_site_type_symbol
 _atom_site_label
 _atom_site_symmetry_multiplicity
 _atom_site_fract_x
 _atom_site_fract_y
 _atom_site_fract_z
 _atom_site_occupancy
  F  F0  1  0.00000000  0.25000000  0.37500000  1
  F  F1  1  0.00000000  0.75000000  0.62500000  1
  F  F2  1  0.50000000  0.75000000  0.87500000  1
  F  F3  1  0.50000000  0.25000000  0.12500000  1
  F  F4  1  0.00000000  0.00000000  0.50000000  1
  F  F5  1  0.50000000  0.00000000  0.00000000  1
  F  F6  1  0.25000000  0.75000000  0.75000000  1
  F  F7  1  0.25000000  0.25000000  0.25000000  1
  F  F8  1  0.50000000  0.50000000  0.00000000  1
  F  F9  1  0.00000000  0.50000000  0.50000000  1
  F  F10  1  0.75000000  0.25000000  0.25000000  1
  F  F11  1  0.75000000  0.75000000  0.75000000  1
  F  F12  1  0.00000000  0.25000000  0.33106268  1
  F  F13  1  0.00000000  0.75000000  0.58106268  1
  F  F14  1  0.50000000  0.25000000  0.16893732  1
  F  F15  1  0.50000000  0.75000000  0.91893732  1
  F  F16  1  0.50000000  0.75000000  0.83106268  1
  F  F17  1  0.50000000  0.25000000  0.08106268  1
  F  F18  1  0.00000000  0.75000000  0.66893732  1
  F  F19  1  0.00000000  0.25000000  0.41893732  1
  Li  Li20  1  0.21588622  0.00000000  0.00000000  1
  Li  Li21  1  0.28411378  -0.00000000  0.50000000  1
  Li  Li22  1  0.25000000  0.96588622  0.25000000  1
  Li  Li23  1  0.25000000  0.03411378  0.75000000  1
  Li  Li24  1  -0.21588622  -0.00000000  0.00000000  1
  Li  Li25  1  0.71588622  0.00000000  0.50000000  1
  Li  Li26  1  0.75000000  0.03411378  0.75000000  1
  Li  Li27  1  0.75000000  0.96588622  0.25000000  1
  Li  Li28  1  0.71588622  0.50000000  0.50000000  1
  Li  Li29  1  0.78411378  0.50000000  1.00000000  1
  Li  Li30  1  0.75000000  1.46588622  0.75000000  1
  Li  Li31  1  0.75000000  0.53411378  1.25000000  1
  Li  Li32  1  0.28411378  0.50000000  0.50000000  1
  Li  Li33  1  1.21588622  0.50000000  1.00000000  1
  Li  Li34  1  1.25000000  0.53411378  1.25000000  1
  Li  Li35  1  1.25000000  1.46588622  0.75000000  1
  Li  Li36  1  0.00000000  0.75000000  0.12500000  1
  Li  Li37  1  0.50000000  0.75000000  0.37500000  1
  Li  Li38  1  0.50000000  0.25000000  0.62500000  1
  Li  Li39  1  0.00000000  0.25000000  0.87500000  1
