# generated using pymatgen
data_LiF
_symmetry_space_group_name_H-M   'P 1'
_cell_length_a   17.33252449
_cell_length_b   17.33252449
_cell_length_c   3.60205599
_cell_angle_alpha   90.00000000
_cell_angle_beta   90.00000000
_cell_angle_gamma   120.00000000
_symmetry_Int_Tables_number   1
_chemical_formula_structural   LiF
_chemical_formula_sum   'Li33 F33'
_cell_volume   937.14056159
_cell_formula_units_Z   33
loop_
 _symmetry_equiv_pos_site_id
 _symmetry_equiv_pos_as_xyz
  1  'x, y, z'
loop_
 _atom_site_type_symbol
 _atom_site_label
 _atom_site_symmetry_multiplicity
 _atom_site_fract_x
 _atom_site_fract_y
 _atom_site_fract_z
 _atom_site_occupancy
  F  F0  1  0.21420938  0.44445370  0.81988732  1
  F  F1  1  0.55554630  0.76975568  0.81988732  1
  F  F2  1  0.23024432  0.78579062  0.81988732  1
  F  F3  1  0.55554630  0.78579062  0.18011268  1
  F  F4  1  0.23024432  0.44445370  0.18011268  1
  F  F5  1  0.21420938  0.76975568  0.18011268  1
  F  F6  1  0.00000000  0.00000000  0.25514004  1
  F  F7  1  0.00000000  0.00000000  0.74485996  1
  F  F8  1  0.71432671  0.05257068  0.52999029  1
  F  F9  1  0.94742932  0.66175603  0.52999029  1
  F  F10  1  0.33824397  0.28567329  0.52999029  1
  F  F11  1  0.94742932  0.28567329  0.47000971  1
  F  F12  1  0.33824397  0.05257068  0.47000971  1
  F  F13  1  0.71432671  0.66175603  0.47000971  1
  F  F14  1  0.69834465  0.99060974  0.83352033  1
  F  F15  1  0.00939026  0.70773491  0.83352033  1
  F  F16  1  0.29226509  0.30165535  0.83352033  1
  F  F17  1  0.00939026  0.30165535  0.16647967  1
  F  F18  1  0.29226509  0.99060974  0.16647967  1
  F  F19  1  0.69834465  0.70773491  0.16647967  1
  F  F20  1  0.00000000  0.00000000  0.50000000  1
  F  F21  1  0.41260533  0.30056219  0.03208731  1
  F  F22  1  0.69943781  0.11204314  0.03208731  1
  F  F23  1  0.88795686  0.58739467  0.03208731  1
  F  F24  1  0.69943781  0.58739467  0.96791269  1
  F  F25  1  0.88795686  0.30056219  0.96791269  1
  F  F26  1  0.41260533  0.11204314  0.96791269  1
  F  F27  1  0.60412600  0.99657748  0.30420172  1
  F  F28  1  0.00342252  0.60754852  0.30420172  1
  F  F29  1  0.39245148  0.39587400  0.30420172  1
  F  F30  1  0.00342252  0.39587400  0.69579828  1
  F  F31  1  0.39245148  0.99657748  0.69579828  1
  F  F32  1  0.60412600  0.60754852  0.69579828  1
  Li  Li33  1  0.06502531  0.32382523  0.93639320  1
  Li  Li34  1  -0.32382523  -0.25879992  0.93639320  1
  Li  Li35  1  0.25879992  -0.06502531  0.93639320  1
  Li  Li36  1  -0.32382523  -0.06502531  -0.93639320  1
  Li  Li37  1  0.25879992  0.32382523  -0.93639320  1
  Li  Li38  1  0.06502531  -0.25879992  -0.93639320  1
  Li  Li39  1  0.33333333  0.66666667  0.00000000  1
  Li  Li40  1  0.69614957  0.01428094  0.25775717  1
  Li  Li41  1  0.98571906  0.68186862  0.25775717  1
  Li  Li42  1  0.31813138  0.30385043  0.25775717  1
  Li  Li43  1  0.98571906  0.30385043  0.74224283  1
  Li  Li44  1  0.31813138  0.01428094  0.74224283  1
  Li  Li45  1  0.69614957  0.68186862  0.74224283  1
  Li  Li46  1  0.49765491  0.10313579  0.74909828  1
  Li  Li47  1  0.89686421  0.39451913  0.74909828  1
  Li  Li48  1  0.60548087  0.50234509  0.74909828  1
  Li  Li49  1  0.89686421  0.50234509  0.25090172  1
  Li  Li50  1  0.60548087  0.10313579  0.25090172  1
  Li  Li51  1  0.49765491  0.39451913  0.25090172  1
  Li  Li52  1  0.54477441  0.27274125  0.72091782  1
  Li  Li53  1  0.72725875  0.27203316  0.72091782  1
  Li  Li54  1  0.72796684  0.45522559  0.72091782  1
  Li  Li55  1  0.72725875  0.45522559  0.27908218  1
  Li  Li56  1  0.72796684  0.27274125  0.27908218  1
  Li  Li57  1  0.54477441  0.27203316  0.27908218  1
  Li  Li58  1  0.33333333  0.66666667  0.50000000  1
  Li  Li59  1  0.59348618  0.40651382  -0.00000000  1
  Li  Li60  1  0.59348618  0.18697236  0.00000000  1
  Li  Li61  1  0.81302764  0.40651382  -0.00000000  1
  Li  Li62  1  0.11818001  0.88181999  0.50000000  1
  Li  Li63  1  0.11818001  0.23636002  0.50000000  1
  Li  Li64  1  0.76363998  0.88181999  0.50000000  1
  Li  Li65  1  0.66666667  0.33333333  0.50000000  1
