# generated using pymatgen
data_Li2Si4Te3F12
_symmetry_space_group_name_H-M   'P 1'
_cell_length_a   9.84715338
_cell_length_b   9.84715338
_cell_length_c   10.69941827
_cell_angle_alpha   90.00000000
_cell_angle_beta   90.00000000
_cell_angle_gamma   90.00000000
_symmetry_Int_Tables_number   1
_chemical_formula_structural   Li2Si4Te3F12
_chemical_formula_sum   'Li8 Si16 Te12 F48'
_cell_volume   1037.48438860
_cell_formula_units_Z   4
loop_
 _symmetry_equiv_pos_site_id
 _symmetry_equiv_pos_as_xyz
  1  'x, y, z'
loop_
 _atom_site_type_symbol
 _atom_site_label
 _atom_site_symmetry_multiplicity
 _atom_site_fract_x
 _atom_site_fract_y
 _atom_site_fract_z
 _atom_site_occupancy
  F  F0  1  0.09941467  0.04871141  0.68287935  1
  F  F1  1  0.40058533  -0.04871141  1.18287935  1
  F  F2  1  0.20128859  0.84941467  0.93287935  1
  F  F3  1  0.29871141  0.15058533  1.43287935  1
  F  F4  1  0.40058533  0.04871141  -0.18287935  1
  F  F5  1  0.09941467  -0.04871141  -0.68287935  1
  F  F6  1  0.29871141  0.84941467  -0.43287935  1
  F  F7  1  0.20128859  0.15058533  0.06712065  1
  F  F8  1  -0.09941467  -0.04871141  -0.68287935  1
  F  F9  1  0.59941467  0.04871141  -0.18287935  1
  F  F10  1  0.79871141  0.15058533  0.06712065  1
  F  F11  1  0.70128859  0.84941467  -0.43287935  1
  F  F12  1  0.59941467  -0.04871141  1.18287935  1
  F  F13  1  -0.09941467  0.04871141  0.68287935  1
  F  F14  1  0.70128859  0.15058533  1.43287935  1
  F  F15  1  0.79871141  0.84941467  0.93287935  1
  F  F16  1  0.59941467  0.54871141  1.18287935  1
  F  F17  1  0.90058533  0.45128859  1.68287935  1
  F  F18  1  0.70128859  1.34941467  1.43287935  1
  F  F19  1  0.79871141  0.65058533  1.93287935  1
  F  F20  1  0.90058533  0.54871141  0.31712065  1
  F  F21  1  0.59941467  0.45128859  -0.18287935  1
  F  F22  1  0.79871141  1.34941467  0.06712065  1
  F  F23  1  0.70128859  0.65058533  0.56712065  1
  F  F24  1  0.40058533  0.45128859  -0.18287935  1
  F  F25  1  1.09941467  0.54871141  0.31712065  1
  F  F26  1  1.29871141  0.65058533  0.56712065  1
  F  F27  1  1.20128859  1.34941467  0.06712065  1
  F  F28  1  1.09941467  0.45128859  1.68287935  1
  F  F29  1  0.40058533  0.54871141  1.18287935  1
  F  F30  1  1.20128859  0.65058533  1.93287935  1
  F  F31  1  1.29871141  1.34941467  1.43287935  1
  F  F32  1  0.69799867  0.94799867  0.87500000  1
  F  F33  1  0.80200133  0.05200133  0.37500000  1
  F  F34  1  0.30200133  0.44799867  0.12500000  1
  F  F35  1  0.19799867  0.55200133  0.62500000  1
  F  F36  1  0.30200133  0.05200133  0.12500000  1
  F  F37  1  0.19799867  0.94799867  0.62500000  1
  F  F38  1  0.69799867  0.55200133  0.87500000  1
  F  F39  1  0.80200133  0.44799867  0.37500000  1
  F  F40  1  0.19799867  0.44799867  0.37500000  1
  F  F41  1  0.30200133  0.55200133  0.87500000  1
  F  F42  1  0.80200133  0.94799867  0.62500000  1
  F  F43  1  0.69799867  0.05200133  0.12500000  1
  F  F44  1  0.80200133  0.55200133  0.62500000  1
  F  F45  1  0.69799867  0.44799867  0.12500000  1
  F  F46  1  0.19799867  0.05200133  0.37500000  1
  F  F47  1  0.30200133  0.94799867  0.87500000  1
  Li  Li48  1  0.00000000  0.00000000  0.00000000  1
  Li  Li49  1  0.50000000  0.00000000  0.50000000  1
  Li  Li50  1  0.25000000  0.75000000  0.25000000  1
  Li  Li51  1  0.25000000  0.25000000  0.75000000  1
  Li  Li52  1  0.50000000  0.50000000  0.50000000  1
  Li  Li53  1  0.00000000  0.50000000  0.00000000  1
  Li  Li54  1  0.75000000  0.25000000  0.75000000  1
  Li  Li55  1  0.75000000  0.75000000  0.25000000  1
  Si  Si56  1  0.12782595  0.00000000  -0.00000000  1
  Si  Si57  1  0.37217405  0.00000000  0.50000000  1
  Si  Si58  1  0.25000000  0.87782595  0.25000000  1
  Si  Si59  1  0.25000000  0.12217405  0.75000000  1
  Si  Si60  1  0.87217405  0.00000000  0.00000000  1
  Si  Si61  1  0.62782595  0.00000000  0.50000000  1
  Si  Si62  1  0.75000000  0.12217405  0.75000000  1
  Si  Si63  1  0.75000000  0.87782595  0.25000000  1
  Si  Si64  1  0.62782595  0.50000000  0.50000000  1
  Si  Si65  1  0.87217405  0.50000000  -0.00000000  1
  Si  Si66  1  0.75000000  0.37782595  0.75000000  1
  Si  Si67  1  0.75000000  0.62217405  0.25000000  1
  Si  Si68  1  0.37217405  0.50000000  0.50000000  1
  Si  Si69  1  0.12782595  0.50000000  0.00000000  1
  Si  Si70  1  0.25000000  0.62217405  0.25000000  1
  Si  Si71  1  0.25000000  0.37782595  0.75000000  1
  Te  Te72  1  0.00000000  0.25000000  0.96022649  1
  Te  Te73  1  0.00000000  0.75000000  0.21022649  1
  Te  Te74  1  0.50000000  0.25000000  0.53977351  1
  Te  Te75  1  0.50000000  0.75000000  0.28977351  1
  Te  Te76  1  0.50000000  0.75000000  0.46022649  1
  Te  Te77  1  0.50000000  0.25000000  0.71022649  1
  Te  Te78  1  0.00000000  0.75000000  0.03977351  1
  Te  Te79  1  0.00000000  0.25000000  0.78977351  1
  Te  Te80  1  0.00000000  0.25000000  0.37500000  1
  Te  Te81  1  0.00000000  0.75000000  0.62500000  1
  Te  Te82  1  0.50000000  0.75000000  0.87500000  1
  Te  Te83  1  0.50000000  0.25000000  0.12500000  1
