# generated using pymatgen
data_Li2Y2As2P2Se
_symmetry_space_group_name_H-M   'P 1'
_cell_length_a   5.49931136
_cell_length_b   5.54987577
_cell_length_c   7.37158037
_cell_angle_alpha   93.94278121
_cell_angle_beta   98.58655779
_cell_angle_gamma   105.83658510
_symmetry_Int_Tables_number   1
_chemical_formula_structural   Li2Y2As2P2Se
_chemical_formula_sum   'Li2 Y2 As2 P2 Se1'
_cell_volume   212.59597127
_cell_formula_units_Z   1
loop_
 _symmetry_equiv_pos_site_id
 _symmetry_equiv_pos_as_xyz
  1  'x, y, z'
loop_
 _atom_site_type_symbol
 _atom_site_label
 _atom_site_symmetry_multiplicity
 _atom_site_fract_x
 _atom_site_fract_y
 _atom_site_fract_z
 _atom_site_occupancy
  Se  Se0  1  0.12500000  0.00000000  0.25000000  1
  Y  Y1  1  0.00000000  0.00000000  0.00000000  1
  Y  Y2  1  0.37500000  0.00000000  0.25000000  1
  P  P3  1  0.25000000  0.25000000  0.25000000  1
  P  P4  1  0.00000000  0.25000000  0.12500000  1
  As  As5  1  0.95874045  0.04224520  0.85417046  1
  As  As6  1  0.08418565  0.11558276  0.77333615  1
  Li  Li7  1  0.90699375  0.42144447  0.18456143  1
  Li  Li8  1  0.78142686  0.76686012  0.76705948  1
