# generated using pymatgen
data_LiF
_symmetry_space_group_name_H-M   'P 1'
_cell_length_a   9.76034569
_cell_length_b   8.82184238
_cell_length_c   10.00535444
_cell_angle_alpha   90.00000000
_cell_angle_beta   90.00000000
_cell_angle_gamma   90.00000000
_symmetry_Int_Tables_number   1
_chemical_formula_structural   LiF
_chemical_formula_sum   'Li30 F30'
_cell_volume   861.50335294
_cell_formula_units_Z   30
loop_
 _symmetry_equiv_pos_site_id
 _symmetry_equiv_pos_as_xyz
  1  'x, y, z'
loop_
 _atom_site_type_symbol
 _atom_site_label
 _atom_site_symmetry_multiplicity
 _atom_site_fract_x
 _atom_site_fract_y
 _atom_site_fract_z
 _atom_site_occupancy
  F  F0  1  0.64986478  0.22185603  -0.00000000  1
  F  F1  1  0.35013522  0.77814397  0.00000000  1
  F  F2  1  0.85013522  0.72185603  -0.00000000  1
  F  F3  1  0.14986478  0.27814397  0.00000000  1
  F  F4  1  0.00000000  0.00000000  0.00000000  1
  F  F5  1  0.50000000  0.50000000  0.00000000  1
  F  F6  1  0.33950123  0.77688696  0.83128569  1
  F  F7  1  0.66049877  0.22311304  0.83128569  1
  F  F8  1  0.16049877  0.27688696  0.16871431  1
  F  F9  1  0.83950123  0.72311304  0.16871431  1
  F  F10  1  0.66049877  0.22311304  0.16871431  1
  F  F11  1  0.33950123  0.77688696  0.16871431  1
  F  F12  1  0.83950123  0.72311304  0.83128569  1
  F  F13  1  0.16049877  0.27688696  0.83128569  1
  F  F14  1  0.98275513  0.73045928  0.33328922  1
  F  F15  1  0.01724487  0.26954072  0.33328922  1
  F  F16  1  0.51724487  0.23045928  0.66671078  1
  F  F17  1  0.48275513  0.76954072  0.66671078  1
  F  F18  1  0.01724487  0.26954072  0.66671078  1
  F  F19  1  0.98275513  0.73045928  0.66671078  1
  F  F20  1  0.48275513  0.76954072  0.33328922  1
  F  F21  1  0.51724487  0.23045928  0.33328922  1
  F  F22  1  0.22787611  0.05939840  0.07603946  1
  F  F23  1  0.77212389  0.94060160  0.07603946  1
  F  F24  1  0.27212389  0.55939840  0.92396054  1
  F  F25  1  0.72787611  0.44060160  0.92396054  1
  F  F26  1  0.77212389  0.94060160  0.92396054  1
  F  F27  1  0.22787611  0.05939840  0.92396054  1
  F  F28  1  0.72787611  0.44060160  0.07603946  1
  F  F29  1  0.27212389  0.55939840  0.07603946  1
  Li  Li30  1  0.00000000  0.00000000  0.61700259  1
  Li  Li31  1  0.50000000  0.50000000  0.38299741  1
  Li  Li32  1  0.00000000  0.00000000  0.38299741  1
  Li  Li33  1  0.50000000  0.50000000  0.61700259  1
  Li  Li34  1  0.00000000  0.50000000  0.50000000  1
  Li  Li35  1  0.50000000  -0.00000000  0.50000000  1
  Li  Li36  1  0.87562625  0.79564952  0.58292607  1
  Li  Li37  1  -0.87562625  -0.79564952  0.58292607  1
  Li  Li38  1  -0.37562625  1.29564952  -0.58292607  1
  Li  Li39  1  1.37562625  -0.29564952  -0.58292607  1
  Li  Li40  1  -0.87562625  -0.79564952  -0.58292607  1
  Li  Li41  1  0.87562625  0.79564952  -0.58292607  1
  Li  Li42  1  1.37562625  -0.29564952  0.58292607  1
  Li  Li43  1  -0.37562625  1.29564952  0.58292607  1
  Li  Li44  1  0.84907065  0.87265431  0.76299763  1
  Li  Li45  1  0.15092935  0.12734569  0.76299763  1
  Li  Li46  1  0.65092935  0.37265431  0.23700237  1
  Li  Li47  1  0.34907065  0.62734569  0.23700237  1
  Li  Li48  1  0.15092935  0.12734569  0.23700237  1
  Li  Li49  1  0.84907065  0.87265431  0.23700237  1
  Li  Li50  1  0.34907065  0.62734569  0.76299763  1
  Li  Li51  1  0.65092935  0.37265431  0.76299763  1
  Li  Li52  1  0.52419666  0.64269744  0.13873128  1
  Li  Li53  1  0.47580334  0.35730256  0.13873128  1
  Li  Li54  1  0.97580334  0.14269744  0.86126872  1
  Li  Li55  1  0.02419666  0.85730256  0.86126872  1
  Li  Li56  1  0.47580334  0.35730256  0.86126872  1
  Li  Li57  1  0.52419666  0.64269744  0.86126872  1
  Li  Li58  1  0.02419666  0.85730256  0.13873128  1
  Li  Li59  1  0.97580334  0.14269744  0.13873128  1
