# generated using pymatgen
data_LiF
_symmetry_space_group_name_H-M   'P 1'
_cell_length_a   8.40214546
_cell_length_b   8.40214546
_cell_length_c   7.48492651
_cell_angle_alpha   90.00000000
_cell_angle_beta   90.00000000
_cell_angle_gamma   120.00000000
_symmetry_Int_Tables_number   1
_chemical_formula_structural   LiF
_chemical_formula_sum   'Li22 F22'
_cell_volume   457.61322186
_cell_formula_units_Z   22
loop_
 _symmetry_equiv_pos_site_id
 _symmetry_equiv_pos_as_xyz
  1  'x, y, z'
loop_
 _atom_site_type_symbol
 _atom_site_label
 _atom_site_symmetry_multiplicity
 _atom_site_fract_x
 _atom_site_fract_y
 _atom_site_fract_z
 _atom_site_occupancy
  F  F0  1  0.16926375  0.38571624  0.27880569  1
  F  F1  1  0.61428376  0.78354750  0.27880569  1
  F  F2  1  0.21645250  0.83073625  0.27880569  1
  F  F3  1  0.61428376  0.83073625  0.72119431  1
  F  F4  1  0.21645250  0.38571624  0.72119431  1
  F  F5  1  0.16926375  0.78354750  0.72119431  1
  F  F6  1  0.14029609  0.66942361  0.90124006  1
  F  F7  1  0.33057639  0.47087248  0.90124006  1
  F  F8  1  0.52912752  0.85970391  0.90124006  1
  F  F9  1  0.33057639  0.85970391  0.09875994  1
  F  F10  1  0.52912752  0.66942361  0.09875994  1
  F  F11  1  0.14029609  0.47087248  0.09875994  1
  F  F12  1  0.74226609  0.40908520  0.80702464  1
  F  F13  1  0.59091480  0.33318089  0.80702464  1
  F  F14  1  0.66681911  0.25773391  0.80702464  1
  F  F15  1  0.59091480  0.25773391  0.19297536  1
  F  F16  1  0.66681911  0.40908520  0.19297536  1
  F  F17  1  0.74226609  0.33318089  0.19297536  1
  F  F18  1  0.16261986  0.83738014  0.50000000  1
  F  F19  1  0.16261986  0.32523972  0.50000000  1
  F  F20  1  0.67476028  0.83738014  0.50000000  1
  F  F21  1  0.33333333  0.66666667  0.50000000  1
  Li  Li22  1  0.33333333  0.66666667  0.17621354  1
  Li  Li23  1  0.33333333  0.66666667  0.82378646  1
  Li  Li24  1  0.00000000  0.00000000  0.00000000  1
  Li  Li25  1  0.07048460  0.24859762  0.72916221  1
  Li  Li26  1  -0.24859762  -0.17811302  0.72916221  1
  Li  Li27  1  0.17811302  -0.07048460  0.72916221  1
  Li  Li28  1  -0.24859762  -0.07048460  -0.72916221  1
  Li  Li29  1  0.17811302  0.24859762  -0.72916221  1
  Li  Li30  1  0.07048460  -0.17811302  -0.72916221  1
  Li  Li31  1  0.77270720  0.22729280  0.00000000  1
  Li  Li32  1  0.77270720  0.54541441  0.00000000  1
  Li  Li33  1  0.45458559  0.22729280  -0.00000000  1
  Li  Li34  1  0.66666667  0.33333333  0.69984320  1
  Li  Li35  1  0.66666667  0.33333333  0.30015680  1
  Li  Li36  1  0.41820881  0.38663266  0.08080890  1
  Li  Li37  1  0.61336734  0.03157615  0.08080890  1
  Li  Li38  1  0.96842385  0.58179119  0.08080890  1
  Li  Li39  1  0.61336734  0.58179119  0.91919110  1
  Li  Li40  1  0.96842385  0.38663266  0.91919110  1
  Li  Li41  1  0.41820881  0.03157615  0.91919110  1
  Li  Li42  1  0.66666667  0.33333333  -0.00000000  1
  Li  Li43  1  0.00000000  0.00000000  0.50000000  1
