# generated using pymatgen
data_Li2Cu3P2Se
_symmetry_space_group_name_H-M   'P 1'
_cell_length_a   4.70617705
_cell_length_b   5.03201037
_cell_length_c   6.34742783
_cell_angle_alpha   94.07056420
_cell_angle_beta   97.32986804
_cell_angle_gamma   103.80156957
_symmetry_Int_Tables_number   1
_chemical_formula_structural   Li2Cu3P2Se
_chemical_formula_sum   'Li2 Cu3 P2 Se1'
_cell_volume   143.97904063
_cell_formula_units_Z   1
loop_
 _symmetry_equiv_pos_site_id
 _symmetry_equiv_pos_as_xyz
  1  'x, y, z'
loop_
 _atom_site_type_symbol
 _atom_site_label
 _atom_site_symmetry_multiplicity
 _atom_site_fract_x
 _atom_site_fract_y
 _atom_site_fract_z
 _atom_site_occupancy
  P  P0  1  0.00000000  0.00000000  0.00000000  1
  P  P1  1  0.33300000  0.66700000  0.25000000  1
  Se  Se2  1  0.66700000  0.33300000  0.50000000  1
  Li  Li3  1  0.00000000  0.00000000  0.75000000  1
  Li  Li4  1  0.40573761  0.49718937  0.68369672  1
  Cu  Cu5  1  0.82962340  0.86300135  0.35130341  1
  Cu  Cu6  1  0.45188452  0.66230124  0.90603540  1
  Cu  Cu7  1  0.97793989  0.43452201  0.27320153  1
