# generated using pymatgen
data_Li3Y2P3Se2
_symmetry_space_group_name_H-M   'P 1'
_cell_length_a   5.39779396
_cell_length_b   5.63701407
_cell_length_c   7.24845944
_cell_angle_alpha   93.99220837
_cell_angle_beta   98.69419987
_cell_angle_gamma   106.03511436
_symmetry_Int_Tables_number   1
_chemical_formula_structural   Li3Y2P3Se2
_chemical_formula_sum   'Li3 Y2 P3 Se2'
_cell_volume   208.09042118
_cell_formula_units_Z   1
loop_
 _symmetry_equiv_pos_site_id
 _symmetry_equiv_pos_as_xyz
  1  'x, y, z'
loop_
 _atom_site_type_symbol
 _atom_site_label
 _atom_site_symmetry_multiplicity
 _atom_site_fract_x
 _atom_site_fract_y
 _atom_site_fract_z
 _atom_site_occupancy
  Se  Se0  1  0.12500000  0.00000000  0.25000000  1
  Se  Se1  1  0.00000000  0.00000000  0.00000000  1
  Y  Y2  1  0.37500000  0.00000000  0.25000000  1
  Y  Y3  1  0.25000000  0.25000000  0.25000000  1
  P  P4  1  0.00000000  0.25000000  0.12500000  1
  P  P5  1  0.79778096  0.70035515  0.09535638  1
  P  P6  1  0.21538965  0.42858281  0.95216685  1
  Li  Li7  1  0.87196475  0.79311153  0.57373503  1
  Li  Li8  1  0.27471960  0.51356716  0.46099214  1
  Li  Li9  1  0.44791261  0.36853548  0.22121885  1
