# generated using pymatgen
data_LiY2P3Se2
_symmetry_space_group_name_H-M   'P 1'
_cell_length_a   5.30297927
_cell_length_b   5.56177016
_cell_length_c   7.31348951
_cell_angle_alpha   94.25975098
_cell_angle_beta   99.27685204
_cell_angle_gamma   107.10972667
_symmetry_Int_Tables_number   1
_chemical_formula_structural   LiY2P3Se2
_chemical_formula_sum   'Li1 Y2 P3 Se2'
_cell_volume   201.76022710
_cell_formula_units_Z   1
loop_
 _symmetry_equiv_pos_site_id
 _symmetry_equiv_pos_as_xyz
  1  'x, y, z'
loop_
 _atom_site_type_symbol
 _atom_site_label
 _atom_site_symmetry_multiplicity
 _atom_site_fract_x
 _atom_site_fract_y
 _atom_site_fract_z
 _atom_site_occupancy
  Se  Se0  1  0.00000000  0.00000000  0.00000000  1
  Se  Se1  1  0.50000000  0.50000000  0.50000000  1
  Y  Y2  1  0.25000000  0.25000000  0.25000000  1
  Y  Y3  1  0.75000000  0.25000000  0.00000000  1
  P  P4  1  0.25000000  0.75000000  0.50000000  1
  P  P5  1  0.53416771  0.00761215  0.90924000  1
  P  P6  1  0.08688699  0.47553164  0.90232384  1
  Li  Li7  1  0.78442554  0.04972606  0.41278855  1
