# generated using pymatgen
data_Li2As2P3Se
_symmetry_space_group_name_H-M   'P 1'
_cell_length_a   5.03895985
_cell_length_b   5.29755568
_cell_length_c   6.51897509
_cell_angle_alpha   92.85551323
_cell_angle_beta   97.22851596
_cell_angle_gamma   101.81119014
_symmetry_Int_Tables_number   1
_chemical_formula_structural   Li2As2P3Se
_chemical_formula_sum   'Li2 As2 P3 Se1'
_cell_volume   168.46790463
_cell_formula_units_Z   1
loop_
 _symmetry_equiv_pos_site_id
 _symmetry_equiv_pos_as_xyz
  1  'x, y, z'
loop_
 _atom_site_type_symbol
 _atom_site_label
 _atom_site_symmetry_multiplicity
 _atom_site_fract_x
 _atom_site_fract_y
 _atom_site_fract_z
 _atom_site_occupancy
  Se  Se0  1  0.00000000  0.00000000  0.00000000  1
  P  P1  1  0.33300000  0.66700000  0.25000000  1
  P  P2  1  0.66700000  0.33300000  0.50000000  1
  P  P3  1  0.00000000  0.00000000  0.75000000  1
  As  As4  1  0.48195150  0.00151004  0.48966297  1
  As  As5  1  0.82299037  0.01254928  0.28884976  1
  Li  Li6  1  0.23984855  0.42128988  0.02504594  1
  Li  Li7  1  0.36975152  0.02316424  0.21566611  1
