# generated using pymatgen
data_LiF
_symmetry_space_group_name_H-M   'P 1'
_cell_length_a   4.76950639
_cell_length_b   11.77591197
_cell_length_c   4.93153772
_cell_angle_alpha   90.00000000
_cell_angle_beta   90.00000000
_cell_angle_gamma   90.00000000
_symmetry_Int_Tables_number   1
_chemical_formula_structural   LiF
_chemical_formula_sum   'Li16 F16'
_cell_volume   276.98123360
_cell_formula_units_Z   16
loop_
 _symmetry_equiv_pos_site_id
 _symmetry_equiv_pos_as_xyz
  1  'x, y, z'
loop_
 _atom_site_type_symbol
 _atom_site_label
 _atom_site_symmetry_multiplicity
 _atom_site_fract_x
 _atom_site_fract_y
 _atom_site_fract_z
 _atom_site_occupancy
  F  F0  1  0.68103193  0.25000000  0.67885607  1
  F  F1  1  0.81896807  0.75000000  0.17885607  1
  F  F2  1  0.31896807  0.75000000  0.32114393  1
  F  F3  1  0.18103193  0.25000000  0.82114393  1
  F  F4  1  0.46339115  0.95332632  0.95544330  1
  F  F5  1  0.03660885  0.04667368  0.45544330  1
  F  F6  1  0.53660885  0.45332632  0.04455670  1
  F  F7  1  0.96339115  0.54667368  0.54455670  1
  F  F8  1  0.53660885  0.04667368  0.04455670  1
  F  F9  1  0.96339115  0.95332632  0.54455670  1
  F  F10  1  0.46339115  0.54667368  0.95544330  1
  F  F11  1  0.03660885  0.45332632  0.45544330  1
  F  F12  1  0.50464235  0.25000000  0.33189334  1
  F  F13  1  0.99535765  0.75000000  0.83189334  1
  F  F14  1  0.49535765  0.75000000  0.66810666  1
  F  F15  1  0.00464235  0.25000000  0.16810666  1
  Li  Li16  1  0.46790779  0.25000000  0.57609721  1
  Li  Li17  1  0.03209221  0.75000000  0.07609721  1
  Li  Li18  1  0.53209221  0.75000000  0.42390279  1
  Li  Li19  1  0.96790779  0.25000000  0.92390279  1
  Li  Li20  1  0.37813179  0.10467424  0.50979608  1
  Li  Li21  1  0.12186821  -0.10467424  1.00979608  1
  Li  Li22  1  -0.37813179  0.60467424  -0.50979608  1
  Li  Li23  1  0.87813179  0.39532576  -0.00979608  1
  Li  Li24  1  -0.37813179  -0.10467424  -0.50979608  1
  Li  Li25  1  0.87813179  0.10467424  -0.00979608  1
  Li  Li26  1  0.37813179  0.39532576  0.50979608  1
  Li  Li27  1  0.12186821  0.60467424  1.00979608  1
  Li  Li28  1  0.00000000  0.00000000  0.00000000  1
  Li  Li29  1  0.50000000  0.00000000  0.50000000  1
  Li  Li30  1  0.00000000  0.50000000  0.00000000  1
  Li  Li31  1  0.50000000  0.50000000  0.50000000  1
