# generated using pymatgen
data_Li2Si4Te3F12
_symmetry_space_group_name_H-M   'P 1'
_cell_length_a   7.02749911
_cell_length_b   7.02749911
_cell_length_c   18.48502580
_cell_angle_alpha   90.00000000
_cell_angle_beta   90.00000000
_cell_angle_gamma   90.00000000
_symmetry_Int_Tables_number   1
_chemical_formula_structural   Li2Si4Te3F12
_chemical_formula_sum   'Li8 Si16 Te12 F48'
_cell_volume   912.89674769
_cell_formula_units_Z   4
loop_
 _symmetry_equiv_pos_site_id
 _symmetry_equiv_pos_as_xyz
  1  'x, y, z'
loop_
 _atom_site_type_symbol
 _atom_site_label
 _atom_site_symmetry_multiplicity
 _atom_site_fract_x
 _atom_site_fract_y
 _atom_site_fract_z
 _atom_site_occupancy
  F  F0  1  0.17375445  0.89380579  0.58286787  1
  F  F1  1  0.32624555  -0.89380579  1.08286787  1
  F  F2  1  -0.64380579  0.92375445  0.83286787  1
  F  F3  1  1.14380579  0.07624555  1.33286787  1
  F  F4  1  0.32624555  0.89380579  -0.08286787  1
  F  F5  1  0.17375445  -0.89380579  -0.58286787  1
  F  F6  1  1.14380579  0.92375445  -0.33286787  1
  F  F7  1  -0.64380579  0.07624555  0.16713213  1
  F  F8  1  -0.17375445  -0.89380579  -0.58286787  1
  F  F9  1  0.67375445  0.89380579  -0.08286787  1
  F  F10  1  1.64380579  0.07624555  0.16713213  1
  F  F11  1  -0.14380579  0.92375445  -0.33286787  1
  F  F12  1  0.67375445  -0.89380579  1.08286787  1
  F  F13  1  -0.17375445  0.89380579  0.58286787  1
  F  F14  1  -0.14380579  0.07624555  1.33286787  1
  F  F15  1  1.64380579  0.92375445  0.83286787  1
  F  F16  1  0.67375445  1.39380579  1.08286787  1
  F  F17  1  0.82624555  -0.39380579  1.58286787  1
  F  F18  1  -0.14380579  1.42375445  1.33286787  1
  F  F19  1  1.64380579  0.57624555  1.83286787  1
  F  F20  1  0.82624555  1.39380579  0.41713213  1
  F  F21  1  0.67375445  -0.39380579  -0.08286787  1
  F  F22  1  1.64380579  1.42375445  0.16713213  1
  F  F23  1  -0.14380579  0.57624555  0.66713213  1
  F  F24  1  0.32624555  -0.39380579  -0.08286787  1
  F  F25  1  1.17375445  1.39380579  0.41713213  1
  F  F26  1  2.14380579  0.57624555  0.66713213  1
  F  F27  1  0.35619421  1.42375445  0.16713213  1
  F  F28  1  1.17375445  -0.39380579  1.58286787  1
  F  F29  1  0.32624555  1.39380579  1.08286787  1
  F  F30  1  0.35619421  0.57624555  1.83286787  1
  F  F31  1  2.14380579  1.42375445  1.33286787  1
  F  F32  1  0.00000000  0.52099060  0.09176232  1
  F  F33  1  0.50000000  0.47900940  0.59176232  1
  F  F34  1  0.72900940  0.75000000  0.34176232  1
  F  F35  1  0.77099060  0.25000000  0.84176232  1
  F  F36  1  0.50000000  0.52099060  0.40823768  1
  F  F37  1  0.00000000  0.47900940  0.90823768  1
  F  F38  1  0.77099060  0.75000000  0.15823768  1
  F  F39  1  0.72900940  0.25000000  0.65823768  1
  F  F40  1  0.50000000  0.02099060  0.59176232  1
  F  F41  1  0.00000000  0.97900940  0.09176232  1
  F  F42  1  0.22900940  0.25000000  0.84176232  1
  F  F43  1  0.27099060  0.75000000  0.34176232  1
  F  F44  1  0.00000000  0.02099060  0.90823768  1
  F  F45  1  0.50000000  0.97900940  0.40823768  1
  F  F46  1  0.27099060  0.25000000  0.65823768  1
  F  F47  1  0.22900940  0.75000000  0.15823768  1
  Li  Li48  1  0.00000000  0.00000000  0.00000000  1
  Li  Li49  1  0.50000000  0.00000000  0.50000000  1
  Li  Li50  1  0.25000000  0.75000000  0.25000000  1
  Li  Li51  1  0.25000000  0.25000000  0.75000000  1
  Li  Li52  1  0.50000000  0.50000000  0.50000000  1
  Li  Li53  1  0.00000000  0.50000000  0.00000000  1
  Li  Li54  1  0.75000000  0.25000000  0.75000000  1
  Li  Li55  1  0.75000000  0.75000000  0.25000000  1
  Si  Si56  1  0.28199221  0.53199221  0.87500000  1
  Si  Si57  1  0.21800779  0.46800779  0.37500000  1
  Si  Si58  1  0.71800779  0.03199221  0.12500000  1
  Si  Si59  1  0.78199221  0.96800779  0.62500000  1
  Si  Si60  1  0.71800779  0.46800779  0.12500000  1
  Si  Si61  1  0.78199221  0.53199221  0.62500000  1
  Si  Si62  1  0.28199221  0.96800779  0.87500000  1
  Si  Si63  1  0.21800779  0.03199221  0.37500000  1
  Si  Si64  1  0.78199221  0.03199221  0.37500000  1
  Si  Si65  1  0.71800779  0.96800779  0.87500000  1
  Si  Si66  1  0.21800779  0.53199221  0.62500000  1
  Si  Si67  1  0.28199221  0.46800779  0.12500000  1
  Si  Si68  1  0.21800779  0.96800779  0.62500000  1
  Si  Si69  1  0.28199221  0.03199221  0.12500000  1
  Si  Si70  1  0.78199221  0.46800779  0.37500000  1
  Si  Si71  1  0.71800779  0.53199221  0.87500000  1
  Te  Te72  1  0.00000000  0.00000000  0.50000000  1
  Te  Te73  1  0.50000000  0.00000000  0.00000000  1
  Te  Te74  1  0.25000000  0.75000000  0.75000000  1
  Te  Te75  1  0.25000000  0.25000000  0.25000000  1
  Te  Te76  1  0.50000000  0.50000000  0.00000000  1
  Te  Te77  1  0.00000000  0.50000000  0.50000000  1
  Te  Te78  1  0.75000000  0.25000000  0.25000000  1
  Te  Te79  1  0.75000000  0.75000000  0.75000000  1
  Te  Te80  1  0.00000000  0.75000000  0.12500000  1
  Te  Te81  1  0.50000000  0.75000000  0.37500000  1
  Te  Te82  1  0.50000000  0.25000000  0.62500000  1
  Te  Te83  1  0.00000000  0.25000000  0.87500000  1
