# generated using pymatgen
data_Li2Y2As3P2Se
_symmetry_space_group_name_H-M   'P 1'
_cell_length_a   4.77182714
_cell_length_b   4.81780330
_cell_length_c   6.90424162
_cell_angle_alpha   95.13906460
_cell_angle_beta   101.19181431
_cell_angle_gamma   110.64158002
_symmetry_Int_Tables_number   1
_chemical_formula_structural   Li2Y2As3P2Se
_chemical_formula_sum   'Li2 Y2 As3 P2 Se1'
_cell_volume   143.53796624
_cell_formula_units_Z   1
loop_
 _symmetry_equiv_pos_site_id
 _symmetry_equiv_pos_as_xyz
  1  'x, y, z'
loop_
 _atom_site_type_symbol
 _atom_site_label
 _atom_site_symmetry_multiplicity
 _atom_site_fract_x
 _atom_site_fract_y
 _atom_site_fract_z
 _atom_site_occupancy
  Se  Se0  1  0.00000000  0.00000000  0.00000000  1
  P  P1  1  0.50000000  0.50000000  0.50000000  1
  P  P2  1  0.25000000  0.25000000  0.25000000  1
  As  As3  1  0.75000000  0.25000000  0.00000000  1
  As  As4  1  0.25000000  0.75000000  0.50000000  1
  As  As5  1  0.34692325  0.14638466  0.62875401  1
  Li  Li6  1  0.96384457  0.41039234  0.63253861  1
  Li  Li7  1  0.67379223  0.76463526  0.22932526  1
  Y  Y8  1  0.75859449  0.93929044  0.84011383  1
  Y  Y9  1  0.00676128  0.33343832  0.77542265  1
