# generated using pymatgen
data_LiY2Te4As3P2
_symmetry_space_group_name_H-M   'P 1'
_cell_length_a   5.06386811
_cell_length_b   5.00465285
_cell_length_c   7.24576158
_cell_angle_alpha   94.83692302
_cell_angle_beta   100.53381277
_cell_angle_gamma   109.42799739
_symmetry_Int_Tables_number   1
_chemical_formula_structural   LiY2Te4As3P2
_chemical_formula_sum   'Li1 Y2 Te4 As3 P2'
_cell_volume   168.15574114
_cell_formula_units_Z   1
loop_
 _symmetry_equiv_pos_site_id
 _symmetry_equiv_pos_as_xyz
  1  'x, y, z'
loop_
 _atom_site_type_symbol
 _atom_site_label
 _atom_site_symmetry_multiplicity
 _atom_site_fract_x
 _atom_site_fract_y
 _atom_site_fract_z
 _atom_site_occupancy
  Te  Te0  1  0.00000000  0.00000000  0.00000000  1
  Te  Te1  1  0.50000000  0.50000000  0.50000000  1
  Te  Te2  1  0.50000000  0.50000000  0.00000000  1
  Te  Te3  1  0.50000000  0.00000000  0.50000000  1
  P  P4  1  0.00000000  0.50000000  0.50000000  1
  P  P5  1  0.76251599  0.19638913  0.05763525  1
  As  As6  1  0.07799508  0.10740905  0.32993624  1
  As  As7  1  0.82883871  0.01897621  0.50278990  1
  As  As8  1  0.97371049  0.62345883  0.95814422  1
  Li  Li9  1  0.78308975  0.84579166  0.94480388  1
  Y  Y10  1  0.47884468  0.10159128  0.61551150  1
  Y  Y11  1  0.73115250  0.89414005  0.18738701  1
