# generated using pymatgen
data_LiF
_symmetry_space_group_name_H-M   'P 1'
_cell_length_a   4.17077097
_cell_length_b   6.57689244
_cell_length_c   8.52092751
_cell_angle_alpha   90.00000000
_cell_angle_beta   90.00000000
_cell_angle_gamma   90.00000000
_symmetry_Int_Tables_number   1
_chemical_formula_structural   LiF
_chemical_formula_sum   'Li16 F16'
_cell_volume   233.73510914
_cell_formula_units_Z   16
loop_
 _symmetry_equiv_pos_site_id
 _symmetry_equiv_pos_as_xyz
  1  'x, y, z'
loop_
 _atom_site_type_symbol
 _atom_site_label
 _atom_site_symmetry_multiplicity
 _atom_site_fract_x
 _atom_site_fract_y
 _atom_site_fract_z
 _atom_site_occupancy
  F  F0  1  0.85576417  0.13228691  0.67181074  1
  F  F1  1  -0.85576417  -0.13228691  0.67181074  1
  F  F2  1  -0.35576417  0.63228691  -0.67181074  1
  F  F3  1  1.35576417  0.36771309  -0.67181074  1
  F  F4  1  -0.85576417  -0.13228691  -0.67181074  1
  F  F5  1  0.85576417  0.13228691  -0.67181074  1
  F  F6  1  1.35576417  0.36771309  0.67181074  1
  F  F7  1  -0.35576417  0.63228691  0.67181074  1
  F  F8  1  0.18942031  0.22175671  0.74805645  1
  F  F9  1  0.81057969  0.77824329  0.74805645  1
  F  F10  1  0.31057969  0.72175671  0.25194355  1
  F  F11  1  0.68942031  0.27824329  0.25194355  1
  F  F12  1  0.81057969  0.77824329  0.25194355  1
  F  F13  1  0.18942031  0.22175671  0.25194355  1
  F  F14  1  0.68942031  0.27824329  0.74805645  1
  F  F15  1  0.31057969  0.72175671  0.74805645  1
  Li  Li16  1  0.22408819  0.05731414  0.50000000  1
  Li  Li17  1  0.77591181  0.94268586  0.50000000  1
  Li  Li18  1  0.27591181  0.55731414  0.50000000  1
  Li  Li19  1  0.72408819  0.44268586  0.50000000  1
  Li  Li20  1  0.00000000  0.00000000  0.00000000  1
  Li  Li21  1  0.50000000  0.50000000  -0.00000000  1
  Li  Li22  1  0.00000000  0.50000000  0.23460677  1
  Li  Li23  1  0.50000000  0.00000000  0.76539323  1
  Li  Li24  1  0.00000000  0.50000000  0.76539323  1
  Li  Li25  1  0.50000000  0.00000000  0.23460677  1
  Li  Li26  1  0.00000000  0.50000000  0.00000000  1
  Li  Li27  1  0.50000000  0.00000000  -0.00000000  1
  Li  Li28  1  0.50390072  0.25098803  -0.00000000  1
  Li  Li29  1  0.49609928  0.74901197  0.00000000  1
  Li  Li30  1  0.99609928  0.75098803  0.00000000  1
  Li  Li31  1  0.00390072  0.24901197  -0.00000000  1
