# generated using pymatgen
data_Li3Y2As4P3Se
_symmetry_space_group_name_H-M   'P 1'
_cell_length_a   5.86264033
_cell_length_b   6.06833963
_cell_length_c   7.14990619
_cell_angle_alpha   92.45865089
_cell_angle_beta   95.75441343
_cell_angle_gamma   100.35837998
_symmetry_Int_Tables_number   1
_chemical_formula_structural   Li3Y2As4P3Se
_chemical_formula_sum   'Li3 Y2 As4 P3 Se1'
_cell_volume   248.47921569
_cell_formula_units_Z   1
loop_
 _symmetry_equiv_pos_site_id
 _symmetry_equiv_pos_as_xyz
  1  'x, y, z'
loop_
 _atom_site_type_symbol
 _atom_site_label
 _atom_site_symmetry_multiplicity
 _atom_site_fract_x
 _atom_site_fract_y
 _atom_site_fract_z
 _atom_site_occupancy
  Se  Se0  1  0.12500000  0.00000000  0.25000000  1
  Y  Y1  1  0.00000000  0.00000000  0.00000000  1
  Y  Y2  1  0.37500000  0.00000000  0.25000000  1
  P  P3  1  0.25000000  0.25000000  0.25000000  1
  P  P4  1  0.00000000  0.25000000  0.12500000  1
  P  P5  1  0.76191165  0.91074523  0.92275366  1
  As  As6  1  0.24756295  0.79220616  0.97485306  1
  As  As7  1  0.37772643  0.41919395  0.82334671  1
  As  As8  1  0.41905663  0.91120232  0.99464299  1
  As  As9  1  0.87353192  0.56184482  0.89698491  1
  Li  Li10  1  0.92392197  0.88462825  0.95471188  1
  Li  Li11  1  0.06678966  0.47510836  0.58866050  1
  Li  Li12  1  0.37891499  0.80060109  0.29182245  1
