# generated using pymatgen
data_Li2Y2Te4MoP2
_symmetry_space_group_name_H-M   'P 1'
_cell_length_a   4.86600313
_cell_length_b   5.01118631
_cell_length_c   7.00765207
_cell_angle_alpha   95.07215073
_cell_angle_beta   101.04608981
_cell_angle_gamma   110.37281360
_symmetry_Int_Tables_number   1
_chemical_formula_structural   Li2Y2Te4MoP2
_chemical_formula_sum   'Li2 Y2 Te4 Mo1 P2'
_cell_volume   154.97083934
_cell_formula_units_Z   1
loop_
 _symmetry_equiv_pos_site_id
 _symmetry_equiv_pos_as_xyz
  1  'x, y, z'
loop_
 _atom_site_type_symbol
 _atom_site_label
 _atom_site_symmetry_multiplicity
 _atom_site_fract_x
 _atom_site_fract_y
 _atom_site_fract_z
 _atom_site_occupancy
  Y  Y0  1  0.00000000  0.00000000  0.00000000  1
  Y  Y1  1  0.50000000  0.50000000  0.50000000  1
  P  P2  1  0.25000000  0.25000000  0.25000000  1
  P  P3  1  0.75000000  0.25000000  0.00000000  1
  Mo  Mo4  1  0.25000000  0.75000000  0.50000000  1
  Li  Li5  1  0.98137062  0.08098627  0.54433379  1
  Li  Li6  1  0.16051678  0.58549149  0.81281306  1
  Te  Te7  1  0.70944754  0.64283548  0.14768794  1
  Te  Te8  1  0.55316597  0.22053442  0.47362004  1
  Te  Te9  1  0.50419124  0.95983954  0.45814582  1
  Te  Te10  1  0.18295604  0.17675536  0.78149310  1
