# generated using pymatgen
data_LiF
_symmetry_space_group_name_H-M   'P 1'
_cell_length_a   13.14991064
_cell_length_b   13.14991064
_cell_length_c   5.21402069
_cell_angle_alpha   90.00000000
_cell_angle_beta   90.00000000
_cell_angle_gamma   90.00000000
_symmetry_Int_Tables_number   1
_chemical_formula_structural   LiF
_chemical_formula_sum   'Li48 F48'
_cell_volume   901.60923911
_cell_formula_units_Z   48
loop_
 _symmetry_equiv_pos_site_id
 _symmetry_equiv_pos_as_xyz
  1  'x, y, z'
loop_
 _atom_site_type_symbol
 _atom_site_label
 _atom_site_symmetry_multiplicity
 _atom_site_fract_x
 _atom_site_fract_y
 _atom_site_fract_z
 _atom_site_occupancy
  F  F0  1  0.88873061  0.13873061  0.12500000  1
  F  F1  1  0.61126939  0.86126939  0.62500000  1
  F  F2  1  0.11126939  0.63873061  0.37500000  1
  F  F3  1  0.38873061  0.36126939  0.87500000  1
  F  F4  1  0.11126939  0.86126939  0.87500000  1
  F  F5  1  0.38873061  0.13873061  0.37500000  1
  F  F6  1  0.88873061  0.36126939  0.62500000  1
  F  F7  1  0.61126939  0.63873061  0.12500000  1
  F  F8  1  0.38873061  0.63873061  0.62500000  1
  F  F9  1  0.11126939  0.36126939  0.12500000  1
  F  F10  1  0.61126939  0.13873061  0.87500000  1
  F  F11  1  0.88873061  0.86126939  0.37500000  1
  F  F12  1  0.61126939  0.36126939  0.37500000  1
  F  F13  1  0.88873061  0.63873061  0.87500000  1
  F  F14  1  0.38873061  0.86126939  0.12500000  1
  F  F15  1  0.11126939  0.13873061  0.62500000  1
  F  F16  1  0.79187907  0.86982134  0.56832170  1
  F  F17  1  0.70812093  0.13017866  0.06832170  1
  F  F18  1  0.38017866  0.54187907  0.81832170  1
  F  F19  1  0.11982134  0.45812093  0.31832170  1
  F  F20  1  0.70812093  0.86982134  0.43167830  1
  F  F21  1  0.79187907  0.13017866  0.93167830  1
  F  F22  1  0.11982134  0.54187907  0.18167830  1
  F  F23  1  0.38017866  0.45812093  0.68167830  1
  F  F24  1  0.20812093  0.13017866  0.43167830  1
  F  F25  1  0.29187907  0.86982134  0.93167830  1
  F  F26  1  0.61982134  0.45812093  0.18167830  1
  F  F27  1  0.88017866  0.54187907  0.68167830  1
  F  F28  1  0.29187907  0.13017866  0.56832170  1
  F  F29  1  0.20812093  0.86982134  0.06832170  1
  F  F30  1  0.88017866  0.45812093  0.81832170  1
  F  F31  1  0.61982134  0.54187907  0.31832170  1
  F  F32  1  0.29187907  0.36982134  0.06832170  1
  F  F33  1  0.20812093  0.63017866  0.56832170  1
  F  F34  1  0.88017866  0.04187907  0.31832170  1
  F  F35  1  0.61982134  0.95812093  0.81832170  1
  F  F36  1  0.20812093  0.36982134  0.93167830  1
  F  F37  1  0.29187907  0.63017866  0.43167830  1
  F  F38  1  0.61982134  0.04187907  0.68167830  1
  F  F39  1  0.88017866  0.95812093  0.18167830  1
  F  F40  1  0.70812093  0.63017866  0.93167830  1
  F  F41  1  0.79187907  0.36982134  0.43167830  1
  F  F42  1  0.11982134  0.95812093  0.68167830  1
  F  F43  1  0.38017866  0.04187907  0.18167830  1
  F  F44  1  0.79187907  0.63017866  0.06832170  1
  F  F45  1  0.70812093  0.36982134  0.56832170  1
  F  F46  1  0.38017866  0.95812093  0.31832170  1
  F  F47  1  0.11982134  0.04187907  0.81832170  1
  Li  Li48  1  0.16842109  -0.00000000  0.25000000  1
  Li  Li49  1  0.33157891  -0.00000000  0.75000000  1
  Li  Li50  1  0.25000000  0.91842109  0.50000000  1
  Li  Li51  1  0.25000000  0.08157891  0.00000000  1
  Li  Li52  1  0.83157891  0.00000000  0.75000000  1
  Li  Li53  1  0.66842109  -0.00000000  0.25000000  1
  Li  Li54  1  0.75000000  0.08157891  0.50000000  1
  Li  Li55  1  0.75000000  0.91842109  -0.00000000  1
  Li  Li56  1  0.66842109  0.50000000  0.75000000  1
  Li  Li57  1  0.83157891  0.50000000  0.25000000  1
  Li  Li58  1  0.75000000  0.41842109  -0.00000000  1
  Li  Li59  1  0.75000000  0.58157891  0.50000000  1
  Li  Li60  1  0.33157891  0.50000000  0.25000000  1
  Li  Li61  1  0.16842109  0.50000000  0.75000000  1
  Li  Li62  1  0.25000000  0.58157891  0.00000000  1
  Li  Li63  1  0.25000000  0.41842109  0.50000000  1
  Li  Li64  1  0.18777984  0.34848110  0.32701170  1
  Li  Li65  1  0.31222016  -0.34848110  0.82701170  1
  Li  Li66  1  -0.09848110  0.93777984  0.57701170  1
  Li  Li67  1  0.59848110  0.06222016  1.07701170  1
  Li  Li68  1  0.31222016  0.34848110  -0.32701170  1
  Li  Li69  1  0.18777984  -0.34848110  0.17298830  1
  Li  Li70  1  0.59848110  0.93777984  0.42298830  1
  Li  Li71  1  -0.09848110  0.06222016  -0.07701170  1
  Li  Li72  1  -0.18777984  -0.34848110  -0.32701170  1
  Li  Li73  1  0.68777984  0.34848110  0.17298830  1
  Li  Li74  1  1.09848110  0.06222016  0.42298830  1
  Li  Li75  1  0.40151890  0.93777984  -0.07701170  1
  Li  Li76  1  0.68777984  -0.34848110  0.32701170  1
  Li  Li77  1  -0.18777984  0.34848110  0.82701170  1
  Li  Li78  1  0.40151890  0.06222016  0.57701170  1
  Li  Li79  1  1.09848110  0.93777984  1.07701170  1
  Li  Li80  1  0.68777984  0.84848110  0.82701170  1
  Li  Li81  1  0.81222016  0.15151890  1.32701170  1
  Li  Li82  1  0.40151890  1.43777984  1.07701170  1
  Li  Li83  1  1.09848110  0.56222016  1.57701170  1
  Li  Li84  1  0.81222016  0.84848110  0.17298830  1
  Li  Li85  1  0.68777984  0.15151890  0.67298830  1
  Li  Li86  1  1.09848110  1.43777984  0.92298830  1
  Li  Li87  1  0.40151890  0.56222016  0.42298830  1
  Li  Li88  1  0.31222016  0.15151890  0.17298830  1
  Li  Li89  1  1.18777984  0.84848110  0.67298830  1
  Li  Li90  1  1.59848110  0.56222016  0.92298830  1
  Li  Li91  1  0.90151890  1.43777984  0.42298830  1
  Li  Li92  1  1.18777984  0.15151890  0.82701170  1
  Li  Li93  1  0.31222016  0.84848110  1.32701170  1
  Li  Li94  1  0.90151890  0.56222016  1.07701170  1
  Li  Li95  1  1.59848110  1.43777984  1.57701170  1
