# generated using pymatgen
data_K3Li6Ca24Zr4Cl9F64
_symmetry_space_group_name_H-M   'P 1'
_cell_length_a   18.12710234
_cell_length_b   18.12710234
_cell_length_c   6.65903816
_cell_angle_alpha   90.00000000
_cell_angle_beta   90.00000000
_cell_angle_gamma   120.00000000
_symmetry_Int_Tables_number   1
_chemical_formula_structural   K3Li6Ca24Zr4Cl9F64
_chemical_formula_sum   'K3 Li6 Ca24 Zr4 Cl9 F64'
_cell_volume   1894.95503288
_cell_formula_units_Z   1
loop_
 _symmetry_equiv_pos_site_id
 _symmetry_equiv_pos_as_xyz
  1  'x, y, z'
loop_
 _atom_site_type_symbol
 _atom_site_label
 _atom_site_symmetry_multiplicity
 _atom_site_fract_x
 _atom_site_fract_y
 _atom_site_fract_z
 _atom_site_occupancy
  Ca  Ca0  1  0.89390772  0.46392240  0.85336823  1
  Ca  Ca1  1  0.53607760  0.42998532  0.85336823  1
  Ca  Ca2  1  0.57001468  0.10609228  0.85336823  1
  Ca  Ca3  1  0.53607760  0.10609228  0.14663177  1
  Ca  Ca4  1  0.57001468  0.46392240  0.14663177  1
  Ca  Ca5  1  0.89390772  0.42998532  0.14663177  1
  Ca  Ca6  1  0.62009148  0.37965916  0.29124115  1
  Ca  Ca7  1  0.62034084  0.24043232  0.29124115  1
  Ca  Ca8  1  0.75956768  0.37990852  0.29124115  1
  Ca  Ca9  1  0.62034084  0.37990852  0.70875885  1
  Ca  Ca10  1  0.75956768  0.37965916  0.70875885  1
  Ca  Ca11  1  0.62009148  0.24043232  0.70875885  1
  Ca  Ca12  1  0.76731115  0.98309509  0.20737485  1
  Ca  Ca13  1  0.01690491  0.78421607  0.20737485  1
  Ca  Ca14  1  0.21578393  0.23268885  0.20737485  1
  Ca  Ca15  1  0.01690491  0.23268885  0.79262515  1
  Ca  Ca16  1  0.21578393  0.98309509  0.79262515  1
  Ca  Ca17  1  0.76731115  0.78421607  0.79262515  1
  Ca  Ca18  1  0.46833198  0.99883339  0.89030096  1
  Ca  Ca19  1  0.00116661  0.46949859  0.89030096  1
  Ca  Ca20  1  0.53050141  0.53166802  0.89030096  1
  Ca  Ca21  1  0.00116661  0.53166802  0.10969904  1
  Ca  Ca22  1  0.53050141  0.99883339  0.10969904  1
  Ca  Ca23  1  0.46833198  0.46949859  0.10969904  1
  Cl  Cl24  1  0.67961945  0.65402714  0.84784622  1
  Cl  Cl25  1  0.34597286  0.02559231  0.84784622  1
  Cl  Cl26  1  0.97440769  0.32038055  0.84784622  1
  Cl  Cl27  1  0.34597286  0.32038055  0.15215378  1
  Cl  Cl28  1  0.97440769  0.65402714  0.15215378  1
  Cl  Cl29  1  0.67961945  0.02559231  0.15215378  1
  Cl  Cl30  1  0.38706369  0.61293631  0.50000000  1
  Cl  Cl31  1  0.38706369  0.77412738  0.50000000  1
  Cl  Cl32  1  0.22587262  0.61293631  0.50000000  1
  F  F33  1  0.12848637  0.75063208  0.93410598  1
  F  F34  1  -0.75063208  -0.62214570  0.93410598  1
  F  F35  1  0.62214570  -0.12848637  0.93410598  1
  F  F36  1  -0.75063208  -0.12848637  -0.93410598  1
  F  F37  1  0.62214570  0.75063208  -0.93410598  1
  F  F38  1  0.12848637  -0.62214570  -0.93410598  1
  F  F39  1  0.39341065  0.73318321  0.15513579  1
  F  F40  1  0.26681679  0.66022744  0.15513579  1
  F  F41  1  0.33977256  0.60658935  0.15513579  1
  F  F42  1  0.26681679  0.60658935  0.84486421  1
  F  F43  1  0.33977256  0.73318321  0.84486421  1
  F  F44  1  0.39341065  0.66022744  0.84486421  1
  F  F45  1  0.03217703  0.23068295  0.08076560  1
  F  F46  1  0.76931705  0.80149407  0.08076560  1
  F  F47  1  0.19850593  0.96782297  0.08076560  1
  F  F48  1  0.76931705  0.96782297  0.91923440  1
  F  F49  1  0.19850593  0.23068295  0.91923440  1
  F  F50  1  0.03217703  0.80149407  0.91923440  1
  F  F51  1  0.33333333  0.66666667  -0.00000000  1
  F  F52  1  0.33333333  0.66666667  0.50000000  1
  F  F53  1  0.66666667  0.33333333  0.50000000  1
  F  F54  1  0.66666667  0.33333333  0.05150452  1
  F  F55  1  0.66666667  0.33333333  0.94849548  1
  F  F56  1  0.72307743  0.40905395  0.98263375  1
  F  F57  1  0.59094605  0.31402348  0.98263375  1
  F  F58  1  0.68597652  0.27692257  0.98263375  1
  F  F59  1  0.59094605  0.27692257  0.01736625  1
  F  F60  1  0.68597652  0.40905395  0.01736625  1
  F  F61  1  0.72307743  0.31402348  0.01736625  1
  F  F62  1  0.55519970  0.95000724  0.02406180  1
  F  F63  1  0.04999276  0.60519246  0.02406180  1
  F  F64  1  0.39480754  0.44480030  0.02406180  1
  F  F65  1  0.04999276  0.44480030  0.97593820  1
  F  F66  1  0.39480754  0.95000724  0.97593820  1
  F  F67  1  0.55519970  0.60519246  0.97593820  1
  F  F68  1  0.93497805  0.11952521  0.32790180  1
  F  F69  1  0.88047479  0.81545285  0.32790180  1
  F  F70  1  0.18454715  0.06502195  0.32790180  1
  F  F71  1  0.88047479  0.06502195  0.67209820  1
  F  F72  1  0.18454715  0.11952521  0.67209820  1
  F  F73  1  0.93497805  0.81545285  0.67209820  1
  F  F74  1  0.54962186  0.36144573  0.00050080  1
  F  F75  1  0.63855427  0.18817613  0.00050080  1
  F  F76  1  0.81182387  0.45037814  0.00050080  1
  F  F77  1  0.63855427  0.45037814  0.99949920  1
  F  F78  1  0.81182387  0.36144573  0.99949920  1
  F  F79  1  0.54962186  0.18817613  0.99949920  1
  F  F80  1  0.46253932  0.98101251  0.69372686  1
  F  F81  1  0.01898749  0.48152681  0.69372686  1
  F  F82  1  0.51847319  0.53746068  0.69372686  1
  F  F83  1  0.01898749  0.53746068  0.30627314  1
  F  F84  1  0.51847319  0.98101251  0.30627314  1
  F  F85  1  0.46253932  0.48152681  0.30627314  1
  F  F86  1  0.33333333  0.66666667  0.59122896  1
  F  F87  1  0.33333333  0.66666667  0.40877104  1
  F  F88  1  0.00000000  0.00000000  0.50000000  1
  F  F89  1  0.19119975  0.69616867  0.03024777  1
  F  F90  1  0.30383133  0.49503108  0.03024777  1
  F  F91  1  0.50496892  0.80880025  0.03024777  1
  F  F92  1  0.30383133  0.80880025  0.96975223  1
  F  F93  1  0.50496892  0.69616867  0.96975223  1
  F  F94  1  0.19119975  0.49503108  0.96975223  1
  F  F95  1  0.00000000  0.00000000  0.28007238  1
  F  F96  1  0.00000000  0.00000000  0.71992762  1
  K  K97  1  0.25662063  0.74337937  0.50000000  1
  K  K98  1  0.25662063  0.51324126  0.50000000  1
  K  K99  1  0.48675874  0.74337937  0.50000000  1
  Li  Li100  1  0.68745977  0.14732011  0.50587935  1
  Li  Li101  1  0.85267989  0.54013966  0.50587935  1
  Li  Li102  1  0.45986034  0.31254023  0.50587935  1
  Li  Li103  1  0.85267989  0.31254023  0.49412065  1
  Li  Li104  1  0.45986034  0.14732011  0.49412065  1
  Li  Li105  1  0.68745977  0.54013966  0.49412065  1
  Zr  Zr106  1  0.89690873  0.10309127  0.50000000  1
  Zr  Zr107  1  0.89690873  0.79381746  0.50000000  1
  Zr  Zr108  1  0.20618254  0.10309127  0.50000000  1
  Zr  Zr109  1  0.00000000  0.00000000  0.00000000  1
