# generated using pymatgen
data_LiF
_symmetry_space_group_name_H-M   'P 1'
_cell_length_a   12.11865384
_cell_length_b   12.11865384
_cell_length_c   6.14299465
_cell_angle_alpha   90.00000000
_cell_angle_beta   90.00000000
_cell_angle_gamma   120.00000000
_symmetry_Int_Tables_number   1
_chemical_formula_structural   LiF
_chemical_formula_sum   'Li41 F41'
_cell_volume   781.30306799
_cell_formula_units_Z   41
loop_
 _symmetry_equiv_pos_site_id
 _symmetry_equiv_pos_as_xyz
  1  'x, y, z'
loop_
 _atom_site_type_symbol
 _atom_site_label
 _atom_site_symmetry_multiplicity
 _atom_site_fract_x
 _atom_site_fract_y
 _atom_site_fract_z
 _atom_site_occupancy
  F  F0  1  0.18820395  -0.00000000  0.77750108  1
  F  F1  1  0.00000000  0.18820395  0.77750108  1
  F  F2  1  0.81179605  0.81179605  0.77750108  1
  F  F3  1  0.18820395  -0.00000000  0.22249892  1
  F  F4  1  0.00000000  0.18820395  0.22249892  1
  F  F5  1  0.81179605  0.81179605  0.22249892  1
  F  F6  1  0.08446690  0.53000031  0.85640691  1
  F  F7  1  0.46999969  0.55446659  0.85640691  1
  F  F8  1  0.44553341  0.91553310  0.85640691  1
  F  F9  1  0.08446690  0.53000031  0.14359309  1
  F  F10  1  0.46999969  0.55446659  0.14359309  1
  F  F11  1  0.44553341  0.91553310  0.14359309  1
  F  F12  1  0.53000031  0.08446690  0.14359309  1
  F  F13  1  0.55446659  0.46999969  0.14359309  1
  F  F14  1  0.91553310  0.44553341  0.14359309  1
  F  F15  1  0.53000031  0.08446690  0.85640691  1
  F  F16  1  0.55446659  0.46999969  0.85640691  1
  F  F17  1  0.91553310  0.44553341  0.85640691  1
  F  F18  1  0.68563686  0.84066509  0.41896023  1
  F  F19  1  0.15933491  0.84497177  0.41896023  1
  F  F20  1  0.15502823  0.31436314  0.41896023  1
  F  F21  1  0.68563686  0.84066509  0.58103977  1
  F  F22  1  0.15933491  0.84497177  0.58103977  1
  F  F23  1  0.15502823  0.31436314  0.58103977  1
  F  F24  1  0.84066509  0.68563686  0.58103977  1
  F  F25  1  0.84497177  0.15933491  0.58103977  1
  F  F26  1  0.31436314  0.15502823  0.58103977  1
  F  F27  1  0.84066509  0.68563686  0.41896023  1
  F  F28  1  0.84497177  0.15933491  0.41896023  1
  F  F29  1  0.31436314  0.15502823  0.41896023  1
  F  F30  1  0.52093768  0.00000000  0.33684809  1
  F  F31  1  0.00000000  0.52093768  0.33684809  1
  F  F32  1  0.47906232  0.47906232  0.33684809  1
  F  F33  1  0.52093768  0.00000000  0.66315191  1
  F  F34  1  0.00000000  0.52093768  0.66315191  1
  F  F35  1  0.47906232  0.47906232  0.66315191  1
  F  F36  1  0.33333333  0.66666667  0.69829493  1
  F  F37  1  0.33333333  0.66666667  0.30170507  1
  F  F38  1  0.66666667  0.33333333  0.30170507  1
  F  F39  1  0.66666667  0.33333333  0.69829493  1
  F  F40  1  0.00000000  0.00000000  0.00000000  1
  Li  Li41  1  0.76167240  0.29457389  0.50000000  1
  Li  Li42  1  0.70542611  0.46709851  0.50000000  1
  Li  Li43  1  0.53290149  0.23832760  0.50000000  1
  Li  Li44  1  0.29457389  0.76167240  0.50000000  1
  Li  Li45  1  0.46709851  0.70542611  0.50000000  1
  Li  Li46  1  0.23832760  0.53290149  0.50000000  1
  Li  Li47  1  0.00000000  0.00000000  0.72609823  1
  Li  Li48  1  0.00000000  0.00000000  0.27390177  1
  Li  Li49  1  0.33333333  0.66666667  0.00000000  1
  Li  Li50  1  0.66666667  0.33333333  0.00000000  1
  Li  Li51  1  0.68637787  0.17756493  0.80344962  1
  Li  Li52  1  -0.17756493  0.50881294  0.80344962  1
  Li  Li53  1  -0.50881294  -0.68637787  0.80344962  1
  Li  Li54  1  0.68637787  0.17756493  -0.80344962  1
  Li  Li55  1  -0.17756493  0.50881294  -0.80344962  1
  Li  Li56  1  -0.50881294  -0.68637787  -0.80344962  1
  Li  Li57  1  0.17756493  0.68637787  -0.80344962  1
  Li  Li58  1  0.50881294  -0.17756493  -0.80344962  1
  Li  Li59  1  -0.68637787  -0.50881294  -0.80344962  1
  Li  Li60  1  0.17756493  0.68637787  0.80344962  1
  Li  Li61  1  0.50881294  -0.17756493  0.80344962  1
  Li  Li62  1  -0.68637787  -0.50881294  0.80344962  1
  Li  Li63  1  0.76770610  0.00000000  0.84256411  1
  Li  Li64  1  0.00000000  0.76770610  0.84256411  1
  Li  Li65  1  0.23229390  0.23229390  0.84256411  1
  Li  Li66  1  0.76770610  0.00000000  0.15743589  1
  Li  Li67  1  0.00000000  0.76770610  0.15743589  1
  Li  Li68  1  0.23229390  0.23229390  0.15743589  1
  Li  Li69  1  0.10837616  0.46939215  0.34029579  1
  Li  Li70  1  0.53060785  0.63898401  0.34029579  1
  Li  Li71  1  0.36101599  0.89162384  0.34029579  1
  Li  Li72  1  0.10837616  0.46939215  0.65970421  1
  Li  Li73  1  0.53060785  0.63898401  0.65970421  1
  Li  Li74  1  0.36101599  0.89162384  0.65970421  1
  Li  Li75  1  0.46939215  0.10837616  0.65970421  1
  Li  Li76  1  0.63898401  0.53060785  0.65970421  1
  Li  Li77  1  0.89162384  0.36101599  0.65970421  1
  Li  Li78  1  0.46939215  0.10837616  0.34029579  1
  Li  Li79  1  0.63898401  0.53060785  0.34029579  1
  Li  Li80  1  0.89162384  0.36101599  0.34029579  1
  Li  Li81  1  0.00000000  0.00000000  0.50000000  1
