# generated using pymatgen
data_LiF
_symmetry_space_group_name_H-M   'P 1'
_cell_length_a   12.06975200
_cell_length_b   12.06975200
_cell_length_c   17.21186890
_cell_angle_alpha   90.00000000
_cell_angle_beta   90.00000000
_cell_angle_gamma   90.00000000
_symmetry_Int_Tables_number   1
_chemical_formula_structural   LiF
_chemical_formula_sum   'Li64 F64'
_cell_volume   2507.40635703
_cell_formula_units_Z   64
loop_
 _symmetry_equiv_pos_site_id
 _symmetry_equiv_pos_as_xyz
  1  'x, y, z'
loop_
 _atom_site_type_symbol
 _atom_site_label
 _atom_site_symmetry_multiplicity
 _atom_site_fract_x
 _atom_site_fract_y
 _atom_site_fract_z
 _atom_site_occupancy
  F  F0  1  0.35512213  0.07421488  0.77422867  1
  F  F1  1  0.14487787  -0.07421488  1.27422867  1
  F  F2  1  0.17578512  1.10512213  1.02422867  1
  F  F3  1  0.32421488  -0.10512213  1.52422867  1
  F  F4  1  0.14487787  0.07421488  -0.77422867  1
  F  F5  1  0.35512213  -0.07421488  -0.27422867  1
  F  F6  1  0.32421488  1.10512213  -0.02422867  1
  F  F7  1  0.17578512  -0.10512213  -0.52422867  1
  F  F8  1  -0.35512213  -0.07421488  -0.77422867  1
  F  F9  1  0.85512213  0.07421488  -0.27422867  1
  F  F10  1  0.82421488  -0.10512213  -0.02422867  1
  F  F11  1  0.67578512  1.10512213  -0.52422867  1
  F  F12  1  0.85512213  -0.07421488  0.77422867  1
  F  F13  1  -0.35512213  0.07421488  1.27422867  1
  F  F14  1  0.67578512  -0.10512213  1.02422867  1
  F  F15  1  0.82421488  1.10512213  1.52422867  1
  F  F16  1  0.85512213  0.57421488  1.27422867  1
  F  F17  1  0.64487787  0.42578512  1.77422867  1
  F  F18  1  0.67578512  1.60512213  1.52422867  1
  F  F19  1  0.82421488  0.39487787  2.02422867  1
  F  F20  1  0.64487787  0.57421488  -0.27422867  1
  F  F21  1  0.85512213  0.42578512  0.22577133  1
  F  F22  1  0.82421488  1.60512213  0.47577133  1
  F  F23  1  0.67578512  0.39487787  -0.02422867  1
  F  F24  1  0.14487787  0.42578512  -0.27422867  1
  F  F25  1  1.35512213  0.57421488  0.22577133  1
  F  F26  1  1.32421488  0.39487787  0.47577133  1
  F  F27  1  1.17578512  1.60512213  -0.02422867  1
  F  F28  1  1.35512213  0.42578512  1.27422867  1
  F  F29  1  0.14487787  0.57421488  1.77422867  1
  F  F30  1  1.17578512  0.39487787  1.52422867  1
  F  F31  1  1.32421488  1.60512213  2.02422867  1
  F  F32  1  0.00000000  0.25000000  0.12500000  1
  F  F33  1  0.00000000  0.75000000  0.37500000  1
  F  F34  1  0.00000000  0.75000000  0.87500000  1
  F  F35  1  0.00000000  0.25000000  0.62500000  1
  F  F36  1  0.50000000  0.75000000  0.62500000  1
  F  F37  1  0.50000000  0.25000000  0.87500000  1
  F  F38  1  0.50000000  0.25000000  0.37500000  1
  F  F39  1  0.50000000  0.75000000  0.12500000  1
  F  F40  1  0.00000000  0.00000000  0.00000000  1
  F  F41  1  0.50000000  0.00000000  0.50000000  1
  F  F42  1  0.25000000  0.75000000  0.25000000  1
  F  F43  1  0.25000000  0.25000000  0.75000000  1
  F  F44  1  0.50000000  0.00000000  0.00000000  1
  F  F45  1  0.00000000  0.00000000  0.50000000  1
  F  F46  1  0.25000000  0.75000000  0.75000000  1
  F  F47  1  0.25000000  0.25000000  0.25000000  1
  F  F48  1  0.50000000  0.50000000  0.50000000  1
  F  F49  1  0.00000000  0.50000000  0.00000000  1
  F  F50  1  0.75000000  0.25000000  0.75000000  1
  F  F51  1  0.75000000  0.75000000  0.25000000  1
  F  F52  1  0.00000000  0.50000000  0.50000000  1
  F  F53  1  0.50000000  0.50000000  0.00000000  1
  F  F54  1  0.75000000  0.25000000  0.25000000  1
  F  F55  1  0.75000000  0.75000000  0.75000000  1
  F  F56  1  0.00000000  0.25000000  0.37500000  1
  F  F57  1  0.00000000  0.75000000  0.62500000  1
  F  F58  1  0.50000000  0.25000000  0.62500000  1
  F  F59  1  0.50000000  0.75000000  0.37500000  1
  F  F60  1  0.50000000  0.75000000  0.87500000  1
  F  F61  1  0.50000000  0.25000000  0.12500000  1
  F  F62  1  0.00000000  0.75000000  0.12500000  1
  F  F63  1  0.00000000  0.25000000  0.87500000  1
  Li  Li64  1  0.44870544  0.91770930  0.62828164  1
  Li  Li65  1  0.05129456  0.08229070  0.12828164  1
  Li  Li66  1  0.33229070  0.19870544  0.87828164  1
  Li  Li67  1  0.16770930  0.80129456  0.37828164  1
  Li  Li68  1  0.05129456  0.91770930  0.37171836  1
  Li  Li69  1  0.44870544  0.08229070  0.87171836  1
  Li  Li70  1  0.16770930  0.19870544  0.12171836  1
  Li  Li71  1  0.33229070  0.80129456  0.62171836  1
  Li  Li72  1  0.55129456  0.08229070  0.37171836  1
  Li  Li73  1  0.94870544  0.91770930  0.87171836  1
  Li  Li74  1  0.66770930  0.80129456  0.12171836  1
  Li  Li75  1  0.83229070  0.19870544  0.62171836  1
  Li  Li76  1  0.94870544  0.08229070  0.62828164  1
  Li  Li77  1  0.55129456  0.91770930  0.12828164  1
  Li  Li78  1  0.83229070  0.80129456  0.87828164  1
  Li  Li79  1  0.66770930  0.19870544  0.37828164  1
  Li  Li80  1  0.94870544  0.41770930  0.12828164  1
  Li  Li81  1  0.55129456  0.58229070  0.62828164  1
  Li  Li82  1  0.83229070  0.69870544  0.37828164  1
  Li  Li83  1  0.66770930  0.30129456  0.87828164  1
  Li  Li84  1  0.55129456  0.41770930  0.87171836  1
  Li  Li85  1  0.94870544  0.58229070  0.37171836  1
  Li  Li86  1  0.66770930  0.69870544  0.62171836  1
  Li  Li87  1  0.83229070  0.30129456  0.12171836  1
  Li  Li88  1  0.05129456  0.58229070  0.87171836  1
  Li  Li89  1  0.44870544  0.41770930  0.37171836  1
  Li  Li90  1  0.16770930  0.30129456  0.62171836  1
  Li  Li91  1  0.33229070  0.69870544  0.12171836  1
  Li  Li92  1  0.44870544  0.58229070  0.12828164  1
  Li  Li93  1  0.05129456  0.41770930  0.62828164  1
  Li  Li94  1  0.33229070  0.30129456  0.37828164  1
  Li  Li95  1  0.16770930  0.69870544  0.87828164  1
  Li  Li96  1  0.60052166  0.63511134  0.55401745  1
  Li  Li97  1  0.89947834  0.36488866  0.05401745  1
  Li  Li98  1  0.61488866  0.35052166  0.80401745  1
  Li  Li99  1  0.88511134  0.64947834  0.30401745  1
  Li  Li100  1  0.89947834  0.63511134  0.44598255  1
  Li  Li101  1  0.60052166  0.36488866  0.94598255  1
  Li  Li102  1  0.88511134  0.35052166  0.19598255  1
  Li  Li103  1  0.61488866  0.64947834  0.69598255  1
  Li  Li104  1  0.39947834  0.36488866  0.44598255  1
  Li  Li105  1  0.10052166  0.63511134  0.94598255  1
  Li  Li106  1  0.38511134  0.64947834  0.19598255  1
  Li  Li107  1  0.11488866  0.35052166  0.69598255  1
  Li  Li108  1  0.10052166  0.36488866  0.55401745  1
  Li  Li109  1  0.39947834  0.63511134  0.05401745  1
  Li  Li110  1  0.11488866  0.64947834  0.80401745  1
  Li  Li111  1  0.38511134  0.35052166  0.30401745  1
  Li  Li112  1  0.10052166  0.13511134  0.05401745  1
  Li  Li113  1  0.39947834  0.86488866  0.55401745  1
  Li  Li114  1  0.11488866  0.85052166  0.30401745  1
  Li  Li115  1  0.38511134  0.14947834  0.80401745  1
  Li  Li116  1  0.39947834  0.13511134  0.94598255  1
  Li  Li117  1  0.10052166  0.86488866  0.44598255  1
  Li  Li118  1  0.38511134  0.85052166  0.69598255  1
  Li  Li119  1  0.11488866  0.14947834  0.19598255  1
  Li  Li120  1  0.89947834  0.86488866  0.94598255  1
  Li  Li121  1  0.60052166  0.13511134  0.44598255  1
  Li  Li122  1  0.88511134  0.14947834  0.69598255  1
  Li  Li123  1  0.61488866  0.85052166  0.19598255  1
  Li  Li124  1  0.60052166  0.86488866  0.05401745  1
  Li  Li125  1  0.89947834  0.13511134  0.55401745  1
  Li  Li126  1  0.61488866  0.14947834  0.30401745  1
  Li  Li127  1  0.88511134  0.85052166  0.80401745  1
