# generated using pymatgen
data_Li2Ti3Al3(AsP)2
_symmetry_space_group_name_H-M   'P 1'
_cell_length_a   5.35374595
_cell_length_b   4.87370079
_cell_length_c   7.29270077
_cell_angle_alpha   92.02596196
_cell_angle_beta   100.55946237
_cell_angle_gamma   105.25063946
_symmetry_Int_Tables_number   1
_chemical_formula_structural   Li2Ti3Al3(AsP)2
_chemical_formula_sum   'Li2 Ti3 Al3 As2 P2'
_cell_volume   179.77351665
_cell_formula_units_Z   1
loop_
 _symmetry_equiv_pos_site_id
 _symmetry_equiv_pos_as_xyz
  1  'x, y, z'
loop_
 _atom_site_type_symbol
 _atom_site_label
 _atom_site_symmetry_multiplicity
 _atom_site_fract_x
 _atom_site_fract_y
 _atom_site_fract_z
 _atom_site_occupancy
  Al  Al0  1  0.12500000  0.00000000  0.25000000  1
  Al  Al1  1  0.00000000  0.00000000  0.00000000  1
  Al  Al2  1  0.37500000  0.00000000  0.25000000  1
  P  P3  1  0.25000000  0.25000000  0.25000000  1
  P  P4  1  0.00000000  0.25000000  0.12500000  1
  As  As5  1  0.36333289  0.47816143  0.73742350  1
  As  As6  1  0.48056166  0.21956056  0.71149887  1
  Ti  Ti7  1  0.64160028  0.46860093  0.49590609  1
  Ti  Ti8  1  0.89182931  0.45872965  0.60740350  1
  Ti  Ti9  1  0.28769543  0.80559728  0.56737018  1
  Li  Li10  1  0.33352794  0.07055609  0.59230479  1
  Li  Li11  1  0.03703290  0.02380909  0.69046901  1
