# generated using pymatgen
data_LiCaF3
_symmetry_space_group_name_H-M   'P 1'
_cell_length_a   9.10313525
_cell_length_b   17.36409929
_cell_length_c   11.34648347
_cell_angle_alpha   90.00000000
_cell_angle_beta   90.00000000
_cell_angle_gamma   90.00000000
_symmetry_Int_Tables_number   1
_chemical_formula_structural   LiCaF3
_chemical_formula_sum   'Li18 Ca18 F54'
_cell_volume   1793.51304757
_cell_formula_units_Z   18
loop_
 _symmetry_equiv_pos_site_id
 _symmetry_equiv_pos_as_xyz
  1  'x, y, z'
loop_
 _atom_site_type_symbol
 _atom_site_label
 _atom_site_symmetry_multiplicity
 _atom_site_fract_x
 _atom_site_fract_y
 _atom_site_fract_z
 _atom_site_occupancy
  Ca  Ca0  1  0.00000000  0.50000000  0.69311705  1
  Ca  Ca1  1  0.50000000  0.00000000  0.30688295  1
  Ca  Ca2  1  0.00000000  0.50000000  0.30688295  1
  Ca  Ca3  1  0.50000000  0.00000000  0.69311705  1
  Ca  Ca4  1  0.26481165  0.44617631  0.50000000  1
  Ca  Ca5  1  0.73518835  0.55382369  0.50000000  1
  Ca  Ca6  1  0.23518835  0.94617631  0.50000000  1
  Ca  Ca7  1  0.76481165  0.05382369  0.50000000  1
  Ca  Ca8  1  0.57801347  0.14523767  0.67710491  1
  Ca  Ca9  1  -0.57801347  -0.14523767  0.67710491  1
  Ca  Ca10  1  -0.07801347  0.64523767  -0.67710491  1
  Ca  Ca11  1  1.07801347  0.35476233  -0.67710491  1
  Ca  Ca12  1  -0.57801347  -0.14523767  -0.67710491  1
  Ca  Ca13  1  0.57801347  0.14523767  -0.67710491  1
  Ca  Ca14  1  1.07801347  0.35476233  0.67710491  1
  Ca  Ca15  1  -0.07801347  0.64523767  0.67710491  1
  Ca  Ca16  1  0.00000000  0.00000000  0.50000000  1
  Ca  Ca17  1  0.50000000  0.50000000  0.50000000  1
  F  F18  1  0.65336808  0.52229862  0.00000000  1
  F  F19  1  0.34663192  0.47770138  0.00000000  1
  F  F20  1  0.84663192  0.02229862  0.00000000  1
  F  F21  1  0.15336808  0.97770138  0.00000000  1
  F  F22  1  0.14941846  0.10877580  0.80583923  1
  F  F23  1  0.85058154  0.89122420  0.80583923  1
  F  F24  1  0.35058154  0.60877580  0.19416077  1
  F  F25  1  0.64941846  0.39122420  0.19416077  1
  F  F26  1  0.85058154  0.89122420  0.19416077  1
  F  F27  1  0.14941846  0.10877580  0.19416077  1
  F  F28  1  0.64941846  0.39122420  0.80583923  1
  F  F29  1  0.35058154  0.60877580  0.80583923  1
  F  F30  1  0.00000000  0.00000000  0.00000000  1
  F  F31  1  0.50000000  0.50000000  0.00000000  1
  F  F32  1  0.61838233  0.51334872  0.07231743  1
  F  F33  1  0.38161767  0.48665128  0.07231743  1
  F  F34  1  0.88161767  0.01334872  0.92768257  1
  F  F35  1  0.11838233  0.98665128  0.92768257  1
  F  F36  1  0.38161767  0.48665128  0.92768257  1
  F  F37  1  0.61838233  0.51334872  0.92768257  1
  F  F38  1  0.11838233  0.98665128  0.07231743  1
  F  F39  1  0.88161767  0.01334872  0.07231743  1
  F  F40  1  0.19229731  0.88458935  0.22034959  1
  F  F41  1  0.80770269  0.11541065  0.22034959  1
  F  F42  1  0.30770269  0.38458935  0.77965041  1
  F  F43  1  0.69229731  0.61541065  0.77965041  1
  F  F44  1  0.80770269  0.11541065  0.77965041  1
  F  F45  1  0.19229731  0.88458935  0.77965041  1
  F  F46  1  0.69229731  0.61541065  0.22034959  1
  F  F47  1  0.30770269  0.38458935  0.22034959  1
  F  F48  1  0.41899768  0.59176678  0.36913506  1
  F  F49  1  0.58100232  0.40823322  0.36913506  1
  F  F50  1  0.08100232  0.09176678  0.63086494  1
  F  F51  1  0.91899768  0.90823322  0.63086494  1
  F  F52  1  0.58100232  0.40823322  0.63086494  1
  F  F53  1  0.41899768  0.59176678  0.63086494  1
  F  F54  1  0.91899768  0.90823322  0.36913506  1
  F  F55  1  0.08100232  0.09176678  0.36913506  1
  F  F56  1  0.40407441  0.25325369  0.38853284  1
  F  F57  1  0.59592559  0.74674631  0.38853284  1
  F  F58  1  0.09592559  0.75325369  0.61146716  1
  F  F59  1  0.90407441  0.24674631  0.61146716  1
  F  F60  1  0.59592559  0.74674631  0.61146716  1
  F  F61  1  0.40407441  0.25325369  0.61146716  1
  F  F62  1  0.90407441  0.24674631  0.38853284  1
  F  F63  1  0.09592559  0.75325369  0.38853284  1
  F  F64  1  0.70273801  0.04041581  0.67916929  1
  F  F65  1  0.29726199  0.95958419  0.67916929  1
  F  F66  1  0.79726199  0.54041581  0.32083071  1
  F  F67  1  0.20273801  0.45958419  0.32083071  1
  F  F68  1  0.29726199  0.95958419  0.32083071  1
  F  F69  1  0.70273801  0.04041581  0.32083071  1
  F  F70  1  0.20273801  0.45958419  0.67916929  1
  F  F71  1  0.79726199  0.54041581  0.67916929  1
  Li  Li72  1  0.03554372  0.25795981  0.21048843  1
  Li  Li73  1  0.96445628  0.74204019  0.21048843  1
  Li  Li74  1  0.46445628  0.75795981  0.78951157  1
  Li  Li75  1  0.53554372  0.24204019  0.78951157  1
  Li  Li76  1  0.96445628  0.74204019  0.78951157  1
  Li  Li77  1  0.03554372  0.25795981  0.78951157  1
  Li  Li78  1  0.53554372  0.24204019  0.21048843  1
  Li  Li79  1  0.46445628  0.75795981  0.21048843  1
  Li  Li80  1  0.56083592  0.47351416  0.74115018  1
  Li  Li81  1  0.43916408  0.52648584  0.74115018  1
  Li  Li82  1  0.93916408  0.97351416  0.25884982  1
  Li  Li83  1  0.06083592  0.02648584  0.25884982  1
  Li  Li84  1  0.43916408  0.52648584  0.25884982  1
  Li  Li85  1  0.56083592  0.47351416  0.25884982  1
  Li  Li86  1  0.06083592  0.02648584  0.74115018  1
  Li  Li87  1  0.93916408  0.97351416  0.74115018  1
  Li  Li88  1  0.00000000  0.50000000  -0.00000000  1
  Li  Li89  1  0.50000000  0.00000000  0.00000000  1
