# generated using pymatgen
data_Li4TeF2
_symmetry_space_group_name_H-M   'P 1'
_cell_length_a   18.76409785
_cell_length_b   18.76409785
_cell_length_c   9.95950177
_cell_angle_alpha   90.00000000
_cell_angle_beta   90.00000000
_cell_angle_gamma   120.00000000
_symmetry_Int_Tables_number   1
_chemical_formula_structural   Li4TeF2
_chemical_formula_sum   'Li96 Te24 F48'
_cell_volume   3036.85196949
_cell_formula_units_Z   24
loop_
 _symmetry_equiv_pos_site_id
 _symmetry_equiv_pos_as_xyz
  1  'x, y, z'
loop_
 _atom_site_type_symbol
 _atom_site_label
 _atom_site_symmetry_multiplicity
 _atom_site_fract_x
 _atom_site_fract_y
 _atom_site_fract_z
 _atom_site_occupancy
  F  F0  1  0.80042233  0.23341000  0.35335732  1
  F  F1  1  -0.23341000  0.56701233  0.35335732  1
  F  F2  1  -0.56701233  -0.80042233  0.35335732  1
  F  F3  1  -0.23341000  -0.80042233  -0.35335732  1
  F  F4  1  -0.56701233  0.23341000  -0.35335732  1
  F  F5  1  0.80042233  0.56701233  -0.35335732  1
  F  F6  1  0.38637918  0.06981409  0.51406863  1
  F  F7  1  0.93018591  0.31656510  0.51406863  1
  F  F8  1  0.68343490  0.61362082  0.51406863  1
  F  F9  1  0.93018591  0.61362082  0.48593137  1
  F  F10  1  0.68343490  0.06981409  0.48593137  1
  F  F11  1  0.38637918  0.31656510  0.48593137  1
  F  F12  1  0.67357104  0.59008442  0.37650743  1
  F  F13  1  0.40991558  0.08348662  0.37650743  1
  F  F14  1  0.91651338  0.32642896  0.37650743  1
  F  F15  1  0.40991558  0.32642896  0.62349257  1
  F  F16  1  0.91651338  0.59008442  0.62349257  1
  F  F17  1  0.67357104  0.08348662  0.62349257  1
  F  F18  1  0.00000000  0.00000000  0.00000000  1
  F  F19  1  0.57101999  0.72409567  0.59126442  1
  F  F20  1  0.27590433  0.84692433  0.59126442  1
  F  F21  1  0.15307567  0.42898001  0.59126442  1
  F  F22  1  0.27590433  0.42898001  0.40873558  1
  F  F23  1  0.15307567  0.72409567  0.40873558  1
  F  F24  1  0.57101999  0.84692433  0.40873558  1
  F  F25  1  0.33333333  0.66666667  0.21020532  1
  F  F26  1  0.33333333  0.66666667  0.78979468  1
  F  F27  1  0.11314685  0.32936966  0.19958756  1
  F  F28  1  0.67063034  0.78377718  0.19958756  1
  F  F29  1  0.21622282  0.88685315  0.19958756  1
  F  F30  1  0.67063034  0.88685315  0.80041244  1
  F  F31  1  0.21622282  0.32936966  0.80041244  1
  F  F32  1  0.11314685  0.78377718  0.80041244  1
  F  F33  1  0.79066771  0.20933229  0.50000000  1
  F  F34  1  0.79066771  0.58133541  0.50000000  1
  F  F35  1  0.41866459  0.20933229  0.50000000  1
  F  F36  1  0.58744815  0.88404303  0.51565364  1
  F  F37  1  0.11595697  0.70340512  0.51565364  1
  F  F38  1  0.29659488  0.41255185  0.51565364  1
  F  F39  1  0.11595697  0.41255185  0.48434636  1
  F  F40  1  0.29659488  0.88404303  0.48434636  1
  F  F41  1  0.58744815  0.70340512  0.48434636  1
  F  F42  1  0.66666667  0.33333333  0.71396234  1
  F  F43  1  0.66666667  0.33333333  0.28603766  1
  F  F44  1  0.87966411  0.12033589  0.00000000  1
  F  F45  1  0.87966411  0.75932821  0.00000000  1
  F  F46  1  0.24067179  0.12033589  0.00000000  1
  F  F47  1  0.66666667  0.33333333  0.50000000  1
  Li  Li48  1  0.21005993  0.46191393  0.81259001  1
  Li  Li49  1  0.53808607  0.74814600  0.81259001  1
  Li  Li50  1  0.25185400  0.78994007  0.81259001  1
  Li  Li51  1  0.53808607  0.78994007  0.18740999  1
  Li  Li52  1  0.25185400  0.46191393  0.18740999  1
  Li  Li53  1  0.21005993  0.74814600  0.18740999  1
  Li  Li54  1  0.40587398  0.59412602  0.50000000  1
  Li  Li55  1  0.40587398  0.81174796  0.50000000  1
  Li  Li56  1  0.18825204  0.59412602  0.50000000  1
  Li  Li57  1  0.57536436  0.25151414  0.65522039  1
  Li  Li58  1  0.74848586  0.32385022  0.65522039  1
  Li  Li59  1  0.67614978  0.42463564  0.65522039  1
  Li  Li60  1  0.74848586  0.42463564  0.34477961  1
  Li  Li61  1  0.67614978  0.25151414  0.34477961  1
  Li  Li62  1  0.57536436  0.32385022  0.34477961  1
  Li  Li63  1  0.87485407  0.09717978  0.56255417  1
  Li  Li64  1  0.90282022  0.77767429  0.56255417  1
  Li  Li65  1  0.22232571  0.12514593  0.56255417  1
  Li  Li66  1  0.90282022  0.12514593  0.43744583  1
  Li  Li67  1  0.22232571  0.09717978  0.43744583  1
  Li  Li68  1  0.87485407  0.77767429  0.43744583  1
  Li  Li69  1  0.33333333  0.66666667  0.50000000  1
  Li  Li70  1  0.94945945  0.05054055  0.00000000  1
  Li  Li71  1  0.94945945  0.89891891  -0.00000000  1
  Li  Li72  1  0.10108109  0.05054055  0.00000000  1
  Li  Li73  1  0.25561553  0.74438447  0.50000000  1
  Li  Li74  1  0.25561553  0.51123107  0.50000000  1
  Li  Li75  1  0.48876893  0.74438447  0.50000000  1
  Li  Li76  1  0.55695826  0.37352136  0.85037914  1
  Li  Li77  1  0.62647864  0.18343690  0.85037914  1
  Li  Li78  1  0.81656310  0.44304174  0.85037914  1
  Li  Li79  1  0.62647864  0.44304174  0.14962086  1
  Li  Li80  1  0.81656310  0.37352136  0.14962086  1
  Li  Li81  1  0.55695826  0.18343690  0.14962086  1
  Li  Li82  1  0.45152440  0.07957825  0.60744892  1
  Li  Li83  1  0.92042175  0.37194615  0.60744892  1
  Li  Li84  1  0.62805385  0.54847560  0.60744892  1
  Li  Li85  1  0.92042175  0.54847560  0.39255108  1
  Li  Li86  1  0.62805385  0.07957825  0.39255108  1
  Li  Li87  1  0.45152440  0.37194615  0.39255108  1
  Li  Li88  1  0.19071897  0.15827725  0.47858477  1
  Li  Li89  1  0.84172275  0.03244172  0.47858477  1
  Li  Li90  1  0.96755828  0.80928103  0.47858477  1
  Li  Li91  1  0.84172275  0.80928103  0.52141523  1
  Li  Li92  1  0.96755828  0.15827725  0.52141523  1
  Li  Li93  1  0.19071897  0.03244172  0.52141523  1
  Li  Li94  1  0.94930588  0.41152409  0.28332642  1
  Li  Li95  1  0.58847591  0.53778180  0.28332642  1
  Li  Li96  1  0.46221820  0.05069412  0.28332642  1
  Li  Li97  1  0.58847591  0.05069412  0.71667358  1
  Li  Li98  1  0.46221820  0.41152409  0.71667358  1
  Li  Li99  1  0.94930588  0.53778180  0.71667358  1
  Li  Li100  1  0.26954767  0.33015578  0.74374595  1
  Li  Li101  1  0.66984422  0.93939189  0.74374595  1
  Li  Li102  1  0.06060811  0.73045233  0.74374595  1
  Li  Li103  1  0.66984422  0.73045233  0.25625405  1
  Li  Li104  1  0.06060811  0.33015578  0.25625405  1
  Li  Li105  1  0.26954767  0.93939189  0.25625405  1
  Li  Li106  1  0.49634837  0.12546419  0.72280198  1
  Li  Li107  1  0.87453581  0.37088418  0.72280198  1
  Li  Li108  1  0.62911582  0.50365163  0.72280198  1
  Li  Li109  1  0.87453581  0.50365163  0.27719802  1
  Li  Li110  1  0.62911582  0.12546419  0.27719802  1
  Li  Li111  1  0.49634837  0.37088418  0.27719802  1
  Li  Li112  1  0.00000000  0.00000000  0.50000000  1
  Li  Li113  1  0.48502951  0.50687888  0.43452163  1
  Li  Li114  1  0.49312112  0.97815063  0.43452163  1
  Li  Li115  1  0.02184937  0.51497049  0.43452163  1
  Li  Li116  1  0.49312112  0.51497049  0.56547837  1
  Li  Li117  1  0.02184937  0.50687888  0.56547837  1
  Li  Li118  1  0.48502951  0.97815063  0.56547837  1
  Li  Li119  1  0.00000000  0.00000000  0.68863817  1
  Li  Li120  1  0.00000000  0.00000000  0.31136183  1
  Li  Li121  1  0.63098098  0.58477748  0.17151127  1
  Li  Li122  1  0.41522252  0.04620351  0.17151127  1
  Li  Li123  1  0.95379649  0.36901902  0.17151127  1
  Li  Li124  1  0.41522252  0.36901902  0.82848873  1
  Li  Li125  1  0.95379649  0.58477748  0.82848873  1
  Li  Li126  1  0.63098098  0.04620351  0.82848873  1
  Li  Li127  1  0.66666667  0.33333333  0.00000000  1
  Li  Li128  1  0.41617579  0.81177549  0.14329172  1
  Li  Li129  1  0.18822451  0.60440030  0.14329172  1
  Li  Li130  1  0.39559970  0.58382421  0.14329172  1
  Li  Li131  1  0.18822451  0.58382421  0.85670828  1
  Li  Li132  1  0.39559970  0.81177549  0.85670828  1
  Li  Li133  1  0.41617579  0.60440030  0.85670828  1
  Li  Li134  1  0.63248962  0.58157170  0.01026229  1
  Li  Li135  1  0.41842830  0.05091793  0.01026229  1
  Li  Li136  1  0.94908207  0.36751038  0.01026229  1
  Li  Li137  1  0.41842830  0.36751038  0.98973771  1
  Li  Li138  1  0.94908207  0.58157170  0.98973771  1
  Li  Li139  1  0.63248962  0.05091793  0.98973771  1
  Li  Li140  1  0.70398831  0.29601169  0.50000000  1
  Li  Li141  1  0.70398831  0.40797662  0.50000000  1
  Li  Li142  1  0.59202338  0.29601169  0.50000000  1
  Li  Li143  1  0.33333333  0.66666667  0.00000000  1
  Te  Te144  1  0.93934186  0.02701648  0.28028648  1
  Te  Te145  1  0.97298352  0.91232538  0.28028648  1
  Te  Te146  1  0.08767462  0.06065814  0.28028648  1
  Te  Te147  1  0.97298352  0.06065814  0.71971352  1
  Te  Te148  1  0.08767462  0.02701648  0.71971352  1
  Te  Te149  1  0.93934186  0.91232538  0.71971352  1
  Te  Te150  1  0.96058180  0.70570752  0.17370268  1
  Te  Te151  1  0.29429248  0.25487428  0.17370268  1
  Te  Te152  1  0.74512572  0.03941820  0.17370268  1
  Te  Te153  1  0.29429248  0.03941820  0.82629732  1
  Te  Te154  1  0.74512572  0.70570752  0.82629732  1
  Te  Te155  1  0.96058180  0.25487428  0.82629732  1
  Te  Te156  1  0.25762771  0.26070716  0.43172039  1
  Te  Te157  1  0.73929284  0.99692054  0.43172039  1
  Te  Te158  1  0.00307946  0.74237229  0.43172039  1
  Te  Te159  1  0.73929284  0.74237229  0.56827961  1
  Te  Te160  1  0.00307946  0.26070716  0.56827961  1
  Te  Te161  1  0.25762771  0.99692054  0.56827961  1
  Te  Te162  1  0.92263938  0.86078634  0.12456875  1
  Te  Te163  1  0.13921366  0.06185304  0.12456875  1
  Te  Te164  1  0.93814696  0.07736062  0.12456875  1
  Te  Te165  1  0.13921366  0.07736062  0.87543125  1
  Te  Te166  1  0.93814696  0.86078634  0.87543125  1
  Te  Te167  1  0.92263938  0.06185304  0.87543125  1
