# generated using pymatgen
data_LiF
_symmetry_space_group_name_H-M   'P 1'
_cell_length_a   13.74960331
_cell_length_b   13.74960331
_cell_length_c   5.86897633
_cell_angle_alpha   90.00000000
_cell_angle_beta   90.00000000
_cell_angle_gamma   90.00000000
_symmetry_Int_Tables_number   1
_chemical_formula_structural   LiF
_chemical_formula_sum   'Li44 F44'
_cell_volume   1109.53931326
_cell_formula_units_Z   44
loop_
 _symmetry_equiv_pos_site_id
 _symmetry_equiv_pos_as_xyz
  1  'x, y, z'
loop_
 _atom_site_type_symbol
 _atom_site_label
 _atom_site_symmetry_multiplicity
 _atom_site_fract_x
 _atom_site_fract_y
 _atom_site_fract_z
 _atom_site_occupancy
  F  F0  1  0.44907631  0.15060222  0.13027681  1
  F  F1  1  0.05092369  0.84939778  0.63027681  1
  F  F2  1  0.09939778  0.19907631  0.38027681  1
  F  F3  1  0.40060222  0.80092369  0.88027681  1
  F  F4  1  0.05092369  0.15060222  0.36972319  1
  F  F5  1  0.44907631  0.84939778  0.86972319  1
  F  F6  1  0.40060222  0.19907631  0.11972319  1
  F  F7  1  0.09939778  0.80092369  0.61972319  1
  F  F8  1  0.55092369  0.84939778  0.86972319  1
  F  F9  1  0.94907631  0.15060222  0.36972319  1
  F  F10  1  0.90060222  0.80092369  0.61972319  1
  F  F11  1  0.59939778  0.19907631  0.11972319  1
  F  F12  1  0.94907631  0.84939778  0.63027681  1
  F  F13  1  0.55092369  0.15060222  0.13027681  1
  F  F14  1  0.59939778  0.80092369  0.88027681  1
  F  F15  1  0.90060222  0.19907631  0.38027681  1
  F  F16  1  0.94907631  0.65060222  0.63027681  1
  F  F17  1  0.55092369  0.34939778  0.13027681  1
  F  F18  1  0.59939778  0.69907631  0.88027681  1
  F  F19  1  0.90060222  0.30092369  0.38027681  1
  F  F20  1  0.55092369  0.65060222  0.86972319  1
  F  F21  1  0.94907631  0.34939778  0.36972319  1
  F  F22  1  0.90060222  0.69907631  0.61972319  1
  F  F23  1  0.59939778  0.30092369  0.11972319  1
  F  F24  1  0.05092369  0.34939778  0.36972319  1
  F  F25  1  0.44907631  0.65060222  0.86972319  1
  F  F26  1  0.40060222  0.30092369  0.11972319  1
  F  F27  1  0.09939778  0.69907631  0.61972319  1
  F  F28  1  0.44907631  0.34939778  0.13027681  1
  F  F29  1  0.05092369  0.65060222  0.63027681  1
  F  F30  1  0.09939778  0.30092369  0.38027681  1
  F  F31  1  0.40060222  0.69907631  0.88027681  1
  F  F32  1  0.00000000  0.25000000  0.48712244  1
  F  F33  1  0.00000000  0.75000000  0.73712244  1
  F  F34  1  0.50000000  0.25000000  0.01287756  1
  F  F35  1  0.50000000  0.75000000  0.76287756  1
  F  F36  1  0.50000000  0.75000000  0.98712244  1
  F  F37  1  0.50000000  0.25000000  0.23712244  1
  F  F38  1  0.00000000  0.75000000  0.51287756  1
  F  F39  1  0.00000000  0.25000000  0.26287756  1
  F  F40  1  0.00000000  0.25000000  0.37500000  1
  F  F41  1  0.00000000  0.75000000  0.62500000  1
  F  F42  1  0.50000000  0.75000000  0.87500000  1
  F  F43  1  0.50000000  0.25000000  0.12500000  1
  Li  Li44  1  0.00000000  0.75000000  0.12500000  1
  Li  Li45  1  0.50000000  0.75000000  0.37500000  1
  Li  Li46  1  0.50000000  0.25000000  0.62500000  1
  Li  Li47  1  0.00000000  0.25000000  0.87500000  1
  Li  Li48  1  0.31073649  0.68079662  0.48166861  1
  Li  Li49  1  0.18926351  -0.68079662  0.98166861  1
  Li  Li50  1  -0.43079662  1.06073649  0.73166861  1
  Li  Li51  1  0.93079662  -0.06073649  1.23166861  1
  Li  Li52  1  0.18926351  0.68079662  0.01833139  1
  Li  Li53  1  0.31073649  -0.68079662  -0.48166861  1
  Li  Li54  1  0.93079662  1.06073649  -0.23166861  1
  Li  Li55  1  -0.43079662  -0.06073649  0.26833139  1
  Li  Li56  1  -0.31073649  -0.68079662  -0.48166861  1
  Li  Li57  1  0.81073649  0.68079662  0.01833139  1
  Li  Li58  1  1.43079662  -0.06073649  0.26833139  1
  Li  Li59  1  0.06920338  1.06073649  -0.23166861  1
  Li  Li60  1  0.81073649  -0.68079662  0.98166861  1
  Li  Li61  1  -0.31073649  0.68079662  0.48166861  1
  Li  Li62  1  0.06920338  -0.06073649  1.23166861  1
  Li  Li63  1  1.43079662  1.06073649  0.73166861  1
  Li  Li64  1  0.81073649  1.18079662  0.98166861  1
  Li  Li65  1  0.68926351  -0.18079662  1.48166861  1
  Li  Li66  1  0.06920338  1.56073649  1.23166861  1
  Li  Li67  1  1.43079662  0.43926351  1.73166861  1
  Li  Li68  1  0.68926351  1.18079662  0.51833139  1
  Li  Li69  1  0.81073649  -0.18079662  0.01833139  1
  Li  Li70  1  1.43079662  1.56073649  0.26833139  1
  Li  Li71  1  0.06920338  0.43926351  0.76833139  1
  Li  Li72  1  0.18926351  -0.18079662  0.01833139  1
  Li  Li73  1  1.31073649  1.18079662  0.51833139  1
  Li  Li74  1  1.93079662  0.43926351  0.76833139  1
  Li  Li75  1  0.56920338  1.56073649  0.26833139  1
  Li  Li76  1  1.31073649  -0.18079662  1.48166861  1
  Li  Li77  1  0.18926351  1.18079662  0.98166861  1
  Li  Li78  1  0.56920338  0.43926351  1.73166861  1
  Li  Li79  1  1.93079662  1.56073649  1.23166861  1
  Li  Li80  1  0.00000000  0.00000000  0.50000000  1
  Li  Li81  1  0.50000000  0.00000000  0.00000000  1
  Li  Li82  1  0.25000000  0.75000000  0.75000000  1
  Li  Li83  1  0.25000000  0.25000000  0.25000000  1
  Li  Li84  1  0.50000000  0.50000000  0.00000000  1
  Li  Li85  1  0.00000000  0.50000000  0.50000000  1
  Li  Li86  1  0.75000000  0.25000000  0.25000000  1
  Li  Li87  1  0.75000000  0.75000000  0.75000000  1
