# generated using pymatgen
data_Li3Y2MoP3Se2
_symmetry_space_group_name_H-M   'P 1'
_cell_length_a   5.68039750
_cell_length_b   5.89468890
_cell_length_c   7.40413288
_cell_angle_alpha   93.52000240
_cell_angle_beta   97.66583343
_cell_angle_gamma   104.13845064
_symmetry_Int_Tables_number   1
_chemical_formula_structural   Li3Y2MoP3Se2
_chemical_formula_sum   'Li3 Y2 Mo1 P3 Se2'
_cell_volume   237.12076824
_cell_formula_units_Z   1
loop_
 _symmetry_equiv_pos_site_id
 _symmetry_equiv_pos_as_xyz
  1  'x, y, z'
loop_
 _atom_site_type_symbol
 _atom_site_label
 _atom_site_symmetry_multiplicity
 _atom_site_fract_x
 _atom_site_fract_y
 _atom_site_fract_z
 _atom_site_occupancy
  Se  Se0  1  0.12500000  0.00000000  0.25000000  1
  Se  Se1  1  0.00000000  0.00000000  0.00000000  1
  P  P2  1  0.37500000  0.00000000  0.25000000  1
  P  P3  1  0.25000000  0.25000000  0.25000000  1
  P  P4  1  0.00000000  0.25000000  0.12500000  1
  Mo  Mo5  1  0.56282555  0.00594749  0.44091817  1
  Li  Li6  1  0.73766858  0.71543534  0.61072953  1
  Li  Li7  1  0.98556504  0.58491544  0.30345554  1
  Li  Li8  1  0.69425700  0.21755543  0.97122855  1
  Y  Y9  1  0.43798638  0.01803762  0.62269413  1
  Y  Y10  1  0.84617564  0.11239139  0.26489457  1
