# generated using pymatgen
data_LiF
_symmetry_space_group_name_H-M   'P 1'
_cell_length_a   10.71921613
_cell_length_b   12.61339689
_cell_length_c   5.50518638
_cell_angle_alpha   90.00000000
_cell_angle_beta   90.00000000
_cell_angle_gamma   90.00000000
_symmetry_Int_Tables_number   1
_chemical_formula_structural   LiF
_chemical_formula_sum   'Li24 F24'
_cell_volume   744.33272969
_cell_formula_units_Z   24
loop_
 _symmetry_equiv_pos_site_id
 _symmetry_equiv_pos_as_xyz
  1  'x, y, z'
loop_
 _atom_site_type_symbol
 _atom_site_label
 _atom_site_symmetry_multiplicity
 _atom_site_fract_x
 _atom_site_fract_y
 _atom_site_fract_z
 _atom_site_occupancy
  F  F0  1  0.26808717  0.09111872  0.08023709  1
  F  F1  1  0.23191283  0.90888128  0.58023709  1
  F  F2  1  0.73191283  0.59111872  0.91976291  1
  F  F3  1  0.76808717  0.40888128  0.41976291  1
  F  F4  1  0.73191283  0.90888128  0.91976291  1
  F  F5  1  0.76808717  0.09111872  0.41976291  1
  F  F6  1  0.26808717  0.40888128  0.08023709  1
  F  F7  1  0.23191283  0.59111872  0.58023709  1
  F  F8  1  0.24408330  0.25000000  0.78701847  1
  F  F9  1  0.25591670  0.75000000  0.28701847  1
  F  F10  1  0.75591670  0.75000000  0.21298153  1
  F  F11  1  0.74408330  0.25000000  0.71298153  1
  F  F12  1  0.21758466  0.37342457  0.47265843  1
  F  F13  1  0.28241534  0.62657543  0.97265843  1
  F  F14  1  0.78241534  0.87342457  0.52734157  1
  F  F15  1  0.71758466  0.12657543  0.02734157  1
  F  F16  1  0.78241534  0.62657543  0.52734157  1
  F  F17  1  0.71758466  0.37342457  0.02734157  1
  F  F18  1  0.21758466  0.12657543  0.47265843  1
  F  F19  1  0.28241534  0.87342457  0.97265843  1
  F  F20  1  0.66111155  0.25000000  0.55054322  1
  F  F21  1  0.83888845  0.75000000  0.05054322  1
  F  F22  1  0.33888845  0.75000000  0.44945678  1
  F  F23  1  0.16111155  0.25000000  0.94945678  1
  Li  Li24  1  0.00000000  0.00000000  0.00000000  1
  Li  Li25  1  0.50000000  0.00000000  0.50000000  1
  Li  Li26  1  0.00000000  0.50000000  0.00000000  1
  Li  Li27  1  0.50000000  0.50000000  0.50000000  1
  Li  Li28  1  0.25921869  0.25000000  0.41553693  1
  Li  Li29  1  0.24078131  0.75000000  0.91553693  1
  Li  Li30  1  0.74078131  0.75000000  0.58446307  1
  Li  Li31  1  0.75921869  0.25000000  0.08446307  1
  Li  Li32  1  0.00000000  0.00000000  0.50000000  1
  Li  Li33  1  0.50000000  0.00000000  0.00000000  1
  Li  Li34  1  0.00000000  0.50000000  0.50000000  1
  Li  Li35  1  0.50000000  0.50000000  0.00000000  1
  Li  Li36  1  0.71823175  0.12900799  0.71953608  1
  Li  Li37  1  -0.21823175  -0.12900799  1.21953608  1
  Li  Li38  1  -0.71823175  0.62900799  -0.71953608  1
  Li  Li39  1  1.21823175  0.37099201  -0.21953608  1
  Li  Li40  1  -0.71823175  -0.12900799  -0.71953608  1
  Li  Li41  1  1.21823175  0.12900799  -0.21953608  1
  Li  Li42  1  0.71823175  0.37099201  0.71953608  1
  Li  Li43  1  -0.21823175  0.62900799  1.21953608  1
  Li  Li44  1  0.60597075  0.25000000  0.19313440  1
  Li  Li45  1  0.89402925  0.75000000  0.69313440  1
  Li  Li46  1  0.39402925  0.75000000  0.80686560  1
  Li  Li47  1  0.10597075  0.25000000  0.30686560  1
