# generated using pymatgen
data_Li2Si4Te3F12
_symmetry_space_group_name_H-M   'P 1'
_cell_length_a   11.30830781
_cell_length_b   8.46107962
_cell_length_c   15.75604106
_cell_angle_alpha   90.00000000
_cell_angle_beta   90.00000000
_cell_angle_gamma   90.00000000
_symmetry_Int_Tables_number   1
_chemical_formula_structural   Li2Si4Te3F12
_chemical_formula_sum   'Li8 Si16 Te12 F48'
_cell_volume   1507.54577168
_cell_formula_units_Z   4
loop_
 _symmetry_equiv_pos_site_id
 _symmetry_equiv_pos_as_xyz
  1  'x, y, z'
loop_
 _atom_site_type_symbol
 _atom_site_label
 _atom_site_symmetry_multiplicity
 _atom_site_fract_x
 _atom_site_fract_y
 _atom_site_fract_z
 _atom_site_occupancy
  F  F0  1  0.00000000  0.00000000  0.50000000  1
  F  F1  1  0.50000000  0.50000000  0.50000000  1
  F  F2  1  0.81702794  0.34203498  0.50000000  1
  F  F3  1  0.18297206  0.65796502  0.50000000  1
  F  F4  1  0.68297206  0.84203498  0.50000000  1
  F  F5  1  0.31702794  0.15796502  0.50000000  1
  F  F6  1  0.68600757  0.23070799  0.59727616  1
  F  F7  1  0.31399243  0.76929201  0.59727616  1
  F  F8  1  0.81399243  0.73070799  0.40272384  1
  F  F9  1  0.18600757  0.26929201  0.40272384  1
  F  F10  1  0.31399243  0.76929201  0.40272384  1
  F  F11  1  0.68600757  0.23070799  0.40272384  1
  F  F12  1  0.18600757  0.26929201  0.59727616  1
  F  F13  1  0.81399243  0.73070799  0.59727616  1
  F  F14  1  0.97630302  0.69162866  0.50000000  1
  F  F15  1  0.02369698  0.30837134  0.50000000  1
  F  F16  1  0.52369698  0.19162866  0.50000000  1
  F  F17  1  0.47630302  0.80837134  0.50000000  1
  F  F18  1  0.00000000  0.00000000  0.00000000  1
  F  F19  1  0.50000000  0.50000000  0.00000000  1
  F  F20  1  0.48560474  0.13158244  0.79347652  1
  F  F21  1  0.51439526  0.86841756  0.79347652  1
  F  F22  1  0.01439526  0.63158244  0.20652348  1
  F  F23  1  0.98560474  0.36841756  0.20652348  1
  F  F24  1  0.51439526  0.86841756  0.20652348  1
  F  F25  1  0.48560474  0.13158244  0.20652348  1
  F  F26  1  0.98560474  0.36841756  0.79347652  1
  F  F27  1  0.01439526  0.63158244  0.79347652  1
  F  F28  1  0.75948254  0.54061482  0.78035509  1
  F  F29  1  0.24051746  0.45938518  0.78035509  1
  F  F30  1  0.74051746  0.04061482  0.21964491  1
  F  F31  1  0.25948254  0.95938518  0.21964491  1
  F  F32  1  0.24051746  0.45938518  0.21964491  1
  F  F33  1  0.75948254  0.54061482  0.21964491  1
  F  F34  1  0.25948254  0.95938518  0.78035509  1
  F  F35  1  0.74051746  0.04061482  0.78035509  1
  F  F36  1  0.00000000  0.50000000  0.52626834  1
  F  F37  1  0.50000000  -0.00000000  0.47373166  1
  F  F38  1  0.00000000  0.50000000  0.47373166  1
  F  F39  1  0.50000000  -0.00000000  0.52626834  1
  F  F40  1  0.46012160  0.70983581  0.55665286  1
  F  F41  1  0.53987840  0.29016419  0.55665286  1
  F  F42  1  0.03987840  0.20983581  0.44334714  1
  F  F43  1  0.96012160  0.79016419  0.44334714  1
  F  F44  1  0.53987840  0.29016419  0.44334714  1
  F  F45  1  0.46012160  0.70983581  0.44334714  1
  F  F46  1  0.96012160  0.79016419  0.55665286  1
  F  F47  1  0.03987840  0.20983581  0.55665286  1
  Li  Li48  1  0.05085539  0.75005249  0.00000000  1
  Li  Li49  1  0.94914461  0.24994751  0.00000000  1
  Li  Li50  1  0.44914461  0.25005249  -0.00000000  1
  Li  Li51  1  0.55085539  0.74994751  -0.00000000  1
  Li  Li52  1  0.00000000  0.00000000  0.15012731  1
  Li  Li53  1  0.50000000  0.50000000  0.84987269  1
  Li  Li54  1  0.00000000  0.00000000  0.84987269  1
  Li  Li55  1  0.50000000  0.50000000  0.15012731  1
  Si  Si56  1  0.49141643  0.62014604  0.66339537  1
  Si  Si57  1  -0.49141643  -0.62014604  0.66339537  1
  Si  Si58  1  0.00858357  1.12014604  -0.66339537  1
  Si  Si59  1  0.99141643  -0.12014604  -0.66339537  1
  Si  Si60  1  -0.49141643  -0.62014604  -0.66339537  1
  Si  Si61  1  0.49141643  0.62014604  -0.66339537  1
  Si  Si62  1  0.99141643  -0.12014604  0.66339537  1
  Si  Si63  1  0.00858357  1.12014604  0.66339537  1
  Si  Si64  1  0.00000000  0.50000000  0.92065469  1
  Si  Si65  1  0.50000000  -0.00000000  0.07934531  1
  Si  Si66  1  0.00000000  0.50000000  0.07934531  1
  Si  Si67  1  0.50000000  -0.00000000  0.92065469  1
  Si  Si68  1  0.03006192  0.14849838  0.50000000  1
  Si  Si69  1  0.96993808  0.85150162  0.50000000  1
  Si  Si70  1  0.46993808  0.64849838  0.50000000  1
  Si  Si71  1  0.53006192  0.35150162  0.50000000  1
  Te  Te72  1  0.19642995  0.77407807  0.00000000  1
  Te  Te73  1  0.80357005  0.22592193  0.00000000  1
  Te  Te74  1  0.30357005  0.27407807  0.00000000  1
  Te  Te75  1  0.69642995  0.72592193  0.00000000  1
  Te  Te76  1  0.90817991  0.99474116  0.39796993  1
  Te  Te77  1  0.09182009  0.00525884  0.39796993  1
  Te  Te78  1  0.59182009  0.49474116  0.60203007  1
  Te  Te79  1  0.40817991  0.50525884  0.60203007  1
  Te  Te80  1  0.09182009  0.00525884  0.60203007  1
  Te  Te81  1  0.90817991  0.99474116  0.60203007  1
  Te  Te82  1  0.40817991  0.50525884  0.39796993  1
  Te  Te83  1  0.59182009  0.49474116  0.39796993  1
