# generated using pymatgen
data_Li3Al2Sb(SBr2)3
_symmetry_space_group_name_H-M   'P 1'
_cell_length_a   16.47869593
_cell_length_b   16.47869593
_cell_length_c   16.47869593
_cell_angle_alpha   90.00000000
_cell_angle_beta   90.00000000
_cell_angle_gamma   90.00000000
_symmetry_Int_Tables_number   1
_chemical_formula_structural   Li3Al2Sb(SBr2)3
_chemical_formula_sum   'Li48 Al32 Sb16 S48 Br96'
_cell_volume   4474.74735514
_cell_formula_units_Z   16
loop_
 _symmetry_equiv_pos_site_id
 _symmetry_equiv_pos_as_xyz
  1  'x, y, z'
loop_
 _atom_site_type_symbol
 _atom_site_label
 _atom_site_symmetry_multiplicity
 _atom_site_fract_x
 _atom_site_fract_y
 _atom_site_fract_z
 _atom_site_occupancy
  Al  Al0  1  0.11006164  0.11006164  0.11006164  1
  Al  Al1  1  0.88993836  0.88993836  0.11006164  1
  Al  Al2  1  0.88993836  0.11006164  0.88993836  1
  Al  Al3  1  0.11006164  0.88993836  0.88993836  1
  Al  Al4  1  0.11006164  0.11006164  0.88993836  1
  Al  Al5  1  0.88993836  0.88993836  0.88993836  1
  Al  Al6  1  0.11006164  0.88993836  0.11006164  1
  Al  Al7  1  0.88993836  0.11006164  0.11006164  1
  Al  Al8  1  0.11006164  0.61006164  0.61006164  1
  Al  Al9  1  0.88993836  0.38993836  0.61006164  1
  Al  Al10  1  0.88993836  0.61006164  0.38993836  1
  Al  Al11  1  0.11006164  0.38993836  0.38993836  1
  Al  Al12  1  0.11006164  0.61006164  0.38993836  1
  Al  Al13  1  0.88993836  0.38993836  0.38993836  1
  Al  Al14  1  0.11006164  0.38993836  0.61006164  1
  Al  Al15  1  0.88993836  0.61006164  0.61006164  1
  Al  Al16  1  0.61006164  0.11006164  0.61006164  1
  Al  Al17  1  0.38993836  0.88993836  0.61006164  1
  Al  Al18  1  0.38993836  0.11006164  0.38993836  1
  Al  Al19  1  0.61006164  0.88993836  0.38993836  1
  Al  Al20  1  0.61006164  0.11006164  0.38993836  1
  Al  Al21  1  0.38993836  0.88993836  0.38993836  1
  Al  Al22  1  0.61006164  0.88993836  0.61006164  1
  Al  Al23  1  0.38993836  0.11006164  0.61006164  1
  Al  Al24  1  0.61006164  0.61006164  0.11006164  1
  Al  Al25  1  0.38993836  0.38993836  0.11006164  1
  Al  Al26  1  0.38993836  0.61006164  0.88993836  1
  Al  Al27  1  0.61006164  0.38993836  0.88993836  1
  Al  Al28  1  0.61006164  0.61006164  0.88993836  1
  Al  Al29  1  0.38993836  0.38993836  0.88993836  1
  Al  Al30  1  0.61006164  0.38993836  0.11006164  1
  Al  Al31  1  0.38993836  0.61006164  0.11006164  1
  Br  Br32  1  0.00000000  0.11822965  0.11822965  1
  Br  Br33  1  0.00000000  -0.11822965  0.11822965  1
  Br  Br34  1  0.00000000  0.11822965  -0.11822965  1
  Br  Br35  1  0.00000000  -0.11822965  -0.11822965  1
  Br  Br36  1  0.11822965  -0.00000000  0.11822965  1
  Br  Br37  1  0.11822965  -0.00000000  -0.11822965  1
  Br  Br38  1  -0.11822965  0.00000000  0.11822965  1
  Br  Br39  1  -0.11822965  0.00000000  -0.11822965  1
  Br  Br40  1  0.11822965  0.11822965  -0.00000000  1
  Br  Br41  1  -0.11822965  0.11822965  0.00000000  1
  Br  Br42  1  0.11822965  -0.11822965  -0.00000000  1
  Br  Br43  1  -0.11822965  -0.11822965  0.00000000  1
  Br  Br44  1  0.00000000  0.61822965  0.61822965  1
  Br  Br45  1  0.00000000  0.38177035  0.61822965  1
  Br  Br46  1  0.00000000  0.61822965  0.38177035  1
  Br  Br47  1  0.00000000  0.38177035  0.38177035  1
  Br  Br48  1  0.11822965  0.50000000  0.61822965  1
  Br  Br49  1  0.11822965  0.50000000  0.38177035  1
  Br  Br50  1  -0.11822965  0.50000000  0.61822965  1
  Br  Br51  1  -0.11822965  0.50000000  0.38177035  1
  Br  Br52  1  0.11822965  0.61822965  0.50000000  1
  Br  Br53  1  -0.11822965  0.61822965  0.50000000  1
  Br  Br54  1  0.11822965  0.38177035  0.50000000  1
  Br  Br55  1  -0.11822965  0.38177035  0.50000000  1
  Br  Br56  1  0.50000000  0.11822965  0.61822965  1
  Br  Br57  1  0.50000000  -0.11822965  0.61822965  1
  Br  Br58  1  0.50000000  0.11822965  0.38177035  1
  Br  Br59  1  0.50000000  -0.11822965  0.38177035  1
  Br  Br60  1  0.61822965  0.00000000  0.61822965  1
  Br  Br61  1  0.61822965  0.00000000  0.38177035  1
  Br  Br62  1  0.38177035  0.00000000  0.61822965  1
  Br  Br63  1  0.38177035  0.00000000  0.38177035  1
  Br  Br64  1  0.61822965  0.11822965  0.50000000  1
  Br  Br65  1  0.38177035  0.11822965  0.50000000  1
  Br  Br66  1  0.61822965  -0.11822965  0.50000000  1
  Br  Br67  1  0.38177035  -0.11822965  0.50000000  1
  Br  Br68  1  0.50000000  0.61822965  0.11822965  1
  Br  Br69  1  0.50000000  0.38177035  0.11822965  1
  Br  Br70  1  0.50000000  0.61822965  -0.11822965  1
  Br  Br71  1  0.50000000  0.38177035  -0.11822965  1
  Br  Br72  1  0.61822965  0.50000000  0.11822965  1
  Br  Br73  1  0.61822965  0.50000000  -0.11822965  1
  Br  Br74  1  0.38177035  0.50000000  0.11822965  1
  Br  Br75  1  0.38177035  0.50000000  -0.11822965  1
  Br  Br76  1  0.61822965  0.61822965  0.00000000  1
  Br  Br77  1  0.38177035  0.61822965  0.00000000  1
  Br  Br78  1  0.61822965  0.38177035  0.00000000  1
  Br  Br79  1  0.38177035  0.38177035  0.00000000  1
  Br  Br80  1  0.85504304  0.25000000  0.25000000  1
  Br  Br81  1  0.14495696  0.75000000  0.25000000  1
  Br  Br82  1  0.25000000  0.85504304  0.25000000  1
  Br  Br83  1  0.25000000  0.14495696  0.75000000  1
  Br  Br84  1  0.25000000  0.25000000  0.85504304  1
  Br  Br85  1  0.75000000  0.25000000  0.14495696  1
  Br  Br86  1  0.25000000  0.85504304  0.75000000  1
  Br  Br87  1  0.75000000  0.14495696  0.75000000  1
  Br  Br88  1  0.85504304  0.25000000  0.75000000  1
  Br  Br89  1  0.14495696  0.25000000  0.25000000  1
  Br  Br90  1  0.25000000  0.25000000  0.14495696  1
  Br  Br91  1  0.25000000  0.75000000  0.85504304  1
  Br  Br92  1  0.85504304  0.75000000  0.75000000  1
  Br  Br93  1  0.14495696  0.25000000  0.75000000  1
  Br  Br94  1  0.25000000  0.35504304  0.75000000  1
  Br  Br95  1  0.25000000  0.64495696  0.25000000  1
  Br  Br96  1  0.25000000  0.75000000  0.35504304  1
  Br  Br97  1  0.75000000  0.75000000  0.64495696  1
  Br  Br98  1  0.25000000  0.35504304  0.25000000  1
  Br  Br99  1  0.75000000  0.64495696  0.25000000  1
  Br  Br100  1  0.85504304  0.75000000  0.25000000  1
  Br  Br101  1  0.14495696  0.75000000  0.75000000  1
  Br  Br102  1  0.25000000  0.75000000  0.64495696  1
  Br  Br103  1  0.25000000  0.25000000  0.35504304  1
  Br  Br104  1  0.35504304  0.25000000  0.75000000  1
  Br  Br105  1  0.64495696  0.75000000  0.75000000  1
  Br  Br106  1  0.75000000  0.85504304  0.75000000  1
  Br  Br107  1  0.75000000  0.14495696  0.25000000  1
  Br  Br108  1  0.75000000  0.25000000  0.35504304  1
  Br  Br109  1  0.25000000  0.25000000  0.64495696  1
  Br  Br110  1  0.75000000  0.85504304  0.25000000  1
  Br  Br111  1  0.25000000  0.14495696  0.25000000  1
  Br  Br112  1  0.35504304  0.25000000  0.25000000  1
  Br  Br113  1  0.64495696  0.25000000  0.75000000  1
  Br  Br114  1  0.75000000  0.25000000  0.64495696  1
  Br  Br115  1  0.75000000  0.75000000  0.35504304  1
  Br  Br116  1  0.35504304  0.75000000  0.25000000  1
  Br  Br117  1  0.64495696  0.25000000  0.25000000  1
  Br  Br118  1  0.75000000  0.35504304  0.25000000  1
  Br  Br119  1  0.75000000  0.64495696  0.75000000  1
  Br  Br120  1  0.75000000  0.75000000  0.85504304  1
  Br  Br121  1  0.25000000  0.75000000  0.14495696  1
  Br  Br122  1  0.75000000  0.35504304  0.75000000  1
  Br  Br123  1  0.25000000  0.64495696  0.75000000  1
  Br  Br124  1  0.35504304  0.75000000  0.75000000  1
  Br  Br125  1  0.64495696  0.75000000  0.25000000  1
  Br  Br126  1  0.75000000  0.75000000  0.14495696  1
  Br  Br127  1  0.75000000  0.25000000  0.85504304  1
  Li  Li128  1  0.50000000  0.58173906  0.58173906  1
  Li  Li129  1  0.50000000  0.41826094  0.58173906  1
  Li  Li130  1  0.50000000  0.58173906  0.41826094  1
  Li  Li131  1  0.50000000  0.41826094  0.41826094  1
  Li  Li132  1  0.58173906  0.50000000  0.58173906  1
  Li  Li133  1  0.58173906  0.50000000  0.41826094  1
  Li  Li134  1  0.41826094  0.50000000  0.58173906  1
  Li  Li135  1  0.41826094  0.50000000  0.41826094  1
  Li  Li136  1  0.58173906  0.58173906  0.50000000  1
  Li  Li137  1  0.41826094  0.58173906  0.50000000  1
  Li  Li138  1  0.58173906  0.41826094  0.50000000  1
  Li  Li139  1  0.41826094  0.41826094  0.50000000  1
  Li  Li140  1  0.50000000  0.08173906  0.08173906  1
  Li  Li141  1  0.50000000  0.91826094  0.08173906  1
  Li  Li142  1  0.50000000  0.08173906  0.91826094  1
  Li  Li143  1  0.50000000  0.91826094  0.91826094  1
  Li  Li144  1  0.58173906  0.00000000  0.08173906  1
  Li  Li145  1  0.58173906  0.00000000  0.91826094  1
  Li  Li146  1  0.41826094  0.00000000  0.08173906  1
  Li  Li147  1  0.41826094  0.00000000  0.91826094  1
  Li  Li148  1  0.58173906  0.08173906  0.00000000  1
  Li  Li149  1  0.41826094  0.08173906  -0.00000000  1
  Li  Li150  1  0.58173906  0.91826094  0.00000000  1
  Li  Li151  1  0.41826094  0.91826094  0.00000000  1
  Li  Li152  1  0.00000000  0.58173906  0.08173906  1
  Li  Li153  1  0.00000000  0.41826094  0.08173906  1
  Li  Li154  1  0.00000000  0.58173906  0.91826094  1
  Li  Li155  1  0.00000000  0.41826094  0.91826094  1
  Li  Li156  1  0.08173906  0.50000000  0.08173906  1
  Li  Li157  1  0.08173906  0.50000000  0.91826094  1
  Li  Li158  1  0.91826094  0.50000000  0.08173906  1
  Li  Li159  1  0.91826094  0.50000000  0.91826094  1
  Li  Li160  1  0.08173906  0.58173906  0.00000000  1
  Li  Li161  1  0.91826094  0.58173906  0.00000000  1
  Li  Li162  1  0.08173906  0.41826094  0.00000000  1
  Li  Li163  1  0.91826094  0.41826094  0.00000000  1
  Li  Li164  1  0.00000000  0.08173906  0.58173906  1
  Li  Li165  1  0.00000000  0.91826094  0.58173906  1
  Li  Li166  1  0.00000000  0.08173906  0.41826094  1
  Li  Li167  1  0.00000000  0.91826094  0.41826094  1
  Li  Li168  1  0.08173906  0.00000000  0.58173906  1
  Li  Li169  1  0.08173906  0.00000000  0.41826094  1
  Li  Li170  1  0.91826094  0.00000000  0.58173906  1
  Li  Li171  1  0.91826094  0.00000000  0.41826094  1
  Li  Li172  1  0.08173906  0.08173906  0.50000000  1
  Li  Li173  1  0.91826094  0.08173906  0.50000000  1
  Li  Li174  1  0.08173906  0.91826094  0.50000000  1
  Li  Li175  1  0.91826094  0.91826094  0.50000000  1
  S  S176  1  0.50000000  0.19914700  0.19914700  1
  S  S177  1  0.50000000  0.80085300  0.19914700  1
  S  S178  1  0.50000000  0.19914700  0.80085300  1
  S  S179  1  0.50000000  0.80085300  0.80085300  1
  S  S180  1  0.19914700  0.50000000  0.19914700  1
  S  S181  1  0.19914700  0.50000000  0.80085300  1
  S  S182  1  0.80085300  0.50000000  0.19914700  1
  S  S183  1  0.80085300  0.50000000  0.80085300  1
  S  S184  1  0.19914700  0.19914700  0.50000000  1
  S  S185  1  0.80085300  0.19914700  0.50000000  1
  S  S186  1  0.19914700  0.80085300  0.50000000  1
  S  S187  1  0.80085300  0.80085300  0.50000000  1
  S  S188  1  0.50000000  0.69914700  0.69914700  1
  S  S189  1  0.50000000  0.30085300  0.69914700  1
  S  S190  1  0.50000000  0.69914700  0.30085300  1
  S  S191  1  0.50000000  0.30085300  0.30085300  1
  S  S192  1  0.19914700  0.00000000  0.69914700  1
  S  S193  1  0.19914700  0.00000000  0.30085300  1
  S  S194  1  0.80085300  0.00000000  0.69914700  1
  S  S195  1  0.80085300  0.00000000  0.30085300  1
  S  S196  1  0.19914700  0.69914700  0.00000000  1
  S  S197  1  0.80085300  0.69914700  0.00000000  1
  S  S198  1  0.19914700  0.30085300  0.00000000  1
  S  S199  1  0.80085300  0.30085300  -0.00000000  1
  S  S200  1  0.00000000  0.19914700  0.69914700  1
  S  S201  1  0.00000000  0.80085300  0.69914700  1
  S  S202  1  0.00000000  0.19914700  0.30085300  1
  S  S203  1  0.00000000  0.80085300  0.30085300  1
  S  S204  1  0.69914700  0.50000000  0.69914700  1
  S  S205  1  0.69914700  0.50000000  0.30085300  1
  S  S206  1  0.30085300  0.50000000  0.69914700  1
  S  S207  1  0.30085300  0.50000000  0.30085300  1
  S  S208  1  0.69914700  0.19914700  0.00000000  1
  S  S209  1  0.30085300  0.19914700  -0.00000000  1
  S  S210  1  0.69914700  0.80085300  0.00000000  1
  S  S211  1  0.30085300  0.80085300  0.00000000  1
  S  S212  1  0.00000000  0.69914700  0.19914700  1
  S  S213  1  0.00000000  0.30085300  0.19914700  1
  S  S214  1  0.00000000  0.69914700  0.80085300  1
  S  S215  1  0.00000000  0.30085300  0.80085300  1
  S  S216  1  0.69914700  0.00000000  0.19914700  1
  S  S217  1  0.69914700  0.00000000  0.80085300  1
  S  S218  1  0.30085300  0.00000000  0.19914700  1
  S  S219  1  0.30085300  0.00000000  0.80085300  1
  S  S220  1  0.69914700  0.69914700  0.50000000  1
  S  S221  1  0.30085300  0.69914700  0.50000000  1
  S  S222  1  0.69914700  0.30085300  0.50000000  1
  S  S223  1  0.30085300  0.30085300  0.50000000  1
  Sb  Sb224  1  0.50000000  0.50000000  0.50000000  1
  Sb  Sb225  1  0.50000000  0.00000000  0.00000000  1
  Sb  Sb226  1  0.00000000  0.50000000  0.00000000  1
  Sb  Sb227  1  0.00000000  0.00000000  0.50000000  1
  Sb  Sb228  1  0.25000000  0.25000000  0.25000000  1
  Sb  Sb229  1  0.25000000  0.25000000  0.75000000  1
  Sb  Sb230  1  0.25000000  0.75000000  0.75000000  1
  Sb  Sb231  1  0.25000000  0.75000000  0.25000000  1
  Sb  Sb232  1  0.75000000  0.25000000  0.75000000  1
  Sb  Sb233  1  0.75000000  0.25000000  0.25000000  1
  Sb  Sb234  1  0.75000000  0.75000000  0.25000000  1
  Sb  Sb235  1  0.75000000  0.75000000  0.75000000  1
  Sb  Sb236  1  0.00000000  0.00000000  0.00000000  1
  Sb  Sb237  1  0.00000000  0.50000000  0.50000000  1
  Sb  Sb238  1  0.50000000  0.00000000  0.50000000  1
  Sb  Sb239  1  0.50000000  0.50000000  0.00000000  1
