# generated using pymatgen
data_LiF
_symmetry_space_group_name_H-M   'P 1'
_cell_length_a   5.57727392
_cell_length_b   12.59873410
_cell_length_c   7.85136985
_cell_angle_alpha   90.00000000
_cell_angle_beta   90.00000000
_cell_angle_gamma   90.00000000
_symmetry_Int_Tables_number   1
_chemical_formula_structural   LiF
_chemical_formula_sum   'Li20 F20'
_cell_volume   551.68899525
_cell_formula_units_Z   20
loop_
 _symmetry_equiv_pos_site_id
 _symmetry_equiv_pos_as_xyz
  1  'x, y, z'
loop_
 _atom_site_type_symbol
 _atom_site_label
 _atom_site_symmetry_multiplicity
 _atom_site_fract_x
 _atom_site_fract_y
 _atom_site_fract_z
 _atom_site_occupancy
  F  F0  1  0.65800664  0.18583398  0.33566578  1
  F  F1  1  0.84199336  0.81416602  0.83566578  1
  F  F2  1  0.34199336  0.68583398  0.66433422  1
  F  F3  1  0.15800664  0.31416602  0.16433422  1
  F  F4  1  0.34199336  0.81416602  0.66433422  1
  F  F5  1  0.15800664  0.18583398  0.16433422  1
  F  F6  1  0.65800664  0.31416602  0.33566578  1
  F  F7  1  0.84199336  0.68583398  0.83566578  1
  F  F8  1  0.16263341  0.25000000  0.31153043  1
  F  F9  1  0.33736659  0.75000000  0.81153043  1
  F  F10  1  0.83736659  0.75000000  0.68846957  1
  F  F11  1  0.66263341  0.25000000  0.18846957  1
  F  F12  1  0.94760741  0.25000000  0.97117865  1
  F  F13  1  0.55239259  0.75000000  0.47117865  1
  F  F14  1  0.05239259  0.75000000  0.02882135  1
  F  F15  1  0.44760741  0.25000000  0.52882135  1
  F  F16  1  0.38766315  0.25000000  0.91645444  1
  F  F17  1  0.11233685  0.75000000  0.41645444  1
  F  F18  1  0.61233685  0.75000000  0.08354556  1
  F  F19  1  0.88766315  0.25000000  0.58354556  1
  Li  Li20  1  0.46113350  0.62637617  0.93982126  1
  Li  Li21  1  0.03886650  -0.62637617  1.43982126  1
  Li  Li22  1  -0.46113350  1.12637617  -0.93982126  1
  Li  Li23  1  0.96113350  -0.12637617  -0.43982126  1
  Li  Li24  1  -0.46113350  -0.62637617  -0.93982126  1
  Li  Li25  1  0.96113350  0.62637617  -0.43982126  1
  Li  Li26  1  0.46113350  -0.12637617  0.93982126  1
  Li  Li27  1  0.03886650  1.12637617  1.43982126  1
  Li  Li28  1  0.00000000  0.00000000  0.50000000  1
  Li  Li29  1  0.50000000  -0.00000000  0.00000000  1
  Li  Li30  1  0.00000000  0.50000000  0.50000000  1
  Li  Li31  1  0.50000000  0.50000000  -0.00000000  1
  Li  Li32  1  0.77860162  0.19366219  0.99406364  1
  Li  Li33  1  0.72139838  0.80633781  0.49406364  1
  Li  Li34  1  0.22139838  0.69366219  0.00593636  1
  Li  Li35  1  0.27860162  0.30633781  0.50593636  1
  Li  Li36  1  0.22139838  0.80633781  0.00593636  1
  Li  Li37  1  0.27860162  0.19366219  0.50593636  1
  Li  Li38  1  0.77860162  0.30633781  0.99406364  1
  Li  Li39  1  0.72139838  0.69366219  0.49406364  1
