# generated using pymatgen
data_LiF
_symmetry_space_group_name_H-M   'P 1'
_cell_length_a   2.73282530
_cell_length_b   6.13623820
_cell_length_c   12.23556454
_cell_angle_alpha   90.00000000
_cell_angle_beta   90.00000000
_cell_angle_gamma   90.00000000
_symmetry_Int_Tables_number   1
_chemical_formula_structural   LiF
_chemical_formula_sum   'Li10 F10'
_cell_volume   205.18144882
_cell_formula_units_Z   10
loop_
 _symmetry_equiv_pos_site_id
 _symmetry_equiv_pos_as_xyz
  1  'x, y, z'
loop_
 _atom_site_type_symbol
 _atom_site_label
 _atom_site_symmetry_multiplicity
 _atom_site_fract_x
 _atom_site_fract_y
 _atom_site_fract_z
 _atom_site_occupancy
  F  F0  1  0.82072477  0.18038727  0.95238578  1
  F  F1  1  -0.82072477  -0.18038727  0.95238578  1
  F  F2  1  -0.32072477  0.68038727  -0.45238578  1
  F  F3  1  1.32072477  0.31961273  -0.45238578  1
  F  F4  1  -0.82072477  -0.18038727  -0.95238578  1
  F  F5  1  0.82072477  0.18038727  -0.95238578  1
  F  F6  1  1.32072477  0.31961273  1.45238578  1
  F  F7  1  -0.32072477  0.68038727  1.45238578  1
  F  F8  1  0.00000000  0.00000000  0.00000000  1
  F  F9  1  0.50000000  0.50000000  0.50000000  1
  Li  Li10  1  0.00000000  0.00000000  0.34692309  1
  Li  Li11  1  0.50000000  0.50000000  0.15307691  1
  Li  Li12  1  0.00000000  0.00000000  0.65307691  1
  Li  Li13  1  0.50000000  0.50000000  0.84692309  1
  Li  Li14  1  0.00000000  0.50000000  0.73523772  1
  Li  Li15  1  0.50000000  -0.00000000  0.76476228  1
  Li  Li16  1  0.00000000  0.50000000  0.26476228  1
  Li  Li17  1  0.50000000  -0.00000000  0.23523772  1
  Li  Li18  1  0.00000000  0.00000000  0.50000000  1
  Li  Li19  1  0.50000000  0.50000000  0.00000000  1
