# generated using pymatgen
data_LiF
_symmetry_space_group_name_H-M   'P 1'
_cell_length_a   7.51798605
_cell_length_b   6.21001558
_cell_length_c   9.08498642
_cell_angle_alpha   90.00000000
_cell_angle_beta   90.00000000
_cell_angle_gamma   90.00000000
_symmetry_Int_Tables_number   1
_chemical_formula_structural   LiF
_chemical_formula_sum   'Li16 F16'
_cell_volume   424.14903944
_cell_formula_units_Z   16
loop_
 _symmetry_equiv_pos_site_id
 _symmetry_equiv_pos_as_xyz
  1  'x, y, z'
loop_
 _atom_site_type_symbol
 _atom_site_label
 _atom_site_symmetry_multiplicity
 _atom_site_fract_x
 _atom_site_fract_y
 _atom_site_fract_z
 _atom_site_occupancy
  F  F0  1  0.46252701  0.16085231  0.38333478  1
  F  F1  1  -0.46252701  -0.16085231  0.38333478  1
  F  F2  1  0.03747299  0.66085231  0.11666522  1
  F  F3  1  0.96252701  0.33914769  0.11666522  1
  F  F4  1  -0.46252701  -0.16085231  -0.38333478  1
  F  F5  1  0.46252701  0.16085231  -0.38333478  1
  F  F6  1  0.96252701  0.33914769  0.88333478  1
  F  F7  1  0.03747299  0.66085231  0.88333478  1
  F  F8  1  0.01645081  0.85108837  -0.00000000  1
  F  F9  1  0.98354919  0.14891163  0.00000000  1
  F  F10  1  0.48354919  0.35108837  0.50000000  1
  F  F11  1  0.51645081  0.64891163  0.50000000  1
  F  F12  1  0.08253630  0.42912673  -0.00000000  1
  F  F13  1  0.91746370  0.57087327  0.00000000  1
  F  F14  1  0.41746370  0.92912673  0.50000000  1
  F  F15  1  0.58253630  0.07087327  0.50000000  1
  Li  Li16  1  0.95162128  0.61542361  0.58198428  1
  Li  Li17  1  0.04837872  0.38457639  0.58198428  1
  Li  Li18  1  0.54837872  0.11542361  0.91801572  1
  Li  Li19  1  0.45162128  0.88457639  0.91801572  1
  Li  Li20  1  0.04837872  0.38457639  0.41801572  1
  Li  Li21  1  0.95162128  0.61542361  0.41801572  1
  Li  Li22  1  0.45162128  0.88457639  0.08198428  1
  Li  Li23  1  0.54837872  0.11542361  0.08198428  1
  Li  Li24  1  0.52425535  0.36672754  0.82798518  1
  Li  Li25  1  0.47574465  0.63327246  0.82798518  1
  Li  Li26  1  0.97574465  0.86672754  0.67201482  1
  Li  Li27  1  0.02425535  0.13327246  0.67201482  1
  Li  Li28  1  0.47574465  0.63327246  0.17201482  1
  Li  Li29  1  0.52425535  0.36672754  0.17201482  1
  Li  Li30  1  0.02425535  0.13327246  0.32798518  1
  Li  Li31  1  0.97574465  0.86672754  0.32798518  1
