# generated using pymatgen
data_Li2Y2MoP2Se
_symmetry_space_group_name_H-M   'P 1'
_cell_length_a   5.69345114
_cell_length_b   6.06523300
_cell_length_c   6.99146826
_cell_angle_alpha   92.76040498
_cell_angle_beta   95.18413582
_cell_angle_gamma   99.68674912
_symmetry_Int_Tables_number   1
_chemical_formula_structural   Li2Y2MoP2Se
_chemical_formula_sum   'Li2 Y2 Mo1 P2 Se1'
_cell_volume   236.52022170
_cell_formula_units_Z   1
loop_
 _symmetry_equiv_pos_site_id
 _symmetry_equiv_pos_as_xyz
  1  'x, y, z'
loop_
 _atom_site_type_symbol
 _atom_site_label
 _atom_site_symmetry_multiplicity
 _atom_site_fract_x
 _atom_site_fract_y
 _atom_site_fract_z
 _atom_site_occupancy
  Se  Se0  1  0.12500000  0.00000000  0.25000000  1
  Y  Y1  1  0.00000000  0.00000000  0.00000000  1
  Y  Y2  1  0.37500000  0.00000000  0.25000000  1
  P  P3  1  0.25000000  0.25000000  0.25000000  1
  P  P4  1  0.00000000  0.25000000  0.12500000  1
  Mo  Mo5  1  0.98039559  0.15418205  0.51383845  1
  Li  Li6  1  0.36457820  0.94031741  0.24833276  1
  Li  Li7  1  0.49192572  0.19271447  0.34437492  1
