# generated using pymatgen
data_LiF
_symmetry_space_group_name_H-M   'P 1'
_cell_length_a   8.19702690
_cell_length_b   11.70623193
_cell_length_c   6.23579607
_cell_angle_alpha   90.00000000
_cell_angle_beta   90.00000000
_cell_angle_gamma   90.00000000
_symmetry_Int_Tables_number   1
_chemical_formula_structural   LiF
_chemical_formula_sum   'Li20 F20'
_cell_volume   598.36390653
_cell_formula_units_Z   20
loop_
 _symmetry_equiv_pos_site_id
 _symmetry_equiv_pos_as_xyz
  1  'x, y, z'
loop_
 _atom_site_type_symbol
 _atom_site_label
 _atom_site_symmetry_multiplicity
 _atom_site_fract_x
 _atom_site_fract_y
 _atom_site_fract_z
 _atom_site_occupancy
  F  F0  1  0.65418801  0.08103572  0.94397835  1
  F  F1  1  0.84581199  0.91896428  0.44397835  1
  F  F2  1  0.34581199  0.58103572  0.05602165  1
  F  F3  1  0.15418801  0.41896428  0.55602165  1
  F  F4  1  0.34581199  0.91896428  0.05602165  1
  F  F5  1  0.15418801  0.08103572  0.55602165  1
  F  F6  1  0.65418801  0.41896428  0.94397835  1
  F  F7  1  0.84581199  0.58103572  0.44397835  1
  F  F8  1  0.30208370  0.25000000  0.18320506  1
  F  F9  1  0.19791630  0.75000000  0.68320506  1
  F  F10  1  0.69791630  0.75000000  0.81679494  1
  F  F11  1  0.80208370  0.25000000  0.31679494  1
  F  F12  1  0.79869578  0.66168837  0.46930973  1
  F  F13  1  0.70130422  0.33831163  0.96930973  1
  F  F14  1  0.20130422  0.16168837  0.53069027  1
  F  F15  1  0.29869578  0.83831163  0.03069027  1
  F  F16  1  0.20130422  0.33831163  0.53069027  1
  F  F17  1  0.29869578  0.66168837  0.03069027  1
  F  F18  1  0.79869578  0.83831163  0.46930973  1
  F  F19  1  0.70130422  0.16168837  0.96930973  1
  Li  Li20  1  0.00000000  0.00000000  0.00000000  1
  Li  Li21  1  0.50000000  0.00000000  0.50000000  1
  Li  Li22  1  0.00000000  0.50000000  0.00000000  1
  Li  Li23  1  0.50000000  0.50000000  0.50000000  1
  Li  Li24  1  0.61533596  0.48512054  0.76015197  1
  Li  Li25  1  -0.11533596  -0.48512054  1.26015197  1
  Li  Li26  1  -0.61533596  0.98512054  -0.76015197  1
  Li  Li27  1  1.11533596  0.01487946  -0.26015197  1
  Li  Li28  1  -0.61533596  -0.48512054  -0.76015197  1
  Li  Li29  1  1.11533596  0.48512054  -0.26015197  1
  Li  Li30  1  0.61533596  0.01487946  0.76015197  1
  Li  Li31  1  -0.11533596  0.98512054  1.26015197  1
  Li  Li32  1  0.43588232  0.35548616  0.28685890  1
  Li  Li33  1  0.06411768  0.64451384  0.78685890  1
  Li  Li34  1  0.56411768  0.85548616  0.71314110  1
  Li  Li35  1  0.93588232  0.14451384  0.21314110  1
  Li  Li36  1  0.56411768  0.64451384  0.71314110  1
  Li  Li37  1  0.93588232  0.35548616  0.21314110  1
  Li  Li38  1  0.43588232  0.14451384  0.28685890  1
  Li  Li39  1  0.06411768  0.85548616  0.78685890  1
