# generated using pymatgen
data_Li2MoP3Se
_symmetry_space_group_name_H-M   'P 1'
_cell_length_a   4.60719657
_cell_length_b   4.92323753
_cell_length_c   6.83747376
_cell_angle_alpha   95.02851042
_cell_angle_beta   101.23706840
_cell_angle_gamma   110.54287834
_symmetry_Int_Tables_number   1
_chemical_formula_structural   Li2MoP3Se
_chemical_formula_sum   'Li2 Mo1 P3 Se1'
_cell_volume   140.37290647
_cell_formula_units_Z   1
loop_
 _symmetry_equiv_pos_site_id
 _symmetry_equiv_pos_as_xyz
  1  'x, y, z'
loop_
 _atom_site_type_symbol
 _atom_site_label
 _atom_site_symmetry_multiplicity
 _atom_site_fract_x
 _atom_site_fract_y
 _atom_site_fract_z
 _atom_site_occupancy
  Se  Se0  1  0.00000000  0.00000000  0.00000000  1
  P  P1  1  0.33300000  0.66700000  0.25000000  1
  P  P2  1  0.66700000  0.33300000  0.50000000  1
  P  P3  1  0.00000000  0.00000000  0.75000000  1
  Mo  Mo4  1  0.91464153  0.76985059  0.47772982  1
  Li  Li5  1  0.56755085  0.57127924  0.44201732  1
  Li  Li6  1  0.87053763  0.93511715  0.17469829  1
