# generated using pymatgen
data_Li2Y2As2P3Se
_symmetry_space_group_name_H-M   'P 1'
_cell_length_a   5.02769476
_cell_length_b   5.09602407
_cell_length_c   7.09236155
_cell_angle_alpha   94.68898882
_cell_angle_beta   100.21164283
_cell_angle_gamma   108.83380449
_symmetry_Int_Tables_number   1
_chemical_formula_structural   Li2Y2As2P3Se
_chemical_formula_sum   'Li2 Y2 As2 P3 Se1'
_cell_volume   167.36699946
_cell_formula_units_Z   1
loop_
 _symmetry_equiv_pos_site_id
 _symmetry_equiv_pos_as_xyz
  1  'x, y, z'
loop_
 _atom_site_type_symbol
 _atom_site_label
 _atom_site_symmetry_multiplicity
 _atom_site_fract_x
 _atom_site_fract_y
 _atom_site_fract_z
 _atom_site_occupancy
  Se  Se0  1  0.12500000  0.00000000  0.25000000  1
  P  P1  1  0.00000000  0.00000000  0.00000000  1
  P  P2  1  0.37500000  0.00000000  0.25000000  1
  P  P3  1  0.25000000  0.25000000  0.25000000  1
  As  As4  1  0.00000000  0.25000000  0.12500000  1
  As  As5  1  0.87426051  0.76418210  0.90324864  1
  Li  Li6  1  0.94845067  0.20116609  0.15160881  1
  Li  Li7  1  0.68051121  0.65322924  0.29805201  1
  Y  Y8  1  0.30904338  0.28436613  0.96247732  1
  Y  Y9  1  0.35473332  0.14769818  0.55106305  1
