# generated using pymatgen
data_Li2Mo2P3Se
_symmetry_space_group_name_H-M   'P 1'
_cell_length_a   5.29039368
_cell_length_b   5.65393727
_cell_length_c   6.97704572
_cell_angle_alpha   93.19205116
_cell_angle_beta   97.20066824
_cell_angle_gamma   103.02408567
_symmetry_Int_Tables_number   1
_chemical_formula_structural   Li2Mo2P3Se
_chemical_formula_sum   'Li2 Mo2 P3 Se1'
_cell_volume   200.96021958
_cell_formula_units_Z   1
loop_
 _symmetry_equiv_pos_site_id
 _symmetry_equiv_pos_as_xyz
  1  'x, y, z'
loop_
 _atom_site_type_symbol
 _atom_site_label
 _atom_site_symmetry_multiplicity
 _atom_site_fract_x
 _atom_site_fract_y
 _atom_site_fract_z
 _atom_site_occupancy
  Se  Se0  1  0.12500000  0.00000000  0.25000000  1
  P  P1  1  0.00000000  0.00000000  0.00000000  1
  P  P2  1  0.37500000  0.00000000  0.25000000  1
  P  P3  1  0.25000000  0.25000000  0.25000000  1
  Mo  Mo4  1  0.00000000  0.25000000  0.12500000  1
  Mo  Mo5  1  0.08513782  0.98218657  0.46753840  1
  Li  Li6  1  0.63246758  0.66843017  0.02601846  1
  Li  Li7  1  0.85640634  0.84597328  0.68227994  1
