# generated using pymatgen
data_LiF
_symmetry_space_group_name_H-M   'P 1'
_cell_length_a   7.55440859
_cell_length_b   13.20234307
_cell_length_c   12.76348588
_cell_angle_alpha   90.00000000
_cell_angle_beta   90.00000000
_cell_angle_gamma   90.00000000
_symmetry_Int_Tables_number   1
_chemical_formula_structural   LiF
_chemical_formula_sum   'Li34 F34'
_cell_volume   1272.97767343
_cell_formula_units_Z   34
loop_
 _symmetry_equiv_pos_site_id
 _symmetry_equiv_pos_as_xyz
  1  'x, y, z'
loop_
 _atom_site_type_symbol
 _atom_site_label
 _atom_site_symmetry_multiplicity
 _atom_site_fract_x
 _atom_site_fract_y
 _atom_site_fract_z
 _atom_site_occupancy
  F  F0  1  0.54567125  0.37043756  0.50000000  1
  F  F1  1  0.45432875  0.62956244  0.50000000  1
  F  F2  1  0.95432875  0.87043756  0.50000000  1
  F  F3  1  0.04567125  0.12956244  0.50000000  1
  F  F4  1  0.00000000  0.50000000  0.50000000  1
  F  F5  1  0.50000000  0.00000000  0.50000000  1
  F  F6  1  0.00000000  0.00000000  0.00000000  1
  F  F7  1  0.50000000  0.50000000  0.00000000  1
  F  F8  1  0.00000000  0.50000000  0.23200204  1
  F  F9  1  0.50000000  0.00000000  0.76799796  1
  F  F10  1  0.00000000  0.50000000  0.76799796  1
  F  F11  1  0.50000000  0.00000000  0.23200204  1
  F  F12  1  0.38175492  0.90316087  0.00000000  1
  F  F13  1  0.61824508  0.09683913  0.00000000  1
  F  F14  1  0.11824508  0.40316087  0.00000000  1
  F  F15  1  0.88175492  0.59683913  0.00000000  1
  F  F16  1  0.44579338  0.66422037  0.56851337  1
  F  F17  1  0.55420662  0.33577963  0.56851337  1
  F  F18  1  0.05420662  0.16422037  0.43148663  1
  F  F19  1  0.94579338  0.83577963  0.43148663  1
  F  F20  1  0.55420662  0.33577963  0.43148663  1
  F  F21  1  0.44579338  0.66422037  0.43148663  1
  F  F22  1  0.94579338  0.83577963  0.56851337  1
  F  F23  1  0.05420662  0.16422037  0.56851337  1
  F  F24  1  0.46819128  0.58348859  0.56035904  1
  F  F25  1  0.53180872  0.41651141  0.56035904  1
  F  F26  1  0.03180872  0.08348859  0.43964096  1
  F  F27  1  0.96819128  0.91651141  0.43964096  1
  F  F28  1  0.53180872  0.41651141  0.43964096  1
  F  F29  1  0.46819128  0.58348859  0.43964096  1
  F  F30  1  0.96819128  0.91651141  0.56035904  1
  F  F31  1  0.03180872  0.08348859  0.56035904  1
  F  F32  1  0.00000000  0.00000000  0.50000000  1
  F  F33  1  0.50000000  0.50000000  0.50000000  1
  Li  Li34  1  0.73259775  0.68625671  0.16362773  1
  Li  Li35  1  -0.73259775  -0.68625671  0.16362773  1
  Li  Li36  1  -0.23259775  1.18625671  -0.16362773  1
  Li  Li37  1  1.23259775  -0.18625671  -0.16362773  1
  Li  Li38  1  -0.73259775  -0.68625671  -0.16362773  1
  Li  Li39  1  0.73259775  0.68625671  -0.16362773  1
  Li  Li40  1  1.23259775  -0.18625671  0.16362773  1
  Li  Li41  1  -0.23259775  1.18625671  0.16362773  1
  Li  Li42  1  0.00000000  0.50000000  0.33373710  1
  Li  Li43  1  0.50000000  0.00000000  0.66626290  1
  Li  Li44  1  0.00000000  0.50000000  0.66626290  1
  Li  Li45  1  0.50000000  0.00000000  0.33373710  1
  Li  Li46  1  0.00000000  0.50000000  0.00000000  1
  Li  Li47  1  0.50000000  0.00000000  -0.00000000  1
  Li  Li48  1  0.16939959  0.65321271  0.63543742  1
  Li  Li49  1  0.83060041  0.34678729  0.63543742  1
  Li  Li50  1  0.33060041  0.15321271  0.36456258  1
  Li  Li51  1  0.66939959  0.84678729  0.36456258  1
  Li  Li52  1  0.83060041  0.34678729  0.36456258  1
  Li  Li53  1  0.16939959  0.65321271  0.36456258  1
  Li  Li54  1  0.66939959  0.84678729  0.63543742  1
  Li  Li55  1  0.33060041  0.15321271  0.63543742  1
  Li  Li56  1  0.71473190  0.32455477  0.23218751  1
  Li  Li57  1  0.28526810  0.67544523  0.23218751  1
  Li  Li58  1  0.78526810  0.82455477  0.76781249  1
  Li  Li59  1  0.21473190  0.17544523  0.76781249  1
  Li  Li60  1  0.28526810  0.67544523  0.76781249  1
  Li  Li61  1  0.71473190  0.32455477  0.76781249  1
  Li  Li62  1  0.21473190  0.17544523  0.23218751  1
  Li  Li63  1  0.78526810  0.82455477  0.23218751  1
  Li  Li64  1  0.75455579  0.72196687  0.50000000  1
  Li  Li65  1  0.24544421  0.27803313  0.50000000  1
  Li  Li66  1  0.74544421  0.22196687  0.50000000  1
  Li  Li67  1  0.25455579  0.77803313  0.50000000  1
