# generated using pymatgen
data_LiF
_symmetry_space_group_name_H-M   'P 1'
_cell_length_a   6.89247779
_cell_length_b   18.82367977
_cell_length_c   10.52337842
_cell_angle_alpha   90.00000000
_cell_angle_beta   90.00000000
_cell_angle_gamma   90.00000000
_symmetry_Int_Tables_number   1
_chemical_formula_structural   LiF
_chemical_formula_sum   'Li52 F52'
_cell_volume   1365.32200377
_cell_formula_units_Z   52
loop_
 _symmetry_equiv_pos_site_id
 _symmetry_equiv_pos_as_xyz
  1  'x, y, z'
loop_
 _atom_site_type_symbol
 _atom_site_label
 _atom_site_symmetry_multiplicity
 _atom_site_fract_x
 _atom_site_fract_y
 _atom_site_fract_z
 _atom_site_occupancy
  F  F0  1  0.24136856  0.43925871  0.32158711  1
  F  F1  1  0.25863144  0.56074129  0.82158711  1
  F  F2  1  0.75863144  0.93925871  0.67841289  1
  F  F3  1  0.74136856  0.06074129  0.17841289  1
  F  F4  1  0.75863144  0.56074129  0.67841289  1
  F  F5  1  0.74136856  0.43925871  0.17841289  1
  F  F6  1  0.24136856  0.06074129  0.32158711  1
  F  F7  1  0.25863144  0.93925871  0.82158711  1
  F  F8  1  0.00000000  0.00000000  0.00000000  1
  F  F9  1  0.50000000  0.00000000  0.50000000  1
  F  F10  1  0.00000000  0.50000000  0.00000000  1
  F  F11  1  0.50000000  0.50000000  0.50000000  1
  F  F12  1  0.90153650  0.25000000  0.75532938  1
  F  F13  1  0.59846350  0.75000000  0.25532938  1
  F  F14  1  0.09846350  0.75000000  0.24467062  1
  F  F15  1  0.40153650  0.25000000  0.74467062  1
  F  F16  1  0.18629141  0.25000000  0.37351817  1
  F  F17  1  0.31370859  0.75000000  0.87351817  1
  F  F18  1  0.81370859  0.75000000  0.62648183  1
  F  F19  1  0.68629141  0.25000000  0.12648183  1
  F  F20  1  0.61167246  0.86235598  0.47819836  1
  F  F21  1  0.88832754  0.13764402  0.97819836  1
  F  F22  1  0.38832754  0.36235598  0.52180164  1
  F  F23  1  0.11167246  0.63764402  0.02180164  1
  F  F24  1  0.38832754  0.13764402  0.52180164  1
  F  F25  1  0.11167246  0.86235598  0.02180164  1
  F  F26  1  0.61167246  0.63764402  0.47819836  1
  F  F27  1  0.88832754  0.36235598  0.97819836  1
  F  F28  1  0.36259348  0.19540462  0.13282697  1
  F  F29  1  0.13740652  0.80459538  0.63282697  1
  F  F30  1  0.63740652  0.69540462  0.86717303  1
  F  F31  1  0.86259348  0.30459538  0.36717303  1
  F  F32  1  0.63740652  0.80459538  0.86717303  1
  F  F33  1  0.86259348  0.19540462  0.36717303  1
  F  F34  1  0.36259348  0.30459538  0.13282697  1
  F  F35  1  0.13740652  0.69540462  0.63282697  1
  F  F36  1  0.02624845  0.33424629  0.15599955  1
  F  F37  1  0.47375155  0.66575371  0.65599955  1
  F  F38  1  0.97375155  0.83424629  0.84400045  1
  F  F39  1  0.52624845  0.16575371  0.34400045  1
  F  F40  1  0.97375155  0.66575371  0.84400045  1
  F  F41  1  0.52624845  0.33424629  0.34400045  1
  F  F42  1  0.02624845  0.16575371  0.15599955  1
  F  F43  1  0.47375155  0.83424629  0.65599955  1
  F  F44  1  0.34021210  0.25000000  0.07568540  1
  F  F45  1  0.15978790  0.75000000  0.57568540  1
  F  F46  1  0.65978790  0.75000000  0.92431460  1
  F  F47  1  0.84021210  0.25000000  0.42431460  1
  F  F48  1  0.13479462  0.25000000  0.25646287  1
  F  F49  1  0.36520538  0.75000000  0.75646287  1
  F  F50  1  0.86520538  0.75000000  0.74353713  1
  F  F51  1  0.63479462  0.25000000  0.24353713  1
  Li  Li52  1  0.03026617  0.78839181  0.49121623  1
  Li  Li53  1  0.46973383  -0.78839181  0.99121623  1
  Li  Li54  1  -0.03026617  1.28839181  -0.49121623  1
  Li  Li55  1  0.53026617  -0.28839181  0.00878377  1
  Li  Li56  1  -0.03026617  -0.78839181  -0.49121623  1
  Li  Li57  1  0.53026617  0.78839181  0.00878377  1
  Li  Li58  1  0.03026617  -0.28839181  0.49121623  1
  Li  Li59  1  0.46973383  1.28839181  0.99121623  1
  Li  Li60  1  0.21466206  0.95024755  0.08287911  1
  Li  Li61  1  0.28533794  0.04975245  0.58287911  1
  Li  Li62  1  0.78533794  0.45024755  0.91712089  1
  Li  Li63  1  0.71466206  0.54975245  0.41712089  1
  Li  Li64  1  0.78533794  0.04975245  0.91712089  1
  Li  Li65  1  0.71466206  0.95024755  0.41712089  1
  Li  Li66  1  0.21466206  0.54975245  0.08287911  1
  Li  Li67  1  0.28533794  0.45024755  0.58287911  1
  Li  Li68  1  0.00000000  0.00000000  0.50000000  1
  Li  Li69  1  0.50000000  0.00000000  0.00000000  1
  Li  Li70  1  0.00000000  0.50000000  0.50000000  1
  Li  Li71  1  0.50000000  0.50000000  0.00000000  1
  Li  Li72  1  0.10987941  0.03077526  0.92184492  1
  Li  Li73  1  0.39012059  0.96922474  0.42184492  1
  Li  Li74  1  0.89012059  0.53077526  0.07815508  1
  Li  Li75  1  0.60987941  0.46922474  0.57815508  1
  Li  Li76  1  0.89012059  0.96922474  0.07815508  1
  Li  Li77  1  0.60987941  0.03077526  0.57815508  1
  Li  Li78  1  0.10987941  0.46922474  0.92184492  1
  Li  Li79  1  0.39012059  0.53077526  0.42184492  1
  Li  Li80  1  0.63063061  0.57369137  0.27864163  1
  Li  Li81  1  0.86936939  0.42630863  0.77864163  1
  Li  Li82  1  0.36936939  0.07369137  0.72135837  1
  Li  Li83  1  0.13063061  0.92630863  0.22135837  1
  Li  Li84  1  0.36936939  0.42630863  0.72135837  1
  Li  Li85  1  0.13063061  0.57369137  0.22135837  1
  Li  Li86  1  0.63063061  0.92630863  0.27864163  1
  Li  Li87  1  0.86936939  0.07369137  0.77864163  1
  Li  Li88  1  0.82980031  0.61969276  0.36139925  1
  Li  Li89  1  0.67019969  0.38030724  0.86139925  1
  Li  Li90  1  0.17019969  0.11969276  0.63860075  1
  Li  Li91  1  0.32980031  0.88030724  0.13860075  1
  Li  Li92  1  0.17019969  0.38030724  0.63860075  1
  Li  Li93  1  0.32980031  0.61969276  0.13860075  1
  Li  Li94  1  0.82980031  0.88030724  0.36139925  1
  Li  Li95  1  0.67019969  0.11969276  0.86139925  1
  Li  Li96  1  0.99490163  0.02874135  0.61270281  1
  Li  Li97  1  0.50509837  0.97125865  0.11270281  1
  Li  Li98  1  0.00509837  0.52874135  0.38729719  1
  Li  Li99  1  0.49490163  0.47125865  0.88729719  1
  Li  Li100  1  0.00509837  0.97125865  0.38729719  1
  Li  Li101  1  0.49490163  0.02874135  0.88729719  1
  Li  Li102  1  0.99490163  0.47125865  0.61270281  1
  Li  Li103  1  0.50509837  0.52874135  0.11270281  1
