# generated using pymatgen
data_Li2Y2As4P2Se
_symmetry_space_group_name_H-M   'P 1'
_cell_length_a   5.22665810
_cell_length_b   5.32907466
_cell_length_c   6.78854638
_cell_angle_alpha   94.06511586
_cell_angle_beta   97.80231872
_cell_angle_gamma   104.68024417
_symmetry_Int_Tables_number   1
_chemical_formula_structural   Li2Y2As4P2Se
_chemical_formula_sum   'Li2 Y2 As4 P2 Se1'
_cell_volume   180.12020319
_cell_formula_units_Z   1
loop_
 _symmetry_equiv_pos_site_id
 _symmetry_equiv_pos_as_xyz
  1  'x, y, z'
loop_
 _atom_site_type_symbol
 _atom_site_label
 _atom_site_symmetry_multiplicity
 _atom_site_fract_x
 _atom_site_fract_y
 _atom_site_fract_z
 _atom_site_occupancy
  Se  Se0  1  0.12500000  0.00000000  0.25000000  1
  P  P1  1  0.00000000  0.00000000  0.00000000  1
  P  P2  1  0.37500000  0.00000000  0.25000000  1
  As  As3  1  0.25000000  0.25000000  0.25000000  1
  As  As4  1  0.00000000  0.25000000  0.12500000  1
  As  As5  1  0.37512655  0.87183752  0.41866123  1
  As  As6  1  0.32623806  0.44429145  0.59850650  1
  Li  Li7  1  0.50070785  0.04711331  0.46014136  1
  Li  Li8  1  0.59792813  0.70370107  0.17219244  1
  Y  Y9  1  0.50995669  0.11244049  0.11439280  1
  Y  Y10  1  0.63749072  0.97307267  0.43520791  1
