# generated using pymatgen
data_Li2O
_symmetry_space_group_name_H-M   'P 1'
_cell_length_a   4.27262256
_cell_length_b   4.27262256
_cell_length_c   22.34156699
_cell_angle_alpha   90.00000000
_cell_angle_beta   90.00000000
_cell_angle_gamma   90.00000000
_symmetry_Int_Tables_number   1
_chemical_formula_structural   Li2O
_chemical_formula_sum   'Li24 O12'
_cell_volume   407.85208789
_cell_formula_units_Z   12
loop_
 _symmetry_equiv_pos_site_id
 _symmetry_equiv_pos_as_xyz
  1  'x, y, z'
loop_
 _atom_site_type_symbol
 _atom_site_label
 _atom_site_symmetry_multiplicity
 _atom_site_fract_x
 _atom_site_fract_y
 _atom_site_fract_z
 _atom_site_occupancy
  Li  Li0  1  0.50000000  0.50000000  0.00000000  1
  Li  Li1  1  0.72474240  0.00000000  0.04844019  1
  Li  Li2  1  0.27525760  0.00000000  0.04844019  1
  Li  Li3  1  0.00000000  0.72474240  0.04844019  1
  Li  Li4  1  0.00000000  0.27525760  0.04844019  1
  Li  Li5  1  0.27525760  0.00000000  0.95155981  1
  Li  Li6  1  0.72474240  0.00000000  0.95155981  1
  Li  Li7  1  0.00000000  0.72474240  0.95155981  1
  Li  Li8  1  0.00000000  0.27525760  0.95155981  1
  Li  Li9  1  0.82198160  0.82198160  0.50000000  1
  Li  Li10  1  0.17801840  0.17801840  0.50000000  1
  Li  Li11  1  0.17801840  0.82198160  0.50000000  1
  Li  Li12  1  0.82198160  0.17801840  0.50000000  1
  Li  Li13  1  0.00000000  0.50000000  0.50000000  1
  Li  Li14  1  0.50000000  0.00000000  0.50000000  1
  Li  Li15  1  0.77366852  0.00000000  0.83404175  1
  Li  Li16  1  0.22633148  0.00000000  0.83404175  1
  Li  Li17  1  0.00000000  0.77366852  0.83404175  1
  Li  Li18  1  0.00000000  0.22633148  0.83404175  1
  Li  Li19  1  0.22633148  0.00000000  0.16595825  1
  Li  Li20  1  0.77366852  0.00000000  0.16595825  1
  Li  Li21  1  0.00000000  0.77366852  0.16595825  1
  Li  Li22  1  0.00000000  0.22633148  0.16595825  1
  Li  Li23  1  0.00000000  0.00000000  0.00000000  1
  O  O24  1  0.61805446  0.75151174  0.00000000  1
  O  O25  1  -0.61805446  -0.75151174  0.00000000  1
  O  O26  1  -0.75151174  0.61805446  -0.00000000  1
  O  O27  1  0.75151174  -0.61805446  0.00000000  1
  O  O28  1  -0.61805446  0.75151174  0.00000000  1
  O  O29  1  0.61805446  -0.75151174  -0.00000000  1
  O  O30  1  0.75151174  0.61805446  0.00000000  1
  O  O31  1  -0.75151174  -0.61805446  0.00000000  1
  O  O32  1  0.00000000  0.50000000  0.55113887  1
  O  O33  1  0.50000000  0.00000000  0.55113887  1
  O  O34  1  0.00000000  0.50000000  0.44886113  1
  O  O35  1  0.50000000  0.00000000  0.44886113  1
