# generated using pymatgen
data_Li2Sb2AsP2
_symmetry_space_group_name_H-M   'P 1'
_cell_length_a   4.09920066
_cell_length_b   4.38194699
_cell_length_c   6.62533987
_cell_angle_alpha   96.20035519
_cell_angle_beta   102.94223725
_cell_angle_gamma   111.85582924
_symmetry_Int_Tables_number   1
_chemical_formula_structural   Li2Sb2AsP2
_chemical_formula_sum   'Li2 Sb2 As1 P2'
_cell_volume   105.21071851
_cell_formula_units_Z   1
loop_
 _symmetry_equiv_pos_site_id
 _symmetry_equiv_pos_as_xyz
  1  'x, y, z'
loop_
 _atom_site_type_symbol
 _atom_site_label
 _atom_site_symmetry_multiplicity
 _atom_site_fract_x
 _atom_site_fract_y
 _atom_site_fract_z
 _atom_site_occupancy
  P  P0  1  0.12500000  0.00000000  0.25000000  1
  P  P1  1  0.00000000  0.00000000  0.00000000  1
  As  As2  1  0.37500000  0.00000000  0.25000000  1
  Li  Li3  1  0.25000000  0.25000000  0.25000000  1
  Li  Li4  1  0.00000000  0.25000000  0.12500000  1
  Sb  Sb5  1  0.40165590  0.67099396  0.66546548  1
  Sb  Sb6  1  0.03339424  0.81585264  0.30016913  1
