# generated using pymatgen
data_LiF
_symmetry_space_group_name_H-M   'P 1'
_cell_length_a   10.83332998
_cell_length_b   12.26343900
_cell_length_c   4.85245237
_cell_angle_alpha   90.00000000
_cell_angle_beta   90.00000000
_cell_angle_gamma   90.00000000
_symmetry_Int_Tables_number   1
_chemical_formula_structural   LiF
_chemical_formula_sum   'Li24 F24'
_cell_volume   644.66713186
_cell_formula_units_Z   24
loop_
 _symmetry_equiv_pos_site_id
 _symmetry_equiv_pos_as_xyz
  1  'x, y, z'
loop_
 _atom_site_type_symbol
 _atom_site_label
 _atom_site_symmetry_multiplicity
 _atom_site_fract_x
 _atom_site_fract_y
 _atom_site_fract_z
 _atom_site_occupancy
  F  F0  1  0.81952339  0.09246082  0.99456151  1
  F  F1  1  0.68047661  0.90753918  0.49456151  1
  F  F2  1  0.18047661  0.59246082  0.00543849  1
  F  F3  1  0.31952339  0.40753918  0.50543849  1
  F  F4  1  0.18047661  0.90753918  0.00543849  1
  F  F5  1  0.31952339  0.09246082  0.50543849  1
  F  F6  1  0.81952339  0.40753918  0.99456151  1
  F  F7  1  0.68047661  0.59246082  0.49456151  1
  F  F8  1  0.32905241  0.92798047  0.00639327  1
  F  F9  1  0.17094759  0.07201953  0.50639327  1
  F  F10  1  0.67094759  0.42798047  0.99360673  1
  F  F11  1  0.82905241  0.57201953  0.49360673  1
  F  F12  1  0.67094759  0.07201953  0.99360673  1
  F  F13  1  0.82905241  0.92798047  0.49360673  1
  F  F14  1  0.32905241  0.57201953  0.00639327  1
  F  F15  1  0.17094759  0.42798047  0.50639327  1
  F  F16  1  0.02670569  0.71191961  0.92579226  1
  F  F17  1  0.47329431  0.28808039  0.42579226  1
  F  F18  1  0.97329431  0.21191961  0.07420774  1
  F  F19  1  0.52670569  0.78808039  0.57420774  1
  F  F20  1  0.97329431  0.28808039  0.07420774  1
  F  F21  1  0.52670569  0.71191961  0.57420774  1
  F  F22  1  0.02670569  0.78808039  0.92579226  1
  F  F23  1  0.47329431  0.21191961  0.42579226  1
  Li  Li24  1  0.00000000  0.00000000  0.50000000  1
  Li  Li25  1  0.50000000  -0.00000000  0.00000000  1
  Li  Li26  1  0.00000000  0.50000000  0.50000000  1
  Li  Li27  1  0.50000000  0.50000000  0.00000000  1
  Li  Li28  1  0.89009651  0.35452041  0.62472179  1
  Li  Li29  1  -0.39009651  -0.35452041  1.12472179  1
  Li  Li30  1  -0.89009651  0.85452041  -0.62472179  1
  Li  Li31  1  1.39009651  0.14547959  -0.12472179  1
  Li  Li32  1  -0.89009651  -0.35452041  -0.62472179  1
  Li  Li33  1  1.39009651  0.35452041  -0.12472179  1
  Li  Li34  1  0.89009651  0.14547959  0.62472179  1
  Li  Li35  1  -0.39009651  0.85452041  1.12472179  1
  Li  Li36  1  0.11511444  0.25000000  0.82311168  1
  Li  Li37  1  0.38488556  0.75000000  0.32311168  1
  Li  Li38  1  0.88488556  0.75000000  0.17688832  1
  Li  Li39  1  0.61511444  0.25000000  0.67688832  1
  Li  Li40  1  0.00000000  0.00000000  0.00000000  1
  Li  Li41  1  0.50000000  -0.00000000  0.50000000  1
  Li  Li42  1  0.00000000  0.50000000  0.00000000  1
  Li  Li43  1  0.50000000  0.50000000  0.50000000  1
  Li  Li44  1  0.84068554  0.25000000  0.35457205  1
  Li  Li45  1  0.65931446  0.75000000  0.85457205  1
  Li  Li46  1  0.15931446  0.75000000  0.64542795  1
  Li  Li47  1  0.34068554  0.25000000  0.14542795  1
