# generated using pymatgen
data_Li2Cu3As3P2Se
_symmetry_space_group_name_H-M   'P 1'
_cell_length_a   5.16801526
_cell_length_b   5.32039736
_cell_length_c   7.07302950
_cell_angle_alpha   94.13526367
_cell_angle_beta   98.64887963
_cell_angle_gamma   106.00561429
_symmetry_Int_Tables_number   1
_chemical_formula_structural   Li2Cu3As3P2Se
_chemical_formula_sum   'Li2 Cu3 As3 P2 Se1'
_cell_volume   183.48974853
_cell_formula_units_Z   1
loop_
 _symmetry_equiv_pos_site_id
 _symmetry_equiv_pos_as_xyz
  1  'x, y, z'
loop_
 _atom_site_type_symbol
 _atom_site_label
 _atom_site_symmetry_multiplicity
 _atom_site_fract_x
 _atom_site_fract_y
 _atom_site_fract_z
 _atom_site_occupancy
  Se  Se0  1  0.12500000  0.00000000  0.25000000  1
  Cu  Cu1  1  0.00000000  0.00000000  0.00000000  1
  Cu  Cu2  1  0.37500000  0.00000000  0.25000000  1
  Cu  Cu3  1  0.25000000  0.25000000  0.25000000  1
  P  P4  1  0.00000000  0.25000000  0.12500000  1
  P  P5  1  0.57727480  0.70721497  0.26301933  1
  As  As6  1  0.47360718  0.63908810  0.20790717  1
  As  As7  1  0.06662042  0.05919238  0.16680801  1
  As  As8  1  0.57729468  0.09912750  0.86846196  1
  Li  Li9  1  0.86051496  0.12062301  0.59468629  1
  Li  Li10  1  0.33833011  0.48935250  0.38097951  1
