# generated using pymatgen
data_Li2ScTiClF
_symmetry_space_group_name_H-M   'P 1'
_cell_length_a   3.50518219
_cell_length_b   3.09058159
_cell_length_c   6.36500871
_cell_angle_alpha   103.41326393
_cell_angle_beta   104.29955634
_cell_angle_gamma   99.71105112
_symmetry_Int_Tables_number   1
_chemical_formula_structural   Li2ScTiClF
_chemical_formula_sum   'Li2 Sc1 Ti1 Cl1 F1'
_cell_volume   63.09816871
_cell_formula_units_Z   1
loop_
 _symmetry_equiv_pos_site_id
 _symmetry_equiv_pos_as_xyz
  1  'x, y, z'
loop_
 _atom_site_type_symbol
 _atom_site_label
 _atom_site_symmetry_multiplicity
 _atom_site_fract_x
 _atom_site_fract_y
 _atom_site_fract_z
 _atom_site_occupancy
  F  F0  1  0.00000000  0.00000000  0.00000000  1
  Li  Li1  1  0.50000000  0.50000000  0.50000000  1
  Li  Li2  1  0.50000000  0.50000000  0.00000000  1
  Cl  Cl3  1  0.50000000  0.00000000  0.50000000  1
  Sc  Sc4  1  0.00000000  0.50000000  0.50000000  1
  Ti  Ti5  1  0.22722232  0.91905818  0.61017929  1
