# generated using pymatgen
data_LiF
_symmetry_space_group_name_H-M   'P 1'
_cell_length_a   7.65272390
_cell_length_b   11.61510795
_cell_length_c   9.70325322
_cell_angle_alpha   90.00000000
_cell_angle_beta   90.00000000
_cell_angle_gamma   90.00000000
_symmetry_Int_Tables_number   1
_chemical_formula_structural   LiF
_chemical_formula_sum   'Li24 F24'
_cell_volume   862.49514703
_cell_formula_units_Z   24
loop_
 _symmetry_equiv_pos_site_id
 _symmetry_equiv_pos_as_xyz
  1  'x, y, z'
loop_
 _atom_site_type_symbol
 _atom_site_label
 _atom_site_symmetry_multiplicity
 _atom_site_fract_x
 _atom_site_fract_y
 _atom_site_fract_z
 _atom_site_occupancy
  F  F0  1  0.11025425  0.50183954  0.25351452  1
  F  F1  1  0.38974575  0.49816046  0.75351452  1
  F  F2  1  0.88974575  0.00183954  0.74648548  1
  F  F3  1  0.61025425  0.99816046  0.24648548  1
  F  F4  1  0.88974575  0.49816046  0.74648548  1
  F  F5  1  0.61025425  0.50183954  0.24648548  1
  F  F6  1  0.11025425  0.99816046  0.25351452  1
  F  F7  1  0.38974575  0.00183954  0.75351452  1
  F  F8  1  0.63909928  0.09012709  0.47127294  1
  F  F9  1  0.86090072  0.90987291  0.97127294  1
  F  F10  1  0.36090072  0.59012709  0.52872706  1
  F  F11  1  0.13909928  0.40987291  0.02872706  1
  F  F12  1  0.36090072  0.90987291  0.52872706  1
  F  F13  1  0.13909928  0.09012709  0.02872706  1
  F  F14  1  0.63909928  0.40987291  0.47127294  1
  F  F15  1  0.86090072  0.59012709  0.97127294  1
  F  F16  1  0.54882319  0.25000000  0.53290668  1
  F  F17  1  0.95117681  0.75000000  0.03290668  1
  F  F18  1  0.45117681  0.75000000  0.46709332  1
  F  F19  1  0.04882319  0.25000000  0.96709332  1
  F  F20  1  0.65462970  0.25000000  0.22681903  1
  F  F21  1  0.84537030  0.75000000  0.72681903  1
  F  F22  1  0.34537030  0.75000000  0.77318097  1
  F  F23  1  0.15462970  0.25000000  0.27318097  1
  Li  Li24  1  0.00000000  0.00000000  0.50000000  1
  Li  Li25  1  0.50000000  0.00000000  0.00000000  1
  Li  Li26  1  0.00000000  0.50000000  0.50000000  1
  Li  Li27  1  0.50000000  0.50000000  0.00000000  1
  Li  Li28  1  0.91999431  0.54144468  0.60846835  1
  Li  Li29  1  -0.41999431  -0.54144468  1.10846835  1
  Li  Li30  1  -0.91999431  1.04144468  -0.60846835  1
  Li  Li31  1  1.41999431  -0.04144468  -0.10846835  1
  Li  Li32  1  -0.91999431  -0.54144468  -0.60846835  1
  Li  Li33  1  1.41999431  0.54144468  -0.10846835  1
  Li  Li34  1  0.91999431  -0.04144468  0.60846835  1
  Li  Li35  1  -0.41999431  1.04144468  1.10846835  1
  Li  Li36  1  0.78086500  0.32859503  0.71461513  1
  Li  Li37  1  0.71913500  0.67140497  0.21461513  1
  Li  Li38  1  0.21913500  0.82859503  0.28538487  1
  Li  Li39  1  0.28086500  0.17140497  0.78538487  1
  Li  Li40  1  0.21913500  0.67140497  0.28538487  1
  Li  Li41  1  0.28086500  0.32859503  0.78538487  1
  Li  Li42  1  0.78086500  0.17140497  0.71461513  1
  Li  Li43  1  0.71913500  0.82859503  0.21461513  1
  Li  Li44  1  0.00000000  0.00000000  0.00000000  1
  Li  Li45  1  0.50000000  0.00000000  0.50000000  1
  Li  Li46  1  0.00000000  0.50000000  0.00000000  1
  Li  Li47  1  0.50000000  0.50000000  0.50000000  1
