# generated using pymatgen
data_Li2Y2As4P2Se
_symmetry_space_group_name_H-M   'P 1'
_cell_length_a   5.26312421
_cell_length_b   5.34090027
_cell_length_c   6.70158487
_cell_angle_alpha   93.68895067
_cell_angle_beta   97.46372196
_cell_angle_gamma   103.85208277
_symmetry_Int_Tables_number   1
_chemical_formula_structural   Li2Y2As4P2Se
_chemical_formula_sum   'Li2 Y2 As4 P2 Se1'
_cell_volume   180.45862485
_cell_formula_units_Z   1
loop_
 _symmetry_equiv_pos_site_id
 _symmetry_equiv_pos_as_xyz
  1  'x, y, z'
loop_
 _atom_site_type_symbol
 _atom_site_label
 _atom_site_symmetry_multiplicity
 _atom_site_fract_x
 _atom_site_fract_y
 _atom_site_fract_z
 _atom_site_occupancy
  Se  Se0  1  0.00000000  0.00000000  0.00000000  1
  P  P1  1  0.50000000  0.50000000  0.50000000  1
  P  P2  1  0.25000000  0.25000000  0.25000000  1
  As  As3  1  0.75000000  0.25000000  0.00000000  1
  As  As4  1  0.25000000  0.75000000  0.50000000  1
  As  As5  1  0.29418662  0.46250856  0.60809814  1
  As  As6  1  0.46502035  0.89429051  0.22509157  1
  Li  Li7  1  0.37139207  0.48666815  0.83223814  1
  Li  Li8  1  0.50322662  0.39049615  0.61814594  1
  Y  Y9  1  0.45905131  0.00305117  0.51682624  1
  Y  Y10  1  0.95720582  0.02140189  0.42111337  1
