# generated using pymatgen
data_LiF
_symmetry_space_group_name_H-M   'P 1'
_cell_length_a   6.60293063
_cell_length_b   5.88092220
_cell_length_c   7.80011738
_cell_angle_alpha   90.00000000
_cell_angle_beta   90.00000000
_cell_angle_gamma   90.00000000
_symmetry_Int_Tables_number   1
_chemical_formula_structural   LiF
_chemical_formula_sum   'Li24 F24'
_cell_volume   302.88886443
_cell_formula_units_Z   24
loop_
 _symmetry_equiv_pos_site_id
 _symmetry_equiv_pos_as_xyz
  1  'x, y, z'
loop_
 _atom_site_type_symbol
 _atom_site_label
 _atom_site_symmetry_multiplicity
 _atom_site_fract_x
 _atom_site_fract_y
 _atom_site_fract_z
 _atom_site_occupancy
  F  F0  1  0.00000000  0.00000000  0.65775399  1
  F  F1  1  0.50000000  0.50000000  0.34224601  1
  F  F2  1  0.00000000  0.00000000  0.34224601  1
  F  F3  1  0.50000000  0.50000000  0.65775399  1
  F  F4  1  0.59539981  0.43410139  0.58479132  1
  F  F5  1  -0.59539981  -0.43410139  0.58479132  1
  F  F6  1  -0.09539981  0.93410139  -0.58479132  1
  F  F7  1  1.09539981  0.06589861  -0.58479132  1
  F  F8  1  -0.59539981  -0.43410139  -0.58479132  1
  F  F9  1  0.59539981  0.43410139  -0.58479132  1
  F  F10  1  1.09539981  0.06589861  0.58479132  1
  F  F11  1  -0.09539981  0.93410139  0.58479132  1
  F  F12  1  0.00000000  0.50000000  0.50000000  1
  F  F13  1  0.50000000  0.00000000  0.50000000  1
  F  F14  1  0.08665604  0.29361946  0.84287811  1
  F  F15  1  0.91334396  0.70638054  0.84287811  1
  F  F16  1  0.41334396  0.79361946  0.15712189  1
  F  F17  1  0.58665604  0.20638054  0.15712189  1
  F  F18  1  0.91334396  0.70638054  0.15712189  1
  F  F19  1  0.08665604  0.29361946  0.15712189  1
  F  F20  1  0.58665604  0.20638054  0.84287811  1
  F  F21  1  0.41334396  0.79361946  0.84287811  1
  F  F22  1  0.00000000  0.00000000  0.00000000  1
  F  F23  1  0.50000000  0.50000000  0.00000000  1
  Li  Li24  1  0.15805792  0.78773223  0.50000000  1
  Li  Li25  1  0.84194208  0.21226777  0.50000000  1
  Li  Li26  1  0.34194208  0.28773223  0.50000000  1
  Li  Li27  1  0.65805792  0.71226777  0.50000000  1
  Li  Li28  1  0.10770833  0.03200754  0.24777151  1
  Li  Li29  1  0.89229167  0.96799246  0.24777151  1
  Li  Li30  1  0.39229167  0.53200754  0.75222849  1
  Li  Li31  1  0.60770833  0.46799246  0.75222849  1
  Li  Li32  1  0.89229167  0.96799246  0.75222849  1
  Li  Li33  1  0.10770833  0.03200754  0.75222849  1
  Li  Li34  1  0.60770833  0.46799246  0.24777151  1
  Li  Li35  1  0.39229167  0.53200754  0.24777151  1
  Li  Li36  1  0.00000000  0.50000000  0.10667035  1
  Li  Li37  1  0.50000000  0.00000000  0.89332965  1
  Li  Li38  1  0.00000000  0.50000000  0.89332965  1
  Li  Li39  1  0.50000000  0.00000000  0.10667035  1
  Li  Li40  1  0.26736879  0.23913738  0.71862606  1
  Li  Li41  1  0.73263121  0.76086262  0.71862606  1
  Li  Li42  1  0.23263121  0.73913738  0.28137394  1
  Li  Li43  1  0.76736879  0.26086262  0.28137394  1
  Li  Li44  1  0.73263121  0.76086262  0.28137394  1
  Li  Li45  1  0.26736879  0.23913738  0.28137394  1
  Li  Li46  1  0.76736879  0.26086262  0.71862606  1
  Li  Li47  1  0.23263121  0.73913738  0.71862606  1
