# generated using pymatgen
data_LiYAs2P
_symmetry_space_group_name_H-M   'P 1'
_cell_length_a   5.02501480
_cell_length_b   5.14922942
_cell_length_c   6.94598238
_cell_angle_alpha   94.77219960
_cell_angle_beta   100.39285861
_cell_angle_gamma   109.16802912
_symmetry_Int_Tables_number   1
_chemical_formula_structural   LiYAs2P
_chemical_formula_sum   'Li2 Y2 As4 P2'
_cell_volume   165.00399211
_cell_formula_units_Z   2
loop_
 _symmetry_equiv_pos_site_id
 _symmetry_equiv_pos_as_xyz
  1  'x, y, z'
loop_
 _atom_site_type_symbol
 _atom_site_label
 _atom_site_symmetry_multiplicity
 _atom_site_fract_x
 _atom_site_fract_y
 _atom_site_fract_z
 _atom_site_occupancy
  P  P0  1  0.12500000  0.12500000  0.12500000  1
  P  P1  1  0.50000000  0.50000000  0.50000000  1
  As  As2  1  0.25000000  0.25000000  0.25000000  1
  As  As3  1  0.75000000  0.75000000  0.75000000  1
  As  As4  1  0.88396590  0.79639218  0.39250384  1
  As  As5  1  0.56290026  0.94746609  0.07060807  1
  Li  Li6  1  0.25095201  0.06967159  0.95288696  1
  Li  Li7  1  0.13221450  0.68568586  0.39503828  1
  Y  Y8  1  0.29288031  0.31453467  0.74440592  1
  Y  Y9  1  0.95089518  0.75940600  0.58095938  1
