# generated using pymatgen
data_Li2Y2P3Se2
_symmetry_space_group_name_H-M   'P 1'
_cell_length_a   4.98661183
_cell_length_b   5.09856223
_cell_length_c   6.96520402
_cell_angle_alpha   94.72579595
_cell_angle_beta   100.29180111
_cell_angle_gamma   108.98164411
_symmetry_Int_Tables_number   1
_chemical_formula_structural   Li2Y2P3Se2
_chemical_formula_sum   'Li2 Y2 P3 Se2'
_cell_volume   162.87396181
_cell_formula_units_Z   1
loop_
 _symmetry_equiv_pos_site_id
 _symmetry_equiv_pos_as_xyz
  1  'x, y, z'
loop_
 _atom_site_type_symbol
 _atom_site_label
 _atom_site_symmetry_multiplicity
 _atom_site_fract_x
 _atom_site_fract_y
 _atom_site_fract_z
 _atom_site_occupancy
  P  P0  1  0.12500000  0.12500000  0.12500000  1
  P  P1  1  0.50000000  0.50000000  0.50000000  1
  P  P2  1  0.25000000  0.25000000  0.25000000  1
  Se  Se3  1  0.75000000  0.75000000  0.75000000  1
  Se  Se4  1  0.22208158  0.71684041  0.15498540  1
  Li  Li5  1  0.59369719  0.82662950  0.52729185  1
  Li  Li6  1  0.30956798  0.38419167  0.07573221  1
  Y  Y7  1  0.31343589  0.40565225  0.52711712  1
  Y  Y8  1  0.29347910  0.57556309  0.97925042  1
