# generated using pymatgen
data_Li3Y2(As2P)2
_symmetry_space_group_name_H-M   'P 1'
_cell_length_a   5.77244974
_cell_length_b   5.65146340
_cell_length_c   6.99941292
_cell_angle_alpha   93.30408975
_cell_angle_beta   97.19562056
_cell_angle_gamma   103.27121533
_symmetry_Int_Tables_number   1
_chemical_formula_structural   Li3Y2(As2P)2
_chemical_formula_sum   'Li3 Y2 As4 P2'
_cell_volume   219.60789396
_cell_formula_units_Z   1
loop_
 _symmetry_equiv_pos_site_id
 _symmetry_equiv_pos_as_xyz
  1  'x, y, z'
loop_
 _atom_site_type_symbol
 _atom_site_label
 _atom_site_symmetry_multiplicity
 _atom_site_fract_x
 _atom_site_fract_y
 _atom_site_fract_z
 _atom_site_occupancy
  P  P0  1  0.00000000  0.00000000  0.00000000  1
  P  P1  1  0.50000000  0.50000000  0.50000000  1
  As  As2  1  0.25000000  0.25000000  0.25000000  1
  As  As3  1  0.75000000  0.25000000  0.00000000  1
  As  As4  1  0.25000000  0.75000000  0.50000000  1
  As  As5  1  0.73633648  0.07003348  0.82010137  1
  Li  Li6  1  0.20736565  0.18604418  0.97951775  1
  Li  Li7  1  0.45839455  0.40576241  0.19244216  1
  Li  Li8  1  0.67227706  0.60357810  0.74615248  1
  Y  Y9  1  0.66716754  0.13040461  0.94497142  1
  Y  Y10  1  0.07019497  0.77805014  0.17488993  1
