# generated using pymatgen
data_LiCaF3
_symmetry_space_group_name_H-M   'P 1'
_cell_length_a   18.50984703
_cell_length_b   18.50984703
_cell_length_c   5.73860927
_cell_angle_alpha   90.00000000
_cell_angle_beta   90.00000000
_cell_angle_gamma   120.00000000
_symmetry_Int_Tables_number   1
_chemical_formula_structural   LiCaF3
_chemical_formula_sum   'Li18 Ca18 F54'
_cell_volume   1702.71885949
_cell_formula_units_Z   18
loop_
 _symmetry_equiv_pos_site_id
 _symmetry_equiv_pos_as_xyz
  1  'x, y, z'
loop_
 _atom_site_type_symbol
 _atom_site_label
 _atom_site_symmetry_multiplicity
 _atom_site_fract_x
 _atom_site_fract_y
 _atom_site_fract_z
 _atom_site_occupancy
  Ca  Ca0  1  0.76499002  0.00000000  0.25000000  1
  Ca  Ca1  1  0.00000000  0.76499002  0.25000000  1
  Ca  Ca2  1  0.23500998  0.23500998  0.25000000  1
  Ca  Ca3  1  0.23500998  0.00000000  0.75000000  1
  Ca  Ca4  1  0.00000000  0.23500998  0.75000000  1
  Ca  Ca5  1  0.76499002  0.76499002  0.75000000  1
  Ca  Ca6  1  0.43165669  0.33333333  0.58333333  1
  Ca  Ca7  1  0.66666667  0.09832336  0.58333333  1
  Ca  Ca8  1  0.90167664  0.56834331  0.58333333  1
  Ca  Ca9  1  0.90167664  0.33333333  0.08333333  1
  Ca  Ca10  1  0.66666667  0.56834331  0.08333333  1
  Ca  Ca11  1  0.43165669  0.09832336  0.08333333  1
  Ca  Ca12  1  0.09832336  0.66666667  0.91666667  1
  Ca  Ca13  1  0.33333333  0.43165669  0.91666667  1
  Ca  Ca14  1  0.56834331  0.90167664  0.91666667  1
  Ca  Ca15  1  0.56834331  0.66666667  0.41666667  1
  Ca  Ca16  1  0.33333333  0.90167664  0.41666667  1
  Ca  Ca17  1  0.09832336  0.43165669  0.41666667  1
  F  F18  1  0.50367499  0.47959009  0.65605486  1
  F  F19  1  -0.47959009  0.02408490  0.65605486  1
  F  F20  1  -0.02408490  -0.50367499  0.65605486  1
  F  F21  1  0.47959009  0.50367499  -0.15605486  1
  F  F22  1  0.02408490  -0.47959009  -0.15605486  1
  F  F23  1  -0.50367499  -0.02408490  -0.15605486  1
  F  F24  1  -0.50367499  -0.47959009  -0.65605486  1
  F  F25  1  0.47959009  -0.02408490  -0.65605486  1
  F  F26  1  0.02408490  0.50367499  -0.65605486  1
  F  F27  1  -0.47959009  -0.50367499  1.15605486  1
  F  F28  1  -0.02408490  0.47959009  1.15605486  1
  F  F29  1  0.50367499  0.02408490  1.15605486  1
  F  F30  1  1.17034165  0.81292342  0.98938819  1
  F  F31  1  0.18707658  0.35741824  0.98938819  1
  F  F32  1  0.64258176  -0.17034165  0.98938819  1
  F  F33  1  1.14625675  0.83700832  0.17727847  1
  F  F34  1  0.69075157  -0.14625675  0.17727847  1
  F  F35  1  0.16299168  0.30924843  0.17727847  1
  F  F36  1  0.16299168  -0.14625675  -0.32272153  1
  F  F37  1  1.14625675  0.30924843  -0.32272153  1
  F  F38  1  0.69075157  0.83700832  -0.32272153  1
  F  F39  1  0.18707658  -0.17034165  1.48938819  1
  F  F40  1  0.64258176  0.81292342  1.48938819  1
  F  F41  1  1.17034165  0.35741824  1.48938819  1
  F  F42  1  0.83700832  1.14625675  1.32272153  1
  F  F43  1  -0.14625675  0.69075157  1.32272153  1
  F  F44  1  0.30924843  0.16299168  1.32272153  1
  F  F45  1  0.81292342  1.17034165  0.51061181  1
  F  F46  1  0.35741824  0.18707658  0.51061181  1
  F  F47  1  -0.17034165  0.64258176  0.51061181  1
  F  F48  1  -0.17034165  0.18707658  0.01061181  1
  F  F49  1  0.81292342  0.64258176  0.01061181  1
  F  F50  1  0.35741824  1.17034165  0.01061181  1
  F  F51  1  -0.14625675  0.16299168  1.82272153  1
  F  F52  1  0.30924843  1.14625675  1.82272153  1
  F  F53  1  0.83700832  0.69075157  1.82272153  1
  F  F54  1  0.95595469  0.00000000  0.25000000  1
  F  F55  1  0.00000000  0.95595469  0.25000000  1
  F  F56  1  0.04404531  0.04404531  0.25000000  1
  F  F57  1  0.04404531  0.00000000  0.75000000  1
  F  F58  1  0.00000000  0.04404531  0.75000000  1
  F  F59  1  0.95595469  0.95595469  0.75000000  1
  F  F60  1  0.62262135  0.33333333  0.58333333  1
  F  F61  1  0.66666667  0.28928802  0.58333333  1
  F  F62  1  0.71071198  0.37737865  0.58333333  1
  F  F63  1  0.71071198  0.33333333  0.08333333  1
  F  F64  1  0.66666667  0.37737865  0.08333333  1
  F  F65  1  0.62262135  0.28928802  0.08333333  1
  F  F66  1  0.28928802  0.66666667  0.91666667  1
  F  F67  1  0.33333333  0.62262135  0.91666667  1
  F  F68  1  0.37737865  0.71071198  0.91666667  1
  F  F69  1  0.37737865  0.66666667  0.41666667  1
  F  F70  1  0.33333333  0.71071198  0.41666667  1
  F  F71  1  0.28928802  0.62262135  0.41666667  1
  Li  Li72  1  0.50000000  0.00000000  -0.00000000  1
  Li  Li73  1  0.00000000  0.50000000  -0.00000000  1
  Li  Li74  1  0.50000000  0.50000000  -0.00000000  1
  Li  Li75  1  0.00000000  0.50000000  0.50000000  1
  Li  Li76  1  0.50000000  0.00000000  0.50000000  1
  Li  Li77  1  0.50000000  0.50000000  0.50000000  1
  Li  Li78  1  0.16666667  0.33333333  0.33333333  1
  Li  Li79  1  0.66666667  0.83333333  0.33333333  1
  Li  Li80  1  0.16666667  0.83333333  0.33333333  1
  Li  Li81  1  0.66666667  0.83333333  0.83333333  1
  Li  Li82  1  0.16666667  0.33333333  0.83333333  1
  Li  Li83  1  0.16666667  0.83333333  0.83333333  1
  Li  Li84  1  0.83333333  0.66666667  0.66666667  1
  Li  Li85  1  0.33333333  0.16666667  0.66666667  1
  Li  Li86  1  0.83333333  0.16666667  0.66666667  1
  Li  Li87  1  0.33333333  0.16666667  0.16666667  1
  Li  Li88  1  0.83333333  0.66666667  0.16666667  1
  Li  Li89  1  0.83333333  0.16666667  0.16666667  1
