# generated using pymatgen
data_LiF
_symmetry_space_group_name_H-M   'P 1'
_cell_length_a   8.30505308
_cell_length_b   11.73921562
_cell_length_c   5.36230159
_cell_angle_alpha   90.00000000
_cell_angle_beta   90.00000000
_cell_angle_gamma   90.00000000
_symmetry_Int_Tables_number   1
_chemical_formula_structural   LiF
_chemical_formula_sum   'Li24 F24'
_cell_volume   522.79656894
_cell_formula_units_Z   24
loop_
 _symmetry_equiv_pos_site_id
 _symmetry_equiv_pos_as_xyz
  1  'x, y, z'
loop_
 _atom_site_type_symbol
 _atom_site_label
 _atom_site_symmetry_multiplicity
 _atom_site_fract_x
 _atom_site_fract_y
 _atom_site_fract_z
 _atom_site_occupancy
  F  F0  1  0.00000000  0.00000000  0.50000000  1
  F  F1  1  0.50000000  0.00000000  0.00000000  1
  F  F2  1  0.00000000  0.50000000  0.50000000  1
  F  F3  1  0.50000000  0.50000000  0.00000000  1
  F  F4  1  0.45919972  0.96990578  0.49814245  1
  F  F5  1  0.04080028  0.03009422  0.99814245  1
  F  F6  1  0.54080028  0.46990578  0.50185755  1
  F  F7  1  0.95919972  0.53009422  0.00185755  1
  F  F8  1  0.54080028  0.03009422  0.50185755  1
  F  F9  1  0.95919972  0.96990578  0.00185755  1
  F  F10  1  0.45919972  0.53009422  0.49814245  1
  F  F11  1  0.04080028  0.46990578  0.99814245  1
  F  F12  1  0.07472948  0.71379513  0.58122715  1
  F  F13  1  0.42527052  0.28620487  0.08122715  1
  F  F14  1  0.92527052  0.21379513  0.41877285  1
  F  F15  1  0.57472948  0.78620487  0.91877285  1
  F  F16  1  0.92527052  0.28620487  0.41877285  1
  F  F17  1  0.57472948  0.71379513  0.91877285  1
  F  F18  1  0.07472948  0.78620487  0.58122715  1
  F  F19  1  0.42527052  0.21379513  0.08122715  1
  F  F20  1  0.40391347  0.25000000  0.76977277  1
  F  F21  1  0.09608653  0.75000000  0.26977277  1
  F  F22  1  0.59608653  0.75000000  0.23022723  1
  F  F23  1  0.90391347  0.25000000  0.73022723  1
  Li  Li24  1  0.58472098  0.17016284  0.60245050  1
  Li  Li25  1  -0.08472098  -0.17016284  1.10245050  1
  Li  Li26  1  -0.58472098  0.67016284  -0.60245050  1
  Li  Li27  1  1.08472098  0.32983716  -0.10245050  1
  Li  Li28  1  -0.58472098  -0.17016284  -0.60245050  1
  Li  Li29  1  1.08472098  0.17016284  -0.10245050  1
  Li  Li30  1  0.58472098  0.32983716  0.60245050  1
  Li  Li31  1  -0.08472098  0.67016284  1.10245050  1
  Li  Li32  1  0.25421847  0.11577169  0.11107130  1
  Li  Li33  1  0.24578153  0.88422831  0.61107130  1
  Li  Li34  1  0.74578153  0.61577169  0.88892870  1
  Li  Li35  1  0.75421847  0.38422831  0.38892870  1
  Li  Li36  1  0.74578153  0.88422831  0.88892870  1
  Li  Li37  1  0.75421847  0.11577169  0.38892870  1
  Li  Li38  1  0.25421847  0.38422831  0.11107130  1
  Li  Li39  1  0.24578153  0.61577169  0.61107130  1
  Li  Li40  1  0.37248443  0.02623724  0.94977162  1
  Li  Li41  1  0.12751557  0.97376276  0.44977162  1
  Li  Li42  1  0.62751557  0.52623724  0.05022838  1
  Li  Li43  1  0.87248443  0.47376276  0.55022838  1
  Li  Li44  1  0.62751557  0.97376276  0.05022838  1
  Li  Li45  1  0.87248443  0.02623724  0.55022838  1
  Li  Li46  1  0.37248443  0.47376276  0.94977162  1
  Li  Li47  1  0.12751557  0.52623724  0.44977162  1
