# generated using pymatgen
data_Li2YAs2P3
_symmetry_space_group_name_H-M   'P 1'
_cell_length_a   5.23660484
_cell_length_b   5.31968661
_cell_length_c   7.12405898
_cell_angle_alpha   94.91377817
_cell_angle_beta   100.36697227
_cell_angle_gamma   108.11251723
_symmetry_Int_Tables_number   1
_chemical_formula_structural   Li2YAs2P3
_chemical_formula_sum   'Li2 Y1 As2 P3'
_cell_volume   183.40210641
_cell_formula_units_Z   1
loop_
 _symmetry_equiv_pos_site_id
 _symmetry_equiv_pos_as_xyz
  1  'x, y, z'
loop_
 _atom_site_type_symbol
 _atom_site_label
 _atom_site_symmetry_multiplicity
 _atom_site_fract_x
 _atom_site_fract_y
 _atom_site_fract_z
 _atom_site_occupancy
  P  P0  1  0.00000000  0.00000000  0.00000000  1
  P  P1  1  0.33300000  0.66700000  0.25000000  1
  P  P2  1  0.66700000  0.33300000  0.50000000  1
  As  As3  1  0.00000000  0.00000000  0.75000000  1
  As  As4  1  0.72322755  0.77617500  0.20429782  1
  Li  Li5  1  0.24535742  0.27779787  0.86095094  1
  Li  Li6  1  0.44395431  0.52138871  0.99755024  1
  Y  Y7  1  0.84017224  0.92771247  0.13736843  1
