# generated using pymatgen
data_LiF
_symmetry_space_group_name_H-M   'P 1'
_cell_length_a   14.90314293
_cell_length_b   14.90314293
_cell_length_c   5.66762014
_cell_angle_alpha   90.00000000
_cell_angle_beta   90.00000000
_cell_angle_gamma   120.00000000
_symmetry_Int_Tables_number   1
_chemical_formula_structural   LiF
_chemical_formula_sum   'Li42 F42'
_cell_volume   1090.15210977
_cell_formula_units_Z   42
loop_
 _symmetry_equiv_pos_site_id
 _symmetry_equiv_pos_as_xyz
  1  'x, y, z'
loop_
 _atom_site_type_symbol
 _atom_site_label
 _atom_site_symmetry_multiplicity
 _atom_site_fract_x
 _atom_site_fract_y
 _atom_site_fract_z
 _atom_site_occupancy
  F  F0  1  0.05754740  0.81139143  0.07686737  1
  F  F1  1  -0.81139143  -0.75384403  0.07686737  1
  F  F2  1  0.75384403  -0.05754740  0.07686737  1
  F  F3  1  0.81139143  0.05754740  0.42313263  1
  F  F4  1  -0.75384403  -0.81139143  0.42313263  1
  F  F5  1  -0.05754740  0.75384403  0.42313263  1
  F  F6  1  -0.05754740  -0.81139143  -0.07686737  1
  F  F7  1  0.81139143  0.75384403  -0.07686737  1
  F  F8  1  -0.75384403  0.05754740  -0.07686737  1
  F  F9  1  -0.81139143  -0.05754740  0.57686737  1
  F  F10  1  0.75384403  0.81139143  0.57686737  1
  F  F11  1  0.05754740  -0.75384403  0.57686737  1
  F  F12  1  0.72421407  1.14472476  0.41020070  1
  F  F13  1  -0.14472476  -0.42051069  0.41020070  1
  F  F14  1  1.42051069  0.27578593  0.41020070  1
  F  F15  1  1.47805810  0.39088074  0.75646596  1
  F  F16  1  -0.08717736  -0.47805810  0.75646596  1
  F  F17  1  0.60911926  1.08717736  0.75646596  1
  F  F18  1  0.60911926  -0.47805810  0.25646596  1
  F  F19  1  1.47805810  1.08717736  0.25646596  1
  F  F20  1  -0.08717736  0.39088074  0.25646596  1
  F  F21  1  -0.14472476  0.27578593  0.91020070  1
  F  F22  1  1.42051069  1.14472476  0.91020070  1
  F  F23  1  0.72421407  -0.42051069  0.91020070  1
  F  F24  1  0.39088074  1.47805810  0.74353404  1
  F  F25  1  -0.47805810  -0.08717736  0.74353404  1
  F  F26  1  1.08717736  0.60911926  0.74353404  1
  F  F27  1  1.14472476  0.72421407  1.08979930  1
  F  F28  1  -0.42051069  -0.14472476  1.08979930  1
  F  F29  1  0.27578593  1.42051069  1.08979930  1
  F  F30  1  0.27578593  -0.14472476  0.58979930  1
  F  F31  1  1.14472476  1.42051069  0.58979930  1
  F  F32  1  -0.42051069  0.72421407  0.58979930  1
  F  F33  1  -0.47805810  0.60911926  1.24353404  1
  F  F34  1  1.08717736  1.47805810  1.24353404  1
  F  F35  1  0.39088074  -0.08717736  1.24353404  1
  F  F36  1  0.00000000  0.00000000  0.25000000  1
  F  F37  1  0.00000000  0.00000000  0.75000000  1
  F  F38  1  0.66666667  0.33333333  0.58333333  1
  F  F39  1  0.66666667  0.33333333  0.08333333  1
  F  F40  1  0.33333333  0.66666667  0.91666667  1
  F  F41  1  0.33333333  0.66666667  0.41666667  1
  Li  Li42  1  0.50000000  0.00000000  -0.00000000  1
  Li  Li43  1  0.00000000  0.50000000  0.00000000  1
  Li  Li44  1  0.50000000  0.50000000  -0.00000000  1
  Li  Li45  1  0.00000000  0.50000000  0.50000000  1
  Li  Li46  1  0.50000000  0.00000000  0.50000000  1
  Li  Li47  1  0.50000000  0.50000000  0.50000000  1
  Li  Li48  1  0.16666667  0.33333333  0.33333333  1
  Li  Li49  1  0.66666667  0.83333333  0.33333333  1
  Li  Li50  1  0.16666667  0.83333333  0.33333333  1
  Li  Li51  1  0.66666667  0.83333333  0.83333333  1
  Li  Li52  1  0.16666667  0.33333333  0.83333333  1
  Li  Li53  1  0.16666667  0.83333333  0.83333333  1
  Li  Li54  1  0.83333333  0.66666667  0.66666667  1
  Li  Li55  1  0.33333333  0.16666667  0.66666667  1
  Li  Li56  1  0.83333333  0.16666667  0.66666667  1
  Li  Li57  1  0.33333333  0.16666667  0.16666667  1
  Li  Li58  1  0.83333333  0.66666667  0.16666667  1
  Li  Li59  1  0.83333333  0.16666667  0.16666667  1
  Li  Li60  1  0.00000000  0.00000000  0.00000000  1
  Li  Li61  1  0.00000000  0.00000000  0.50000000  1
  Li  Li62  1  0.66666667  0.33333333  0.33333333  1
  Li  Li63  1  0.66666667  0.33333333  0.83333333  1
  Li  Li64  1  0.33333333  0.66666667  0.66666667  1
  Li  Li65  1  0.33333333  0.66666667  0.16666667  1
  Li  Li66  1  0.40378134  0.00000000  0.25000000  1
  Li  Li67  1  0.00000000  0.40378134  0.25000000  1
  Li  Li68  1  0.59621866  0.59621866  0.25000000  1
  Li  Li69  1  0.59621866  0.00000000  0.75000000  1
  Li  Li70  1  0.00000000  0.59621866  0.75000000  1
  Li  Li71  1  0.40378134  0.40378134  0.75000000  1
  Li  Li72  1  0.07044800  0.33333333  0.58333333  1
  Li  Li73  1  0.66666667  0.73711467  0.58333333  1
  Li  Li74  1  0.26288533  0.92955200  0.58333333  1
  Li  Li75  1  0.26288533  0.33333333  0.08333333  1
  Li  Li76  1  0.66666667  0.92955200  0.08333333  1
  Li  Li77  1  0.07044800  0.73711467  0.08333333  1
  Li  Li78  1  0.73711467  0.66666667  0.91666667  1
  Li  Li79  1  0.33333333  0.07044800  0.91666667  1
  Li  Li80  1  0.92955200  0.26288533  0.91666667  1
  Li  Li81  1  0.92955200  0.66666667  0.41666667  1
  Li  Li82  1  0.33333333  0.26288533  0.41666667  1
  Li  Li83  1  0.73711467  0.07044800  0.41666667  1
