# generated using pymatgen
data_Li2Si4Te3F12
_symmetry_space_group_name_H-M   'P 1'
_cell_length_a   6.99528555
_cell_length_b   6.99528555
_cell_length_c   13.45775476
_cell_angle_alpha   90.00000000
_cell_angle_beta   90.00000000
_cell_angle_gamma   90.00000000
_symmetry_Int_Tables_number   1
_chemical_formula_structural   Li2Si4Te3F12
_chemical_formula_sum   'Li8 Si16 Te12 F48'
_cell_volume   658.54203892
_cell_formula_units_Z   4
loop_
 _symmetry_equiv_pos_site_id
 _symmetry_equiv_pos_as_xyz
  1  'x, y, z'
loop_
 _atom_site_type_symbol
 _atom_site_label
 _atom_site_symmetry_multiplicity
 _atom_site_fract_x
 _atom_site_fract_y
 _atom_site_fract_z
 _atom_site_occupancy
  F  F0  1  0.26394109  0.99298515  0.66013504  1
  F  F1  1  0.23605891  -0.99298515  1.16013504  1
  F  F2  1  -0.74298515  1.01394109  0.91013504  1
  F  F3  1  1.24298515  -0.01394109  1.41013504  1
  F  F4  1  0.23605891  0.99298515  -0.16013504  1
  F  F5  1  0.26394109  -0.99298515  -0.66013504  1
  F  F6  1  1.24298515  1.01394109  -0.41013504  1
  F  F7  1  -0.74298515  -0.01394109  0.08986496  1
  F  F8  1  -0.26394109  -0.99298515  -0.66013504  1
  F  F9  1  0.76394109  0.99298515  -0.16013504  1
  F  F10  1  1.74298515  -0.01394109  0.08986496  1
  F  F11  1  -0.24298515  1.01394109  -0.41013504  1
  F  F12  1  0.76394109  -0.99298515  1.16013504  1
  F  F13  1  -0.26394109  0.99298515  0.66013504  1
  F  F14  1  -0.24298515  -0.01394109  1.41013504  1
  F  F15  1  1.74298515  1.01394109  0.91013504  1
  F  F16  1  0.76394109  1.49298515  1.16013504  1
  F  F17  1  0.73605891  -0.49298515  1.66013504  1
  F  F18  1  -0.24298515  1.51394109  1.41013504  1
  F  F19  1  1.74298515  0.48605891  1.91013504  1
  F  F20  1  0.73605891  1.49298515  0.33986496  1
  F  F21  1  0.76394109  -0.49298515  -0.16013504  1
  F  F22  1  1.74298515  1.51394109  0.08986496  1
  F  F23  1  -0.24298515  0.48605891  0.58986496  1
  F  F24  1  0.23605891  -0.49298515  -0.16013504  1
  F  F25  1  1.26394109  1.49298515  0.33986496  1
  F  F26  1  2.24298515  0.48605891  0.58986496  1
  F  F27  1  0.25701485  1.51394109  0.08986496  1
  F  F28  1  1.26394109  -0.49298515  1.66013504  1
  F  F29  1  0.23605891  1.49298515  1.16013504  1
  F  F30  1  0.25701485  0.48605891  1.91013504  1
  F  F31  1  2.24298515  1.51394109  1.41013504  1
  F  F32  1  0.70735284  0.95735284  0.87500000  1
  F  F33  1  0.79264716  0.04264716  0.37500000  1
  F  F34  1  0.29264716  0.45735284  0.12500000  1
  F  F35  1  0.20735284  0.54264716  0.62500000  1
  F  F36  1  0.29264716  0.04264716  0.12500000  1
  F  F37  1  0.20735284  0.95735284  0.62500000  1
  F  F38  1  0.70735284  0.54264716  0.87500000  1
  F  F39  1  0.79264716  0.45735284  0.37500000  1
  F  F40  1  0.20735284  0.45735284  0.37500000  1
  F  F41  1  0.29264716  0.54264716  0.87500000  1
  F  F42  1  0.79264716  0.95735284  0.62500000  1
  F  F43  1  0.70735284  0.04264716  0.12500000  1
  F  F44  1  0.79264716  0.54264716  0.62500000  1
  F  F45  1  0.70735284  0.45735284  0.12500000  1
  F  F46  1  0.20735284  0.04264716  0.37500000  1
  F  F47  1  0.29264716  0.95735284  0.87500000  1
  Li  Li48  1  0.00000000  0.00000000  0.50000000  1
  Li  Li49  1  0.50000000  0.00000000  0.00000000  1
  Li  Li50  1  0.25000000  0.75000000  0.75000000  1
  Li  Li51  1  0.25000000  0.25000000  0.25000000  1
  Li  Li52  1  0.50000000  0.50000000  0.00000000  1
  Li  Li53  1  0.00000000  0.50000000  0.50000000  1
  Li  Li54  1  0.75000000  0.25000000  0.25000000  1
  Li  Li55  1  0.75000000  0.75000000  0.75000000  1
  Si  Si56  1  0.00000000  0.92835566  0.22583104  1
  Si  Si57  1  0.50000000  0.07164434  0.72583104  1
  Si  Si58  1  0.32164434  0.75000000  0.47583104  1
  Si  Si59  1  0.17835566  0.25000000  0.97583104  1
  Si  Si60  1  0.50000000  0.92835566  0.27416896  1
  Si  Si61  1  0.00000000  0.07164434  0.77416896  1
  Si  Si62  1  0.17835566  0.75000000  0.02416896  1
  Si  Si63  1  0.32164434  0.25000000  0.52416896  1
  Si  Si64  1  0.50000000  0.42835566  0.72583104  1
  Si  Si65  1  0.00000000  0.57164434  0.22583104  1
  Si  Si66  1  0.82164434  0.25000000  0.97583104  1
  Si  Si67  1  0.67835566  0.75000000  0.47583104  1
  Si  Si68  1  0.00000000  0.42835566  0.77416896  1
  Si  Si69  1  0.50000000  0.57164434  0.27416896  1
  Si  Si70  1  0.67835566  0.25000000  0.52416896  1
  Si  Si71  1  0.82164434  0.75000000  0.02416896  1
  Te  Te72  1  0.00000000  0.25000000  0.99730916  1
  Te  Te73  1  0.00000000  0.75000000  0.24730916  1
  Te  Te74  1  0.50000000  0.25000000  0.50269084  1
  Te  Te75  1  0.50000000  0.75000000  0.25269084  1
  Te  Te76  1  0.50000000  0.75000000  0.49730916  1
  Te  Te77  1  0.50000000  0.25000000  0.74730916  1
  Te  Te78  1  0.00000000  0.75000000  0.00269084  1
  Te  Te79  1  0.00000000  0.25000000  0.75269084  1
  Te  Te80  1  0.00000000  0.25000000  0.37500000  1
  Te  Te81  1  0.00000000  0.75000000  0.62500000  1
  Te  Te82  1  0.50000000  0.75000000  0.87500000  1
  Te  Te83  1  0.50000000  0.25000000  0.12500000  1
