# generated using pymatgen
data_LiF
_symmetry_space_group_name_H-M   'P 1'
_cell_length_a   20.69832247
_cell_length_b   20.69832247
_cell_length_c   2.32215614
_cell_angle_alpha   90.00000000
_cell_angle_beta   90.00000000
_cell_angle_gamma   90.00000000
_symmetry_Int_Tables_number   1
_chemical_formula_structural   LiF
_chemical_formula_sum   'Li32 F32'
_cell_volume   994.85941624
_cell_formula_units_Z   32
loop_
 _symmetry_equiv_pos_site_id
 _symmetry_equiv_pos_as_xyz
  1  'x, y, z'
loop_
 _atom_site_type_symbol
 _atom_site_label
 _atom_site_symmetry_multiplicity
 _atom_site_fract_x
 _atom_site_fract_y
 _atom_site_fract_z
 _atom_site_occupancy
  F  F0  1  0.43367140  0.00000000  0.25000000  1
  F  F1  1  0.06632860  -0.00000000  0.75000000  1
  F  F2  1  0.25000000  0.18367140  0.50000000  1
  F  F3  1  0.25000000  0.81632860  0.00000000  1
  F  F4  1  0.56632860  0.00000000  0.75000000  1
  F  F5  1  0.93367140  0.00000000  0.25000000  1
  F  F6  1  0.75000000  0.81632860  0.50000000  1
  F  F7  1  0.75000000  0.18367140  -0.00000000  1
  F  F8  1  0.93367140  0.50000000  0.75000000  1
  F  F9  1  0.56632860  0.50000000  0.25000000  1
  F  F10  1  0.75000000  0.68367140  -0.00000000  1
  F  F11  1  0.75000000  0.31632860  0.50000000  1
  F  F12  1  0.06632860  0.50000000  0.25000000  1
  F  F13  1  0.43367140  0.50000000  0.75000000  1
  F  F14  1  0.25000000  0.31632860  -0.00000000  1
  F  F15  1  0.25000000  0.68367140  0.50000000  1
  F  F16  1  0.00000000  0.00000000  0.00000000  1
  F  F17  1  0.50000000  0.00000000  0.50000000  1
  F  F18  1  0.25000000  0.75000000  0.25000000  1
  F  F19  1  0.25000000  0.25000000  0.75000000  1
  F  F20  1  0.50000000  0.00000000  0.00000000  1
  F  F21  1  0.00000000  0.00000000  0.50000000  1
  F  F22  1  0.25000000  0.75000000  0.75000000  1
  F  F23  1  0.25000000  0.25000000  0.25000000  1
  F  F24  1  0.50000000  0.50000000  0.50000000  1
  F  F25  1  0.00000000  0.50000000  0.00000000  1
  F  F26  1  0.75000000  0.25000000  0.75000000  1
  F  F27  1  0.75000000  0.75000000  0.25000000  1
  F  F28  1  0.00000000  0.50000000  0.50000000  1
  F  F29  1  0.50000000  0.50000000  0.00000000  1
  F  F30  1  0.75000000  0.25000000  0.25000000  1
  F  F31  1  0.75000000  0.75000000  0.75000000  1
  Li  Li32  1  0.35875669  0.60875669  0.12500000  1
  Li  Li33  1  0.14124331  0.39124331  0.62500000  1
  Li  Li34  1  -0.35875669  1.10875669  0.37500000  1
  Li  Li35  1  0.85875669  -0.10875669  0.87500000  1
  Li  Li36  1  -0.35875669  0.39124331  0.87500000  1
  Li  Li37  1  0.85875669  0.60875669  0.37500000  1
  Li  Li38  1  0.35875669  -0.10875669  0.62500000  1
  Li  Li39  1  0.14124331  1.10875669  0.12500000  1
  Li  Li40  1  0.85875669  1.10875669  0.62500000  1
  Li  Li41  1  0.64124331  0.89124331  1.12500000  1
  Li  Li42  1  0.14124331  1.60875669  0.87500000  1
  Li  Li43  1  1.35875669  0.39124331  1.37500000  1
  Li  Li44  1  0.14124331  0.89124331  1.37500000  1
  Li  Li45  1  1.35875669  1.10875669  0.87500000  1
  Li  Li46  1  0.85875669  0.39124331  1.12500000  1
  Li  Li47  1  0.64124331  1.60875669  0.62500000  1
  Li  Li48  1  0.56669919  0.81669919  0.12500000  1
  Li  Li49  1  0.93330081  0.18330081  0.62500000  1
  Li  Li50  1  0.43330081  0.31669919  0.37500000  1
  Li  Li51  1  0.06669919  0.68330081  0.87500000  1
  Li  Li52  1  0.43330081  0.18330081  0.87500000  1
  Li  Li53  1  0.06669919  0.81669919  0.37500000  1
  Li  Li54  1  0.56669919  0.68330081  0.62500000  1
  Li  Li55  1  0.93330081  0.31669919  0.12500000  1
  Li  Li56  1  0.06669919  0.31669919  0.62500000  1
  Li  Li57  1  0.43330081  0.68330081  0.12500000  1
  Li  Li58  1  0.93330081  0.81669919  0.87500000  1
  Li  Li59  1  0.56669919  0.18330081  0.37500000  1
  Li  Li60  1  0.93330081  0.68330081  0.37500000  1
  Li  Li61  1  0.56669919  0.31669919  0.87500000  1
  Li  Li62  1  0.06669919  0.18330081  0.12500000  1
  Li  Li63  1  0.43330081  0.81669919  0.62500000  1
