# generated using pymatgen
data_Li3Y2MoP3Se2
_symmetry_space_group_name_H-M   'P 1'
_cell_length_a   6.34835902
_cell_length_b   6.71338824
_cell_length_c   7.68158875
_cell_angle_alpha   92.39490407
_cell_angle_beta   95.21560318
_cell_angle_gamma   99.61937782
_symmetry_Int_Tables_number   1
_chemical_formula_structural   Li3Y2MoP3Se2
_chemical_formula_sum   'Li3 Y2 Mo1 P3 Se2'
_cell_volume   320.90041352
_cell_formula_units_Z   1
loop_
 _symmetry_equiv_pos_site_id
 _symmetry_equiv_pos_as_xyz
  1  'x, y, z'
loop_
 _atom_site_type_symbol
 _atom_site_label
 _atom_site_symmetry_multiplicity
 _atom_site_fract_x
 _atom_site_fract_y
 _atom_site_fract_z
 _atom_site_occupancy
  Se  Se0  1  0.00000000  0.00000000  0.00000000  1
  Se  Se1  1  0.50000000  0.50000000  0.50000000  1
  P  P2  1  0.50000000  0.50000000  0.00000000  1
  P  P3  1  0.50000000  0.00000000  0.50000000  1
  P  P4  1  0.00000000  0.50000000  0.50000000  1
  Mo  Mo5  1  0.03671264  0.42004876  0.15782201  1
  Li  Li6  1  0.14280436  0.59031529  0.37890415  1
  Li  Li7  1  0.19762359  0.37959677  0.62160678  1
  Li  Li8  1  0.57181782  0.29306172  0.69454377  1
  Y  Y9  1  0.28741930  0.50831064  0.24249309  1
  Y  Y10  1  0.38676464  0.48622033  0.48679649  1
