# generated using pymatgen
data_Li2Y2As4P2Se
_symmetry_space_group_name_H-M   'P 1'
_cell_length_a   5.38992385
_cell_length_b   5.51102059
_cell_length_c   6.64372356
_cell_angle_alpha   93.59190067
_cell_angle_beta   95.86975168
_cell_angle_gamma   101.36494781
_symmetry_Int_Tables_number   1
_chemical_formula_structural   Li2Y2As4P2Se
_chemical_formula_sum   'Li2 Y2 As4 P2 Se1'
_cell_volume   191.76614144
_cell_formula_units_Z   1
loop_
 _symmetry_equiv_pos_site_id
 _symmetry_equiv_pos_as_xyz
  1  'x, y, z'
loop_
 _atom_site_type_symbol
 _atom_site_label
 _atom_site_symmetry_multiplicity
 _atom_site_fract_x
 _atom_site_fract_y
 _atom_site_fract_z
 _atom_site_occupancy
  Se  Se0  1  0.00000000  0.00000000  0.00000000  1
  P  P1  1  0.50000000  0.50000000  0.50000000  1
  P  P2  1  0.25000000  0.25000000  0.25000000  1
  As  As3  1  0.75000000  0.25000000  0.00000000  1
  As  As4  1  0.25000000  0.75000000  0.50000000  1
  As  As5  1  0.69550640  0.85968881  0.23864705  1
  As  As6  1  0.36249414  0.55256001  0.84088830  1
  Li  Li7  1  0.32084739  0.08756974  0.94955764  1
  Li  Li8  1  0.18935468  0.95667378  0.68305268  1
  Y  Y9  1  0.60526075  0.52573443  0.59585284  1
  Y  Y10  1  0.35826847  0.83350793  0.51751112  1
