# generated using pymatgen
data_LiF
_symmetry_space_group_name_H-M   'P 1'
_cell_length_a   11.16248097
_cell_length_b   11.16248097
_cell_length_c   25.03685533
_cell_angle_alpha   90.00000000
_cell_angle_beta   90.00000000
_cell_angle_gamma   120.00000000
_symmetry_Int_Tables_number   1
_chemical_formula_structural   LiF
_chemical_formula_sum   'Li90 F90'
_cell_volume   2701.66735283
_cell_formula_units_Z   90
loop_
 _symmetry_equiv_pos_site_id
 _symmetry_equiv_pos_as_xyz
  1  'x, y, z'
loop_
 _atom_site_type_symbol
 _atom_site_label
 _atom_site_symmetry_multiplicity
 _atom_site_fract_x
 _atom_site_fract_y
 _atom_site_fract_z
 _atom_site_occupancy
  F  F0  1  0.00000000  0.00000000  0.23860990  1
  F  F1  1  0.00000000  0.00000000  0.26139010  1
  F  F2  1  0.00000000  0.00000000  0.76139010  1
  F  F3  1  0.00000000  0.00000000  0.73860990  1
  F  F4  1  0.66666667  0.33333333  0.57194323  1
  F  F5  1  0.66666667  0.33333333  0.59472344  1
  F  F6  1  0.66666667  0.33333333  0.09472344  1
  F  F7  1  0.66666667  0.33333333  0.07194323  1
  F  F8  1  0.33333333  0.66666667  0.90527656  1
  F  F9  1  0.33333333  0.66666667  0.92805677  1
  F  F10  1  0.33333333  0.66666667  0.42805677  1
  F  F11  1  0.33333333  0.66666667  0.40527656  1
  F  F12  1  0.00000000  0.00000000  0.00000000  1
  F  F13  1  0.00000000  0.00000000  0.50000000  1
  F  F14  1  0.66666667  0.33333333  0.33333333  1
  F  F15  1  0.66666667  0.33333333  0.83333333  1
  F  F16  1  0.33333333  0.66666667  0.66666667  1
  F  F17  1  0.33333333  0.66666667  0.16666667  1
  F  F18  1  0.69799796  0.00913992  0.17260359  1
  F  F19  1  0.99086008  0.68885804  0.17260359  1
  F  F20  1  0.31114196  0.30200204  0.17260359  1
  F  F21  1  0.00913992  0.69799796  0.32739641  1
  F  F22  1  0.68885804  0.99086008  0.32739641  1
  F  F23  1  0.30200204  0.31114196  0.32739641  1
  F  F24  1  0.30200204  0.99086008  0.82739641  1
  F  F25  1  0.00913992  0.31114196  0.82739641  1
  F  F26  1  0.68885804  0.69799796  0.82739641  1
  F  F27  1  0.99086008  0.30200204  0.67260359  1
  F  F28  1  0.31114196  0.00913992  0.67260359  1
  F  F29  1  0.69799796  0.68885804  0.67260359  1
  F  F30  1  0.36466462  0.34247325  0.50593692  1
  F  F31  1  0.65752675  0.02219137  0.50593692  1
  F  F32  1  0.97780863  0.63533538  0.50593692  1
  F  F33  1  0.67580658  0.03133129  0.66072974  1
  F  F34  1  0.35552471  0.32419342  0.66072974  1
  F  F35  1  0.96866871  0.64447529  0.66072974  1
  F  F36  1  0.96866871  0.32419342  0.16072974  1
  F  F37  1  0.67580658  0.64447529  0.16072974  1
  F  F38  1  0.35552471  0.03133129  0.16072974  1
  F  F39  1  0.65752675  0.63533538  0.00593692  1
  F  F40  1  0.97780863  0.34247325  0.00593692  1
  F  F41  1  0.36466462  0.02219137  0.00593692  1
  F  F42  1  0.03133129  0.67580658  0.83927026  1
  F  F43  1  0.32419342  0.35552471  0.83927026  1
  F  F44  1  0.64447529  0.96866871  0.83927026  1
  F  F45  1  0.34247325  0.36466462  0.99406308  1
  F  F46  1  0.02219137  0.65752675  0.99406308  1
  F  F47  1  0.63533538  0.97780863  0.99406308  1
  F  F48  1  0.63533538  0.65752675  0.49406308  1
  F  F49  1  0.34247325  0.97780863  0.49406308  1
  F  F50  1  0.02219137  0.36466462  0.49406308  1
  F  F51  1  0.32419342  0.96866871  0.33927026  1
  F  F52  1  0.64447529  0.67580658  0.33927026  1
  F  F53  1  0.03133129  0.35552471  0.33927026  1
  F  F54  1  0.33302111  0.19167913  0.73480269  1
  F  F55  1  0.80832087  0.14134197  0.73480269  1
  F  F56  1  0.85865803  0.66697889  0.73480269  1
  F  F57  1  0.19167913  0.33302111  0.76519731  1
  F  F58  1  0.14134197  0.80832087  0.76519731  1
  F  F59  1  0.66697889  0.85865803  0.76519731  1
  F  F60  1  0.66697889  0.80832087  0.26519731  1
  F  F61  1  0.19167913  0.85865803  0.26519731  1
  F  F62  1  0.14134197  0.33302111  0.26519731  1
  F  F63  1  0.80832087  0.66697889  0.23480269  1
  F  F64  1  0.85865803  0.19167913  0.23480269  1
  F  F65  1  0.33302111  0.14134197  0.23480269  1
  F  F66  1  0.99968777  0.52501246  0.06813603  1
  F  F67  1  0.47498754  0.47467531  0.06813603  1
  F  F68  1  0.52532469  0.00031223  0.06813603  1
  F  F69  1  0.85834580  0.66635444  0.09853064  1
  F  F70  1  0.80800864  0.14165420  0.09853064  1
  F  F71  1  0.33364556  0.19199136  0.09853064  1
  F  F72  1  0.33364556  0.14165420  0.59853064  1
  F  F73  1  0.85834580  0.19199136  0.59853064  1
  F  F74  1  0.80800864  0.66635444  0.59853064  1
  F  F75  1  0.47498754  0.00031223  0.56813603  1
  F  F76  1  0.52532469  0.52501246  0.56813603  1
  F  F77  1  0.99968777  0.47467531  0.56813603  1
  F  F78  1  0.66635444  0.85834580  0.40146936  1
  F  F79  1  0.14165420  0.80800864  0.40146936  1
  F  F80  1  0.19199136  0.33364556  0.40146936  1
  F  F81  1  0.52501246  0.99968777  0.43186397  1
  F  F82  1  0.47467531  0.47498754  0.43186397  1
  F  F83  1  0.00031223  0.52532469  0.43186397  1
  F  F84  1  0.00031223  0.47498754  0.93186397  1
  F  F85  1  0.52501246  0.52532469  0.93186397  1
  F  F86  1  0.47467531  0.99968777  0.93186397  1
  F  F87  1  0.14165420  0.33364556  0.90146936  1
  F  F88  1  0.19199136  0.85834580  0.90146936  1
  F  F89  1  0.66635444  0.80800864  0.90146936  1
  Li  Li90  1  0.14917970  0.57720912  0.28060719  1
  Li  Li91  1  -0.57720912  -0.42802942  0.28060719  1
  Li  Li92  1  0.42802942  -0.14917970  0.28060719  1
  Li  Li93  1  0.57720912  0.14917970  0.21939281  1
  Li  Li94  1  -0.42802942  -0.57720912  0.21939281  1
  Li  Li95  1  -0.14917970  0.42802942  0.21939281  1
  Li  Li96  1  -0.14917970  -0.57720912  -0.28060719  1
  Li  Li97  1  0.57720912  0.42802942  -0.28060719  1
  Li  Li98  1  -0.42802942  0.14917970  -0.28060719  1
  Li  Li99  1  -0.57720912  -0.14917970  0.78060719  1
  Li  Li100  1  0.42802942  0.57720912  0.78060719  1
  Li  Li101  1  0.14917970  -0.42802942  0.78060719  1
  Li  Li102  1  0.81584637  0.91054245  0.61394052  1
  Li  Li103  1  0.08945755  -0.09469609  0.61394052  1
  Li  Li104  1  1.09469609  0.18415363  0.61394052  1
  Li  Li105  1  1.24387579  0.48251303  0.55272614  1
  Li  Li106  1  0.23863725  -0.24387579  0.55272614  1
  Li  Li107  1  0.51748697  0.76136275  0.55272614  1
  Li  Li108  1  0.51748697  -0.24387579  0.05272614  1
  Li  Li109  1  1.24387579  0.76136275  0.05272614  1
  Li  Li110  1  0.23863725  0.48251303  0.05272614  1
  Li  Li111  1  0.08945755  0.18415363  1.11394052  1
  Li  Li112  1  1.09469609  0.91054245  1.11394052  1
  Li  Li113  1  0.81584637  -0.09469609  1.11394052  1
  Li  Li114  1  0.48251303  1.24387579  0.94727386  1
  Li  Li115  1  -0.24387579  0.23863725  0.94727386  1
  Li  Li116  1  0.76136275  0.51748697  0.94727386  1
  Li  Li117  1  0.91054245  0.81584637  0.88605948  1
  Li  Li118  1  -0.09469609  0.08945755  0.88605948  1
  Li  Li119  1  0.18415363  1.09469609  0.88605948  1
  Li  Li120  1  0.18415363  0.08945755  0.38605948  1
  Li  Li121  1  0.91054245  1.09469609  0.38605948  1
  Li  Li122  1  -0.09469609  0.81584637  0.38605948  1
  Li  Li123  1  -0.24387579  0.51748697  1.44727386  1
  Li  Li124  1  0.76136275  1.24387579  1.44727386  1
  Li  Li125  1  0.48251303  0.23863725  1.44727386  1
  Li  Li126  1  0.20716836  0.00000000  0.25000000  1
  Li  Li127  1  0.00000000  0.20716836  0.25000000  1
  Li  Li128  1  0.79283164  0.79283164  0.25000000  1
  Li  Li129  1  0.79283164  0.00000000  0.75000000  1
  Li  Li130  1  0.00000000  0.79283164  0.75000000  1
  Li  Li131  1  0.20716836  0.20716836  0.75000000  1
  Li  Li132  1  0.87383503  0.33333333  0.58333333  1
  Li  Li133  1  0.66666667  0.54050169  0.58333333  1
  Li  Li134  1  0.45949831  0.12616497  0.58333333  1
  Li  Li135  1  0.45949831  0.33333333  0.08333333  1
  Li  Li136  1  0.66666667  0.12616497  0.08333333  1
  Li  Li137  1  0.87383503  0.54050169  0.08333333  1
  Li  Li138  1  0.54050169  0.66666667  0.91666667  1
  Li  Li139  1  0.33333333  0.87383503  0.91666667  1
  Li  Li140  1  0.12616497  0.45949831  0.91666667  1
  Li  Li141  1  0.12616497  0.66666667  0.41666667  1
  Li  Li142  1  0.33333333  0.45949831  0.41666667  1
  Li  Li143  1  0.54050169  0.87383503  0.41666667  1
  Li  Li144  1  0.55771174  0.38831172  0.52074343  1
  Li  Li145  1  0.61168828  0.16940002  0.52074343  1
  Li  Li146  1  0.83059998  0.44228826  0.52074343  1
  Li  Li147  1  0.38831172  0.55771174  0.97925657  1
  Li  Li148  1  0.16940002  0.61168828  0.97925657  1
  Li  Li149  1  0.44228826  0.83059998  0.97925657  1
  Li  Li150  1  0.44228826  0.61168828  0.47925657  1
  Li  Li151  1  0.38831172  0.83059998  0.47925657  1
  Li  Li152  1  0.16940002  0.55771174  0.47925657  1
  Li  Li153  1  0.61168828  0.44228826  0.02074343  1
  Li  Li154  1  0.83059998  0.38831172  0.02074343  1
  Li  Li155  1  0.55771174  0.16940002  0.02074343  1
  Li  Li156  1  0.22437841  0.72164505  0.85407676  1
  Li  Li157  1  0.27835495  0.50273336  0.85407676  1
  Li  Li158  1  0.49726664  0.77562159  0.85407676  1
  Li  Li159  1  0.05497839  0.89104508  0.31258990  1
  Li  Li160  1  0.83606669  0.94502161  0.31258990  1
  Li  Li161  1  0.10895492  0.16393331  0.31258990  1
  Li  Li162  1  0.10895492  0.94502161  0.81258990  1
  Li  Li163  1  0.05497839  0.16393331  0.81258990  1
  Li  Li164  1  0.83606669  0.89104508  0.81258990  1
  Li  Li165  1  0.27835495  0.77562159  0.35407676  1
  Li  Li166  1  0.49726664  0.72164505  0.35407676  1
  Li  Li167  1  0.22437841  0.50273336  0.35407676  1
  Li  Li168  1  0.89104508  0.05497839  0.18741010  1
  Li  Li169  1  0.94502161  0.83606669  0.18741010  1
  Li  Li170  1  0.16393331  0.10895492  0.18741010  1
  Li  Li171  1  0.72164505  0.22437841  0.64592324  1
  Li  Li172  1  0.50273336  0.27835495  0.64592324  1
  Li  Li173  1  0.77562159  0.49726664  0.64592324  1
  Li  Li174  1  0.77562159  0.27835495  0.14592324  1
  Li  Li175  1  0.72164505  0.49726664  0.14592324  1
  Li  Li176  1  0.50273336  0.22437841  0.14592324  1
  Li  Li177  1  0.94502161  0.10895492  0.68741010  1
  Li  Li178  1  0.16393331  0.05497839  0.68741010  1
  Li  Li179  1  0.89104508  0.83606669  0.68741010  1
