# generated using pymatgen
data_Li2Si4Te3F12
_symmetry_space_group_name_H-M   'P 1'
_cell_length_a   10.51174999
_cell_length_b   10.51174999
_cell_length_c   8.46279154
_cell_angle_alpha   90.00000000
_cell_angle_beta   90.00000000
_cell_angle_gamma   90.00000000
_symmetry_Int_Tables_number   1
_chemical_formula_structural   Li2Si4Te3F12
_chemical_formula_sum   'Li8 Si16 Te12 F48'
_cell_volume   935.11212754
_cell_formula_units_Z   4
loop_
 _symmetry_equiv_pos_site_id
 _symmetry_equiv_pos_as_xyz
  1  'x, y, z'
loop_
 _atom_site_type_symbol
 _atom_site_label
 _atom_site_symmetry_multiplicity
 _atom_site_fract_x
 _atom_site_fract_y
 _atom_site_fract_z
 _atom_site_occupancy
  F  F0  1  0.52867941  0.54913043  0.35022780  1
  F  F1  1  -0.02867941  -0.54913043  0.85022780  1
  F  F2  1  -0.29913043  1.27867941  0.60022780  1
  F  F3  1  0.79913043  -0.27867941  1.10022780  1
  F  F4  1  -0.02867941  0.54913043  0.14977220  1
  F  F5  1  0.52867941  -0.54913043  -0.35022780  1
  F  F6  1  0.79913043  1.27867941  -0.10022780  1
  F  F7  1  -0.29913043  -0.27867941  0.39977220  1
  F  F8  1  -0.52867941  -0.54913043  -0.35022780  1
  F  F9  1  1.02867941  0.54913043  0.14977220  1
  F  F10  1  1.29913043  -0.27867941  0.39977220  1
  F  F11  1  0.20086957  1.27867941  -0.10022780  1
  F  F12  1  1.02867941  -0.54913043  0.85022780  1
  F  F13  1  -0.52867941  0.54913043  0.35022780  1
  F  F14  1  0.20086957  -0.27867941  1.10022780  1
  F  F15  1  1.29913043  1.27867941  0.60022780  1
  F  F16  1  1.02867941  1.04913043  0.85022780  1
  F  F17  1  0.47132059  -0.04913043  1.35022780  1
  F  F18  1  0.20086957  1.77867941  1.10022780  1
  F  F19  1  1.29913043  0.22132059  1.60022780  1
  F  F20  1  0.47132059  1.04913043  0.64977220  1
  F  F21  1  1.02867941  -0.04913043  0.14977220  1
  F  F22  1  1.29913043  1.77867941  0.39977220  1
  F  F23  1  0.20086957  0.22132059  0.89977220  1
  F  F24  1  -0.02867941  -0.04913043  0.14977220  1
  F  F25  1  1.52867941  1.04913043  0.64977220  1
  F  F26  1  1.79913043  0.22132059  0.89977220  1
  F  F27  1  0.70086957  1.77867941  0.39977220  1
  F  F28  1  1.52867941  -0.04913043  1.35022780  1
  F  F29  1  -0.02867941  1.04913043  0.85022780  1
  F  F30  1  0.70086957  0.22132059  1.60022780  1
  F  F31  1  1.79913043  1.77867941  1.10022780  1
  F  F32  1  0.00000000  0.44375778  0.05112344  1
  F  F33  1  0.50000000  0.55624222  0.55112344  1
  F  F34  1  0.80624222  0.75000000  0.30112344  1
  F  F35  1  0.69375778  0.25000000  0.80112344  1
  F  F36  1  0.50000000  0.44375778  0.44887656  1
  F  F37  1  0.00000000  0.55624222  0.94887656  1
  F  F38  1  0.69375778  0.75000000  0.19887656  1
  F  F39  1  0.80624222  0.25000000  0.69887656  1
  F  F40  1  0.50000000  0.94375778  0.55112344  1
  F  F41  1  0.00000000  0.05624222  0.05112344  1
  F  F42  1  0.30624222  0.25000000  0.80112344  1
  F  F43  1  0.19375778  0.75000000  0.30112344  1
  F  F44  1  0.00000000  0.94375778  0.94887656  1
  F  F45  1  0.50000000  0.05624222  0.44887656  1
  F  F46  1  0.19375778  0.25000000  0.69887656  1
  F  F47  1  0.30624222  0.75000000  0.19887656  1
  Li  Li48  1  0.00000000  0.00000000  0.50000000  1
  Li  Li49  1  0.50000000  0.00000000  0.00000000  1
  Li  Li50  1  0.25000000  0.75000000  0.75000000  1
  Li  Li51  1  0.25000000  0.25000000  0.25000000  1
  Li  Li52  1  0.50000000  0.50000000  0.00000000  1
  Li  Li53  1  0.00000000  0.50000000  0.50000000  1
  Li  Li54  1  0.75000000  0.25000000  0.25000000  1
  Li  Li55  1  0.75000000  0.75000000  0.75000000  1
  Si  Si56  1  0.85670500  -0.00000000  -0.00000000  1
  Si  Si57  1  0.64329500  0.00000000  0.50000000  1
  Si  Si58  1  0.25000000  0.60670500  0.25000000  1
  Si  Si59  1  0.25000000  0.39329500  0.75000000  1
  Si  Si60  1  0.14329500  0.00000000  -0.00000000  1
  Si  Si61  1  0.35670500  0.00000000  0.50000000  1
  Si  Si62  1  0.75000000  0.39329500  0.75000000  1
  Si  Si63  1  0.75000000  0.60670500  0.25000000  1
  Si  Si64  1  0.35670500  0.50000000  0.50000000  1
  Si  Si65  1  0.14329500  0.50000000  -0.00000000  1
  Si  Si66  1  0.75000000  0.10670500  0.75000000  1
  Si  Si67  1  0.75000000  0.89329500  0.25000000  1
  Si  Si68  1  0.64329500  0.50000000  0.50000000  1
  Si  Si69  1  0.85670500  0.50000000  -0.00000000  1
  Si  Si70  1  0.25000000  0.89329500  0.25000000  1
  Si  Si71  1  0.25000000  0.10670500  0.75000000  1
  Te  Te72  1  0.00000000  0.25000000  0.37500000  1
  Te  Te73  1  0.00000000  0.75000000  0.62500000  1
  Te  Te74  1  0.50000000  0.75000000  0.87500000  1
  Te  Te75  1  0.50000000  0.25000000  0.12500000  1
  Te  Te76  1  0.00000000  0.25000000  0.15001313  1
  Te  Te77  1  0.00000000  0.75000000  0.40001313  1
  Te  Te78  1  0.50000000  0.25000000  0.34998687  1
  Te  Te79  1  0.50000000  0.75000000  0.09998687  1
  Te  Te80  1  0.50000000  0.75000000  0.65001313  1
  Te  Te81  1  0.50000000  0.25000000  0.90001313  1
  Te  Te82  1  0.00000000  0.75000000  0.84998687  1
  Te  Te83  1  0.00000000  0.25000000  0.59998687  1
