# generated using pymatgen
data_LiPO3
_symmetry_space_group_name_H-M   'P 1'
_cell_length_a   9.43578781
_cell_length_b   9.43578781
_cell_length_c   19.24439175
_cell_angle_alpha   90.00000000
_cell_angle_beta   90.00000000
_cell_angle_gamma   120.00000000
_symmetry_Int_Tables_number   1
_chemical_formula_structural   LiPO3
_chemical_formula_sum   'Li24 P24 O72'
_cell_volume   1483.85393397
_cell_formula_units_Z   24
loop_
 _symmetry_equiv_pos_site_id
 _symmetry_equiv_pos_as_xyz
  1  'x, y, z'
loop_
 _atom_site_type_symbol
 _atom_site_label
 _atom_site_symmetry_multiplicity
 _atom_site_fract_x
 _atom_site_fract_y
 _atom_site_fract_z
 _atom_site_occupancy
  Li  Li0  1  0.08390619  0.24168679  0.34459581  1
  Li  Li1  1  0.75831321  0.84221940  0.34459581  1
  Li  Li2  1  0.15778060  0.91609381  0.34459581  1
  Li  Li3  1  0.75831321  0.91609381  0.65540419  1
  Li  Li4  1  0.15778060  0.24168679  0.65540419  1
  Li  Li5  1  0.08390619  0.84221940  0.65540419  1
  Li  Li6  1  0.26637220  0.81370528  0.43026974  1
  Li  Li7  1  0.18629472  0.45266693  0.43026974  1
  Li  Li8  1  0.54733307  0.73362780  0.43026974  1
  Li  Li9  1  0.18629472  0.73362780  0.56973026  1
  Li  Li10  1  0.54733307  0.81370528  0.56973026  1
  Li  Li11  1  0.26637220  0.45266693  0.56973026  1
  Li  Li12  1  0.70152060  0.06824472  0.87248383  1
  Li  Li13  1  0.93175528  0.63327588  0.87248383  1
  Li  Li14  1  0.36672412  0.29847940  0.87248383  1
  Li  Li15  1  0.93175528  0.29847940  0.12751617  1
  Li  Li16  1  0.36672412  0.06824472  0.12751617  1
  Li  Li17  1  0.70152060  0.63327588  0.12751617  1
  Li  Li18  1  0.27797644  0.25772936  0.06200859  1
  Li  Li19  1  0.74227064  0.02024708  0.06200859  1
  Li  Li20  1  0.97975292  0.72202356  0.06200859  1
  Li  Li21  1  0.74227064  0.72202356  0.93799141  1
  Li  Li22  1  0.97975292  0.25772936  0.93799141  1
  Li  Li23  1  0.27797644  0.02024708  0.93799141  1
  O  O24  1  0.00000000  0.00000000  0.00000000  1
  O  O25  1  0.33333333  0.66666667  0.50000000  1
  O  O26  1  0.00000000  0.00000000  0.50000000  1
  O  O27  1  0.70984767  0.18410509  0.72128515  1
  O  O28  1  0.81589491  0.52574258  0.72128515  1
  O  O29  1  0.47425742  0.29015233  0.72128515  1
  O  O30  1  0.81589491  0.29015233  0.27871485  1
  O  O31  1  0.47425742  0.18410509  0.27871485  1
  O  O32  1  0.70984767  0.52574258  0.27871485  1
  O  O33  1  0.58301092  0.86177257  0.15828242  1
  O  O34  1  0.13822743  0.72123835  0.15828242  1
  O  O35  1  0.27876165  0.41698908  0.15828242  1
  O  O36  1  0.13822743  0.41698908  0.84171758  1
  O  O37  1  0.27876165  0.86177257  0.84171758  1
  O  O38  1  0.58301092  0.72123835  0.84171758  1
  O  O39  1  0.66666667  0.33333333  0.24053643  1
  O  O40  1  0.66666667  0.33333333  0.75946357  1
  O  O41  1  0.82171124  0.69268397  0.61736848  1
  O  O42  1  0.30731603  0.12902727  0.61736848  1
  O  O43  1  0.87097273  0.17828876  0.61736848  1
  O  O44  1  0.30731603  0.17828876  0.38263152  1
  O  O45  1  0.87097273  0.69268397  0.38263152  1
  O  O46  1  0.82171124  0.12902727  0.38263152  1
  O  O47  1  0.45238522  0.31729933  0.37535427  1
  O  O48  1  0.68270067  0.13508589  0.37535427  1
  O  O49  1  0.86491411  0.54761478  0.37535427  1
  O  O50  1  0.68270067  0.54761478  0.62464573  1
  O  O51  1  0.86491411  0.31729933  0.62464573  1
  O  O52  1  0.45238522  0.13508589  0.62464573  1
  O  O53  1  0.45484521  0.15125429  0.56217829  1
  O  O54  1  0.84874571  0.30359092  0.56217829  1
  O  O55  1  0.69640908  0.54515479  0.56217829  1
  O  O56  1  0.84874571  0.54515479  0.43782171  1
  O  O57  1  0.69640908  0.15125429  0.43782171  1
  O  O58  1  0.45484521  0.30359092  0.43782171  1
  O  O59  1  0.33333333  0.66666667  0.00000000  1
  O  O60  1  0.45763154  0.30544190  0.25216353  1
  O  O61  1  0.69455810  0.15218964  0.25216353  1
  O  O62  1  0.84781036  0.54236846  0.25216353  1
  O  O63  1  0.69455810  0.54236846  0.74783647  1
  O  O64  1  0.84781036  0.30544190  0.74783647  1
  O  O65  1  0.45763154  0.15218964  0.74783647  1
  O  O66  1  0.11400904  0.14491425  0.49558408  1
  O  O67  1  0.85508575  0.96909479  0.49558408  1
  O  O68  1  0.03090521  0.88599096  0.49558408  1
  O  O69  1  0.85508575  0.88599096  0.50441592  1
  O  O70  1  0.03090521  0.14491425  0.50441592  1
  O  O71  1  0.11400904  0.96909479  0.50441592  1
  O  O72  1  0.66666667  0.33333333  0.50000000  1
  O  O73  1  0.00000000  0.00000000  0.13304921  1
  O  O74  1  0.00000000  0.00000000  0.86695079  1
  O  O75  1  0.68744841  0.69632141  0.38178781  1
  O  O76  1  0.30367859  0.99112700  0.38178781  1
  O  O77  1  0.00887300  0.31255159  0.38178781  1
  O  O78  1  0.30367859  0.31255159  0.61821219  1
  O  O79  1  0.00887300  0.69632141  0.61821219  1
  O  O80  1  0.68744841  0.99112700  0.61821219  1
  O  O81  1  0.20431882  0.08011464  0.44404252  1
  O  O82  1  0.91988536  0.12420418  0.44404252  1
  O  O83  1  0.87579582  0.79568118  0.44404252  1
  O  O84  1  0.91988536  0.79568118  0.55595748  1
  O  O85  1  0.87579582  0.08011464  0.55595748  1
  O  O86  1  0.20431882  0.12420418  0.55595748  1
  O  O87  1  0.33333333  0.66666667  0.29223880  1
  O  O88  1  0.33333333  0.66666667  0.70776120  1
  O  O89  1  0.76945559  0.21131164  0.88908621  1
  O  O90  1  0.78868836  0.55814395  0.88908621  1
  O  O91  1  0.44185605  0.23054441  0.88908621  1
  O  O92  1  0.78868836  0.23054441  0.11091379  1
  O  O93  1  0.44185605  0.21131164  0.11091379  1
  O  O94  1  0.76945559  0.55814395  0.11091379  1
  O  O95  1  0.66666667  0.33333333  0.00000000  1
  P  P96  1  0.23321162  0.88973411  0.15880977  1
  P  P97  1  -0.88973411  -0.65652249  0.15880977  1
  P  P98  1  0.65652249  -0.23321162  0.15880977  1
  P  P99  1  -0.88973411  -0.23321162  -0.15880977  1
  P  P100  1  0.65652249  0.88973411  -0.15880977  1
  P  P101  1  0.23321162  -0.65652249  -0.15880977  1
  P  P102  1  0.54580119  0.86772402  0.95920994  1
  P  P103  1  0.13227598  0.67807717  0.95920994  1
  P  P104  1  0.32192283  0.45419881  0.95920994  1
  P  P105  1  0.13227598  0.45419881  0.04079006  1
  P  P106  1  0.32192283  0.86772402  0.04079006  1
  P  P107  1  0.54580119  0.67807717  0.04079006  1
  P  P108  1  0.57733495  0.42266505  0.50000000  1
  P  P109  1  0.57733495  0.15466989  0.50000000  1
  P  P110  1  0.84533011  0.42266505  0.50000000  1
  P  P111  1  0.26002351  0.18452984  0.79971686  1
  P  P112  1  0.81547016  0.07549367  0.79971686  1
  P  P113  1  0.92450633  0.73997649  0.79971686  1
  P  P114  1  0.81547016  0.73997649  0.20028314  1
  P  P115  1  0.92450633  0.18452984  0.20028314  1
  P  P116  1  0.26002351  0.07549367  0.20028314  1
  P  P117  1  0.24312568  0.75687432  0.50000000  1
  P  P118  1  0.24312568  0.48625136  0.50000000  1
  P  P119  1  0.51374864  0.75687432  0.50000000  1
