# generated using pymatgen
data_Li2Y2Te4MoP3
_symmetry_space_group_name_H-M   'P 1'
_cell_length_a   4.93819929
_cell_length_b   5.24352793
_cell_length_c   7.04537555
_cell_angle_alpha   95.09107541
_cell_angle_beta   101.08730382
_cell_angle_gamma   110.44882650
_symmetry_Int_Tables_number   1
_chemical_formula_structural   Li2Y2Te4MoP3
_chemical_formula_sum   'Li2 Y2 Te4 Mo1 P3'
_cell_volume   165.31428076
_cell_formula_units_Z   1
loop_
 _symmetry_equiv_pos_site_id
 _symmetry_equiv_pos_as_xyz
  1  'x, y, z'
loop_
 _atom_site_type_symbol
 _atom_site_label
 _atom_site_symmetry_multiplicity
 _atom_site_fract_x
 _atom_site_fract_y
 _atom_site_fract_z
 _atom_site_occupancy
  Te  Te0  1  0.12500000  0.00000000  0.25000000  1
  Te  Te1  1  0.00000000  0.00000000  0.00000000  1
  Te  Te2  1  0.37500000  0.00000000  0.25000000  1
  Te  Te3  1  0.25000000  0.25000000  0.25000000  1
  P  P4  1  0.00000000  0.25000000  0.12500000  1
  P  P5  1  0.82913625  0.76560155  0.94369811  1
  P  P6  1  0.64619956  0.88658672  0.74613573  1
  Mo  Mo7  1  0.89667981  0.13144539  0.98896756  1
  Li  Li8  1  0.94529391  0.47977442  0.35604528  1
  Li  Li9  1  0.77637987  0.61504706  0.01376726  1
  Y  Y10  1  0.91031692  0.80384122  0.41362630  1
  Y  Y11  1  0.46234253  0.38964776  0.99951982  1
