# generated using pymatgen
data_LiSb2Te4PSe
_symmetry_space_group_name_H-M   'P 1'
_cell_length_a   4.17335817
_cell_length_b   4.45155591
_cell_length_c   6.11657144
_cell_angle_alpha   95.48265156
_cell_angle_beta   99.54927037
_cell_angle_gamma   108.24259480
_symmetry_Int_Tables_number   1
_chemical_formula_structural   LiSb2Te4PSe
_chemical_formula_sum   'Li1 Sb2 Te4 P1 Se1'
_cell_volume   105.09890081
_cell_formula_units_Z   1
loop_
 _symmetry_equiv_pos_site_id
 _symmetry_equiv_pos_as_xyz
  1  'x, y, z'
loop_
 _atom_site_type_symbol
 _atom_site_label
 _atom_site_symmetry_multiplicity
 _atom_site_fract_x
 _atom_site_fract_y
 _atom_site_fract_z
 _atom_site_occupancy
  Se  Se0  1  0.00000000  0.00000000  0.00000000  1
  Te  Te1  1  0.50000000  0.50000000  0.50000000  1
  Te  Te2  1  0.50000000  0.50000000  0.00000000  1
  Te  Te3  1  0.50000000  0.00000000  0.50000000  1
  Te  Te4  1  0.00000000  0.50000000  0.50000000  1
  P  P5  1  0.25874889  0.61717099  0.67912398  1
  Li  Li6  1  0.17485566  0.26450758  0.72095965  1
  Sb  Sb7  1  0.68776522  0.43636434  0.76324316  1
  Sb  Sb8  1  0.34237961  0.26361721  0.72793687  1
