# generated using pymatgen
data_Li2Y2As2P4Se
_symmetry_space_group_name_H-M   'P 1'
_cell_length_a   5.34358911
_cell_length_b   5.60417161
_cell_length_c   7.35808770
_cell_angle_alpha   94.12745729
_cell_angle_beta   98.98874389
_cell_angle_gamma   106.57835550
_symmetry_Int_Tables_number   1
_chemical_formula_structural   Li2Y2As2P4Se
_chemical_formula_sum   'Li2 Y2 As2 P4 Se1'
_cell_volume   207.00770297
_cell_formula_units_Z   1
loop_
 _symmetry_equiv_pos_site_id
 _symmetry_equiv_pos_as_xyz
  1  'x, y, z'
loop_
 _atom_site_type_symbol
 _atom_site_label
 _atom_site_symmetry_multiplicity
 _atom_site_fract_x
 _atom_site_fract_y
 _atom_site_fract_z
 _atom_site_occupancy
  Se  Se0  1  0.00000000  0.00000000  0.00000000  1
  Y  Y1  1  0.50000000  0.50000000  0.50000000  1
  Y  Y2  1  0.25000000  0.25000000  0.25000000  1
  P  P3  1  0.75000000  0.25000000  0.00000000  1
  P  P4  1  0.25000000  0.75000000  0.50000000  1
  P  P5  1  0.16419538  0.26114732  0.46636400  1
  P  P6  1  0.50788058  0.61064227  0.02086828  1
  As  As7  1  0.44154120  0.85790100  0.70775970  1
  As  As8  1  0.56005447  0.48765176  0.09060082  1
  Li  Li9  1  0.36032679  0.98397713  0.97718798  1
  Li  Li10  1  0.39356209  0.08582670  0.35007841  1
