# generated using pymatgen
data_LiF
_symmetry_space_group_name_H-M   'P 1'
_cell_length_a   8.88806194
_cell_length_b   8.88806194
_cell_length_c   6.19896065
_cell_angle_alpha   90.00000000
_cell_angle_beta   90.00000000
_cell_angle_gamma   120.00000000
_symmetry_Int_Tables_number   1
_chemical_formula_structural   LiF
_chemical_formula_sum   'Li19 F19'
_cell_volume   424.09549224
_cell_formula_units_Z   19
loop_
 _symmetry_equiv_pos_site_id
 _symmetry_equiv_pos_as_xyz
  1  'x, y, z'
loop_
 _atom_site_type_symbol
 _atom_site_label
 _atom_site_symmetry_multiplicity
 _atom_site_fract_x
 _atom_site_fract_y
 _atom_site_fract_z
 _atom_site_occupancy
  F  F0  1  0.72346544  0.27653456  0.50000000  1
  F  F1  1  0.72346544  0.44693087  0.50000000  1
  F  F2  1  0.55306913  0.27653456  0.50000000  1
  F  F3  1  0.00000000  0.00000000  0.00000000  1
  F  F4  1  0.05644240  0.94355760  0.00000000  1
  F  F5  1  0.05644240  0.11288480  0.00000000  1
  F  F6  1  0.88711520  0.94355760  0.00000000  1
  F  F7  1  0.76472393  0.23527607  0.50000000  1
  F  F8  1  0.76472393  0.52944786  0.50000000  1
  F  F9  1  0.47055214  0.23527607  0.50000000  1
  F  F10  1  0.41498084  0.27900632  0.31202841  1
  F  F11  1  0.72099368  0.13597452  0.31202841  1
  F  F12  1  0.86402548  0.58501916  0.31202841  1
  F  F13  1  0.72099368  0.58501916  0.68797159  1
  F  F14  1  0.86402548  0.27900632  0.68797159  1
  F  F15  1  0.41498084  0.13597452  0.68797159  1
  F  F16  1  0.81922973  0.18077027  0.50000000  1
  F  F17  1  0.81922973  0.63845947  0.50000000  1
  F  F18  1  0.36154053  0.18077027  0.50000000  1
  Li  Li19  1  0.05512295  0.43112935  0.16680621  1
  Li  Li20  1  -0.43112935  -0.37600640  0.16680621  1
  Li  Li21  1  0.37600640  -0.05512295  0.16680621  1
  Li  Li22  1  -0.43112935  -0.05512295  -0.16680621  1
  Li  Li23  1  0.37600640  0.43112935  -0.16680621  1
  Li  Li24  1  0.05512295  -0.37600640  -0.16680621  1
  Li  Li25  1  0.33333333  0.66666667  0.00000000  1
  Li  Li26  1  0.83616216  0.12559167  0.09991044  1
  Li  Li27  1  0.87440833  0.71057049  0.09991044  1
  Li  Li28  1  0.28942951  0.16383784  0.09991044  1
  Li  Li29  1  0.87440833  0.16383784  0.90008956  1
  Li  Li30  1  0.28942951  0.12559167  0.90008956  1
  Li  Li31  1  0.83616216  0.71057049  0.90008956  1
  Li  Li32  1  0.00000000  0.00000000  0.50000000  1
  Li  Li33  1  0.18062841  0.81937159  0.50000000  1
  Li  Li34  1  0.18062841  0.36125682  0.50000000  1
  Li  Li35  1  0.63874318  0.81937159  0.50000000  1
  Li  Li36  1  0.66666667  0.33333333  0.00000000  1
  Li  Li37  1  0.33333333  0.66666667  0.50000000  1
