# generated using pymatgen
data_LiF
_symmetry_space_group_name_H-M   'P 1'
_cell_length_a   8.47700741
_cell_length_b   13.90782525
_cell_length_c   4.82492121
_cell_angle_alpha   90.00000000
_cell_angle_beta   90.00000000
_cell_angle_gamma   90.00000000
_symmetry_Int_Tables_number   1
_chemical_formula_structural   LiF
_chemical_formula_sum   'Li30 F30'
_cell_volume   568.84246991
_cell_formula_units_Z   30
loop_
 _symmetry_equiv_pos_site_id
 _symmetry_equiv_pos_as_xyz
  1  'x, y, z'
loop_
 _atom_site_type_symbol
 _atom_site_label
 _atom_site_symmetry_multiplicity
 _atom_site_fract_x
 _atom_site_fract_y
 _atom_site_fract_z
 _atom_site_occupancy
  F  F0  1  0.61746051  0.22045597  0.25474445  1
  F  F1  1  -0.61746051  -0.22045597  0.25474445  1
  F  F2  1  -0.11746051  0.72045597  -0.25474445  1
  F  F3  1  1.11746051  0.27954403  -0.25474445  1
  F  F4  1  -0.61746051  -0.22045597  -0.25474445  1
  F  F5  1  0.61746051  0.22045597  -0.25474445  1
  F  F6  1  1.11746051  0.27954403  0.25474445  1
  F  F7  1  -0.11746051  0.72045597  0.25474445  1
  F  F8  1  0.00000000  0.00000000  0.00000000  1
  F  F9  1  0.50000000  0.50000000  0.00000000  1
  F  F10  1  0.38352198  0.84146639  0.61951195  1
  F  F11  1  0.61647802  0.15853361  0.61951195  1
  F  F12  1  0.11647802  0.34146639  0.38048805  1
  F  F13  1  0.88352198  0.65853361  0.38048805  1
  F  F14  1  0.61647802  0.15853361  0.38048805  1
  F  F15  1  0.38352198  0.84146639  0.38048805  1
  F  F16  1  0.88352198  0.65853361  0.61951195  1
  F  F17  1  0.11647802  0.34146639  0.61951195  1
  F  F18  1  0.43093021  0.29559107  0.65189844  1
  F  F19  1  0.56906979  0.70440893  0.65189844  1
  F  F20  1  0.06906979  0.79559107  0.34810156  1
  F  F21  1  0.93093021  0.20440893  0.34810156  1
  F  F22  1  0.56906979  0.70440893  0.34810156  1
  F  F23  1  0.43093021  0.29559107  0.34810156  1
  F  F24  1  0.93093021  0.20440893  0.65189844  1
  F  F25  1  0.06906979  0.79559107  0.65189844  1
  F  F26  1  0.56814428  0.02793718  0.50000000  1
  F  F27  1  0.43185572  0.97206282  0.50000000  1
  F  F28  1  0.93185572  0.52793718  0.50000000  1
  F  F29  1  0.06814428  0.47206282  0.50000000  1
  Li  Li30  1  0.34065772  0.24237682  0.50000000  1
  Li  Li31  1  0.65934228  0.75762318  0.50000000  1
  Li  Li32  1  0.15934228  0.74237682  0.50000000  1
  Li  Li33  1  0.84065772  0.25762318  0.50000000  1
  Li  Li34  1  0.73377362  0.22665644  0.00000000  1
  Li  Li35  1  0.26622638  0.77334356  0.00000000  1
  Li  Li36  1  0.76622638  0.72665644  0.00000000  1
  Li  Li37  1  0.23377362  0.27334356  0.00000000  1
  Li  Li38  1  0.36586961  0.54926935  0.77045970  1
  Li  Li39  1  0.63413039  0.45073065  0.77045970  1
  Li  Li40  1  0.13413039  0.04926935  0.22954030  1
  Li  Li41  1  0.86586961  0.95073065  0.22954030  1
  Li  Li42  1  0.63413039  0.45073065  0.22954030  1
  Li  Li43  1  0.36586961  0.54926935  0.22954030  1
  Li  Li44  1  0.86586961  0.95073065  0.77045970  1
  Li  Li45  1  0.13413039  0.04926935  0.77045970  1
  Li  Li46  1  0.00000000  0.00000000  0.50000000  1
  Li  Li47  1  0.50000000  0.50000000  0.50000000  1
  Li  Li48  1  0.56029583  0.33443226  0.70192026  1
  Li  Li49  1  0.43970417  0.66556774  0.70192026  1
  Li  Li50  1  0.93970417  0.83443226  0.29807974  1
  Li  Li51  1  0.06029583  0.16556774  0.29807974  1
  Li  Li52  1  0.43970417  0.66556774  0.29807974  1
  Li  Li53  1  0.56029583  0.33443226  0.29807974  1
  Li  Li54  1  0.06029583  0.16556774  0.70192026  1
  Li  Li55  1  0.93970417  0.83443226  0.70192026  1
  Li  Li56  1  0.53890154  0.87504158  -0.00000000  1
  Li  Li57  1  0.46109846  0.12495842  0.00000000  1
  Li  Li58  1  0.96109846  0.37504158  0.00000000  1
  Li  Li59  1  0.03890154  0.62495842  0.00000000  1
