# generated using pymatgen
data_Li2Hf4(Se2S)3
_symmetry_space_group_name_H-M   'P 1'
_cell_length_a   19.15496102
_cell_length_b   19.15496102
_cell_length_c   26.13210762
_cell_angle_alpha   90.00000000
_cell_angle_beta   90.00000000
_cell_angle_gamma   90.00000000
_symmetry_Int_Tables_number   1
_chemical_formula_structural   Li2Hf4(Se2S)3
_chemical_formula_sum   'Li48 Hf96 Se144 S72'
_cell_volume   9588.19776925
_cell_formula_units_Z   24
loop_
 _symmetry_equiv_pos_site_id
 _symmetry_equiv_pos_as_xyz
  1  'x, y, z'
loop_
 _atom_site_type_symbol
 _atom_site_label
 _atom_site_symmetry_multiplicity
 _atom_site_fract_x
 _atom_site_fract_y
 _atom_site_fract_z
 _atom_site_occupancy
  Hf  Hf0  1  0.64385815  0.14464912  0.94368834  1
  Hf  Hf1  1  -0.64385815  -0.14464912  0.94368834  1
  Hf  Hf2  1  -0.14464912  0.64385815  0.94368834  1
  Hf  Hf3  1  0.14464912  -0.64385815  0.94368834  1
  Hf  Hf4  1  -0.64385815  0.14464912  -0.94368834  1
  Hf  Hf5  1  0.64385815  -0.14464912  -0.94368834  1
  Hf  Hf6  1  0.14464912  0.64385815  -0.94368834  1
  Hf  Hf7  1  -0.14464912  -0.64385815  -0.94368834  1
  Hf  Hf8  1  -0.64385815  -0.14464912  -0.94368834  1
  Hf  Hf9  1  0.64385815  0.14464912  -0.94368834  1
  Hf  Hf10  1  0.14464912  -0.64385815  -0.94368834  1
  Hf  Hf11  1  -0.14464912  0.64385815  -0.94368834  1
  Hf  Hf12  1  0.64385815  -0.14464912  0.94368834  1
  Hf  Hf13  1  -0.64385815  0.14464912  0.94368834  1
  Hf  Hf14  1  -0.14464912  -0.64385815  0.94368834  1
  Hf  Hf15  1  0.14464912  0.64385815  0.94368834  1
  Hf  Hf16  1  0.17667534  0.50000000  0.80714974  1
  Hf  Hf17  1  0.82332466  0.50000000  0.80714974  1
  Hf  Hf18  1  0.50000000  0.17667534  0.80714974  1
  Hf  Hf19  1  0.50000000  0.82332466  0.80714974  1
  Hf  Hf20  1  0.82332466  0.50000000  0.19285026  1
  Hf  Hf21  1  0.17667534  0.50000000  0.19285026  1
  Hf  Hf22  1  0.50000000  0.17667534  0.19285026  1
  Hf  Hf23  1  0.50000000  0.82332466  0.19285026  1
  Hf  Hf24  1  0.11291177  0.54601035  0.86322113  1
  Hf  Hf25  1  0.88708823  0.45398965  0.86322113  1
  Hf  Hf26  1  0.45398965  0.11291177  0.86322113  1
  Hf  Hf27  1  0.54601035  0.88708823  0.86322113  1
  Hf  Hf28  1  0.88708823  0.54601035  0.13677887  1
  Hf  Hf29  1  0.11291177  0.45398965  0.13677887  1
  Hf  Hf30  1  0.54601035  0.11291177  0.13677887  1
  Hf  Hf31  1  0.45398965  0.88708823  0.13677887  1
  Hf  Hf32  1  0.88708823  0.45398965  0.13677887  1
  Hf  Hf33  1  0.11291177  0.54601035  0.13677887  1
  Hf  Hf34  1  0.54601035  0.88708823  0.13677887  1
  Hf  Hf35  1  0.45398965  0.11291177  0.13677887  1
  Hf  Hf36  1  0.11291177  0.45398965  0.86322113  1
  Hf  Hf37  1  0.88708823  0.54601035  0.86322113  1
  Hf  Hf38  1  0.45398965  0.88708823  0.86322113  1
  Hf  Hf39  1  0.54601035  0.11291177  0.86322113  1
  Hf  Hf40  1  0.88330565  0.50000000  0.00000000  1
  Hf  Hf41  1  0.11669435  0.50000000  -0.00000000  1
  Hf  Hf42  1  0.50000000  0.88330565  0.00000000  1
  Hf  Hf43  1  0.50000000  0.11669435  -0.00000000  1
  Hf  Hf44  1  0.74869150  0.74869150  0.00000000  1
  Hf  Hf45  1  0.25130850  0.25130850  0.00000000  1
  Hf  Hf46  1  0.25130850  0.74869150  0.00000000  1
  Hf  Hf47  1  0.74869150  0.25130850  0.00000000  1
  Hf  Hf48  1  0.32177195  0.94945987  0.36886531  1
  Hf  Hf49  1  0.67822805  0.05054013  0.36886531  1
  Hf  Hf50  1  0.05054013  0.32177195  0.36886531  1
  Hf  Hf51  1  0.94945987  0.67822805  0.36886531  1
  Hf  Hf52  1  0.67822805  0.94945987  0.63113469  1
  Hf  Hf53  1  0.32177195  0.05054013  0.63113469  1
  Hf  Hf54  1  0.94945987  0.32177195  0.63113469  1
  Hf  Hf55  1  0.05054013  0.67822805  0.63113469  1
  Hf  Hf56  1  0.67822805  0.05054013  0.63113469  1
  Hf  Hf57  1  0.32177195  0.94945987  0.63113469  1
  Hf  Hf58  1  0.94945987  0.67822805  0.63113469  1
  Hf  Hf59  1  0.05054013  0.32177195  0.63113469  1
  Hf  Hf60  1  0.32177195  0.05054013  0.36886531  1
  Hf  Hf61  1  0.67822805  0.94945987  0.36886531  1
  Hf  Hf62  1  0.05054013  0.67822805  0.36886531  1
  Hf  Hf63  1  0.94945987  0.32177195  0.36886531  1
  Hf  Hf64  1  0.20779769  0.29057961  0.77131471  1
  Hf  Hf65  1  0.79220231  0.70942039  0.77131471  1
  Hf  Hf66  1  0.70942039  0.20779769  0.77131471  1
  Hf  Hf67  1  0.29057961  0.79220231  0.77131471  1
  Hf  Hf68  1  0.79220231  0.29057961  0.22868529  1
  Hf  Hf69  1  0.20779769  0.70942039  0.22868529  1
  Hf  Hf70  1  0.29057961  0.20779769  0.22868529  1
  Hf  Hf71  1  0.70942039  0.79220231  0.22868529  1
  Hf  Hf72  1  0.79220231  0.70942039  0.22868529  1
  Hf  Hf73  1  0.20779769  0.29057961  0.22868529  1
  Hf  Hf74  1  0.29057961  0.79220231  0.22868529  1
  Hf  Hf75  1  0.70942039  0.20779769  0.22868529  1
  Hf  Hf76  1  0.20779769  0.70942039  0.77131471  1
  Hf  Hf77  1  0.79220231  0.29057961  0.77131471  1
  Hf  Hf78  1  0.70942039  0.79220231  0.77131471  1
  Hf  Hf79  1  0.29057961  0.20779769  0.77131471  1
  Hf  Hf80  1  0.00000000  0.00000000  0.00000000  1
  Hf  Hf81  1  0.34175587  0.00000000  0.85283508  1
  Hf  Hf82  1  0.65824413  0.00000000  0.85283508  1
  Hf  Hf83  1  0.00000000  0.34175587  0.85283508  1
  Hf  Hf84  1  0.00000000  0.65824413  0.85283508  1
  Hf  Hf85  1  0.65824413  0.00000000  0.14716492  1
  Hf  Hf86  1  0.34175587  0.00000000  0.14716492  1
  Hf  Hf87  1  0.00000000  0.34175587  0.14716492  1
  Hf  Hf88  1  0.00000000  0.65824413  0.14716492  1
  Hf  Hf89  1  0.75202429  0.00000000  0.50000000  1
  Hf  Hf90  1  0.24797571  0.00000000  0.50000000  1
  Hf  Hf91  1  0.00000000  0.75202429  0.50000000  1
  Hf  Hf92  1  0.00000000  0.24797571  0.50000000  1
  Hf  Hf93  1  0.00000000  0.50000000  0.00000000  1
  Hf  Hf94  1  0.50000000  0.00000000  0.00000000  1
  Hf  Hf95  1  0.00000000  0.00000000  0.50000000  1
  Li  Li96  1  0.43244991  0.43244991  0.00000000  1
  Li  Li97  1  0.56755009  0.56755009  0.00000000  1
  Li  Li98  1  0.56755009  0.43244991  0.00000000  1
  Li  Li99  1  0.43244991  0.56755009  0.00000000  1
  Li  Li100  1  0.58789946  0.00000000  0.77303371  1
  Li  Li101  1  0.41210054  0.00000000  0.77303371  1
  Li  Li102  1  0.00000000  0.58789946  0.77303371  1
  Li  Li103  1  0.00000000  0.41210054  0.77303371  1
  Li  Li104  1  0.41210054  0.00000000  0.22696629  1
  Li  Li105  1  0.58789946  0.00000000  0.22696629  1
  Li  Li106  1  0.00000000  0.58789946  0.22696629  1
  Li  Li107  1  0.00000000  0.41210054  0.22696629  1
  Li  Li108  1  0.50000000  0.50000000  0.35082061  1
  Li  Li109  1  0.50000000  0.50000000  0.64917939  1
  Li  Li110  1  0.76322469  0.00000000  0.41048709  1
  Li  Li111  1  0.23677531  0.00000000  0.41048709  1
  Li  Li112  1  0.00000000  0.76322469  0.41048709  1
  Li  Li113  1  0.00000000  0.23677531  0.41048709  1
  Li  Li114  1  0.23677531  0.00000000  0.58951291  1
  Li  Li115  1  0.76322469  0.00000000  0.58951291  1
  Li  Li116  1  0.00000000  0.76322469  0.58951291  1
  Li  Li117  1  0.00000000  0.23677531  0.58951291  1
  Li  Li118  1  0.62083609  0.68411496  0.82751872  1
  Li  Li119  1  0.37916391  0.31588504  0.82751872  1
  Li  Li120  1  0.31588504  0.62083609  0.82751872  1
  Li  Li121  1  0.68411496  0.37916391  0.82751872  1
  Li  Li122  1  0.37916391  0.68411496  0.17248128  1
  Li  Li123  1  0.62083609  0.31588504  0.17248128  1
  Li  Li124  1  0.68411496  0.62083609  0.17248128  1
  Li  Li125  1  0.31588504  0.37916391  0.17248128  1
  Li  Li126  1  0.37916391  0.31588504  0.17248128  1
  Li  Li127  1  0.62083609  0.68411496  0.17248128  1
  Li  Li128  1  0.68411496  0.37916391  0.17248128  1
  Li  Li129  1  0.31588504  0.62083609  0.17248128  1
  Li  Li130  1  0.62083609  0.31588504  0.82751872  1
  Li  Li131  1  0.37916391  0.68411496  0.82751872  1
  Li  Li132  1  0.31588504  0.37916391  0.82751872  1
  Li  Li133  1  0.68411496  0.62083609  0.82751872  1
  Li  Li134  1  0.19324639  0.19324639  0.09217808  1
  Li  Li135  1  0.80675361  0.80675361  0.09217808  1
  Li  Li136  1  0.80675361  0.19324639  0.09217808  1
  Li  Li137  1  0.19324639  0.80675361  0.09217808  1
  Li  Li138  1  0.80675361  0.19324639  0.90782192  1
  Li  Li139  1  0.19324639  0.80675361  0.90782192  1
  Li  Li140  1  0.19324639  0.19324639  0.90782192  1
  Li  Li141  1  0.80675361  0.80675361  0.90782192  1
  Li  Li142  1  0.50000000  0.50000000  0.40578029  1
  Li  Li143  1  0.50000000  0.50000000  0.59421971  1
  S  S144  1  0.93546610  0.57495694  0.46516772  1
  S  S145  1  0.06453390  0.42504306  0.46516772  1
  S  S146  1  0.42504306  0.93546610  0.46516772  1
  S  S147  1  0.57495694  0.06453390  0.46516772  1
  S  S148  1  0.06453390  0.57495694  0.53483228  1
  S  S149  1  0.93546610  0.42504306  0.53483228  1
  S  S150  1  0.57495694  0.93546610  0.53483228  1
  S  S151  1  0.42504306  0.06453390  0.53483228  1
  S  S152  1  0.06453390  0.42504306  0.53483228  1
  S  S153  1  0.93546610  0.57495694  0.53483228  1
  S  S154  1  0.57495694  0.06453390  0.53483228  1
  S  S155  1  0.42504306  0.93546610  0.53483228  1
  S  S156  1  0.93546610  0.42504306  0.46516772  1
  S  S157  1  0.06453390  0.57495694  0.46516772  1
  S  S158  1  0.42504306  0.06453390  0.46516772  1
  S  S159  1  0.57495694  0.93546610  0.46516772  1
  S  S160  1  0.75697333  0.50000000  0.75382422  1
  S  S161  1  0.24302667  0.50000000  0.75382422  1
  S  S162  1  0.50000000  0.75697333  0.75382422  1
  S  S163  1  0.50000000  0.24302667  0.75382422  1
  S  S164  1  0.24302667  0.50000000  0.24617578  1
  S  S165  1  0.75697333  0.50000000  0.24617578  1
  S  S166  1  0.50000000  0.75697333  0.24617578  1
  S  S167  1  0.50000000  0.24302667  0.24617578  1
  S  S168  1  0.41673100  0.66129633  0.04752281  1
  S  S169  1  0.58326900  0.33870367  0.04752281  1
  S  S170  1  0.33870367  0.41673100  0.04752281  1
  S  S171  1  0.66129633  0.58326900  0.04752281  1
  S  S172  1  0.58326900  0.66129633  0.95247719  1
  S  S173  1  0.41673100  0.33870367  0.95247719  1
  S  S174  1  0.66129633  0.41673100  0.95247719  1
  S  S175  1  0.33870367  0.58326900  0.95247719  1
  S  S176  1  0.58326900  0.33870367  0.95247719  1
  S  S177  1  0.41673100  0.66129633  0.95247719  1
  S  S178  1  0.66129633  0.58326900  0.95247719  1
  S  S179  1  0.33870367  0.41673100  0.95247719  1
  S  S180  1  0.41673100  0.33870367  0.04752281  1
  S  S181  1  0.58326900  0.66129633  0.04752281  1
  S  S182  1  0.33870367  0.58326900  0.04752281  1
  S  S183  1  0.66129633  0.41673100  0.04752281  1
  S  S184  1  0.07626012  0.07626012  0.92975716  1
  S  S185  1  0.92373988  0.92373988  0.92975716  1
  S  S186  1  0.92373988  0.07626012  0.92975716  1
  S  S187  1  0.07626012  0.92373988  0.92975716  1
  S  S188  1  0.92373988  0.07626012  0.07024284  1
  S  S189  1  0.07626012  0.92373988  0.07024284  1
  S  S190  1  0.07626012  0.07626012  0.07024284  1
  S  S191  1  0.92373988  0.92373988  0.07024284  1
  S  S192  1  0.44394791  0.35373173  0.23925450  1
  S  S193  1  0.55605209  0.64626827  0.23925450  1
  S  S194  1  0.64626827  0.44394791  0.23925450  1
  S  S195  1  0.35373173  0.55605209  0.23925450  1
  S  S196  1  0.55605209  0.35373173  0.76074550  1
  S  S197  1  0.44394791  0.64626827  0.76074550  1
  S  S198  1  0.35373173  0.44394791  0.76074550  1
  S  S199  1  0.64626827  0.55605209  0.76074550  1
  S  S200  1  0.55605209  0.64626827  0.76074550  1
  S  S201  1  0.44394791  0.35373173  0.76074550  1
  S  S202  1  0.35373173  0.55605209  0.76074550  1
  S  S203  1  0.64626827  0.44394791  0.76074550  1
  S  S204  1  0.44394791  0.64626827  0.23925450  1
  S  S205  1  0.55605209  0.35373173  0.23925450  1
  S  S206  1  0.64626827  0.55605209  0.23925450  1
  S  S207  1  0.35373173  0.44394791  0.23925450  1
  S  S208  1  0.87635469  0.87635469  0.44261615  1
  S  S209  1  0.12364531  0.12364531  0.44261615  1
  S  S210  1  0.12364531  0.87635469  0.44261615  1
  S  S211  1  0.87635469  0.12364531  0.44261615  1
  S  S212  1  0.12364531  0.87635469  0.55738385  1
  S  S213  1  0.87635469  0.12364531  0.55738385  1
  S  S214  1  0.87635469  0.87635469  0.55738385  1
  S  S215  1  0.12364531  0.12364531  0.55738385  1
  Se  Se216  1  0.55029862  0.50000000  0.50000000  1
  Se  Se217  1  0.44970138  0.50000000  0.50000000  1
  Se  Se218  1  0.50000000  0.55029862  0.50000000  1
  Se  Se219  1  0.50000000  0.44970138  0.50000000  1
  Se  Se220  1  0.57189525  0.00000000  0.36794727  1
  Se  Se221  1  0.42810475  0.00000000  0.36794727  1
  Se  Se222  1  0.00000000  0.57189525  0.36794727  1
  Se  Se223  1  0.00000000  0.42810475  0.36794727  1
  Se  Se224  1  0.42810475  0.00000000  0.63205273  1
  Se  Se225  1  0.57189525  0.00000000  0.63205273  1
  Se  Se226  1  0.00000000  0.57189525  0.63205273  1
  Se  Se227  1  0.00000000  0.42810475  0.63205273  1
  Se  Se228  1  0.62607234  0.62607234  0.74521176  1
  Se  Se229  1  0.37392766  0.37392766  0.74521176  1
  Se  Se230  1  0.37392766  0.62607234  0.74521176  1
  Se  Se231  1  0.62607234  0.37392766  0.74521176  1
  Se  Se232  1  0.37392766  0.62607234  0.25478824  1
  Se  Se233  1  0.62607234  0.37392766  0.25478824  1
  Se  Se234  1  0.62607234  0.62607234  0.25478824  1
  Se  Se235  1  0.37392766  0.37392766  0.25478824  1
  Se  Se236  1  0.66682895  0.50000000  0.78584092  1
  Se  Se237  1  0.33317105  0.50000000  0.78584092  1
  Se  Se238  1  0.50000000  0.66682895  0.78584092  1
  Se  Se239  1  0.50000000  0.33317105  0.78584092  1
  Se  Se240  1  0.33317105  0.50000000  0.21415908  1
  Se  Se241  1  0.66682895  0.50000000  0.21415908  1
  Se  Se242  1  0.50000000  0.66682895  0.21415908  1
  Se  Se243  1  0.50000000  0.33317105  0.21415908  1
  Se  Se244  1  0.64939526  0.64939526  0.31073262  1
  Se  Se245  1  0.35060474  0.35060474  0.31073262  1
  Se  Se246  1  0.35060474  0.64939526  0.31073262  1
  Se  Se247  1  0.64939526  0.35060474  0.31073262  1
  Se  Se248  1  0.35060474  0.64939526  0.68926738  1
  Se  Se249  1  0.64939526  0.35060474  0.68926738  1
  Se  Se250  1  0.64939526  0.64939526  0.68926738  1
  Se  Se251  1  0.35060474  0.35060474  0.68926738  1
  Se  Se252  1  0.83878078  0.37163556  0.00000000  1
  Se  Se253  1  0.16121922  0.62836444  0.00000000  1
  Se  Se254  1  0.62836444  0.83878078  0.00000000  1
  Se  Se255  1  0.37163556  0.16121922  -0.00000000  1
  Se  Se256  1  0.16121922  0.37163556  0.00000000  1
  Se  Se257  1  0.83878078  0.62836444  0.00000000  1
  Se  Se258  1  0.37163556  0.83878078  0.00000000  1
  Se  Se259  1  0.62836444  0.16121922  0.00000000  1
  Se  Se260  1  0.11943334  0.11943334  0.50000000  1
  Se  Se261  1  0.88056666  0.88056666  0.50000000  1
  Se  Se262  1  0.88056666  0.11943334  0.50000000  1
  Se  Se263  1  0.11943334  0.88056666  0.50000000  1
  Se  Se264  1  0.63321423  0.50000000  0.04456101  1
  Se  Se265  1  0.36678577  0.50000000  0.04456101  1
  Se  Se266  1  0.50000000  0.63321423  0.04456101  1
  Se  Se267  1  0.50000000  0.36678577  0.04456101  1
  Se  Se268  1  0.36678577  0.50000000  0.95543899  1
  Se  Se269  1  0.63321423  0.50000000  0.95543899  1
  Se  Se270  1  0.50000000  0.63321423  0.95543899  1
  Se  Se271  1  0.50000000  0.36678577  0.95543899  1
  Se  Se272  1  0.85076629  0.93331797  0.07339595  1
  Se  Se273  1  0.14923371  0.06668203  0.07339595  1
  Se  Se274  1  0.06668203  0.85076629  0.07339595  1
  Se  Se275  1  0.93331797  0.14923371  0.07339595  1
  Se  Se276  1  0.14923371  0.93331797  0.92660405  1
  Se  Se277  1  0.85076629  0.06668203  0.92660405  1
  Se  Se278  1  0.93331797  0.85076629  0.92660405  1
  Se  Se279  1  0.06668203  0.14923371  0.92660405  1
  Se  Se280  1  0.14923371  0.06668203  0.92660405  1
  Se  Se281  1  0.85076629  0.93331797  0.92660405  1
  Se  Se282  1  0.93331797  0.14923371  0.92660405  1
  Se  Se283  1  0.06668203  0.85076629  0.92660405  1
  Se  Se284  1  0.85076629  0.06668203  0.07339595  1
  Se  Se285  1  0.14923371  0.93331797  0.07339595  1
  Se  Se286  1  0.06668203  0.14923371  0.07339595  1
  Se  Se287  1  0.93331797  0.85076629  0.07339595  1
  Se  Se288  1  0.71174777  0.50000000  0.67109578  1
  Se  Se289  1  0.28825223  0.50000000  0.67109578  1
  Se  Se290  1  0.50000000  0.71174777  0.67109578  1
  Se  Se291  1  0.50000000  0.28825223  0.67109578  1
  Se  Se292  1  0.28825223  0.50000000  0.32890422  1
  Se  Se293  1  0.71174777  0.50000000  0.32890422  1
  Se  Se294  1  0.50000000  0.71174777  0.32890422  1
  Se  Se295  1  0.50000000  0.28825223  0.32890422  1
  Se  Se296  1  0.62342335  0.00000000  0.50000000  1
  Se  Se297  1  0.37657665  0.00000000  0.50000000  1
  Se  Se298  1  0.00000000  0.62342335  0.50000000  1
  Se  Se299  1  0.00000000  0.37657665  0.50000000  1
  Se  Se300  1  0.18605794  0.53162936  0.94688423  1
  Se  Se301  1  0.81394206  0.46837064  0.94688423  1
  Se  Se302  1  0.46837064  0.18605794  0.94688423  1
  Se  Se303  1  0.53162936  0.81394206  0.94688423  1
  Se  Se304  1  0.81394206  0.53162936  0.05311577  1
  Se  Se305  1  0.18605794  0.46837064  0.05311577  1
  Se  Se306  1  0.53162936  0.18605794  0.05311577  1
  Se  Se307  1  0.46837064  0.81394206  0.05311577  1
  Se  Se308  1  0.81394206  0.46837064  0.05311577  1
  Se  Se309  1  0.18605794  0.53162936  0.05311577  1
  Se  Se310  1  0.53162936  0.81394206  0.05311577  1
  Se  Se311  1  0.46837064  0.18605794  0.05311577  1
  Se  Se312  1  0.18605794  0.46837064  0.94688423  1
  Se  Se313  1  0.81394206  0.53162936  0.94688423  1
  Se  Se314  1  0.46837064  0.81394206  0.94688423  1
  Se  Se315  1  0.53162936  0.18605794  0.94688423  1
  Se  Se316  1  0.59636320  0.00000000  -0.00000000  1
  Se  Se317  1  0.40363680  -0.00000000  -0.00000000  1
  Se  Se318  1  0.00000000  0.59636320  0.00000000  1
  Se  Se319  1  0.00000000  0.40363680  -0.00000000  1
  Se  Se320  1  0.12834157  0.31460369  0.45903683  1
  Se  Se321  1  0.87165843  0.68539631  0.45903683  1
  Se  Se322  1  0.68539631  0.12834157  0.45903683  1
  Se  Se323  1  0.31460369  0.87165843  0.45903683  1
  Se  Se324  1  0.87165843  0.31460369  0.54096317  1
  Se  Se325  1  0.12834157  0.68539631  0.54096317  1
  Se  Se326  1  0.31460369  0.12834157  0.54096317  1
  Se  Se327  1  0.68539631  0.87165843  0.54096317  1
  Se  Se328  1  0.87165843  0.68539631  0.54096317  1
  Se  Se329  1  0.12834157  0.31460369  0.54096317  1
  Se  Se330  1  0.31460369  0.87165843  0.54096317  1
  Se  Se331  1  0.68539631  0.12834157  0.54096317  1
  Se  Se332  1  0.12834157  0.68539631  0.45903683  1
  Se  Se333  1  0.87165843  0.31460369  0.45903683  1
  Se  Se334  1  0.68539631  0.87165843  0.45903683  1
  Se  Se335  1  0.31460369  0.12834157  0.45903683  1
  Se  Se336  1  0.80012161  0.70700736  0.46567589  1
  Se  Se337  1  0.19987839  0.29299264  0.46567589  1
  Se  Se338  1  0.29299264  0.80012161  0.46567589  1
  Se  Se339  1  0.70700736  0.19987839  0.46567589  1
  Se  Se340  1  0.19987839  0.70700736  0.53432411  1
  Se  Se341  1  0.80012161  0.29299264  0.53432411  1
  Se  Se342  1  0.70700736  0.80012161  0.53432411  1
  Se  Se343  1  0.29299264  0.19987839  0.53432411  1
  Se  Se344  1  0.19987839  0.29299264  0.53432411  1
  Se  Se345  1  0.80012161  0.70700736  0.53432411  1
  Se  Se346  1  0.70700736  0.19987839  0.53432411  1
  Se  Se347  1  0.29299264  0.80012161  0.53432411  1
  Se  Se348  1  0.80012161  0.29299264  0.46567589  1
  Se  Se349  1  0.19987839  0.70700736  0.46567589  1
  Se  Se350  1  0.29299264  0.19987839  0.46567589  1
  Se  Se351  1  0.70700736  0.80012161  0.46567589  1
  Se  Se352  1  0.10620371  0.50000000  0.29132348  1
  Se  Se353  1  0.89379629  0.50000000  0.29132348  1
  Se  Se354  1  0.50000000  0.10620371  0.29132348  1
  Se  Se355  1  0.50000000  0.89379629  0.29132348  1
  Se  Se356  1  0.89379629  0.50000000  0.70867652  1
  Se  Se357  1  0.10620371  0.50000000  0.70867652  1
  Se  Se358  1  0.50000000  0.10620371  0.70867652  1
  Se  Se359  1  0.50000000  0.89379629  0.70867652  1
