# generated using pymatgen
data_Li2Y2MoP3Se2
_symmetry_space_group_name_H-M   'P 1'
_cell_length_a   3.80827396
_cell_length_b   4.10636541
_cell_length_c   6.63485830
_cell_angle_alpha   96.87166242
_cell_angle_beta   104.59696673
_cell_angle_gamma   115.81196098
_symmetry_Int_Tables_number   1
_chemical_formula_structural   Li2Y2MoP3Se2
_chemical_formula_sum   'Li2 Y2 Mo1 P3 Se2'
_cell_volume   87.20056845
_cell_formula_units_Z   1
loop_
 _symmetry_equiv_pos_site_id
 _symmetry_equiv_pos_as_xyz
  1  'x, y, z'
loop_
 _atom_site_type_symbol
 _atom_site_label
 _atom_site_symmetry_multiplicity
 _atom_site_fract_x
 _atom_site_fract_y
 _atom_site_fract_z
 _atom_site_occupancy
  Y  Y0  1  0.00000000  0.00000000  0.00000000  1
  Y  Y1  1  0.50000000  0.50000000  0.50000000  1
  P  P2  1  0.50000000  0.50000000  0.00000000  1
  P  P3  1  0.50000000  0.00000000  0.50000000  1
  P  P4  1  0.00000000  0.50000000  0.50000000  1
  Mo  Mo5  1  0.48531704  0.21406648  0.38960358  1
  Se  Se6  1  0.70945666  0.84415223  0.25297569  1
  Se  Se7  1  0.47849105  0.87232927  0.92006138  1
  Li  Li8  1  0.45275203  0.59134237  0.43122055  1
  Li  Li9  1  0.23694434  0.06773762  0.46693206  1
