# generated using pymatgen
data_LiF
_symmetry_space_group_name_H-M   'P 1'
_cell_length_a   4.63606484
_cell_length_b   10.07329326
_cell_length_c   6.18343425
_cell_angle_alpha   90.00000000
_cell_angle_beta   90.00000000
_cell_angle_gamma   90.00000000
_symmetry_Int_Tables_number   1
_chemical_formula_structural   LiF
_chemical_formula_sum   'Li12 F12'
_cell_volume   288.76910457
_cell_formula_units_Z   12
loop_
 _symmetry_equiv_pos_site_id
 _symmetry_equiv_pos_as_xyz
  1  'x, y, z'
loop_
 _atom_site_type_symbol
 _atom_site_label
 _atom_site_symmetry_multiplicity
 _atom_site_fract_x
 _atom_site_fract_y
 _atom_site_fract_z
 _atom_site_occupancy
  F  F0  1  0.81114583  0.22302869  0.44816308  1
  F  F1  1  -0.81114583  -0.22302869  0.44816308  1
  F  F2  1  -0.31114583  0.72302869  -0.44816308  1
  F  F3  1  1.31114583  0.27697131  -0.44816308  1
  F  F4  1  -0.81114583  -0.22302869  -0.44816308  1
  F  F5  1  0.81114583  0.22302869  -0.44816308  1
  F  F6  1  1.31114583  0.27697131  0.44816308  1
  F  F7  1  -0.31114583  0.72302869  0.44816308  1
  F  F8  1  0.00000000  0.00000000  0.23386551  1
  F  F9  1  0.50000000  0.50000000  0.76613449  1
  F  F10  1  0.00000000  0.00000000  0.76613449  1
  F  F11  1  0.50000000  0.50000000  0.23386551  1
  Li  Li12  1  0.35687214  0.35928479  0.36352498  1
  Li  Li13  1  0.64312786  0.64071521  0.36352498  1
  Li  Li14  1  0.14312786  0.85928479  0.63647502  1
  Li  Li15  1  0.85687214  0.14071521  0.63647502  1
  Li  Li16  1  0.64312786  0.64071521  0.63647502  1
  Li  Li17  1  0.35687214  0.35928479  0.63647502  1
  Li  Li18  1  0.85687214  0.14071521  0.36352498  1
  Li  Li19  1  0.14312786  0.85928479  0.36352498  1
  Li  Li20  1  0.00000000  0.50000000  0.50000000  1
  Li  Li21  1  0.50000000  0.00000000  0.50000000  1
  Li  Li22  1  0.00000000  0.50000000  -0.00000000  1
  Li  Li23  1  0.50000000  0.00000000  0.00000000  1
