# generated using pymatgen
data_Li3Y2As4P3Se2
_symmetry_space_group_name_H-M   'P 1'
_cell_length_a   5.37894281
_cell_length_b   5.61216875
_cell_length_c   7.19717362
_cell_angle_alpha   94.12091484
_cell_angle_beta   98.97449581
_cell_angle_gamma   106.55207710
_symmetry_Int_Tables_number   1
_chemical_formula_structural   Li3Y2As4P3Se2
_chemical_formula_sum   'Li3 Y2 As4 P3 Se2'
_cell_volume   204.15435508
_cell_formula_units_Z   1
loop_
 _symmetry_equiv_pos_site_id
 _symmetry_equiv_pos_as_xyz
  1  'x, y, z'
loop_
 _atom_site_type_symbol
 _atom_site_label
 _atom_site_symmetry_multiplicity
 _atom_site_fract_x
 _atom_site_fract_y
 _atom_site_fract_z
 _atom_site_occupancy
  Se  Se0  1  0.00000000  0.00000000  0.00000000  1
  Se  Se1  1  0.50000000  0.50000000  0.50000000  1
  Y  Y2  1  0.25000000  0.25000000  0.25000000  1
  Y  Y3  1  0.75000000  0.25000000  0.00000000  1
  P  P4  1  0.25000000  0.75000000  0.50000000  1
  P  P5  1  0.71356775  0.32652350  0.43459281  1
  P  P6  1  0.15663814  0.52216971  0.31743254  1
  As  As7  1  0.39598234  0.40001818  0.90268636  1
  As  As8  1  0.73190427  0.62094319  0.10087494  1
  As  As9  1  0.33990969  0.39629346  0.46877322  1
  As  As10  1  0.42549654  0.34796997  0.17715748  1
  Li  Li11  1  0.65442035  0.93714502  0.30596229  1
  Li  Li12  1  0.02012527  0.32579577  0.13826485  1
  Li  Li13  1  0.91923715  0.85138897  0.10809942  1
