# generated using pymatgen
data_Li2Y2MoAsP3
_symmetry_space_group_name_H-M   'P 1'
_cell_length_a   4.48992296
_cell_length_b   4.81827571
_cell_length_c   6.88013595
_cell_angle_alpha   95.66434618
_cell_angle_beta   101.87167459
_cell_angle_gamma   110.49608191
_symmetry_Int_Tables_number   1
_chemical_formula_structural   Li2Y2MoAsP3
_chemical_formula_sum   'Li2 Y2 Mo1 As1 P3'
_cell_volume   134.05083859
_cell_formula_units_Z   1
loop_
 _symmetry_equiv_pos_site_id
 _symmetry_equiv_pos_as_xyz
  1  'x, y, z'
loop_
 _atom_site_type_symbol
 _atom_site_label
 _atom_site_symmetry_multiplicity
 _atom_site_fract_x
 _atom_site_fract_y
 _atom_site_fract_z
 _atom_site_occupancy
  P  P0  1  0.00000000  0.00000000  0.00000000  1
  P  P1  1  0.50000000  0.50000000  0.50000000  1
  P  P2  1  0.25000000  0.25000000  0.25000000  1
  Mo  Mo3  1  0.75000000  0.25000000  0.00000000  1
  As  As4  1  0.25000000  0.75000000  0.50000000  1
  Li  Li5  1  0.18009486  0.31300432  0.96240122  1
  Li  Li6  1  0.85466380  0.43588324  0.76327111  1
  Y  Y7  1  0.00629624  0.94217172  0.78132890  1
  Y  Y8  1  0.64344764  0.53862723  0.91700550  1
