# generated using pymatgen
data_LiF
_symmetry_space_group_name_H-M   'P 1'
_cell_length_a   12.93482158
_cell_length_b   12.93482158
_cell_length_c   10.13869084
_cell_angle_alpha   90.00000000
_cell_angle_beta   90.00000000
_cell_angle_gamma   120.00000000
_symmetry_Int_Tables_number   1
_chemical_formula_structural   LiF
_chemical_formula_sum   'Li57 F57'
_cell_volume   1469.03924159
_cell_formula_units_Z   57
loop_
 _symmetry_equiv_pos_site_id
 _symmetry_equiv_pos_as_xyz
  1  'x, y, z'
loop_
 _atom_site_type_symbol
 _atom_site_label
 _atom_site_symmetry_multiplicity
 _atom_site_fract_x
 _atom_site_fract_y
 _atom_site_fract_z
 _atom_site_occupancy
  F  F0  1  0.96664299  0.31836212  0.79869443  1
  F  F1  1  0.68163788  0.64828087  0.79869443  1
  F  F2  1  0.35171913  0.03335701  0.79869443  1
  F  F3  1  0.68163788  0.03335701  0.20130557  1
  F  F4  1  0.35171913  0.31836212  0.20130557  1
  F  F5  1  0.96664299  0.64828087  0.20130557  1
  F  F6  1  0.45946071  0.04649623  0.34389478  1
  F  F7  1  0.95350377  0.41296448  0.34389478  1
  F  F8  1  0.58703552  0.54053929  0.34389478  1
  F  F9  1  0.95350377  0.54053929  0.65610522  1
  F  F10  1  0.58703552  0.04649623  0.65610522  1
  F  F11  1  0.45946071  0.41296448  0.65610522  1
  F  F12  1  0.04922624  0.40371651  0.27139966  1
  F  F13  1  0.59628349  0.64550973  0.27139966  1
  F  F14  1  0.35449027  0.95077376  0.27139966  1
  F  F15  1  0.59628349  0.95077376  0.72860034  1
  F  F16  1  0.35449027  0.40371651  0.72860034  1
  F  F17  1  0.04922624  0.64550973  0.72860034  1
  F  F18  1  0.66666667  0.33333333  -0.00000000  1
  F  F19  1  0.66666667  0.33333333  0.34936850  1
  F  F20  1  0.66666667  0.33333333  0.65063150  1
  F  F21  1  0.74457332  0.84420226  0.79505541  1
  F  F22  1  0.15579774  0.90037105  0.79505541  1
  F  F23  1  0.09962895  0.25542668  0.79505541  1
  F  F24  1  0.15579774  0.25542668  0.20494459  1
  F  F25  1  0.09962895  0.84420226  0.20494459  1
  F  F26  1  0.74457332  0.90037105  0.20494459  1
  F  F27  1  0.29317102  0.12283656  0.79807547  1
  F  F28  1  0.87716344  0.17033445  0.79807547  1
  F  F29  1  0.82966555  0.70682898  0.79807547  1
  F  F30  1  0.87716344  0.70682898  0.20192453  1
  F  F31  1  0.82966555  0.12283656  0.20192453  1
  F  F32  1  0.29317102  0.17033445  0.20192453  1
  F  F33  1  0.66666667  0.33333333  0.74096233  1
  F  F34  1  0.66666667  0.33333333  0.25903767  1
  F  F35  1  0.35617715  0.47281550  0.53680950  1
  F  F36  1  0.52718450  0.88336165  0.53680950  1
  F  F37  1  0.11663835  0.64382285  0.53680950  1
  F  F38  1  0.52718450  0.64382285  0.46319050  1
  F  F39  1  0.11663835  0.47281550  0.46319050  1
  F  F40  1  0.35617715  0.88336165  0.46319050  1
  F  F41  1  0.41345759  0.58654241  0.50000000  1
  F  F42  1  0.41345759  0.82691518  0.50000000  1
  F  F43  1  0.17308482  0.58654241  0.50000000  1
  F  F44  1  0.36354801  0.52852726  0.39704224  1
  F  F45  1  0.47147274  0.83502075  0.39704224  1
  F  F46  1  0.16497925  0.63645199  0.39704224  1
  F  F47  1  0.47147274  0.63645199  0.60295776  1
  F  F48  1  0.16497925  0.52852726  0.60295776  1
  F  F49  1  0.36354801  0.83502075  0.60295776  1
  F  F50  1  0.33333333  0.66666667  0.50000000  1
  F  F51  1  0.94341578  0.45644719  0.89413950  1
  F  F52  1  0.54355281  0.48696859  0.89413950  1
  F  F53  1  0.51303141  0.05658422  0.89413950  1
  F  F54  1  0.54355281  0.05658422  0.10586050  1
  F  F55  1  0.51303141  0.45644719  0.10586050  1
  F  F56  1  0.94341578  0.48696859  0.10586050  1
  Li  Li57  1  0.98131723  0.57831569  0.97096431  1
  Li  Li58  1  -0.57831569  0.40300154  0.97096431  1
  Li  Li59  1  -0.40300154  -0.98131723  0.97096431  1
  Li  Li60  1  -0.57831569  -0.98131723  -0.97096431  1
  Li  Li61  1  -0.40300154  0.57831569  -0.97096431  1
  Li  Li62  1  0.98131723  0.40300154  -0.97096431  1
  Li  Li63  1  0.33333333  0.66666667  0.00000000  1
  Li  Li64  1  0.96903589  0.29972801  0.44090294  1
  Li  Li65  1  0.70027199  0.66930788  0.44090294  1
  Li  Li66  1  0.33069212  0.03096411  0.44090294  1
  Li  Li67  1  0.70027199  0.03096411  0.55909706  1
  Li  Li68  1  0.33069212  0.29972801  0.55909706  1
  Li  Li69  1  0.96903589  0.66930788  0.55909706  1
  Li  Li70  1  0.00000000  0.00000000  0.50000000  1
  Li  Li71  1  0.08584553  0.95474938  0.63104742  1
  Li  Li72  1  0.04525062  0.13109615  0.63104742  1
  Li  Li73  1  0.86890385  0.91415447  0.63104742  1
  Li  Li74  1  0.04525062  0.91415447  0.36895258  1
  Li  Li75  1  0.86890385  0.95474938  0.36895258  1
  Li  Li76  1  0.08584553  0.13109615  0.36895258  1
  Li  Li77  1  0.61615745  0.12101018  0.45134685  1
  Li  Li78  1  0.87898982  0.49514728  0.45134685  1
  Li  Li79  1  0.50485272  0.38384255  0.45134685  1
  Li  Li80  1  0.87898982  0.38384255  0.54865315  1
  Li  Li81  1  0.50485272  0.12101018  0.54865315  1
  Li  Li82  1  0.61615745  0.49514728  0.54865315  1
  Li  Li83  1  0.90132348  0.02194634  0.17046636  1
  Li  Li84  1  0.97805366  0.87937714  0.17046636  1
  Li  Li85  1  0.12062286  0.09867652  0.17046636  1
  Li  Li86  1  0.97805366  0.09867652  0.82953364  1
  Li  Li87  1  0.12062286  0.02194634  0.82953364  1
  Li  Li88  1  0.90132348  0.87937714  0.82953364  1
  Li  Li89  1  0.42194478  0.57805522  0.00000000  1
  Li  Li90  1  0.42194478  0.84388957  0.00000000  1
  Li  Li91  1  0.15611043  0.57805522  0.00000000  1
  Li  Li92  1  0.00000000  0.00000000  0.00000000  1
  Li  Li93  1  0.66666667  0.33333333  0.84256881  1
  Li  Li94  1  0.66666667  0.33333333  0.15743119  1
  Li  Li95  1  0.28232041  0.71897440  0.29823801  1
  Li  Li96  1  0.28102560  0.56334601  0.29823801  1
  Li  Li97  1  0.43665399  0.71767959  0.29823801  1
  Li  Li98  1  0.28102560  0.71767959  0.70176199  1
  Li  Li99  1  0.43665399  0.71897440  0.70176199  1
  Li  Li100  1  0.28232041  0.56334601  0.70176199  1
  Li  Li101  1  0.12619985  0.92986225  0.21230566  1
  Li  Li102  1  0.07013775  0.19633761  0.21230566  1
  Li  Li103  1  0.80366239  0.87380015  0.21230566  1
  Li  Li104  1  0.07013775  0.87380015  0.78769434  1
  Li  Li105  1  0.80366239  0.92986225  0.78769434  1
  Li  Li106  1  0.12619985  0.19633761  0.78769434  1
  Li  Li107  1  0.66666667  0.33333333  0.50000000  1
  Li  Li108  1  0.18304061  0.15644052  0.88660894  1
  Li  Li109  1  0.84355948  0.02660009  0.88660894  1
  Li  Li110  1  0.97339991  0.81695939  0.88660894  1
  Li  Li111  1  0.84355948  0.81695939  0.11339106  1
  Li  Li112  1  0.97339991  0.15644052  0.11339106  1
  Li  Li113  1  0.18304061  0.02660009  0.11339106  1
