# generated using pymatgen
data_LiF
_symmetry_space_group_name_H-M   'P 1'
_cell_length_a   14.96524591
_cell_length_b   14.96524591
_cell_length_c   2.82657028
_cell_angle_alpha   90.00000000
_cell_angle_beta   90.00000000
_cell_angle_gamma   120.00000000
_symmetry_Int_Tables_number   1
_chemical_formula_structural   LiF
_chemical_formula_sum   'Li26 F26'
_cell_volume   548.22411535
_cell_formula_units_Z   26
loop_
 _symmetry_equiv_pos_site_id
 _symmetry_equiv_pos_as_xyz
  1  'x, y, z'
loop_
 _atom_site_type_symbol
 _atom_site_label
 _atom_site_symmetry_multiplicity
 _atom_site_fract_x
 _atom_site_fract_y
 _atom_site_fract_z
 _atom_site_occupancy
  F  F0  1  0.64400763  0.42737175  0.52740711  1
  F  F1  1  -0.42737175  0.21663588  0.52740711  1
  F  F2  1  -0.21663588  -0.64400763  0.52740711  1
  F  F3  1  -0.64400763  -0.42737175  1.02740711  1
  F  F4  1  0.42737175  -0.21663588  1.02740711  1
  F  F5  1  0.21663588  0.64400763  1.02740711  1
  F  F6  1  -0.64400763  -0.42737175  -0.52740711  1
  F  F7  1  0.42737175  -0.21663588  -0.52740711  1
  F  F8  1  0.21663588  0.64400763  -0.52740711  1
  F  F9  1  0.64400763  0.42737175  -0.02740711  1
  F  F10  1  -0.42737175  0.21663588  -0.02740711  1
  F  F11  1  -0.21663588  -0.64400763  -0.02740711  1
  F  F12  1  0.85810474  0.45644472  0.90554575  1
  F  F13  1  0.54355528  0.40166002  0.90554575  1
  F  F14  1  0.59833998  0.14189526  0.90554575  1
  F  F15  1  0.14189526  0.54355528  0.40554575  1
  F  F16  1  0.45644472  0.59833998  0.40554575  1
  F  F17  1  0.40166002  0.85810474  0.40554575  1
  F  F18  1  0.14189526  0.54355528  0.09445425  1
  F  F19  1  0.45644472  0.59833998  0.09445425  1
  F  F20  1  0.40166002  0.85810474  0.09445425  1
  F  F21  1  0.85810474  0.45644472  0.59445425  1
  F  F22  1  0.54355528  0.40166002  0.59445425  1
  F  F23  1  0.59833998  0.14189526  0.59445425  1
  F  F24  1  0.00000000  0.00000000  0.25000000  1
  F  F25  1  0.00000000  0.00000000  0.75000000  1
  Li  Li26  1  0.65960530  0.47233916  0.25000000  1
  Li  Li27  1  0.52766084  0.18726614  0.25000000  1
  Li  Li28  1  0.81273386  0.34039470  0.25000000  1
  Li  Li29  1  0.34039470  0.52766084  0.75000000  1
  Li  Li30  1  0.47233916  0.81273386  0.75000000  1
  Li  Li31  1  0.18726614  0.65960530  0.75000000  1
  Li  Li32  1  0.86998961  0.61723574  0.25000000  1
  Li  Li33  1  0.38276426  0.25275387  0.25000000  1
  Li  Li34  1  0.74724613  0.13001039  0.25000000  1
  Li  Li35  1  0.13001039  0.38276426  0.75000000  1
  Li  Li36  1  0.61723574  0.74724613  0.75000000  1
  Li  Li37  1  0.25275387  0.86998961  0.75000000  1
  Li  Li38  1  0.98693647  0.70593997  0.25000000  1
  Li  Li39  1  0.29406003  0.28099650  0.25000000  1
  Li  Li40  1  0.71900350  0.01306353  0.25000000  1
  Li  Li41  1  0.01306353  0.29406003  0.75000000  1
  Li  Li42  1  0.70593997  0.71900350  0.75000000  1
  Li  Li43  1  0.28099650  0.98693647  0.75000000  1
  Li  Li44  1  0.86310534  0.87708350  0.25000000  1
  Li  Li45  1  0.12291650  0.98602183  0.25000000  1
  Li  Li46  1  0.01397817  0.13689466  0.25000000  1
  Li  Li47  1  0.13689466  0.12291650  0.75000000  1
  Li  Li48  1  0.87708350  0.01397817  0.75000000  1
  Li  Li49  1  0.98602183  0.86310534  0.75000000  1
  Li  Li50  1  0.33333333  0.66666667  0.25000000  1
  Li  Li51  1  0.66666667  0.33333333  0.75000000  1
