# generated using pymatgen
data_LiF
_symmetry_space_group_name_H-M   'P 1'
_cell_length_a   12.60065565
_cell_length_b   12.60065565
_cell_length_c   13.39135067
_cell_angle_alpha   90.00000000
_cell_angle_beta   90.00000000
_cell_angle_gamma   90.00000000
_symmetry_Int_Tables_number   1
_chemical_formula_structural   LiF
_chemical_formula_sum   'Li64 F64'
_cell_volume   2126.23209455
_cell_formula_units_Z   64
loop_
 _symmetry_equiv_pos_site_id
 _symmetry_equiv_pos_as_xyz
  1  'x, y, z'
loop_
 _atom_site_type_symbol
 _atom_site_label
 _atom_site_symmetry_multiplicity
 _atom_site_fract_x
 _atom_site_fract_y
 _atom_site_fract_z
 _atom_site_occupancy
  F  F0  1  0.27370964  0.45485228  0.32412821  1
  F  F1  1  0.22629036  0.54514772  0.82412821  1
  F  F2  1  0.79514772  0.02370964  0.57412821  1
  F  F3  1  0.70485228  0.97629036  0.07412821  1
  F  F4  1  0.22629036  0.45485228  0.67587179  1
  F  F5  1  0.27370964  0.54514772  0.17587179  1
  F  F6  1  0.70485228  0.02370964  0.42587179  1
  F  F7  1  0.79514772  0.97629036  0.92587179  1
  F  F8  1  0.72629036  0.54514772  0.67587179  1
  F  F9  1  0.77370964  0.45485228  0.17587179  1
  F  F10  1  0.20485228  0.97629036  0.42587179  1
  F  F11  1  0.29514772  0.02370964  0.92587179  1
  F  F12  1  0.77370964  0.54514772  0.32412821  1
  F  F13  1  0.72629036  0.45485228  0.82412821  1
  F  F14  1  0.29514772  0.97629036  0.57412821  1
  F  F15  1  0.20485228  0.02370964  0.07412821  1
  F  F16  1  0.77370964  0.95485228  0.82412821  1
  F  F17  1  0.72629036  0.04514772  0.32412821  1
  F  F18  1  0.29514772  0.52370964  0.07412821  1
  F  F19  1  0.20485228  0.47629036  0.57412821  1
  F  F20  1  0.72629036  0.95485228  0.17587179  1
  F  F21  1  0.77370964  0.04514772  0.67587179  1
  F  F22  1  0.20485228  0.52370964  0.92587179  1
  F  F23  1  0.29514772  0.47629036  0.42587179  1
  F  F24  1  0.22629036  0.04514772  0.17587179  1
  F  F25  1  0.27370964  0.95485228  0.67587179  1
  F  F26  1  0.70485228  0.47629036  0.92587179  1
  F  F27  1  0.79514772  0.52370964  0.42587179  1
  F  F28  1  0.27370964  0.04514772  0.82412821  1
  F  F29  1  0.22629036  0.95485228  0.32412821  1
  F  F30  1  0.79514772  0.47629036  0.07412821  1
  F  F31  1  0.70485228  0.52370964  0.57412821  1
  F  F32  1  0.75329233  0.43466473  0.09163512  1
  F  F33  1  0.74670767  0.56533527  0.59163512  1
  F  F34  1  0.81533527  0.50329233  0.34163512  1
  F  F35  1  0.68466473  0.49670767  0.84163512  1
  F  F36  1  0.74670767  0.43466473  0.90836488  1
  F  F37  1  0.75329233  0.56533527  0.40836488  1
  F  F38  1  0.68466473  0.50329233  0.65836488  1
  F  F39  1  0.81533527  0.49670767  0.15836488  1
  F  F40  1  0.24670767  0.56533527  0.90836488  1
  F  F41  1  0.25329233  0.43466473  0.40836488  1
  F  F42  1  0.18466473  0.49670767  0.65836488  1
  F  F43  1  0.31533527  0.50329233  0.15836488  1
  F  F44  1  0.25329233  0.56533527  0.09163512  1
  F  F45  1  0.24670767  0.43466473  0.59163512  1
  F  F46  1  0.31533527  0.49670767  0.34163512  1
  F  F47  1  0.18466473  0.50329233  0.84163512  1
  F  F48  1  0.25329233  0.93466473  0.59163512  1
  F  F49  1  0.24670767  0.06533527  0.09163512  1
  F  F50  1  0.31533527  0.00329233  0.84163512  1
  F  F51  1  0.18466473  0.99670767  0.34163512  1
  F  F52  1  0.24670767  0.93466473  0.40836488  1
  F  F53  1  0.25329233  0.06533527  0.90836488  1
  F  F54  1  0.18466473  0.00329233  0.15836488  1
  F  F55  1  0.31533527  0.99670767  0.65836488  1
  F  F56  1  0.74670767  0.06533527  0.40836488  1
  F  F57  1  0.75329233  0.93466473  0.90836488  1
  F  F58  1  0.68466473  0.99670767  0.15836488  1
  F  F59  1  0.81533527  0.00329233  0.65836488  1
  F  F60  1  0.75329233  0.06533527  0.59163512  1
  F  F61  1  0.74670767  0.93466473  0.09163512  1
  F  F62  1  0.81533527  0.99670767  0.84163512  1
  F  F63  1  0.68466473  0.00329233  0.34163512  1
  Li  Li64  1  0.04421809  0.05152248  0.94393414  1
  Li  Li65  1  0.45578191  -0.05152248  1.44393414  1
  Li  Li66  1  0.19847752  0.79421809  1.19393414  1
  Li  Li67  1  0.30152248  0.20578191  1.69393414  1
  Li  Li68  1  0.45578191  0.05152248  -0.94393414  1
  Li  Li69  1  0.04421809  -0.05152248  -0.44393414  1
  Li  Li70  1  0.30152248  0.79421809  -0.19393414  1
  Li  Li71  1  0.19847752  0.20578191  -0.69393414  1
  Li  Li72  1  -0.04421809  -0.05152248  -0.94393414  1
  Li  Li73  1  0.54421809  0.05152248  -0.44393414  1
  Li  Li74  1  0.80152248  0.20578191  -0.19393414  1
  Li  Li75  1  0.69847752  0.79421809  -0.69393414  1
  Li  Li76  1  0.54421809  -0.05152248  0.94393414  1
  Li  Li77  1  -0.04421809  0.05152248  1.44393414  1
  Li  Li78  1  0.69847752  0.20578191  1.19393414  1
  Li  Li79  1  0.80152248  0.79421809  1.69393414  1
  Li  Li80  1  0.54421809  0.55152248  1.44393414  1
  Li  Li81  1  0.95578191  0.44847752  1.94393414  1
  Li  Li82  1  0.69847752  1.29421809  1.69393414  1
  Li  Li83  1  0.80152248  0.70578191  2.19393414  1
  Li  Li84  1  0.95578191  0.55152248  -0.44393414  1
  Li  Li85  1  0.54421809  0.44847752  0.05606586  1
  Li  Li86  1  0.80152248  1.29421809  0.30606586  1
  Li  Li87  1  0.69847752  0.70578191  -0.19393414  1
  Li  Li88  1  0.45578191  0.44847752  -0.44393414  1
  Li  Li89  1  1.04421809  0.55152248  0.05606586  1
  Li  Li90  1  1.30152248  0.70578191  0.30606586  1
  Li  Li91  1  1.19847752  1.29421809  -0.19393414  1
  Li  Li92  1  1.04421809  0.44847752  1.44393414  1
  Li  Li93  1  0.45578191  0.55152248  1.94393414  1
  Li  Li94  1  1.19847752  0.70578191  1.69393414  1
  Li  Li95  1  1.30152248  1.29421809  2.19393414  1
  Li  Li96  1  0.28549095  0.30497782  0.04002786  1
  Li  Li97  1  0.21450905  0.69502218  0.54002786  1
  Li  Li98  1  0.94502218  0.03549095  0.29002786  1
  Li  Li99  1  0.55497782  0.96450905  0.79002786  1
  Li  Li100  1  0.21450905  0.30497782  0.95997214  1
  Li  Li101  1  0.28549095  0.69502218  0.45997214  1
  Li  Li102  1  0.55497782  0.03549095  0.70997214  1
  Li  Li103  1  0.94502218  0.96450905  0.20997214  1
  Li  Li104  1  0.71450905  0.69502218  0.95997214  1
  Li  Li105  1  0.78549095  0.30497782  0.45997214  1
  Li  Li106  1  0.05497782  0.96450905  0.70997214  1
  Li  Li107  1  0.44502218  0.03549095  0.20997214  1
  Li  Li108  1  0.78549095  0.69502218  0.04002786  1
  Li  Li109  1  0.71450905  0.30497782  0.54002786  1
  Li  Li110  1  0.44502218  0.96450905  0.29002786  1
  Li  Li111  1  0.05497782  0.03549095  0.79002786  1
  Li  Li112  1  0.78549095  0.80497782  0.54002786  1
  Li  Li113  1  0.71450905  0.19502218  0.04002786  1
  Li  Li114  1  0.44502218  0.53549095  0.79002786  1
  Li  Li115  1  0.05497782  0.46450905  0.29002786  1
  Li  Li116  1  0.71450905  0.80497782  0.45997214  1
  Li  Li117  1  0.78549095  0.19502218  0.95997214  1
  Li  Li118  1  0.05497782  0.53549095  0.20997214  1
  Li  Li119  1  0.44502218  0.46450905  0.70997214  1
  Li  Li120  1  0.21450905  0.19502218  0.45997214  1
  Li  Li121  1  0.28549095  0.80497782  0.95997214  1
  Li  Li122  1  0.55497782  0.46450905  0.20997214  1
  Li  Li123  1  0.94502218  0.53549095  0.70997214  1
  Li  Li124  1  0.28549095  0.19502218  0.54002786  1
  Li  Li125  1  0.21450905  0.80497782  0.04002786  1
  Li  Li126  1  0.94502218  0.46450905  0.79002786  1
  Li  Li127  1  0.55497782  0.53549095  0.29002786  1
