# generated using pymatgen
data_Li2Y2Cu3P2Se
_symmetry_space_group_name_H-M   'P 1'
_cell_length_a   5.15279750
_cell_length_b   5.41704437
_cell_length_c   6.54657393
_cell_angle_alpha   94.09674730
_cell_angle_beta   96.42085769
_cell_angle_gamma   101.40988575
_symmetry_Int_Tables_number   1
_chemical_formula_structural   Li2Y2Cu3P2Se
_chemical_formula_sum   'Li2 Y2 Cu3 P2 Se1'
_cell_volume   177.17610173
_cell_formula_units_Z   1
loop_
 _symmetry_equiv_pos_site_id
 _symmetry_equiv_pos_as_xyz
  1  'x, y, z'
loop_
 _atom_site_type_symbol
 _atom_site_label
 _atom_site_symmetry_multiplicity
 _atom_site_fract_x
 _atom_site_fract_y
 _atom_site_fract_z
 _atom_site_occupancy
  Se  Se0  1  0.00000000  0.00000000  0.00000000  1
  Cu  Cu1  1  0.50000000  0.50000000  0.50000000  1
  Cu  Cu2  1  0.25000000  0.25000000  0.25000000  1
  Cu  Cu3  1  0.75000000  0.25000000  0.00000000  1
  Y  Y4  1  0.25000000  0.75000000  0.50000000  1
  Y  Y5  1  0.06117767  0.40525878  0.64640381  1
  P  P6  1  0.79001805  0.97293065  0.78886206  1
  P  P7  1  0.20307105  0.09865512  0.63940435  1
  Li  Li8  1  0.48384140  0.08571599  0.76473484  1
  Li  Li9  1  0.35877782  0.64663263  0.79571672  1
