# generated using pymatgen
data_LiF
_symmetry_space_group_name_H-M   'P 1'
_cell_length_a   6.24223311
_cell_length_b   4.66412086
_cell_length_c   7.94505376
_cell_angle_alpha   90.00000000
_cell_angle_beta   90.00000000
_cell_angle_gamma   90.00000000
_symmetry_Int_Tables_number   1
_chemical_formula_structural   LiF
_chemical_formula_sum   'Li10 F10'
_cell_volume   231.31650367
_cell_formula_units_Z   10
loop_
 _symmetry_equiv_pos_site_id
 _symmetry_equiv_pos_as_xyz
  1  'x, y, z'
loop_
 _atom_site_type_symbol
 _atom_site_label
 _atom_site_symmetry_multiplicity
 _atom_site_fract_x
 _atom_site_fract_y
 _atom_site_fract_z
 _atom_site_occupancy
  F  F0  1  0.00000000  0.00000000  0.00000000  1
  F  F1  1  0.50000000  0.50000000  0.00000000  1
  F  F2  1  0.00000000  0.00000000  0.50000000  1
  F  F3  1  0.50000000  0.50000000  0.50000000  1
  F  F4  1  0.69479902  0.64705999  0.00000000  1
  F  F5  1  0.30520098  0.35294001  0.00000000  1
  F  F6  1  0.80520098  0.14705999  -0.00000000  1
  F  F7  1  0.19479902  0.85294001  0.00000000  1
  F  F8  1  0.00000000  0.50000000  0.50000000  1
  F  F9  1  0.50000000  0.00000000  0.50000000  1
  Li  Li10  1  0.62932800  0.33930064  0.32920441  1
  Li  Li11  1  -0.62932800  -0.33930064  0.32920441  1
  Li  Li12  1  -0.12932800  0.83930064  -0.32920441  1
  Li  Li13  1  1.12932800  0.16069936  -0.32920441  1
  Li  Li14  1  -0.62932800  -0.33930064  -0.32920441  1
  Li  Li15  1  0.62932800  0.33930064  -0.32920441  1
  Li  Li16  1  1.12932800  0.16069936  0.32920441  1
  Li  Li17  1  -0.12932800  0.83930064  0.32920441  1
  Li  Li18  1  0.00000000  0.50000000  0.00000000  1
  Li  Li19  1  0.50000000  0.00000000  0.00000000  1
