# generated using pymatgen
data_LiF
_symmetry_space_group_name_H-M   'P 1'
_cell_length_a   5.89092301
_cell_length_b   5.89092301
_cell_length_c   23.47554827
_cell_angle_alpha   90.00000000
_cell_angle_beta   90.00000000
_cell_angle_gamma   120.00000000
_symmetry_Int_Tables_number   1
_chemical_formula_structural   LiF
_chemical_formula_sum   'Li27 F27'
_cell_volume   705.52607482
_cell_formula_units_Z   27
loop_
 _symmetry_equiv_pos_site_id
 _symmetry_equiv_pos_as_xyz
  1  'x, y, z'
loop_
 _atom_site_type_symbol
 _atom_site_label
 _atom_site_symmetry_multiplicity
 _atom_site_fract_x
 _atom_site_fract_y
 _atom_site_fract_z
 _atom_site_occupancy
  F  F0  1  0.66666667  0.33333333  0.50000000  1
  F  F1  1  0.02936247  0.48029839  0.27033122  1
  F  F2  1  0.51970161  0.54906408  0.27033122  1
  F  F3  1  0.45093592  0.97063753  0.27033122  1
  F  F4  1  0.51970161  0.97063753  0.72966878  1
  F  F5  1  0.45093592  0.48029839  0.72966878  1
  F  F6  1  0.02936247  0.54906408  0.72966878  1
  F  F7  1  0.33333333  0.66666667  0.00000000  1
  F  F8  1  0.00000000  0.00000000  0.00000000  1
  F  F9  1  0.33333333  0.66666667  0.50000000  1
  F  F10  1  0.84826568  0.50980788  0.29497380  1
  F  F11  1  0.49019212  0.33845780  0.29497380  1
  F  F12  1  0.66154220  0.15173432  0.29497380  1
  F  F13  1  0.49019212  0.15173432  0.70502620  1
  F  F14  1  0.66154220  0.50980788  0.70502620  1
  F  F15  1  0.84826568  0.33845780  0.70502620  1
  F  F16  1  0.11288121  0.72774194  0.86328277  1
  F  F17  1  0.27225806  0.38513928  0.86328277  1
  F  F18  1  0.61486072  0.88711879  0.86328277  1
  F  F19  1  0.27225806  0.88711879  0.13671723  1
  F  F20  1  0.61486072  0.72774194  0.13671723  1
  F  F21  1  0.11288121  0.38513928  0.13671723  1
  F  F22  1  0.87574069  0.12425931  0.50000000  1
  F  F23  1  0.87574069  0.75148138  0.50000000  1
  F  F24  1  0.24851862  0.12425931  0.50000000  1
  F  F25  1  0.66666667  0.33333333  0.29506845  1
  F  F26  1  0.66666667  0.33333333  0.70493155  1
  Li  Li27  1  0.83988496  0.85565210  0.36021938  1
  Li  Li28  1  -0.85565210  -0.01576714  0.36021938  1
  Li  Li29  1  0.01576714  -0.83988496  0.36021938  1
  Li  Li30  1  -0.85565210  -0.83988496  -0.36021938  1
  Li  Li31  1  0.01576714  0.85565210  -0.36021938  1
  Li  Li32  1  0.83988496  -0.01576714  -0.36021938  1
  Li  Li33  1  0.79021334  0.20978666  0.00000000  1
  Li  Li34  1  0.79021334  0.58042667  0.00000000  1
  Li  Li35  1  0.41957333  0.20978666  0.00000000  1
  Li  Li36  1  0.59859452  0.61426104  0.58707926  1
  Li  Li37  1  0.38573896  0.98433348  0.58707926  1
  Li  Li38  1  0.01566652  0.40140548  0.58707926  1
  Li  Li39  1  0.38573896  0.40140548  0.41292074  1
  Li  Li40  1  0.01566652  0.61426104  0.41292074  1
  Li  Li41  1  0.59859452  0.98433348  0.41292074  1
  Li  Li42  1  0.53488870  0.37773851  0.14832346  1
  Li  Li43  1  0.62226149  0.15715019  0.14832346  1
  Li  Li44  1  0.84284981  0.46511130  0.14832346  1
  Li  Li45  1  0.62226149  0.46511130  0.85167654  1
  Li  Li46  1  0.84284981  0.37773851  0.85167654  1
  Li  Li47  1  0.53488870  0.15715019  0.85167654  1
  Li  Li48  1  0.12573692  0.47288258  0.08661501  1
  Li  Li49  1  0.52711742  0.65285434  0.08661501  1
  Li  Li50  1  0.34714566  0.87426308  0.08661501  1
  Li  Li51  1  0.52711742  0.87426308  0.91338499  1
  Li  Li52  1  0.34714566  0.47288258  0.91338499  1
  Li  Li53  1  0.12573692  0.65285434  0.91338499  1
