# generated using pymatgen
data_Li3YTiIF
_symmetry_space_group_name_H-M   'P 1'
_cell_length_a   3.63018046
_cell_length_b   3.19183540
_cell_length_c   4.42745352
_cell_angle_alpha   89.88213688
_cell_angle_beta   97.67106043
_cell_angle_gamma   99.59184720
_symmetry_Int_Tables_number   1
_chemical_formula_structural   Li3YTiIF
_chemical_formula_sum   'Li3 Y1 Ti1 I1 F1'
_cell_volume   50.12005620
_cell_formula_units_Z   1
loop_
 _symmetry_equiv_pos_site_id
 _symmetry_equiv_pos_as_xyz
  1  'x, y, z'
loop_
 _atom_site_type_symbol
 _atom_site_label
 _atom_site_symmetry_multiplicity
 _atom_site_fract_x
 _atom_site_fract_y
 _atom_site_fract_z
 _atom_site_occupancy
  F  F0  1  0.12500000  0.00000000  0.25000000  1
  Ti  Ti1  1  0.00000000  0.00000000  0.00000000  1
  I  I2  1  0.37500000  0.00000000  0.25000000  1
  Y  Y3  1  0.25000000  0.25000000  0.25000000  1
  Li  Li4  1  0.00000000  0.25000000  0.12500000  1
  Li  Li5  1  0.34118355  0.80402987  0.33518000  1
  Li  Li6  1  0.10471685  0.41393764  0.89732225  1
