# generated using pymatgen
data_LiF
_symmetry_space_group_name_H-M   'P 1'
_cell_length_a   13.87112259
_cell_length_b   11.01773093
_cell_length_c   15.64506122
_cell_angle_alpha   90.00000000
_cell_angle_beta   90.00000000
_cell_angle_gamma   90.00000000
_symmetry_Int_Tables_number   1
_chemical_formula_structural   LiF
_chemical_formula_sum   'Li72 F72'
_cell_volume   2391.00805235
_cell_formula_units_Z   72
loop_
 _symmetry_equiv_pos_site_id
 _symmetry_equiv_pos_as_xyz
  1  'x, y, z'
loop_
 _atom_site_type_symbol
 _atom_site_label
 _atom_site_symmetry_multiplicity
 _atom_site_fract_x
 _atom_site_fract_y
 _atom_site_fract_z
 _atom_site_occupancy
  F  F0  1  0.96297172  0.83825017  0.39436080  1
  F  F1  1  0.53702828  0.16174983  0.89436080  1
  F  F2  1  0.03702828  0.33825017  0.60563920  1
  F  F3  1  0.46297172  0.66174983  0.10563920  1
  F  F4  1  0.03702828  0.16174983  0.60563920  1
  F  F5  1  0.46297172  0.83825017  0.10563920  1
  F  F6  1  0.96297172  0.66174983  0.39436080  1
  F  F7  1  0.53702828  0.33825017  0.89436080  1
  F  F8  1  0.76295987  0.66953653  0.13547303  1
  F  F9  1  0.73704013  0.33046347  0.63547303  1
  F  F10  1  0.23704013  0.16953653  0.86452697  1
  F  F11  1  0.26295987  0.83046347  0.36452697  1
  F  F12  1  0.23704013  0.33046347  0.86452697  1
  F  F13  1  0.26295987  0.66953653  0.36452697  1
  F  F14  1  0.76295987  0.83046347  0.13547303  1
  F  F15  1  0.73704013  0.16953653  0.63547303  1
  F  F16  1  0.00000000  0.00000000  0.00000000  1
  F  F17  1  0.50000000  0.00000000  0.50000000  1
  F  F18  1  0.00000000  0.50000000  0.00000000  1
  F  F19  1  0.50000000  0.50000000  0.50000000  1
  F  F20  1  0.28927487  0.67856892  0.90228439  1
  F  F21  1  0.21072513  0.32143108  0.40228439  1
  F  F22  1  0.71072513  0.17856892  0.09771561  1
  F  F23  1  0.78927487  0.82143108  0.59771561  1
  F  F24  1  0.71072513  0.32143108  0.09771561  1
  F  F25  1  0.78927487  0.67856892  0.59771561  1
  F  F26  1  0.28927487  0.82143108  0.90228439  1
  F  F27  1  0.21072513  0.17856892  0.40228439  1
  F  F28  1  0.70831841  0.40911883  0.78383617  1
  F  F29  1  0.79168159  0.59088117  0.28383617  1
  F  F30  1  0.29168159  0.90911883  0.21616383  1
  F  F31  1  0.20831841  0.09088117  0.71616383  1
  F  F32  1  0.29168159  0.59088117  0.21616383  1
  F  F33  1  0.20831841  0.40911883  0.71616383  1
  F  F34  1  0.70831841  0.09088117  0.78383617  1
  F  F35  1  0.79168159  0.90911883  0.28383617  1
  F  F36  1  0.52079125  0.25000000  0.76260721  1
  F  F37  1  0.97920875  0.75000000  0.26260721  1
  F  F38  1  0.47920875  0.75000000  0.23739279  1
  F  F39  1  0.02079125  0.25000000  0.73739279  1
  F  F40  1  0.54831637  0.38992296  0.11471732  1
  F  F41  1  0.95168363  0.61007704  0.61471732  1
  F  F42  1  0.45168363  0.88992296  0.88528268  1
  F  F43  1  0.04831637  0.11007704  0.38528268  1
  F  F44  1  0.45168363  0.61007704  0.88528268  1
  F  F45  1  0.04831637  0.38992296  0.38528268  1
  F  F46  1  0.54831637  0.11007704  0.11471732  1
  F  F47  1  0.95168363  0.88992296  0.61471732  1
  F  F48  1  0.08529571  0.25000000  0.99390880  1
  F  F49  1  0.41470429  0.75000000  0.49390880  1
  F  F50  1  0.91470429  0.75000000  0.00609120  1
  F  F51  1  0.58529571  0.25000000  0.50609120  1
  F  F52  1  0.57279942  0.32529721  0.46982665  1
  F  F53  1  0.92720058  0.67470279  0.96982665  1
  F  F54  1  0.42720058  0.82529721  0.53017335  1
  F  F55  1  0.07279942  0.17470279  0.03017335  1
  F  F56  1  0.42720058  0.67470279  0.53017335  1
  F  F57  1  0.07279942  0.32529721  0.03017335  1
  F  F58  1  0.57279942  0.17470279  0.46982665  1
  F  F59  1  0.92720058  0.82529721  0.96982665  1
  F  F60  1  0.85148741  0.25000000  0.81739826  1
  F  F61  1  0.64851259  0.75000000  0.31739826  1
  F  F62  1  0.14851259  0.75000000  0.18260174  1
  F  F63  1  0.35148741  0.25000000  0.68260174  1
  F  F64  1  0.41432794  0.39279653  0.08764733  1
  F  F65  1  0.08567206  0.60720347  0.58764733  1
  F  F66  1  0.58567206  0.89279653  0.91235267  1
  F  F67  1  0.91432794  0.10720347  0.41235267  1
  F  F68  1  0.58567206  0.60720347  0.91235267  1
  F  F69  1  0.91432794  0.39279653  0.41235267  1
  F  F70  1  0.41432794  0.10720347  0.08764733  1
  F  F71  1  0.08567206  0.89279653  0.58764733  1
  Li  Li72  1  0.17608964  0.16800978  0.33295254  1
  Li  Li73  1  0.32391036  -0.16800978  0.83295254  1
  Li  Li74  1  -0.17608964  0.66800978  -0.33295254  1
  Li  Li75  1  0.67608964  0.33199022  0.16704746  1
  Li  Li76  1  -0.17608964  -0.16800978  -0.33295254  1
  Li  Li77  1  0.67608964  0.16800978  0.16704746  1
  Li  Li78  1  0.17608964  0.33199022  0.33295254  1
  Li  Li79  1  0.32391036  0.66800978  0.83295254  1
  Li  Li80  1  0.07012746  0.46691344  0.22134527  1
  Li  Li81  1  0.42987254  0.53308656  0.72134527  1
  Li  Li82  1  0.92987254  0.96691344  0.77865473  1
  Li  Li83  1  0.57012746  0.03308656  0.27865473  1
  Li  Li84  1  0.92987254  0.53308656  0.77865473  1
  Li  Li85  1  0.57012746  0.46691344  0.27865473  1
  Li  Li86  1  0.07012746  0.03308656  0.22134527  1
  Li  Li87  1  0.42987254  0.96691344  0.72134527  1
  Li  Li88  1  0.54066213  0.56980738  0.54934111  1
  Li  Li89  1  0.95933787  0.43019262  0.04934111  1
  Li  Li90  1  0.45933787  0.06980738  0.45065889  1
  Li  Li91  1  0.04066213  0.93019262  0.95065889  1
  Li  Li92  1  0.45933787  0.43019262  0.45065889  1
  Li  Li93  1  0.04066213  0.56980738  0.95065889  1
  Li  Li94  1  0.54066213  0.93019262  0.54934111  1
  Li  Li95  1  0.95933787  0.06980738  0.04934111  1
  Li  Li96  1  0.97772008  0.25000000  0.09297456  1
  Li  Li97  1  0.52227992  0.75000000  0.59297456  1
  Li  Li98  1  0.02227992  0.75000000  0.90702544  1
  Li  Li99  1  0.47772008  0.25000000  0.40702544  1
  Li  Li100  1  0.79623094  0.25000000  0.71629671  1
  Li  Li101  1  0.70376906  0.75000000  0.21629671  1
  Li  Li102  1  0.20376906  0.75000000  0.28370329  1
  Li  Li103  1  0.29623094  0.25000000  0.78370329  1
  Li  Li104  1  0.61212946  0.43680169  0.19019185  1
  Li  Li105  1  0.88787054  0.56319831  0.69019185  1
  Li  Li106  1  0.38787054  0.93680169  0.80980815  1
  Li  Li107  1  0.11212946  0.06319831  0.30980815  1
  Li  Li108  1  0.38787054  0.56319831  0.80980815  1
  Li  Li109  1  0.11212946  0.43680169  0.30980815  1
  Li  Li110  1  0.61212946  0.06319831  0.19019185  1
  Li  Li111  1  0.88787054  0.93680169  0.69019185  1
  Li  Li112  1  0.18658648  0.82428862  0.04315719  1
  Li  Li113  1  0.31341352  0.17571138  0.54315719  1
  Li  Li114  1  0.81341352  0.32428862  0.95684281  1
  Li  Li115  1  0.68658648  0.67571138  0.45684281  1
  Li  Li116  1  0.81341352  0.17571138  0.95684281  1
  Li  Li117  1  0.68658648  0.82428862  0.45684281  1
  Li  Li118  1  0.18658648  0.67571138  0.04315719  1
  Li  Li119  1  0.31341352  0.32428862  0.54315719  1
  Li  Li120  1  0.00000000  0.00000000  0.50000000  1
  Li  Li121  1  0.50000000  0.00000000  0.00000000  1
  Li  Li122  1  0.00000000  0.50000000  0.50000000  1
  Li  Li123  1  0.50000000  0.50000000  0.00000000  1
  Li  Li124  1  0.38164818  0.99418826  0.45790412  1
  Li  Li125  1  0.11835182  0.00581174  0.95790412  1
  Li  Li126  1  0.61835182  0.49418826  0.54209588  1
  Li  Li127  1  0.88164818  0.50581174  0.04209588  1
  Li  Li128  1  0.61835182  0.00581174  0.54209588  1
  Li  Li129  1  0.88164818  0.99418826  0.04209588  1
  Li  Li130  1  0.38164818  0.50581174  0.45790412  1
  Li  Li131  1  0.11835182  0.49418826  0.95790412  1
  Li  Li132  1  0.17191366  0.94109901  0.67924501  1
  Li  Li133  1  0.32808634  0.05890099  0.17924501  1
  Li  Li134  1  0.82808634  0.44109901  0.32075499  1
  Li  Li135  1  0.67191366  0.55890099  0.82075499  1
  Li  Li136  1  0.82808634  0.05890099  0.32075499  1
  Li  Li137  1  0.67191366  0.94109901  0.82075499  1
  Li  Li138  1  0.17191366  0.55890099  0.67924501  1
  Li  Li139  1  0.32808634  0.44109901  0.17924501  1
  Li  Li140  1  0.40845475  0.25000000  0.29646798  1
  Li  Li141  1  0.09154525  0.75000000  0.79646798  1
  Li  Li142  1  0.59154525  0.75000000  0.70353202  1
  Li  Li143  1  0.90845475  0.25000000  0.20353202  1
