# generated using pymatgen
data_LiY2(As2P)2
_symmetry_space_group_name_H-M   'P 1'
_cell_length_a   4.32691385
_cell_length_b   4.49227754
_cell_length_c   6.70165498
_cell_angle_alpha   95.84210208
_cell_angle_beta   102.42867662
_cell_angle_gamma   113.00400746
_symmetry_Int_Tables_number   1
_chemical_formula_structural   LiY2(As2P)2
_chemical_formula_sum   'Li1 Y2 As4 P2'
_cell_volume   114.56444793
_cell_formula_units_Z   1
loop_
 _symmetry_equiv_pos_site_id
 _symmetry_equiv_pos_as_xyz
  1  'x, y, z'
loop_
 _atom_site_type_symbol
 _atom_site_label
 _atom_site_symmetry_multiplicity
 _atom_site_fract_x
 _atom_site_fract_y
 _atom_site_fract_z
 _atom_site_occupancy
  P  P0  1  0.12500000  0.00000000  0.25000000  1
  P  P1  1  0.00000000  0.00000000  0.00000000  1
  As  As2  1  0.37500000  0.00000000  0.25000000  1
  As  As3  1  0.25000000  0.25000000  0.25000000  1
  As  As4  1  0.00000000  0.25000000  0.12500000  1
  As  As5  1  0.97121432  0.77738370  0.66261087  1
  Li  Li6  1  0.28748497  0.68439830  0.94558198  1
  Y  Y7  1  0.84672502  0.39371787  0.24277846  1
  Y  Y8  1  0.30476009  0.04343604  0.43329173  1
