# generated using pymatgen
data_Li2Y2MoP3Se2
_symmetry_space_group_name_H-M   'P 1'
_cell_length_a   5.09865317
_cell_length_b   5.42019991
_cell_length_c   7.20820407
_cell_angle_alpha   94.58419952
_cell_angle_beta   99.98343351
_cell_angle_gamma   108.41290751
_symmetry_Int_Tables_number   1
_chemical_formula_structural   Li2Y2MoP3Se2
_chemical_formula_sum   'Li2 Y2 Mo1 P3 Se2'
_cell_volume   184.20005462
_cell_formula_units_Z   1
loop_
 _symmetry_equiv_pos_site_id
 _symmetry_equiv_pos_as_xyz
  1  'x, y, z'
loop_
 _atom_site_type_symbol
 _atom_site_label
 _atom_site_symmetry_multiplicity
 _atom_site_fract_x
 _atom_site_fract_y
 _atom_site_fract_z
 _atom_site_occupancy
  Se  Se0  1  0.00000000  0.00000000  0.00000000  1
  Se  Se1  1  0.50000000  0.50000000  0.50000000  1
  P  P2  1  0.25000000  0.25000000  0.25000000  1
  P  P3  1  0.75000000  0.25000000  0.00000000  1
  P  P4  1  0.25000000  0.75000000  0.50000000  1
  Mo  Mo5  1  0.36682152  0.08927080  0.46575858  1
  Li  Li6  1  0.31931473  0.46545333  0.51435168  1
  Li  Li7  1  0.68203850  0.58512917  0.12926782  1
  Y  Y8  1  0.08687832  0.73493504  0.93616211  1
  Y  Y9  1  0.18695336  0.44939130  0.70384983  1
