# generated using pymatgen
data_LiF
_symmetry_space_group_name_H-M   'P 1'
_cell_length_a   15.89124391
_cell_length_b   15.89124391
_cell_length_c   4.12318126
_cell_angle_alpha   90.00000000
_cell_angle_beta   90.00000000
_cell_angle_gamma   120.00000000
_symmetry_Int_Tables_number   1
_chemical_formula_structural   LiF
_chemical_formula_sum   'Li36 F36'
_cell_volume   901.73483389
_cell_formula_units_Z   36
loop_
 _symmetry_equiv_pos_site_id
 _symmetry_equiv_pos_as_xyz
  1  'x, y, z'
loop_
 _atom_site_type_symbol
 _atom_site_label
 _atom_site_symmetry_multiplicity
 _atom_site_fract_x
 _atom_site_fract_y
 _atom_site_fract_z
 _atom_site_occupancy
  F  F0  1  0.52447736  0.22452479  0.36586280  1
  F  F1  1  0.77547521  0.29995258  0.36586280  1
  F  F2  1  0.70004742  0.47552264  0.36586280  1
  F  F3  1  0.22452479  0.52447736  0.13413720  1
  F  F4  1  0.29995258  0.77547521  0.13413720  1
  F  F5  1  0.47552264  0.70004742  0.13413720  1
  F  F6  1  0.47552264  0.77547521  0.63413720  1
  F  F7  1  0.22452479  0.70004742  0.63413720  1
  F  F8  1  0.29995258  0.52447736  0.63413720  1
  F  F9  1  0.77547521  0.47552264  0.86586280  1
  F  F10  1  0.70004742  0.22452479  0.86586280  1
  F  F11  1  0.52447736  0.29995258  0.86586280  1
  F  F12  1  0.19114403  0.55785812  0.69919613  1
  F  F13  1  0.44214188  0.63328591  0.69919613  1
  F  F14  1  0.36671409  0.80885597  0.69919613  1
  F  F15  1  0.89119146  0.85781070  0.46747053  1
  F  F16  1  0.96661924  0.10880854  0.46747053  1
  F  F17  1  0.14218930  0.03338076  0.46747053  1
  F  F18  1  0.14218930  0.10880854  0.96747053  1
  F  F19  1  0.89119146  0.03338076  0.96747053  1
  F  F20  1  0.96661924  0.85781070  0.96747053  1
  F  F21  1  0.44214188  0.80885597  0.19919613  1
  F  F22  1  0.36671409  0.55785812  0.19919613  1
  F  F23  1  0.19114403  0.63328591  0.19919613  1
  F  F24  1  0.85781070  0.89119146  0.03252947  1
  F  F25  1  0.10880854  0.96661924  0.03252947  1
  F  F26  1  0.03338076  0.14218930  0.03252947  1
  F  F27  1  0.55785812  0.19114403  0.80080387  1
  F  F28  1  0.63328591  0.44214188  0.80080387  1
  F  F29  1  0.80885597  0.36671409  0.80080387  1
  F  F30  1  0.80885597  0.44214188  0.30080387  1
  F  F31  1  0.55785812  0.36671409  0.30080387  1
  F  F32  1  0.63328591  0.19114403  0.30080387  1
  F  F33  1  0.10880854  0.14218930  0.53252947  1
  F  F34  1  0.03338076  0.89119146  0.53252947  1
  F  F35  1  0.85781070  0.96661924  0.53252947  1
  Li  Li36  1  0.28220078  0.29535436  0.96951274  1
  Li  Li37  1  -0.29535436  -0.01315358  0.96951274  1
  Li  Li38  1  0.01315358  -0.28220078  0.96951274  1
  Li  Li39  1  0.29535436  0.28220078  -0.46951274  1
  Li  Li40  1  -0.01315358  -0.29535436  -0.46951274  1
  Li  Li41  1  -0.28220078  0.01315358  -0.46951274  1
  Li  Li42  1  -0.28220078  -0.29535436  -0.96951274  1
  Li  Li43  1  0.29535436  0.01315358  -0.96951274  1
  Li  Li44  1  -0.01315358  0.28220078  -0.96951274  1
  Li  Li45  1  -0.29535436  -0.28220078  1.46951274  1
  Li  Li46  1  0.01315358  0.29535436  1.46951274  1
  Li  Li47  1  0.28220078  -0.01315358  1.46951274  1
  Li  Li48  1  0.94886745  0.62868769  1.30284607  1
  Li  Li49  1  0.37131231  0.32017976  1.30284607  1
  Li  Li50  1  0.67982024  0.05113255  1.30284607  1
  Li  Li51  1  0.96202103  0.61553412  -0.13617940  1
  Li  Li52  1  0.65351309  0.03797897  -0.13617940  1
  Li  Li53  1  0.38446588  0.34648691  -0.13617940  1
  Li  Li54  1  0.38446588  0.03797897  -0.63617940  1
  Li  Li55  1  0.96202103  0.34648691  -0.63617940  1
  Li  Li56  1  0.65351309  0.61553412  -0.63617940  1
  Li  Li57  1  0.37131231  0.05113255  1.80284607  1
  Li  Li58  1  0.67982024  0.62868769  1.80284607  1
  Li  Li59  1  0.94886745  0.32017976  1.80284607  1
  Li  Li60  1  0.61553412  0.96202103  1.63617940  1
  Li  Li61  1  0.03797897  0.65351309  1.63617940  1
  Li  Li62  1  0.34648691  0.38446588  1.63617940  1
  Li  Li63  1  0.62868769  0.94886745  0.19715393  1
  Li  Li64  1  0.32017976  0.37131231  0.19715393  1
  Li  Li65  1  0.05113255  0.67982024  0.19715393  1
  Li  Li66  1  0.05113255  0.37131231  -0.30284607  1
  Li  Li67  1  0.62868769  0.67982024  -0.30284607  1
  Li  Li68  1  0.32017976  0.94886745  -0.30284607  1
  Li  Li69  1  0.03797897  0.38446588  2.13617940  1
  Li  Li70  1  0.34648691  0.96202103  2.13617940  1
  Li  Li71  1  0.61553412  0.65351309  2.13617940  1
