# generated using pymatgen
data_LiYAs2P
_symmetry_space_group_name_H-M   'P 1'
_cell_length_a   4.97034629
_cell_length_b   4.99222785
_cell_length_c   6.89874190
_cell_angle_alpha   94.75038608
_cell_angle_beta   100.34535330
_cell_angle_gamma   109.08041288
_symmetry_Int_Tables_number   1
_chemical_formula_structural   LiYAs2P
_chemical_formula_sum   'Li2 Y2 As4 P2'
_cell_volume   157.29019375
_cell_formula_units_Z   2
loop_
 _symmetry_equiv_pos_site_id
 _symmetry_equiv_pos_as_xyz
  1  'x, y, z'
loop_
 _atom_site_type_symbol
 _atom_site_label
 _atom_site_symmetry_multiplicity
 _atom_site_fract_x
 _atom_site_fract_y
 _atom_site_fract_z
 _atom_site_occupancy
  P  P0  1  0.12500000  0.12500000  0.12500000  1
  P  P1  1  0.50000000  0.50000000  0.50000000  1
  As  As2  1  0.25000000  0.25000000  0.25000000  1
  As  As3  1  0.75000000  0.75000000  0.75000000  1
  As  As4  1  0.08986219  0.06306788  0.37298453  1
  As  As5  1  0.40181894  0.88072565  0.45957406  1
  Li  Li6  1  0.12850217  0.70330151  0.11271845  1
  Li  Li7  1  0.53138772  0.81170227  0.53838566  1
  Y  Y8  1  0.95173576  0.86073640  0.08193411  1
  Y  Y9  1  0.54431312  0.27850923  0.01726261  1
