# generated using pymatgen
data_Li2Y2MoP2
_symmetry_space_group_name_H-M   'P 1'
_cell_length_a   4.98569882
_cell_length_b   5.21693153
_cell_length_c   7.04465498
_cell_angle_alpha   94.85022160
_cell_angle_beta   100.56277429
_cell_angle_gamma   109.48141246
_symmetry_Int_Tables_number   1
_chemical_formula_structural   Li2Y2MoP2
_chemical_formula_sum   'Li2 Y2 Mo1 P2'
_cell_volume   167.70332278
_cell_formula_units_Z   1
loop_
 _symmetry_equiv_pos_site_id
 _symmetry_equiv_pos_as_xyz
  1  'x, y, z'
loop_
 _atom_site_type_symbol
 _atom_site_label
 _atom_site_symmetry_multiplicity
 _atom_site_fract_x
 _atom_site_fract_y
 _atom_site_fract_z
 _atom_site_occupancy
  P  P0  1  0.00000000  0.00000000  0.00000000  1
  P  P1  1  0.50000000  0.50000000  0.50000000  1
  Mo  Mo2  1  0.25000000  0.25000000  0.25000000  1
  Li  Li3  1  0.75000000  0.25000000  0.00000000  1
  Li  Li4  1  0.25000000  0.75000000  0.50000000  1
  Y  Y5  1  0.90338440  0.16164161  0.65650775  1
  Y  Y6  1  0.13421539  0.03941888  0.99791530  1
