# generated using pymatgen
data_LiCaF3
_symmetry_space_group_name_H-M   'P 1'
_cell_length_a   10.58372330
_cell_length_b   10.58372330
_cell_length_c   19.80261862
_cell_angle_alpha   90.00000000
_cell_angle_beta   90.00000000
_cell_angle_gamma   120.00000000
_symmetry_Int_Tables_number   1
_chemical_formula_structural   LiCaF3
_chemical_formula_sum   'Li18 Ca18 F54'
_cell_volume   1921.01258132
_cell_formula_units_Z   18
loop_
 _symmetry_equiv_pos_site_id
 _symmetry_equiv_pos_as_xyz
  1  'x, y, z'
loop_
 _atom_site_type_symbol
 _atom_site_label
 _atom_site_symmetry_multiplicity
 _atom_site_fract_x
 _atom_site_fract_y
 _atom_site_fract_z
 _atom_site_occupancy
  Ca  Ca0  1  0.00000000  0.00000000  0.25000000  1
  Ca  Ca1  1  0.00000000  0.00000000  0.75000000  1
  Ca  Ca2  1  0.66666667  0.33333333  0.58333333  1
  Ca  Ca3  1  0.66666667  0.33333333  0.08333333  1
  Ca  Ca4  1  0.33333333  0.66666667  0.91666667  1
  Ca  Ca5  1  0.33333333  0.66666667  0.41666667  1
  Ca  Ca6  1  0.00000000  0.00000000  0.58139299  1
  Ca  Ca7  1  0.00000000  0.00000000  0.91860701  1
  Ca  Ca8  1  0.00000000  0.00000000  0.41860701  1
  Ca  Ca9  1  0.00000000  0.00000000  0.08139299  1
  Ca  Ca10  1  0.66666667  0.33333333  0.91472633  1
  Ca  Ca11  1  0.66666667  0.33333333  0.25194034  1
  Ca  Ca12  1  0.66666667  0.33333333  0.75194034  1
  Ca  Ca13  1  0.66666667  0.33333333  0.41472633  1
  Ca  Ca14  1  0.33333333  0.66666667  0.24805966  1
  Ca  Ca15  1  0.33333333  0.66666667  0.58527367  1
  Ca  Ca16  1  0.33333333  0.66666667  0.08527367  1
  Ca  Ca17  1  0.33333333  0.66666667  0.74805966  1
  F  F18  1  0.33539303  0.44818141  0.25680115  1
  F  F19  1  -0.44818141  -0.11278838  0.25680115  1
  F  F20  1  0.11278838  -0.33539303  0.25680115  1
  F  F21  1  0.44818141  0.33539303  0.24319885  1
  F  F22  1  -0.11278838  -0.44818141  0.24319885  1
  F  F23  1  -0.33539303  0.11278838  0.24319885  1
  F  F24  1  -0.33539303  -0.44818141  -0.25680115  1
  F  F25  1  0.44818141  0.11278838  -0.25680115  1
  F  F26  1  -0.11278838  0.33539303  -0.25680115  1
  F  F27  1  -0.44818141  -0.33539303  0.75680115  1
  F  F28  1  0.11278838  0.44818141  0.75680115  1
  F  F29  1  0.33539303  -0.11278838  0.75680115  1
  F  F30  1  1.00205970  0.78151475  0.59013448  1
  F  F31  1  0.21848525  0.22054495  0.59013448  1
  F  F32  1  0.77945505  -0.00205970  0.59013448  1
  F  F33  1  1.11484808  0.66872636  0.57653218  1
  F  F34  1  0.55387828  -0.11484808  0.57653218  1
  F  F35  1  0.33127364  0.44612172  0.57653218  1
  F  F36  1  0.33127364  -0.11484808  0.07653218  1
  F  F37  1  1.11484808  0.44612172  0.07653218  1
  F  F38  1  0.55387828  0.66872636  0.07653218  1
  F  F39  1  0.21848525  -0.00205970  1.09013448  1
  F  F40  1  0.77945505  0.78151475  1.09013448  1
  F  F41  1  1.00205970  0.22054495  1.09013448  1
  F  F42  1  0.66872636  1.11484808  0.92346782  1
  F  F43  1  -0.11484808  0.55387828  0.92346782  1
  F  F44  1  0.44612172  0.33127364  0.92346782  1
  F  F45  1  0.78151475  1.00205970  0.90986552  1
  F  F46  1  0.22054495  0.21848525  0.90986552  1
  F  F47  1  -0.00205970  0.77945505  0.90986552  1
  F  F48  1  -0.00205970  0.21848525  0.40986552  1
  F  F49  1  0.78151475  0.77945505  0.40986552  1
  F  F50  1  0.22054495  1.00205970  0.40986552  1
  F  F51  1  -0.11484808  0.33127364  1.42346782  1
  F  F52  1  0.44612172  1.11484808  1.42346782  1
  F  F53  1  0.66872636  0.55387828  1.42346782  1
  F  F54  1  0.62763729  0.00000000  0.25000000  1
  F  F55  1  0.00000000  0.62763729  0.25000000  1
  F  F56  1  0.37236271  0.37236271  0.25000000  1
  F  F57  1  0.37236271  0.00000000  0.75000000  1
  F  F58  1  0.00000000  0.37236271  0.75000000  1
  F  F59  1  0.62763729  0.62763729  0.75000000  1
  F  F60  1  0.29430396  0.33333333  0.58333333  1
  F  F61  1  0.66666667  0.96097062  0.58333333  1
  F  F62  1  0.03902938  0.70569604  0.58333333  1
  F  F63  1  0.03902938  0.33333333  0.08333333  1
  F  F64  1  0.66666667  0.70569604  0.08333333  1
  F  F65  1  0.29430396  0.96097062  0.08333333  1
  F  F66  1  0.96097062  0.66666667  0.91666667  1
  F  F67  1  0.33333333  0.29430396  0.91666667  1
  F  F68  1  0.70569604  0.03902938  0.91666667  1
  F  F69  1  0.70569604  0.66666667  0.41666667  1
  F  F70  1  0.33333333  0.03902938  0.41666667  1
  F  F71  1  0.96097062  0.29430396  0.41666667  1
  Li  Li72  1  0.50000000  0.00000000  0.00000000  1
  Li  Li73  1  0.00000000  0.50000000  0.00000000  1
  Li  Li74  1  0.50000000  0.50000000  0.00000000  1
  Li  Li75  1  0.00000000  0.50000000  0.50000000  1
  Li  Li76  1  0.50000000  0.00000000  0.50000000  1
  Li  Li77  1  0.50000000  0.50000000  0.50000000  1
  Li  Li78  1  0.16666667  0.33333333  0.33333333  1
  Li  Li79  1  0.66666667  0.83333333  0.33333333  1
  Li  Li80  1  0.16666667  0.83333333  0.33333333  1
  Li  Li81  1  0.66666667  0.83333333  0.83333333  1
  Li  Li82  1  0.16666667  0.33333333  0.83333333  1
  Li  Li83  1  0.16666667  0.83333333  0.83333333  1
  Li  Li84  1  0.83333333  0.66666667  0.66666667  1
  Li  Li85  1  0.33333333  0.16666667  0.66666667  1
  Li  Li86  1  0.83333333  0.16666667  0.66666667  1
  Li  Li87  1  0.33333333  0.16666667  0.16666667  1
  Li  Li88  1  0.83333333  0.66666667  0.16666667  1
  Li  Li89  1  0.83333333  0.16666667  0.16666667  1
