# generated using pymatgen
data_LiF
_symmetry_space_group_name_H-M   'P 1'
_cell_length_a   12.38755651
_cell_length_b   7.39787826
_cell_length_c   7.82871764
_cell_angle_alpha   90.00000000
_cell_angle_beta   90.00000000
_cell_angle_gamma   90.00000000
_symmetry_Int_Tables_number   1
_chemical_formula_structural   LiF
_chemical_formula_sum   'Li30 F30'
_cell_volume   717.43648473
_cell_formula_units_Z   30
loop_
 _symmetry_equiv_pos_site_id
 _symmetry_equiv_pos_as_xyz
  1  'x, y, z'
loop_
 _atom_site_type_symbol
 _atom_site_label
 _atom_site_symmetry_multiplicity
 _atom_site_fract_x
 _atom_site_fract_y
 _atom_site_fract_z
 _atom_site_occupancy
  F  F0  1  0.09330060  0.21375138  0.19034373  1
  F  F1  1  -0.09330060  -0.21375138  0.19034373  1
  F  F2  1  0.40669940  0.71375138  -0.19034373  1
  F  F3  1  0.59330060  0.28624862  -0.19034373  1
  F  F4  1  -0.09330060  -0.21375138  -0.19034373  1
  F  F5  1  0.09330060  0.21375138  -0.19034373  1
  F  F6  1  0.59330060  0.28624862  0.19034373  1
  F  F7  1  0.40669940  0.71375138  0.19034373  1
  F  F8  1  0.85001014  0.33542699  0.92663738  1
  F  F9  1  0.14998986  0.66457301  0.92663738  1
  F  F10  1  0.64998986  0.83542699  0.07336262  1
  F  F11  1  0.35001014  0.16457301  0.07336262  1
  F  F12  1  0.14998986  0.66457301  0.07336262  1
  F  F13  1  0.85001014  0.33542699  0.07336262  1
  F  F14  1  0.35001014  0.16457301  0.92663738  1
  F  F15  1  0.64998986  0.83542699  0.92663738  1
  F  F16  1  0.27614993  0.48943111  0.00000000  1
  F  F17  1  0.72385007  0.51056889  -0.00000000  1
  F  F18  1  0.22385007  0.98943111  0.00000000  1
  F  F19  1  0.77614993  0.01056889  -0.00000000  1
  F  F20  1  0.74551702  0.11848796  0.00000000  1
  F  F21  1  0.25448298  0.88151204  0.00000000  1
  F  F22  1  0.75448298  0.61848796  0.00000000  1
  F  F23  1  0.24551702  0.38151204  -0.00000000  1
  F  F24  1  0.63540537  0.13348416  0.00000000  1
  F  F25  1  0.36459463  0.86651584  -0.00000000  1
  F  F26  1  0.86459463  0.63348416  0.00000000  1
  F  F27  1  0.13540537  0.36651584  -0.00000000  1
  F  F28  1  0.00000000  0.50000000  -0.00000000  1
  F  F29  1  0.50000000  0.00000000  0.00000000  1
  Li  Li30  1  0.31983423  0.68672996  0.50000000  1
  Li  Li31  1  0.68016577  0.31327004  0.50000000  1
  Li  Li32  1  0.18016577  0.18672996  0.50000000  1
  Li  Li33  1  0.81983423  0.81327004  0.50000000  1
  Li  Li34  1  0.38223468  0.41823097  0.00000000  1
  Li  Li35  1  0.61776532  0.58176903  -0.00000000  1
  Li  Li36  1  0.11776532  0.91823097  0.00000000  1
  Li  Li37  1  0.88223468  0.08176903  0.00000000  1
  Li  Li38  1  0.42700036  0.86504323  0.50000000  1
  Li  Li39  1  0.57299964  0.13495677  0.50000000  1
  Li  Li40  1  0.07299964  0.36504323  0.50000000  1
  Li  Li41  1  0.92700036  0.63495677  0.50000000  1
  Li  Li42  1  0.70898716  0.72770923  0.36926196  1
  Li  Li43  1  0.29101284  0.27229077  0.36926196  1
  Li  Li44  1  0.79101284  0.22770923  0.63073804  1
  Li  Li45  1  0.20898716  0.77229077  0.63073804  1
  Li  Li46  1  0.29101284  0.27229077  0.63073804  1
  Li  Li47  1  0.70898716  0.72770923  0.63073804  1
  Li  Li48  1  0.20898716  0.77229077  0.36926196  1
  Li  Li49  1  0.79101284  0.22770923  0.36926196  1
  Li  Li50  1  0.00000000  0.00000000  0.00000000  1
  Li  Li51  1  0.50000000  0.50000000  0.00000000  1
  Li  Li52  1  0.25970264  0.92371095  0.33682142  1
  Li  Li53  1  0.74029736  0.07628905  0.33682142  1
  Li  Li54  1  0.24029736  0.42371095  0.66317858  1
  Li  Li55  1  0.75970264  0.57628905  0.66317858  1
  Li  Li56  1  0.74029736  0.07628905  0.66317858  1
  Li  Li57  1  0.25970264  0.92371095  0.66317858  1
  Li  Li58  1  0.75970264  0.57628905  0.33682142  1
  Li  Li59  1  0.24029736  0.42371095  0.33682142  1
