# generated using pymatgen
data_LiF
_symmetry_space_group_name_H-M   'P 1'
_cell_length_a   8.87754097
_cell_length_b   8.87754097
_cell_length_c   14.36271024
_cell_angle_alpha   90.00000000
_cell_angle_beta   90.00000000
_cell_angle_gamma   120.00000000
_symmetry_Int_Tables_number   1
_chemical_formula_structural   LiF
_chemical_formula_sum   'Li36 F36'
_cell_volume   980.28509814
_cell_formula_units_Z   36
loop_
 _symmetry_equiv_pos_site_id
 _symmetry_equiv_pos_as_xyz
  1  'x, y, z'
loop_
 _atom_site_type_symbol
 _atom_site_label
 _atom_site_symmetry_multiplicity
 _atom_site_fract_x
 _atom_site_fract_y
 _atom_site_fract_z
 _atom_site_occupancy
  F  F0  1  0.89469196  0.85827569  0.58352178  1
  F  F1  1  -0.85827569  0.03641627  0.58352178  1
  F  F2  1  -0.03641627  -0.89469196  0.58352178  1
  F  F3  1  -0.89469196  -0.85827569  1.08352178  1
  F  F4  1  0.85827569  -0.03641627  1.08352178  1
  F  F5  1  0.03641627  0.89469196  1.08352178  1
  F  F6  1  -0.89469196  -0.85827569  -0.58352178  1
  F  F7  1  0.85827569  -0.03641627  -0.58352178  1
  F  F8  1  0.03641627  0.89469196  -0.58352178  1
  F  F9  1  0.89469196  0.85827569  -0.08352178  1
  F  F10  1  -0.85827569  0.03641627  -0.08352178  1
  F  F11  1  -0.03641627  -0.89469196  -0.08352178  1
  F  F12  1  0.71086763  0.96695962  0.07898839  1
  F  F13  1  0.03304038  0.74390801  0.07898839  1
  F  F14  1  0.25609199  0.28913237  0.07898839  1
  F  F15  1  0.28913237  0.03304038  0.57898839  1
  F  F16  1  0.96695962  0.25609199  0.57898839  1
  F  F17  1  0.74390801  0.71086763  0.57898839  1
  F  F18  1  0.28913237  0.03304038  0.92101161  1
  F  F19  1  0.96695962  0.25609199  0.92101161  1
  F  F20  1  0.74390801  0.71086763  0.92101161  1
  F  F21  1  0.71086763  0.96695962  0.42101161  1
  F  F22  1  0.03304038  0.74390801  0.42101161  1
  F  F23  1  0.25609199  0.28913237  0.42101161  1
  F  F24  1  0.91963304  0.25286067  0.72084366  1
  F  F25  1  0.74713933  0.66677237  0.72084366  1
  F  F26  1  0.33322763  0.08036696  0.72084366  1
  F  F27  1  0.08036696  0.74713933  0.22084366  1
  F  F28  1  0.25286067  0.33322763  0.22084366  1
  F  F29  1  0.66677237  0.91963304  0.22084366  1
  F  F30  1  0.08036696  0.74713933  0.27915634  1
  F  F31  1  0.25286067  0.33322763  0.27915634  1
  F  F32  1  0.66677237  0.91963304  0.27915634  1
  F  F33  1  0.91963304  0.25286067  0.77915634  1
  F  F34  1  0.74713933  0.66677237  0.77915634  1
  F  F35  1  0.33322763  0.08036696  0.77915634  1
  Li  Li36  1  0.00000000  0.00000000  0.95225321  1
  Li  Li37  1  0.00000000  0.00000000  0.45225321  1
  Li  Li38  1  0.00000000  0.00000000  0.04774679  1
  Li  Li39  1  0.00000000  0.00000000  0.54774679  1
  Li  Li40  1  0.00000000  0.00000000  0.25000000  1
  Li  Li41  1  0.00000000  0.00000000  0.75000000  1
  Li  Li42  1  0.20942349  0.47360428  0.86659829  1
  Li  Li43  1  0.52639572  0.73581922  0.86659829  1
  Li  Li44  1  0.26418078  0.79057651  0.86659829  1
  Li  Li45  1  0.79057651  0.52639572  0.36659829  1
  Li  Li46  1  0.47360428  0.26418078  0.36659829  1
  Li  Li47  1  0.73581922  0.20942349  0.36659829  1
  Li  Li48  1  0.79057651  0.52639572  0.13340171  1
  Li  Li49  1  0.47360428  0.26418078  0.13340171  1
  Li  Li50  1  0.73581922  0.20942349  0.13340171  1
  Li  Li51  1  0.20942349  0.47360428  0.63340171  1
  Li  Li52  1  0.52639572  0.73581922  0.63340171  1
  Li  Li53  1  0.26418078  0.79057651  0.63340171  1
  Li  Li54  1  0.68247095  0.52729045  0.70105774  1
  Li  Li55  1  0.47270955  0.15518050  0.70105774  1
  Li  Li56  1  0.84481950  0.31752905  0.70105774  1
  Li  Li57  1  0.31752905  0.47270955  0.20105774  1
  Li  Li58  1  0.52729045  0.84481950  0.20105774  1
  Li  Li59  1  0.15518050  0.68247095  0.20105774  1
  Li  Li60  1  0.31752905  0.47270955  0.29894226  1
  Li  Li61  1  0.52729045  0.84481950  0.29894226  1
  Li  Li62  1  0.15518050  0.68247095  0.29894226  1
  Li  Li63  1  0.68247095  0.52729045  0.79894226  1
  Li  Li64  1  0.47270955  0.15518050  0.79894226  1
  Li  Li65  1  0.84481950  0.31752905  0.79894226  1
  Li  Li66  1  0.54623227  0.72300696  0.25000000  1
  Li  Li67  1  0.27699304  0.82322531  0.25000000  1
  Li  Li68  1  0.17677469  0.45376773  0.25000000  1
  Li  Li69  1  0.45376773  0.27699304  0.75000000  1
  Li  Li70  1  0.72300696  0.17677469  0.75000000  1
  Li  Li71  1  0.82322531  0.54623227  0.75000000  1
