# generated using pymatgen
data_LiF
_symmetry_space_group_name_H-M   'P 1'
_cell_length_a   10.61380838
_cell_length_b   10.61380838
_cell_length_c   19.74628547
_cell_angle_alpha   90.00000000
_cell_angle_beta   90.00000000
_cell_angle_gamma   120.00000000
_symmetry_Int_Tables_number   1
_chemical_formula_structural   LiF
_chemical_formula_sum   'Li76 F76'
_cell_volume   1926.45348892
_cell_formula_units_Z   76
loop_
 _symmetry_equiv_pos_site_id
 _symmetry_equiv_pos_as_xyz
  1  'x, y, z'
loop_
 _atom_site_type_symbol
 _atom_site_label
 _atom_site_symmetry_multiplicity
 _atom_site_fract_x
 _atom_site_fract_y
 _atom_site_fract_z
 _atom_site_occupancy
  F  F0  1  0.06682248  0.33323016  0.11994136  1
  F  F1  1  0.66676984  0.73359232  0.11994136  1
  F  F2  1  0.26640768  0.93317752  0.11994136  1
  F  F3  1  0.66676984  0.93317752  0.88005864  1
  F  F4  1  0.26640768  0.33323016  0.88005864  1
  F  F5  1  0.06682248  0.73359232  0.88005864  1
  F  F6  1  0.99310568  0.31406344  0.65036218  1
  F  F7  1  0.68593656  0.67904223  0.65036218  1
  F  F8  1  0.32095777  0.00689432  0.65036218  1
  F  F9  1  0.68593656  0.00689432  0.34963782  1
  F  F10  1  0.32095777  0.31406344  0.34963782  1
  F  F11  1  0.99310568  0.67904223  0.34963782  1
  F  F12  1  0.86471369  0.39014015  0.72832817  1
  F  F13  1  0.60985985  0.47457354  0.72832817  1
  F  F14  1  0.52542646  0.13528631  0.72832817  1
  F  F15  1  0.60985985  0.13528631  0.27167183  1
  F  F16  1  0.52542646  0.39014015  0.27167183  1
  F  F17  1  0.86471369  0.47457354  0.27167183  1
  F  F18  1  0.33333333  0.66666667  0.90144267  1
  F  F19  1  0.33333333  0.66666667  0.09855733  1
  F  F20  1  0.60374945  0.92245157  0.50308924  1
  F  F21  1  0.07754843  0.68129788  0.50308924  1
  F  F22  1  0.31870212  0.39625055  0.50308924  1
  F  F23  1  0.07754843  0.39625055  0.49691076  1
  F  F24  1  0.31870212  0.92245157  0.49691076  1
  F  F25  1  0.60374945  0.68129788  0.49691076  1
  F  F26  1  0.64941781  0.41834108  0.28611265  1
  F  F27  1  0.58165892  0.23107673  0.28611265  1
  F  F28  1  0.76892327  0.35058219  0.28611265  1
  F  F29  1  0.58165892  0.35058219  0.71388735  1
  F  F30  1  0.76892327  0.41834108  0.71388735  1
  F  F31  1  0.64941781  0.23107673  0.71388735  1
  F  F32  1  0.03585636  0.19358693  0.32754163  1
  F  F33  1  0.80641307  0.84226943  0.32754163  1
  F  F34  1  0.15773057  0.96414364  0.32754163  1
  F  F35  1  0.80641307  0.96414364  0.67245837  1
  F  F36  1  0.15773057  0.19358693  0.67245837  1
  F  F37  1  0.03585636  0.84226943  0.67245837  1
  F  F38  1  0.00000000  0.00000000  0.05048325  1
  F  F39  1  0.00000000  0.00000000  0.94951675  1
  F  F40  1  0.54639845  0.08579349  0.08421183  1
  F  F41  1  0.91420651  0.46060495  0.08421183  1
  F  F42  1  0.53939505  0.45360155  0.08421183  1
  F  F43  1  0.91420651  0.45360155  0.91578817  1
  F  F44  1  0.53939505  0.08579349  0.91578817  1
  F  F45  1  0.54639845  0.46060495  0.91578817  1
  F  F46  1  0.66666667  0.33333333  0.00000000  1
  F  F47  1  0.00000000  0.00000000  0.68932205  1
  F  F48  1  0.00000000  0.00000000  0.31067795  1
  F  F49  1  0.19490892  0.15295788  0.06714528  1
  F  F50  1  0.84704212  0.04195104  0.06714528  1
  F  F51  1  0.95804896  0.80509108  0.06714528  1
  F  F52  1  0.84704212  0.80509108  0.93285472  1
  F  F53  1  0.95804896  0.15295788  0.93285472  1
  F  F54  1  0.19490892  0.04195104  0.93285472  1
  F  F55  1  0.01455705  0.09320177  0.80608049  1
  F  F56  1  0.90679823  0.92135529  0.80608049  1
  F  F57  1  0.07864471  0.98544295  0.80608049  1
  F  F58  1  0.90679823  0.98544295  0.19391951  1
  F  F59  1  0.07864471  0.09320177  0.19391951  1
  F  F60  1  0.01455705  0.92135529  0.19391951  1
  F  F61  1  0.04610480  0.21529838  0.98121417  1
  F  F62  1  0.78470162  0.83080642  0.98121417  1
  F  F63  1  0.16919358  0.95389520  0.98121417  1
  F  F64  1  0.78470162  0.95389520  0.01878583  1
  F  F65  1  0.16919358  0.21529838  0.01878583  1
  F  F66  1  0.04610480  0.83080642  0.01878583  1
  F  F67  1  0.39537626  0.83910302  0.00817371  1
  F  F68  1  0.16089698  0.55627324  0.00817371  1
  F  F69  1  0.44372676  0.60462374  0.00817371  1
  F  F70  1  0.16089698  0.60462374  0.99182629  1
  F  F71  1  0.44372676  0.83910302  0.99182629  1
  F  F72  1  0.39537626  0.55627324  0.99182629  1
  F  F73  1  0.66666667  0.33333333  0.50000000  1
  F  F74  1  0.33333333  0.66666667  0.17643571  1
  F  F75  1  0.33333333  0.66666667  0.82356429  1
  Li  Li76  1  0.76802567  0.61464611  0.05817512  1
  Li  Li77  1  -0.61464611  0.15337955  0.05817512  1
  Li  Li78  1  -0.15337955  -0.76802567  0.05817512  1
  Li  Li79  1  -0.61464611  -0.76802567  -0.05817512  1
  Li  Li80  1  -0.15337955  0.61464611  -0.05817512  1
  Li  Li81  1  0.76802567  0.15337955  -0.05817512  1
  Li  Li82  1  0.03136434  0.48834036  0.80208083  1
  Li  Li83  1  0.51165964  0.54302398  0.80208083  1
  Li  Li84  1  0.45697602  0.96863566  0.80208083  1
  Li  Li85  1  0.51165964  0.96863566  0.19791917  1
  Li  Li86  1  0.45697602  0.48834036  0.19791917  1
  Li  Li87  1  0.03136434  0.54302398  0.19791917  1
  Li  Li88  1  0.67097928  0.48667527  0.20875643  1
  Li  Li89  1  0.51332473  0.18430401  0.20875643  1
  Li  Li90  1  0.81569599  0.32902072  0.20875643  1
  Li  Li91  1  0.51332473  0.32902072  0.79124357  1
  Li  Li92  1  0.81569599  0.48667527  0.79124357  1
  Li  Li93  1  0.67097928  0.18430401  0.79124357  1
  Li  Li94  1  0.09492845  0.36604365  0.84055745  1
  Li  Li95  1  0.63395635  0.72888481  0.84055745  1
  Li  Li96  1  0.27111519  0.90507155  0.84055745  1
  Li  Li97  1  0.63395635  0.90507155  0.15944255  1
  Li  Li98  1  0.27111519  0.36604365  0.15944255  1
  Li  Li99  1  0.09492845  0.72888481  0.15944255  1
  Li  Li100  1  0.88151540  0.07202211  0.59839033  1
  Li  Li101  1  0.92797789  0.80949329  0.59839033  1
  Li  Li102  1  0.19050671  0.11848460  0.59839033  1
  Li  Li103  1  0.92797789  0.11848460  0.40160967  1
  Li  Li104  1  0.19050671  0.07202211  0.40160967  1
  Li  Li105  1  0.88151540  0.80949329  0.40160967  1
  Li  Li106  1  0.09522636  0.53418126  0.70718434  1
  Li  Li107  1  0.46581874  0.56104510  0.70718434  1
  Li  Li108  1  0.43895490  0.90477364  0.70718434  1
  Li  Li109  1  0.46581874  0.90477364  0.29281566  1
  Li  Li110  1  0.43895490  0.53418126  0.29281566  1
  Li  Li111  1  0.09522636  0.56104510  0.29281566  1
  Li  Li112  1  0.88712016  0.11287984  0.50000000  1
  Li  Li113  1  0.88712016  0.77424033  0.50000000  1
  Li  Li114  1  0.22575967  0.11287984  0.50000000  1
  Li  Li115  1  0.66666667  0.33333333  0.05208507  1
  Li  Li116  1  0.66666667  0.33333333  0.94791493  1
  Li  Li117  1  0.00000000  0.00000000  0.50000000  1
  Li  Li118  1  0.07409890  0.33470907  0.44813376  1
  Li  Li119  1  0.66529093  0.73938983  0.44813376  1
  Li  Li120  1  0.26061017  0.92590110  0.44813376  1
  Li  Li121  1  0.66529093  0.92590110  0.55186624  1
  Li  Li122  1  0.26061017  0.33470907  0.55186624  1
  Li  Li123  1  0.07409890  0.73938983  0.55186624  1
  Li  Li124  1  0.07414172  0.92585828  0.50000000  1
  Li  Li125  1  0.07414172  0.14828343  0.50000000  1
  Li  Li126  1  0.85171657  0.92585828  0.50000000  1
  Li  Li127  1  0.77703492  0.02580235  0.79097861  1
  Li  Li128  1  0.97419765  0.75123257  0.79097861  1
  Li  Li129  1  0.24876743  0.22296508  0.79097861  1
  Li  Li130  1  0.97419765  0.22296508  0.20902139  1
  Li  Li131  1  0.24876743  0.02580235  0.20902139  1
  Li  Li132  1  0.77703492  0.75123257  0.20902139  1
  Li  Li133  1  0.75465145  0.19931716  0.70127872  1
  Li  Li134  1  0.80068284  0.55533429  0.70127872  1
  Li  Li135  1  0.44466571  0.24534855  0.70127872  1
  Li  Li136  1  0.80068284  0.24534855  0.29872128  1
  Li  Li137  1  0.44466571  0.19931716  0.29872128  1
  Li  Li138  1  0.75465145  0.55533429  0.29872128  1
  Li  Li139  1  0.66666667  0.33333333  0.63860782  1
  Li  Li140  1  0.66666667  0.33333333  0.36139218  1
  Li  Li141  1  0.23260245  0.76739755  0.00000000  1
  Li  Li142  1  0.23260245  0.46520489  -0.00000000  1
  Li  Li143  1  0.53479511  0.76739755  -0.00000000  1
  Li  Li144  1  0.33333333  0.66666667  0.50000000  1
  Li  Li145  1  0.00000000  0.00000000  0.00000000  1
  Li  Li146  1  0.94317989  0.56306300  0.69754418  1
  Li  Li147  1  0.43693700  0.38011689  0.69754418  1
  Li  Li148  1  0.61988311  0.05682011  0.69754418  1
  Li  Li149  1  0.43693700  0.05682011  0.30245582  1
  Li  Li150  1  0.61988311  0.56306300  0.30245582  1
  Li  Li151  1  0.94317989  0.38011689  0.30245582  1
