# generated using pymatgen
data_LiF
_symmetry_space_group_name_H-M   'P 1'
_cell_length_a   9.76809691
_cell_length_b   13.90425806
_cell_length_c   8.28902010
_cell_angle_alpha   90.00000000
_cell_angle_beta   90.00000000
_cell_angle_gamma   90.00000000
_symmetry_Int_Tables_number   1
_chemical_formula_structural   LiF
_chemical_formula_sum   'Li30 F30'
_cell_volume   1125.79929491
_cell_formula_units_Z   30
loop_
 _symmetry_equiv_pos_site_id
 _symmetry_equiv_pos_as_xyz
  1  'x, y, z'
loop_
 _atom_site_type_symbol
 _atom_site_label
 _atom_site_symmetry_multiplicity
 _atom_site_fract_x
 _atom_site_fract_y
 _atom_site_fract_z
 _atom_site_occupancy
  F  F0  1  0.59821473  0.56623467  0.22019198  1
  F  F1  1  0.40178527  0.43376533  0.22019198  1
  F  F2  1  0.90178527  0.06623467  0.77980802  1
  F  F3  1  0.09821473  0.93376533  0.77980802  1
  F  F4  1  0.40178527  0.43376533  0.77980802  1
  F  F5  1  0.59821473  0.56623467  0.77980802  1
  F  F6  1  0.09821473  0.93376533  0.22019198  1
  F  F7  1  0.90178527  0.06623467  0.22019198  1
  F  F8  1  0.00000000  0.00000000  0.60503578  1
  F  F9  1  0.50000000  0.50000000  0.39496422  1
  F  F10  1  0.00000000  0.00000000  0.39496422  1
  F  F11  1  0.50000000  0.50000000  0.60503578  1
  F  F12  1  0.27815232  0.04762235  0.57903319  1
  F  F13  1  0.72184768  0.95237765  0.57903319  1
  F  F14  1  0.22184768  0.54762235  0.42096681  1
  F  F15  1  0.77815232  0.45237765  0.42096681  1
  F  F16  1  0.72184768  0.95237765  0.42096681  1
  F  F17  1  0.27815232  0.04762235  0.42096681  1
  F  F18  1  0.77815232  0.45237765  0.57903319  1
  F  F19  1  0.22184768  0.54762235  0.57903319  1
  F  F20  1  0.87460930  0.69686384  0.00000000  1
  F  F21  1  0.12539070  0.30313616  0.00000000  1
  F  F22  1  0.62539070  0.19686384  0.00000000  1
  F  F23  1  0.37460930  0.80313616  0.00000000  1
  F  F24  1  0.54084322  0.98952250  0.50000000  1
  F  F25  1  0.45915678  0.01047750  0.50000000  1
  F  F26  1  0.95915678  0.48952250  0.50000000  1
  F  F27  1  0.04084322  0.51047750  0.50000000  1
  F  F28  1  0.00000000  0.00000000  0.50000000  1
  F  F29  1  0.50000000  0.50000000  0.50000000  1
  Li  Li30  1  0.61915552  0.71857537  0.79057252  1
  Li  Li31  1  -0.61915552  -0.71857537  0.79057252  1
  Li  Li32  1  -0.11915552  1.21857537  -0.79057252  1
  Li  Li33  1  1.11915552  -0.21857537  -0.79057252  1
  Li  Li34  1  -0.61915552  -0.71857537  -0.79057252  1
  Li  Li35  1  0.61915552  0.71857537  -0.79057252  1
  Li  Li36  1  1.11915552  -0.21857537  0.79057252  1
  Li  Li37  1  -0.11915552  1.21857537  0.79057252  1
  Li  Li38  1  0.00000000  0.00000000  0.00000000  1
  Li  Li39  1  0.50000000  0.50000000  0.00000000  1
  Li  Li40  1  0.00000000  0.50000000  0.11175139  1
  Li  Li41  1  0.50000000  0.00000000  0.88824861  1
  Li  Li42  1  0.00000000  0.50000000  0.88824861  1
  Li  Li43  1  0.50000000  0.00000000  0.11175139  1
  Li  Li44  1  0.91621567  0.74563644  0.18635676  1
  Li  Li45  1  0.08378433  0.25436356  0.18635676  1
  Li  Li46  1  0.58378433  0.24563644  0.81364324  1
  Li  Li47  1  0.41621567  0.75436356  0.81364324  1
  Li  Li48  1  0.08378433  0.25436356  0.81364324  1
  Li  Li49  1  0.91621567  0.74563644  0.81364324  1
  Li  Li50  1  0.41621567  0.75436356  0.18635676  1
  Li  Li51  1  0.58378433  0.24563644  0.18635676  1
  Li  Li52  1  0.33955881  0.38984979  0.50000000  1
  Li  Li53  1  0.66044119  0.61015021  0.50000000  1
  Li  Li54  1  0.16044119  0.88984979  0.50000000  1
  Li  Li55  1  0.83955881  0.11015021  0.50000000  1
  Li  Li56  1  0.91821721  0.40704937  0.00000000  1
  Li  Li57  1  0.08178279  0.59295063  0.00000000  1
  Li  Li58  1  0.58178279  0.90704937  0.00000000  1
  Li  Li59  1  0.41821721  0.09295063  0.00000000  1
