# generated using pymatgen
data_LiF
_symmetry_space_group_name_H-M   'P 1'
_cell_length_a   9.11909538
_cell_length_b   9.11909538
_cell_length_c   10.63328224
_cell_angle_alpha   90.00000000
_cell_angle_beta   90.00000000
_cell_angle_gamma   120.00000000
_symmetry_Int_Tables_number   1
_chemical_formula_structural   LiF
_chemical_formula_sum   'Li36 F36'
_cell_volume   765.77553872
_cell_formula_units_Z   36
loop_
 _symmetry_equiv_pos_site_id
 _symmetry_equiv_pos_as_xyz
  1  'x, y, z'
loop_
 _atom_site_type_symbol
 _atom_site_label
 _atom_site_symmetry_multiplicity
 _atom_site_fract_x
 _atom_site_fract_y
 _atom_site_fract_z
 _atom_site_occupancy
  F  F0  1  0.00000000  0.00000000  0.25000000  1
  F  F1  1  0.00000000  0.00000000  0.75000000  1
  F  F2  1  0.66666667  0.33333333  0.58333333  1
  F  F3  1  0.66666667  0.33333333  0.08333333  1
  F  F4  1  0.33333333  0.66666667  0.91666667  1
  F  F5  1  0.33333333  0.66666667  0.41666667  1
  F  F6  1  0.50000000  -0.00000000  0.00000000  1
  F  F7  1  0.00000000  0.50000000  0.00000000  1
  F  F8  1  0.50000000  0.50000000  0.00000000  1
  F  F9  1  0.00000000  0.50000000  0.50000000  1
  F  F10  1  0.50000000  -0.00000000  0.50000000  1
  F  F11  1  0.50000000  0.50000000  0.50000000  1
  F  F12  1  0.16666667  0.33333333  0.33333333  1
  F  F13  1  0.66666667  0.83333333  0.33333333  1
  F  F14  1  0.16666667  0.83333333  0.33333333  1
  F  F15  1  0.66666667  0.83333333  0.83333333  1
  F  F16  1  0.16666667  0.33333333  0.83333333  1
  F  F17  1  0.16666667  0.83333333  0.83333333  1
  F  F18  1  0.83333333  0.66666667  0.66666667  1
  F  F19  1  0.33333333  0.16666667  0.66666667  1
  F  F20  1  0.83333333  0.16666667  0.66666667  1
  F  F21  1  0.33333333  0.16666667  0.16666667  1
  F  F22  1  0.83333333  0.66666667  0.16666667  1
  F  F23  1  0.83333333  0.16666667  0.16666667  1
  F  F24  1  0.00000000  0.00000000  0.46561338  1
  F  F25  1  0.00000000  0.00000000  0.03438662  1
  F  F26  1  0.00000000  0.00000000  0.53438662  1
  F  F27  1  0.00000000  0.00000000  0.96561338  1
  F  F28  1  0.66666667  0.33333333  0.79894672  1
  F  F29  1  0.66666667  0.33333333  0.36771995  1
  F  F30  1  0.66666667  0.33333333  0.86771995  1
  F  F31  1  0.66666667  0.33333333  0.29894672  1
  F  F32  1  0.33333333  0.66666667  0.13228005  1
  F  F33  1  0.33333333  0.66666667  0.70105328  1
  F  F34  1  0.33333333  0.66666667  0.20105328  1
  F  F35  1  0.33333333  0.66666667  0.63228005  1
  Li  Li36  1  0.29116088  0.47101114  0.68715040  1
  Li  Li37  1  -0.47101114  -0.17985026  0.68715040  1
  Li  Li38  1  0.17985026  -0.29116088  0.68715040  1
  Li  Li39  1  0.47101114  0.29116088  -0.18715040  1
  Li  Li40  1  -0.17985026  -0.47101114  -0.18715040  1
  Li  Li41  1  -0.29116088  0.17985026  -0.18715040  1
  Li  Li42  1  -0.29116088  -0.47101114  -0.68715040  1
  Li  Li43  1  0.47101114  0.17985026  -0.68715040  1
  Li  Li44  1  -0.17985026  0.29116088  -0.68715040  1
  Li  Li45  1  -0.47101114  -0.29116088  1.18715040  1
  Li  Li46  1  0.17985026  0.47101114  1.18715040  1
  Li  Li47  1  0.29116088  -0.17985026  1.18715040  1
  Li  Li48  1  0.95782754  0.80434447  1.02048373  1
  Li  Li49  1  0.19565553  0.15348307  1.02048373  1
  Li  Li50  1  0.84651693  0.04217246  1.02048373  1
  Li  Li51  1  1.13767780  0.62449421  0.14618294  1
  Li  Li52  1  0.48681641  -0.13767780  0.14618294  1
  Li  Li53  1  0.37550579  0.51318359  0.14618294  1
  Li  Li54  1  0.37550579  -0.13767780  -0.35381706  1
  Li  Li55  1  1.13767780  0.51318359  -0.35381706  1
  Li  Li56  1  0.48681641  0.62449421  -0.35381706  1
  Li  Li57  1  0.19565553  0.04217246  1.52048373  1
  Li  Li58  1  0.84651693  0.80434447  1.52048373  1
  Li  Li59  1  0.95782754  0.15348307  1.52048373  1
  Li  Li60  1  0.62449421  1.13767780  1.35381706  1
  Li  Li61  1  -0.13767780  0.48681641  1.35381706  1
  Li  Li62  1  0.51318359  0.37550579  1.35381706  1
  Li  Li63  1  0.80434447  0.95782754  0.47951627  1
  Li  Li64  1  0.15348307  0.19565553  0.47951627  1
  Li  Li65  1  0.04217246  0.84651693  0.47951627  1
  Li  Li66  1  0.04217246  0.19565553  -0.02048373  1
  Li  Li67  1  0.80434447  0.84651693  -0.02048373  1
  Li  Li68  1  0.15348307  0.95782754  -0.02048373  1
  Li  Li69  1  -0.13767780  0.37550579  1.85381706  1
  Li  Li70  1  0.51318359  1.13767780  1.85381706  1
  Li  Li71  1  0.62449421  0.48681641  1.85381706  1
