# generated using pymatgen
data_Li2Y2MoP3Se2
_symmetry_space_group_name_H-M   'P 1'
_cell_length_a   5.24722702
_cell_length_b   5.56929307
_cell_length_c   7.21986297
_cell_angle_alpha   94.42264388
_cell_angle_beta   99.63159893
_cell_angle_gamma   107.76400273
_symmetry_Int_Tables_number   1
_chemical_formula_structural   Li2Y2MoP3Se2
_chemical_formula_sum   'Li2 Y2 Mo1 P3 Se2'
_cell_volume   196.24239485
_cell_formula_units_Z   1
loop_
 _symmetry_equiv_pos_site_id
 _symmetry_equiv_pos_as_xyz
  1  'x, y, z'
loop_
 _atom_site_type_symbol
 _atom_site_label
 _atom_site_symmetry_multiplicity
 _atom_site_fract_x
 _atom_site_fract_y
 _atom_site_fract_z
 _atom_site_occupancy
  Se  Se0  1  0.12500000  0.00000000  0.25000000  1
  Se  Se1  1  0.00000000  0.00000000  0.00000000  1
  P  P2  1  0.37500000  0.00000000  0.25000000  1
  P  P3  1  0.25000000  0.25000000  0.25000000  1
  P  P4  1  0.00000000  0.25000000  0.12500000  1
  Mo  Mo5  1  0.03270198  0.20642979  0.51818408  1
  Li  Li6  1  0.66034248  0.26733162  0.95536764  1
  Li  Li7  1  0.94740788  0.83636735  0.00451137  1
  Y  Y8  1  0.43869340  0.06785991  0.99885226  1
  Y  Y9  1  0.01902811  0.66292753  0.30263654  1
