# generated using pymatgen
data_LiF
_symmetry_space_group_name_H-M   'P 1'
_cell_length_a   9.78511534
_cell_length_b   6.53168596
_cell_length_c   18.08855336
_cell_angle_alpha   90.00000000
_cell_angle_beta   90.00000000
_cell_angle_gamma   90.00000000
_symmetry_Int_Tables_number   1
_chemical_formula_structural   LiF
_chemical_formula_sum   'Li32 F32'
_cell_volume   1156.09914650
_cell_formula_units_Z   32
loop_
 _symmetry_equiv_pos_site_id
 _symmetry_equiv_pos_as_xyz
  1  'x, y, z'
loop_
 _atom_site_type_symbol
 _atom_site_label
 _atom_site_symmetry_multiplicity
 _atom_site_fract_x
 _atom_site_fract_y
 _atom_site_fract_z
 _atom_site_occupancy
  F  F0  1  0.00000000  0.00000000  0.00000000  1
  F  F1  1  0.50000000  -0.00000000  0.50000000  1
  F  F2  1  0.00000000  0.50000000  0.00000000  1
  F  F3  1  0.50000000  0.50000000  0.50000000  1
  F  F4  1  0.18966035  0.25000000  0.66180357  1
  F  F5  1  0.31033965  0.75000000  0.16180357  1
  F  F6  1  0.81033965  0.75000000  0.33819643  1
  F  F7  1  0.68966035  0.25000000  0.83819643  1
  F  F8  1  0.68194991  0.83451456  0.97435350  1
  F  F9  1  0.81805009  0.16548544  0.47435350  1
  F  F10  1  0.31805009  0.33451456  0.02564650  1
  F  F11  1  0.18194991  0.66548544  0.52564650  1
  F  F12  1  0.31805009  0.16548544  0.02564650  1
  F  F13  1  0.18194991  0.83451456  0.52564650  1
  F  F14  1  0.68194991  0.66548544  0.97435350  1
  F  F15  1  0.81805009  0.33451456  0.47435350  1
  F  F16  1  0.65304405  0.65247649  0.27795087  1
  F  F17  1  0.84695595  0.34752351  0.77795087  1
  F  F18  1  0.34695595  0.15247649  0.72204913  1
  F  F19  1  0.15304405  0.84752351  0.22204913  1
  F  F20  1  0.34695595  0.34752351  0.72204913  1
  F  F21  1  0.15304405  0.65247649  0.22204913  1
  F  F22  1  0.65304405  0.84752351  0.27795087  1
  F  F23  1  0.84695595  0.15247649  0.77795087  1
  F  F24  1  0.98648812  0.80422778  0.65624044  1
  F  F25  1  0.51351188  0.19577222  0.15624044  1
  F  F26  1  0.01351188  0.30422778  0.34375956  1
  F  F27  1  0.48648812  0.69577222  0.84375956  1
  F  F28  1  0.01351188  0.19577222  0.34375956  1
  F  F29  1  0.48648812  0.80422778  0.84375956  1
  F  F30  1  0.98648812  0.69577222  0.65624044  1
  F  F31  1  0.51351188  0.30422778  0.15624044  1
  Li  Li32  1  0.06167636  0.25000000  0.76848336  1
  Li  Li33  1  0.43832364  0.75000000  0.26848336  1
  Li  Li34  1  0.93832364  0.75000000  0.23151664  1
  Li  Li35  1  0.56167636  0.25000000  0.73151664  1
  Li  Li36  1  0.38799172  0.91769296  0.22827609  1
  Li  Li37  1  0.11200828  -0.91769296  0.72827609  1
  Li  Li38  1  -0.38799172  1.41769296  -0.22827609  1
  Li  Li39  1  0.88799172  -0.41769296  0.27172391  1
  Li  Li40  1  -0.38799172  -0.91769296  -0.22827609  1
  Li  Li41  1  0.88799172  0.91769296  0.27172391  1
  Li  Li42  1  0.38799172  -0.41769296  0.22827609  1
  Li  Li43  1  0.11200828  1.41769296  0.72827609  1
  Li  Li44  1  0.61611690  0.25000000  0.14070023  1
  Li  Li45  1  0.88388310  0.75000000  0.64070023  1
  Li  Li46  1  0.38388310  0.75000000  0.85929977  1
  Li  Li47  1  0.11611690  0.25000000  0.35929977  1
  Li  Li48  1  0.93144628  0.42621768  0.76344522  1
  Li  Li49  1  0.56855372  0.57378232  0.26344522  1
  Li  Li50  1  0.06855372  0.92621768  0.23655478  1
  Li  Li51  1  0.43144628  0.07378232  0.73655478  1
  Li  Li52  1  0.06855372  0.57378232  0.23655478  1
  Li  Li53  1  0.43144628  0.42621768  0.73655478  1
  Li  Li54  1  0.93144628  0.07378232  0.76344522  1
  Li  Li55  1  0.56855372  0.92621768  0.26344522  1
  Li  Li56  1  0.98073972  0.03487988  0.88764766  1
  Li  Li57  1  0.51926028  0.96512012  0.38764766  1
  Li  Li58  1  0.01926028  0.53487988  0.11235234  1
  Li  Li59  1  0.48073972  0.46512012  0.61235234  1
  Li  Li60  1  0.01926028  0.96512012  0.11235234  1
  Li  Li61  1  0.48073972  0.03487988  0.61235234  1
  Li  Li62  1  0.98073972  0.46512012  0.88764766  1
  Li  Li63  1  0.51926028  0.53487988  0.38764766  1
