# generated using pymatgen
data_LiF
_symmetry_space_group_name_H-M   'P 1'
_cell_length_a   12.48346224
_cell_length_b   11.50898324
_cell_length_c   7.65659935
_cell_angle_alpha   90.00000000
_cell_angle_beta   90.00000000
_cell_angle_gamma   90.00000000
_symmetry_Int_Tables_number   1
_chemical_formula_structural   LiF
_chemical_formula_sum   'Li34 F34'
_cell_volume   1100.03861785
_cell_formula_units_Z   34
loop_
 _symmetry_equiv_pos_site_id
 _symmetry_equiv_pos_as_xyz
  1  'x, y, z'
loop_
 _atom_site_type_symbol
 _atom_site_label
 _atom_site_symmetry_multiplicity
 _atom_site_fract_x
 _atom_site_fract_y
 _atom_site_fract_z
 _atom_site_occupancy
  F  F0  1  0.14392740  0.10101783  0.00000000  1
  F  F1  1  0.85607260  0.89898217  0.00000000  1
  F  F2  1  0.35607260  0.60101783  0.00000000  1
  F  F3  1  0.64392740  0.39898217  -0.00000000  1
  F  F4  1  0.91005178  0.32747930  -0.00000000  1
  F  F5  1  0.08994822  0.67252070  -0.00000000  1
  F  F6  1  0.58994822  0.82747930  -0.00000000  1
  F  F7  1  0.41005178  0.17252070  -0.00000000  1
  F  F8  1  0.91579634  0.50558514  0.92533403  1
  F  F9  1  0.08420366  0.49441486  0.92533403  1
  F  F10  1  0.58420366  0.00558514  0.07466597  1
  F  F11  1  0.41579634  0.99441486  0.07466597  1
  F  F12  1  0.08420366  0.49441486  0.07466597  1
  F  F13  1  0.91579634  0.50558514  0.07466597  1
  F  F14  1  0.41579634  0.99441486  0.92533403  1
  F  F15  1  0.58420366  0.00558514  0.92533403  1
  F  F16  1  0.00000000  0.50000000  0.43921933  1
  F  F17  1  0.50000000  0.00000000  0.56078067  1
  F  F18  1  0.00000000  0.50000000  0.56078067  1
  F  F19  1  0.50000000  0.00000000  0.43921933  1
  F  F20  1  0.84751230  0.96381587  0.21720877  1
  F  F21  1  0.15248770  0.03618413  0.21720877  1
  F  F22  1  0.65248770  0.46381587  0.78279123  1
  F  F23  1  0.34751230  0.53618413  0.78279123  1
  F  F24  1  0.15248770  0.03618413  0.78279123  1
  F  F25  1  0.84751230  0.96381587  0.78279123  1
  F  F26  1  0.34751230  0.53618413  0.21720877  1
  F  F27  1  0.65248770  0.46381587  0.21720877  1
  F  F28  1  0.00000000  0.50000000  0.31746405  1
  F  F29  1  0.50000000  0.00000000  0.68253595  1
  F  F30  1  0.00000000  0.50000000  0.68253595  1
  F  F31  1  0.50000000  0.00000000  0.31746405  1
  F  F32  1  0.00000000  0.50000000  0.00000000  1
  F  F33  1  0.50000000  0.00000000  0.00000000  1
  Li  Li34  1  0.27526124  0.73194291  0.00000000  1
  Li  Li35  1  0.72473876  0.26805709  -0.00000000  1
  Li  Li36  1  0.22473876  0.23194291  0.00000000  1
  Li  Li37  1  0.77526124  0.76805709  0.00000000  1
  Li  Li38  1  0.56598106  0.14694274  0.50000000  1
  Li  Li39  1  0.43401894  0.85305726  0.50000000  1
  Li  Li40  1  0.93401894  0.64694274  0.50000000  1
  Li  Li41  1  0.06598106  0.35305726  0.50000000  1
  Li  Li42  1  0.00000000  0.00000000  0.50000000  1
  Li  Li43  1  0.50000000  0.50000000  0.50000000  1
  Li  Li44  1  0.59566104  0.63764571  0.24909065  1
  Li  Li45  1  -0.59566104  -0.63764571  0.24909065  1
  Li  Li46  1  -0.09566104  1.13764571  -0.24909065  1
  Li  Li47  1  1.09566104  -0.13764571  -0.24909065  1
  Li  Li48  1  -0.59566104  -0.63764571  -0.24909065  1
  Li  Li49  1  0.59566104  0.63764571  -0.24909065  1
  Li  Li50  1  1.09566104  -0.13764571  0.24909065  1
  Li  Li51  1  -0.09566104  1.13764571  0.24909065  1
  Li  Li52  1  0.07255505  0.06309943  0.75877402  1
  Li  Li53  1  0.92744495  0.93690057  0.75877402  1
  Li  Li54  1  0.42744495  0.56309943  0.24122598  1
  Li  Li55  1  0.57255505  0.43690057  0.24122598  1
  Li  Li56  1  0.92744495  0.93690057  0.24122598  1
  Li  Li57  1  0.07255505  0.06309943  0.24122598  1
  Li  Li58  1  0.57255505  0.43690057  0.75877402  1
  Li  Li59  1  0.42744495  0.56309943  0.75877402  1
  Li  Li60  1  0.54351459  0.74953822  0.76778709  1
  Li  Li61  1  0.45648541  0.25046178  0.76778709  1
  Li  Li62  1  0.95648541  0.24953822  0.23221291  1
  Li  Li63  1  0.04351459  0.75046178  0.23221291  1
  Li  Li64  1  0.45648541  0.25046178  0.23221291  1
  Li  Li65  1  0.54351459  0.74953822  0.23221291  1
  Li  Li66  1  0.04351459  0.75046178  0.76778709  1
  Li  Li67  1  0.95648541  0.24953822  0.76778709  1
