# generated using pymatgen
data_LiF
_symmetry_space_group_name_H-M   'P 1'
_cell_length_a   7.52250931
_cell_length_b   9.62910184
_cell_length_c   10.12001566
_cell_angle_alpha   90.00000000
_cell_angle_beta   90.00000000
_cell_angle_gamma   90.00000000
_symmetry_Int_Tables_number   1
_chemical_formula_structural   LiF
_chemical_formula_sum   'Li24 F24'
_cell_volume   733.04341785
_cell_formula_units_Z   24
loop_
 _symmetry_equiv_pos_site_id
 _symmetry_equiv_pos_as_xyz
  1  'x, y, z'
loop_
 _atom_site_type_symbol
 _atom_site_label
 _atom_site_symmetry_multiplicity
 _atom_site_fract_x
 _atom_site_fract_y
 _atom_site_fract_z
 _atom_site_occupancy
  F  F0  1  0.00000000  0.00000000  0.15590261  1
  F  F1  1  0.50000000  0.50000000  0.84409739  1
  F  F2  1  0.00000000  0.00000000  0.84409739  1
  F  F3  1  0.50000000  0.50000000  0.15590261  1
  F  F4  1  0.28182356  0.85239637  0.11319493  1
  F  F5  1  0.71817644  0.14760363  0.11319493  1
  F  F6  1  0.21817644  0.35239637  0.88680507  1
  F  F7  1  0.78182356  0.64760363  0.88680507  1
  F  F8  1  0.71817644  0.14760363  0.88680507  1
  F  F9  1  0.28182356  0.85239637  0.88680507  1
  F  F10  1  0.78182356  0.64760363  0.11319493  1
  F  F11  1  0.21817644  0.35239637  0.11319493  1
  F  F12  1  0.00000000  0.00000000  0.00000000  1
  F  F13  1  0.50000000  0.50000000  -0.00000000  1
  F  F14  1  0.97683005  0.70005796  -0.00000000  1
  F  F15  1  0.02316995  0.29994204  -0.00000000  1
  F  F16  1  0.52316995  0.20005796  -0.00000000  1
  F  F17  1  0.47683005  0.79994204  0.00000000  1
  F  F18  1  0.51126326  0.11470967  0.00000000  1
  F  F19  1  0.48873674  0.88529033  0.00000000  1
  F  F20  1  0.98873674  0.61470967  -0.00000000  1
  F  F21  1  0.01126326  0.38529033  -0.00000000  1
  F  F22  1  0.00000000  0.00000000  0.50000000  1
  F  F23  1  0.50000000  0.50000000  0.50000000  1
  Li  Li24  1  0.30698337  0.87285796  0.33558637  1
  Li  Li25  1  -0.30698337  -0.87285796  0.33558637  1
  Li  Li26  1  0.19301663  1.37285796  -0.33558637  1
  Li  Li27  1  0.80698337  -0.37285796  -0.33558637  1
  Li  Li28  1  -0.30698337  -0.87285796  -0.33558637  1
  Li  Li29  1  0.30698337  0.87285796  -0.33558637  1
  Li  Li30  1  0.80698337  -0.37285796  0.33558637  1
  Li  Li31  1  0.19301663  1.37285796  0.33558637  1
  Li  Li32  1  0.00000000  0.50000000  0.50000000  1
  Li  Li33  1  0.50000000  0.00000000  0.50000000  1
  Li  Li34  1  0.70762597  0.85812853  0.69262579  1
  Li  Li35  1  0.29237403  0.14187147  0.69262579  1
  Li  Li36  1  0.79237403  0.35812853  0.30737421  1
  Li  Li37  1  0.20762597  0.64187147  0.30737421  1
  Li  Li38  1  0.29237403  0.14187147  0.30737421  1
  Li  Li39  1  0.70762597  0.85812853  0.30737421  1
  Li  Li40  1  0.20762597  0.64187147  0.69262579  1
  Li  Li41  1  0.79237403  0.35812853  0.69262579  1
  Li  Li42  1  0.00000000  0.50000000  0.13416727  1
  Li  Li43  1  0.50000000  0.00000000  0.86583273  1
  Li  Li44  1  0.00000000  0.50000000  0.86583273  1
  Li  Li45  1  0.50000000  0.00000000  0.13416727  1
  Li  Li46  1  0.00000000  0.50000000  0.00000000  1
  Li  Li47  1  0.50000000  0.00000000  0.00000000  1
