# generated using pymatgen
data_Li2Si4Te3F12
_symmetry_space_group_name_H-M   'P 1'
_cell_length_a   10.18165470
_cell_length_b   15.66101774
_cell_length_c   10.41806645
_cell_angle_alpha   90.00000000
_cell_angle_beta   90.00000000
_cell_angle_gamma   90.00000000
_symmetry_Int_Tables_number   1
_chemical_formula_structural   Li2Si4Te3F12
_chemical_formula_sum   'Li8 Si16 Te12 F48'
_cell_volume   1661.21356573
_cell_formula_units_Z   4
loop_
 _symmetry_equiv_pos_site_id
 _symmetry_equiv_pos_as_xyz
  1  'x, y, z'
loop_
 _atom_site_type_symbol
 _atom_site_label
 _atom_site_symmetry_multiplicity
 _atom_site_fract_x
 _atom_site_fract_y
 _atom_site_fract_z
 _atom_site_occupancy
  F  F0  1  0.15652860  0.30852259  0.38965802  1
  F  F1  1  0.84347140  0.69147741  0.38965802  1
  F  F2  1  0.34347140  0.80852259  0.11034198  1
  F  F3  1  0.65652860  0.19147741  0.11034198  1
  F  F4  1  0.84347140  0.69147741  0.61034198  1
  F  F5  1  0.15652860  0.30852259  0.61034198  1
  F  F6  1  0.65652860  0.19147741  0.88965802  1
  F  F7  1  0.34347140  0.80852259  0.88965802  1
  F  F8  1  0.00000000  0.50000000  0.50000000  1
  F  F9  1  0.50000000  0.00000000  0.00000000  1
  F  F10  1  0.00000000  0.00000000  0.50000000  1
  F  F11  1  0.50000000  0.50000000  0.00000000  1
  F  F12  1  0.16053391  0.28064490  0.55344345  1
  F  F13  1  0.83946609  0.71935510  0.55344345  1
  F  F14  1  0.33946609  0.78064490  0.94655655  1
  F  F15  1  0.66053391  0.21935510  0.94655655  1
  F  F16  1  0.83946609  0.71935510  0.44655655  1
  F  F17  1  0.16053391  0.28064490  0.44655655  1
  F  F18  1  0.66053391  0.21935510  0.05344345  1
  F  F19  1  0.33946609  0.78064490  0.05344345  1
  F  F20  1  0.12585797  0.49796975  0.05018053  1
  F  F21  1  0.87414203  0.50203025  0.05018053  1
  F  F22  1  0.37414203  0.99796975  0.44981947  1
  F  F23  1  0.62585797  0.00203025  0.44981947  1
  F  F24  1  0.87414203  0.50203025  0.94981947  1
  F  F25  1  0.12585797  0.49796975  0.94981947  1
  F  F26  1  0.62585797  0.00203025  0.55018053  1
  F  F27  1  0.37414203  0.99796975  0.55018053  1
  F  F28  1  0.22718895  0.30364535  0.40539037  1
  F  F29  1  0.77281105  0.69635465  0.40539037  1
  F  F30  1  0.27281105  0.80364535  0.09460963  1
  F  F31  1  0.72718895  0.19635465  0.09460963  1
  F  F32  1  0.77281105  0.69635465  0.59460963  1
  F  F33  1  0.22718895  0.30364535  0.59460963  1
  F  F34  1  0.72718895  0.19635465  0.90539037  1
  F  F35  1  0.27281105  0.80364535  0.90539037  1
  F  F36  1  0.66424128  0.47006034  0.60926623  1
  F  F37  1  0.33575872  0.52993966  0.60926623  1
  F  F38  1  0.83575872  0.97006034  0.89073377  1
  F  F39  1  0.16424128  0.02993966  0.89073377  1
  F  F40  1  0.33575872  0.52993966  0.39073377  1
  F  F41  1  0.66424128  0.47006034  0.39073377  1
  F  F42  1  0.16424128  0.02993966  0.10926623  1
  F  F43  1  0.83575872  0.97006034  0.10926623  1
  F  F44  1  0.00000000  0.00000000  0.00000000  1
  F  F45  1  0.50000000  0.50000000  0.50000000  1
  F  F46  1  0.00000000  0.50000000  0.00000000  1
  F  F47  1  0.50000000  0.00000000  0.50000000  1
  Li  Li48  1  0.28335643  0.88387546  0.28656220  1
  Li  Li49  1  0.71664357  0.11612454  0.28656220  1
  Li  Li50  1  0.21664357  0.38387546  0.21343780  1
  Li  Li51  1  0.78335643  0.61612454  0.21343780  1
  Li  Li52  1  0.71664357  0.11612454  0.71343780  1
  Li  Li53  1  0.28335643  0.88387546  0.71343780  1
  Li  Li54  1  0.78335643  0.61612454  0.78656220  1
  Li  Li55  1  0.21664357  0.38387546  0.78656220  1
  Si  Si56  1  0.25845110  0.75041630  0.39605127  1
  Si  Si57  1  -0.25845110  -0.75041630  0.39605127  1
  Si  Si58  1  0.24154890  1.25041630  0.10394873  1
  Si  Si59  1  0.75845110  -0.25041630  0.10394873  1
  Si  Si60  1  -0.25845110  -0.75041630  -0.39605127  1
  Si  Si61  1  0.25845110  0.75041630  -0.39605127  1
  Si  Si62  1  0.75845110  -0.25041630  0.89605127  1
  Si  Si63  1  0.24154890  1.25041630  0.89605127  1
  Si  Si64  1  0.88945185  0.29107621  0.36187832  1
  Si  Si65  1  0.11054815  0.70892379  0.36187832  1
  Si  Si66  1  0.61054815  0.79107621  0.13812168  1
  Si  Si67  1  0.38945185  0.20892379  0.13812168  1
  Si  Si68  1  0.11054815  0.70892379  0.63812168  1
  Si  Si69  1  0.88945185  0.29107621  0.63812168  1
  Si  Si70  1  0.38945185  0.20892379  0.86187832  1
  Si  Si71  1  0.61054815  0.79107621  0.86187832  1
  Te  Te72  1  0.40231937  0.00664971  0.71180663  1
  Te  Te73  1  0.59768063  0.99335029  0.71180663  1
  Te  Te74  1  0.09768063  0.50664971  0.78819337  1
  Te  Te75  1  0.90231937  0.49335029  0.78819337  1
  Te  Te76  1  0.59768063  0.99335029  0.28819337  1
  Te  Te77  1  0.40231937  0.00664971  0.28819337  1
  Te  Te78  1  0.90231937  0.49335029  0.21180663  1
  Te  Te79  1  0.09768063  0.50664971  0.21180663  1
  Te  Te80  1  0.29503392  0.89753007  0.00000000  1
  Te  Te81  1  0.70496608  0.10246993  0.00000000  1
  Te  Te82  1  0.20496608  0.39753007  0.50000000  1
  Te  Te83  1  0.79503392  0.60246993  0.50000000  1
