# generated using pymatgen
data_LiF
_symmetry_space_group_name_H-M   'P 1'
_cell_length_a   10.51494495
_cell_length_b   8.33671145
_cell_length_c   6.34850313
_cell_angle_alpha   90.00000000
_cell_angle_beta   90.00000000
_cell_angle_gamma   90.00000000
_symmetry_Int_Tables_number   1
_chemical_formula_structural   LiF
_chemical_formula_sum   'Li28 F28'
_cell_volume   556.51017771
_cell_formula_units_Z   28
loop_
 _symmetry_equiv_pos_site_id
 _symmetry_equiv_pos_as_xyz
  1  'x, y, z'
loop_
 _atom_site_type_symbol
 _atom_site_label
 _atom_site_symmetry_multiplicity
 _atom_site_fract_x
 _atom_site_fract_y
 _atom_site_fract_z
 _atom_site_occupancy
  F  F0  1  0.71757760  0.59618735  0.50000000  1
  F  F1  1  0.28242240  0.40381265  0.50000000  1
  F  F2  1  0.78242240  0.09618735  0.50000000  1
  F  F3  1  0.21757760  0.90381265  0.50000000  1
  F  F4  1  0.98476083  0.73001372  0.54926796  1
  F  F5  1  -0.98476083  -0.73001372  0.54926796  1
  F  F6  1  -0.48476083  1.23001372  -0.54926796  1
  F  F7  1  1.48476083  -0.23001372  -0.54926796  1
  F  F8  1  -0.98476083  -0.73001372  -0.54926796  1
  F  F9  1  0.98476083  0.73001372  -0.54926796  1
  F  F10  1  1.48476083  -0.23001372  0.54926796  1
  F  F11  1  -0.48476083  1.23001372  0.54926796  1
  F  F12  1  0.60384307  0.38447778  0.42740034  1
  F  F13  1  0.39615693  0.61552222  0.42740034  1
  F  F14  1  0.89615693  0.88447778  0.57259966  1
  F  F15  1  0.10384307  0.11552222  0.57259966  1
  F  F16  1  0.39615693  0.61552222  0.57259966  1
  F  F17  1  0.60384307  0.38447778  0.57259966  1
  F  F18  1  0.10384307  0.11552222  0.42740034  1
  F  F19  1  0.89615693  0.88447778  0.42740034  1
  F  F20  1  0.00000000  0.00000000  0.50000000  1
  F  F21  1  0.50000000  0.50000000  0.50000000  1
  F  F22  1  0.00000000  0.50000000  0.00000000  1
  F  F23  1  0.50000000  -0.00000000  0.00000000  1
  F  F24  1  0.90257230  0.74344513  0.50000000  1
  F  F25  1  0.09742770  0.25655487  0.50000000  1
  F  F26  1  0.59742770  0.24344513  0.50000000  1
  F  F27  1  0.40257230  0.75655487  0.50000000  1
  Li  Li28  1  0.00000000  0.50000000  0.33541117  1
  Li  Li29  1  0.50000000  -0.00000000  0.66458883  1
  Li  Li30  1  0.00000000  0.50000000  0.66458883  1
  Li  Li31  1  0.50000000  -0.00000000  0.33541117  1
  Li  Li32  1  0.94029125  0.25925047  0.10185622  1
  Li  Li33  1  0.05970875  0.74074953  0.10185622  1
  Li  Li34  1  0.55970875  0.75925047  0.89814378  1
  Li  Li35  1  0.44029125  0.24074953  0.89814378  1
  Li  Li36  1  0.05970875  0.74074953  0.89814378  1
  Li  Li37  1  0.94029125  0.25925047  0.89814378  1
  Li  Li38  1  0.44029125  0.24074953  0.10185622  1
  Li  Li39  1  0.55970875  0.75925047  0.10185622  1
  Li  Li40  1  0.29289544  0.41626795  0.68506987  1
  Li  Li41  1  0.70710456  0.58373205  0.68506987  1
  Li  Li42  1  0.20710456  0.91626795  0.31493013  1
  Li  Li43  1  0.79289544  0.08373205  0.31493013  1
  Li  Li44  1  0.70710456  0.58373205  0.31493013  1
  Li  Li45  1  0.29289544  0.41626795  0.31493013  1
  Li  Li46  1  0.79289544  0.08373205  0.68506987  1
  Li  Li47  1  0.20710456  0.91626795  0.68506987  1
  Li  Li48  1  0.67363474  0.87822046  0.38879140  1
  Li  Li49  1  0.32636526  0.12177954  0.38879140  1
  Li  Li50  1  0.82636526  0.37822046  0.61120860  1
  Li  Li51  1  0.17363474  0.62177954  0.61120860  1
  Li  Li52  1  0.32636526  0.12177954  0.61120860  1
  Li  Li53  1  0.67363474  0.87822046  0.61120860  1
  Li  Li54  1  0.17363474  0.62177954  0.38879140  1
  Li  Li55  1  0.82636526  0.37822046  0.38879140  1
