# generated using pymatgen
data_LiF
_symmetry_space_group_name_H-M   'P 1'
_cell_length_a   15.79486209
_cell_length_b   15.79486209
_cell_length_c   5.92632252
_cell_angle_alpha   90.00000000
_cell_angle_beta   90.00000000
_cell_angle_gamma   120.00000000
_symmetry_Int_Tables_number   1
_chemical_formula_structural   LiF
_chemical_formula_sum   'Li56 F56'
_cell_volume   1280.40567747
_cell_formula_units_Z   56
loop_
 _symmetry_equiv_pos_site_id
 _symmetry_equiv_pos_as_xyz
  1  'x, y, z'
loop_
 _atom_site_type_symbol
 _atom_site_label
 _atom_site_symmetry_multiplicity
 _atom_site_fract_x
 _atom_site_fract_y
 _atom_site_fract_z
 _atom_site_occupancy
  F  F0  1  0.51785723  0.68650573  0.11948336  1
  F  F1  1  0.31349427  0.83135149  0.11948336  1
  F  F2  1  0.16864851  0.48214277  0.11948336  1
  F  F3  1  0.31349427  0.48214277  0.88051664  1
  F  F4  1  0.16864851  0.68650573  0.88051664  1
  F  F5  1  0.51785723  0.83135149  0.88051664  1
  F  F6  1  0.19908145  0.35976945  0.07484001  1
  F  F7  1  0.64023055  0.83931200  0.07484001  1
  F  F8  1  0.16068800  0.80091855  0.07484001  1
  F  F9  1  0.64023055  0.80091855  0.92515999  1
  F  F10  1  0.16068800  0.35976945  0.92515999  1
  F  F11  1  0.19908145  0.83931200  0.92515999  1
  F  F12  1  0.36537704  0.27511165  0.88879013  1
  F  F13  1  0.72488835  0.09026539  0.88879013  1
  F  F14  1  0.90973461  0.63462296  0.88879013  1
  F  F15  1  0.72488835  0.63462296  0.11120987  1
  F  F16  1  0.90973461  0.27511165  0.11120987  1
  F  F17  1  0.36537704  0.09026539  0.11120987  1
  F  F18  1  0.06646910  0.51459873  0.03251771  1
  F  F19  1  0.48540127  0.55187038  0.03251771  1
  F  F20  1  0.44812962  0.93353090  0.03251771  1
  F  F21  1  0.48540127  0.93353090  0.96748229  1
  F  F22  1  0.44812962  0.51459873  0.96748229  1
  F  F23  1  0.06646910  0.55187038  0.96748229  1
  F  F24  1  0.00000000  0.00000000  0.81494449  1
  F  F25  1  0.00000000  0.00000000  0.18505551  1
  F  F26  1  0.53430336  0.20804732  0.81790404  1
  F  F27  1  0.79195268  0.32625604  0.81790404  1
  F  F28  1  0.67374396  0.46569664  0.81790404  1
  F  F29  1  0.79195268  0.46569664  0.18209596  1
  F  F30  1  0.67374396  0.20804732  0.18209596  1
  F  F31  1  0.53430336  0.32625604  0.18209596  1
  F  F32  1  0.12452713  0.54050568  0.52212050  1
  F  F33  1  0.45949432  0.58402145  0.52212050  1
  F  F34  1  0.41597855  0.87547287  0.52212050  1
  F  F35  1  0.45949432  0.87547287  0.47787950  1
  F  F36  1  0.41597855  0.54050568  0.47787950  1
  F  F37  1  0.12452713  0.58402145  0.47787950  1
  F  F38  1  0.56508724  0.43491276  0.50000000  1
  F  F39  1  0.56508724  0.13017448  0.50000000  1
  F  F40  1  0.86982552  0.43491276  0.50000000  1
  F  F41  1  0.00074159  0.45178527  0.35434599  1
  F  F42  1  0.54821473  0.54895632  0.35434599  1
  F  F43  1  0.45104368  0.99925841  0.35434599  1
  F  F44  1  0.54821473  0.99925841  0.64565401  1
  F  F45  1  0.45104368  0.45178527  0.64565401  1
  F  F46  1  0.00074159  0.54895632  0.64565401  1
  F  F47  1  0.61683485  0.42587461  0.63113805  1
  F  F48  1  0.57412539  0.19096024  0.63113805  1
  F  F49  1  0.80903976  0.38316515  0.63113805  1
  F  F50  1  0.57412539  0.38316515  0.36886195  1
  F  F51  1  0.80903976  0.42587461  0.36886195  1
  F  F52  1  0.61683485  0.19096024  0.36886195  1
  F  F53  1  0.02653409  0.97346591  0.00000000  1
  F  F54  1  0.02653409  0.05306819  0.00000000  1
  F  F55  1  0.94693181  0.97346591  0.00000000  1
  Li  Li56  1  0.33333333  0.66666667  0.50000000  1
  Li  Li57  1  0.54749425  0.37493944  0.70150527  1
  Li  Li58  1  -0.37493944  0.17255481  0.70150527  1
  Li  Li59  1  -0.17255481  -0.54749425  0.70150527  1
  Li  Li60  1  -0.37493944  -0.54749425  -0.70150527  1
  Li  Li61  1  -0.17255481  0.37493944  -0.70150527  1
  Li  Li62  1  0.54749425  0.17255481  -0.70150527  1
  Li  Li63  1  0.59641778  0.02361156  0.18384440  1
  Li  Li64  1  0.97638844  0.57280622  0.18384440  1
  Li  Li65  1  0.42719378  0.40358222  0.18384440  1
  Li  Li66  1  0.97638844  0.40358222  0.81615560  1
  Li  Li67  1  0.42719378  0.02361156  0.81615560  1
  Li  Li68  1  0.59641778  0.57280622  0.81615560  1
  Li  Li69  1  0.82660683  0.25132923  0.68190304  1
  Li  Li70  1  0.74867077  0.57527760  0.68190304  1
  Li  Li71  1  0.42472240  0.17339317  0.68190304  1
  Li  Li72  1  0.74867077  0.17339317  0.31809696  1
  Li  Li73  1  0.42472240  0.25132923  0.31809696  1
  Li  Li74  1  0.82660683  0.57527760  0.31809696  1
  Li  Li75  1  0.13702429  0.06966088  0.19995627  1
  Li  Li76  1  0.93033912  0.06736342  0.19995627  1
  Li  Li77  1  0.93263658  0.86297571  0.19995627  1
  Li  Li78  1  0.93033912  0.86297571  0.80004373  1
  Li  Li79  1  0.93263658  0.06966088  0.80004373  1
  Li  Li80  1  0.13702429  0.06736342  0.80004373  1
  Li  Li81  1  0.52399727  0.60197158  0.38511819  1
  Li  Li82  1  0.39802842  0.92202569  0.38511819  1
  Li  Li83  1  0.07797431  0.47600273  0.38511819  1
  Li  Li84  1  0.39802842  0.47600273  0.61488181  1
  Li  Li85  1  0.07797431  0.60197158  0.61488181  1
  Li  Li86  1  0.52399727  0.92202569  0.61488181  1
  Li  Li87  1  0.41110011  0.64539537  0.24365546  1
  Li  Li88  1  0.35460463  0.76570474  0.24365546  1
  Li  Li89  1  0.23429526  0.58889989  0.24365546  1
  Li  Li90  1  0.35460463  0.58889989  0.75634454  1
  Li  Li91  1  0.23429526  0.64539537  0.75634454  1
  Li  Li92  1  0.41110011  0.76570474  0.75634454  1
  Li  Li93  1  0.66666667  0.33333333  0.72956883  1
  Li  Li94  1  0.66666667  0.33333333  0.27043117  1
  Li  Li95  1  0.00000000  0.00000000  0.50000000  1
  Li  Li96  1  0.71529696  0.28470304  0.50000000  1
  Li  Li97  1  0.71529696  0.43059392  0.50000000  1
  Li  Li98  1  0.56940608  0.28470304  0.50000000  1
  Li  Li99  1  0.66520685  0.25041162  0.96419401  1
  Li  Li100  1  0.74958838  0.41479523  0.96419401  1
  Li  Li101  1  0.58520477  0.33479315  0.96419401  1
  Li  Li102  1  0.74958838  0.33479315  0.03580599  1
  Li  Li103  1  0.58520477  0.25041162  0.03580599  1
  Li  Li104  1  0.66520685  0.41479523  0.03580599  1
  Li  Li105  1  0.70103729  0.12788452  0.73501888  1
  Li  Li106  1  0.87211548  0.57315277  0.73501888  1
  Li  Li107  1  0.42684723  0.29896271  0.73501888  1
  Li  Li108  1  0.87211548  0.29896271  0.26498112  1
  Li  Li109  1  0.42684723  0.12788452  0.26498112  1
  Li  Li110  1  0.70103729  0.57315277  0.26498112  1
  Li  Li111  1  0.66666667  0.33333333  0.50000000  1
