# generated using pymatgen
data_Li2Y2Sb2As3P2
_symmetry_space_group_name_H-M   'P 1'
_cell_length_a   4.82352452
_cell_length_b   4.86780074
_cell_length_c   7.01800497
_cell_angle_alpha   95.04401569
_cell_angle_beta   100.98481753
_cell_angle_gamma   110.25980630
_symmetry_Int_Tables_number   1
_chemical_formula_structural   Li2Y2Sb2As3P2
_chemical_formula_sum   'Li2 Y2 Sb2 As3 P2'
_cell_volume   149.62121909
_cell_formula_units_Z   1
loop_
 _symmetry_equiv_pos_site_id
 _symmetry_equiv_pos_as_xyz
  1  'x, y, z'
loop_
 _atom_site_type_symbol
 _atom_site_label
 _atom_site_symmetry_multiplicity
 _atom_site_fract_x
 _atom_site_fract_y
 _atom_site_fract_z
 _atom_site_occupancy
  Y  Y0  1  0.00000000  0.00000000  0.00000000  1
  Y  Y1  1  0.50000000  0.50000000  0.50000000  1
  P  P2  1  0.50000000  0.50000000  0.00000000  1
  P  P3  1  0.50000000  0.00000000  0.50000000  1
  As  As4  1  0.00000000  0.50000000  0.50000000  1
  As  As5  1  0.58294481  0.87613652  0.79186693  1
  As  As6  1  0.53089269  0.03786763  0.06503688  1
  Li  Li7  1  0.10310661  0.32808860  0.19895242  1
  Li  Li8  1  0.49750338  0.56143686  0.24190003  1
  Sb  Sb9  1  0.83589039  0.07802499  0.43770632  1
  Sb  Sb10  1  0.18887143  0.63094274  0.62628263  1
