# generated using pymatgen
data_Li2Y2Mo(As2P)2
_symmetry_space_group_name_H-M   'P 1'
_cell_length_a   5.20837463
_cell_length_b   5.36510895
_cell_length_c   6.90113267
_cell_angle_alpha   94.23610856
_cell_angle_beta   98.62475589
_cell_angle_gamma   106.07285236
_symmetry_Int_Tables_number   1
_chemical_formula_structural   Li2Y2Mo(As2P)2
_chemical_formula_sum   'Li2 Y2 Mo1 As4 P2'
_cell_volume   181.85196345
_cell_formula_units_Z   1
loop_
 _symmetry_equiv_pos_site_id
 _symmetry_equiv_pos_as_xyz
  1  'x, y, z'
loop_
 _atom_site_type_symbol
 _atom_site_label
 _atom_site_symmetry_multiplicity
 _atom_site_fract_x
 _atom_site_fract_y
 _atom_site_fract_z
 _atom_site_occupancy
  Y  Y0  1  0.00000000  0.00000000  0.00000000  1
  Y  Y1  1  0.50000000  0.50000000  0.50000000  1
  P  P2  1  0.25000000  0.25000000  0.25000000  1
  P  P3  1  0.75000000  0.25000000  0.00000000  1
  Mo  Mo4  1  0.25000000  0.75000000  0.50000000  1
  As  As5  1  0.12200953  0.31404239  0.26075080  1
  As  As6  1  0.72954680  0.51842617  0.06859660  1
  As  As7  1  0.16176213  0.42831294  0.78410962  1
  As  As8  1  0.05017443  0.63628686  0.13294604  1
  Li  Li9  1  0.51312365  0.19403238  0.93159172  1
  Li  Li10  1  0.99229179  0.92301953  0.29267185  1
