# generated using pymatgen
data_SrLi2TiTe2Br3F
_symmetry_space_group_name_H-M   'P 1'
_cell_length_a   18.73862638
_cell_length_b   18.73862638
_cell_length_c   4.44160676
_cell_angle_alpha   90.00000000
_cell_angle_beta   90.00000000
_cell_angle_gamma   120.00000000
_symmetry_Int_Tables_number   1
_chemical_formula_structural   SrLi2TiTe2Br3F
_chemical_formula_sum   'Sr6 Li12 Ti6 Te12 Br18 F6'
_cell_volume   1350.66063285
_cell_formula_units_Z   6
loop_
 _symmetry_equiv_pos_site_id
 _symmetry_equiv_pos_as_xyz
  1  'x, y, z'
loop_
 _atom_site_type_symbol
 _atom_site_label
 _atom_site_symmetry_multiplicity
 _atom_site_fract_x
 _atom_site_fract_y
 _atom_site_fract_z
 _atom_site_occupancy
  Br  Br0  1  0.70042900  0.04288506  0.25000000  1
  Br  Br1  1  0.95711494  0.65754394  0.25000000  1
  Br  Br2  1  0.34245606  0.29957100  0.25000000  1
  Br  Br3  1  0.29957100  0.95711494  0.75000000  1
  Br  Br4  1  0.04288506  0.34245606  0.75000000  1
  Br  Br5  1  0.65754394  0.70042900  0.75000000  1
  Br  Br6  1  0.00938019  0.87771927  0.09751422  1
  Br  Br7  1  -0.87771927  -0.86833908  0.09751422  1
  Br  Br8  1  0.86833908  -0.00938019  0.09751422  1
  Br  Br9  1  -0.00938019  -0.87771927  0.59751422  1
  Br  Br10  1  0.87771927  0.86833908  0.59751422  1
  Br  Br11  1  -0.86833908  0.00938019  0.59751422  1
  Br  Br12  1  -0.00938019  -0.87771927  -0.09751422  1
  Br  Br13  1  0.87771927  0.86833908  -0.09751422  1
  Br  Br14  1  -0.86833908  0.00938019  -0.09751422  1
  Br  Br15  1  0.00938019  0.87771927  0.40248578  1
  Br  Br16  1  -0.87771927  -0.86833908  0.40248578  1
  Br  Br17  1  0.86833908  -0.00938019  0.40248578  1
  F  F18  1  0.57147843  0.53964399  0.25000000  1
  F  F19  1  0.46035601  0.03183444  0.25000000  1
  F  F20  1  0.96816556  0.42852157  0.25000000  1
  F  F21  1  0.42852157  0.46035601  0.75000000  1
  F  F22  1  0.53964399  0.96816556  0.75000000  1
  F  F23  1  0.03183444  0.57147843  0.75000000  1
  Li  Li24  1  0.52018199  0.33284626  0.25000000  1
  Li  Li25  1  0.66715374  0.18733573  0.25000000  1
  Li  Li26  1  0.81266427  0.47981801  0.25000000  1
  Li  Li27  1  0.47981801  0.66715374  0.75000000  1
  Li  Li28  1  0.33284626  0.81266427  0.75000000  1
  Li  Li29  1  0.18733573  0.52018199  0.75000000  1
  Li  Li30  1  0.55663537  0.66406619  0.25000000  1
  Li  Li31  1  0.33593381  0.89256918  0.25000000  1
  Li  Li32  1  0.10743082  0.44336463  0.25000000  1
  Li  Li33  1  0.44336463  0.33593381  0.75000000  1
  Li  Li34  1  0.66406619  0.10743082  0.75000000  1
  Li  Li35  1  0.89256918  0.55663537  0.75000000  1
  Sr  Sr36  1  0.97776797  0.57469714  0.25000000  1
  Sr  Sr37  1  0.42530286  0.40307083  0.25000000  1
  Sr  Sr38  1  0.59692917  0.02223203  0.25000000  1
  Sr  Sr39  1  0.02223203  0.42530286  0.75000000  1
  Sr  Sr40  1  0.57469714  0.59692917  0.75000000  1
  Sr  Sr41  1  0.40307083  0.97776797  0.75000000  1
  Te  Te42  1  0.00000000  0.00000000  0.25000000  1
  Te  Te43  1  0.00000000  0.00000000  0.75000000  1
  Te  Te44  1  0.50000000  0.00000000  -0.00000000  1
  Te  Te45  1  0.00000000  0.50000000  0.00000000  1
  Te  Te46  1  0.50000000  0.50000000  0.00000000  1
  Te  Te47  1  0.50000000  0.00000000  0.50000000  1
  Te  Te48  1  0.00000000  0.50000000  0.50000000  1
  Te  Te49  1  0.50000000  0.50000000  0.50000000  1
  Te  Te50  1  0.33333333  0.66666667  0.25000000  1
  Te  Te51  1  0.66666667  0.33333333  0.75000000  1
  Te  Te52  1  0.66666667  0.33333333  0.25000000  1
  Te  Te53  1  0.33333333  0.66666667  0.75000000  1
  Ti  Ti54  1  0.74802910  0.86920071  0.25000000  1
  Ti  Ti55  1  0.13079929  0.87882840  0.25000000  1
  Ti  Ti56  1  0.12117160  0.25197090  0.25000000  1
  Ti  Ti57  1  0.25197090  0.13079929  0.75000000  1
  Ti  Ti58  1  0.86920071  0.12117160  0.75000000  1
  Ti  Ti59  1  0.87882840  0.74802910  0.75000000  1
