# generated using pymatgen
data_LiF
_symmetry_space_group_name_H-M   'P 1'
_cell_length_a   8.28951544
_cell_length_b   6.86144470
_cell_length_c   9.74891443
_cell_angle_alpha   90.00000000
_cell_angle_beta   90.00000000
_cell_angle_gamma   90.00000000
_symmetry_Int_Tables_number   1
_chemical_formula_structural   LiF
_chemical_formula_sum   'Li24 F24'
_cell_volume   554.49926016
_cell_formula_units_Z   24
loop_
 _symmetry_equiv_pos_site_id
 _symmetry_equiv_pos_as_xyz
  1  'x, y, z'
loop_
 _atom_site_type_symbol
 _atom_site_label
 _atom_site_symmetry_multiplicity
 _atom_site_fract_x
 _atom_site_fract_y
 _atom_site_fract_z
 _atom_site_occupancy
  F  F0  1  0.33692779  0.14694607  0.76974862  1
  F  F1  1  0.16307221  0.85305393  0.26974862  1
  F  F2  1  0.66307221  0.64694607  0.23025138  1
  F  F3  1  0.83692779  0.35305393  0.73025138  1
  F  F4  1  0.66307221  0.85305393  0.23025138  1
  F  F5  1  0.83692779  0.14694607  0.73025138  1
  F  F6  1  0.33692779  0.35305393  0.76974862  1
  F  F7  1  0.16307221  0.64694607  0.26974862  1
  F  F8  1  0.00000000  0.00000000  0.50000000  1
  F  F9  1  0.50000000  0.00000000  0.00000000  1
  F  F10  1  0.00000000  0.50000000  0.50000000  1
  F  F11  1  0.50000000  0.50000000  0.00000000  1
  F  F12  1  0.69486932  0.85888613  0.34600416  1
  F  F13  1  0.80513068  0.14111387  0.84600416  1
  F  F14  1  0.30513068  0.35888613  0.65399584  1
  F  F15  1  0.19486932  0.64111387  0.15399584  1
  F  F16  1  0.30513068  0.14111387  0.65399584  1
  F  F17  1  0.19486932  0.85888613  0.15399584  1
  F  F18  1  0.69486932  0.64111387  0.34600416  1
  F  F19  1  0.80513068  0.35888613  0.84600416  1
  F  F20  1  0.00000000  0.00000000  0.00000000  1
  F  F21  1  0.50000000  0.00000000  0.50000000  1
  F  F22  1  0.00000000  0.50000000  0.00000000  1
  F  F23  1  0.50000000  0.50000000  0.50000000  1
  Li  Li24  1  0.93411347  0.42629360  0.56965306  1
  Li  Li25  1  -0.43411347  -0.42629360  1.06965306  1
  Li  Li26  1  -0.93411347  0.92629360  -0.56965306  1
  Li  Li27  1  1.43411347  0.07370640  -0.06965306  1
  Li  Li28  1  -0.93411347  -0.42629360  -0.56965306  1
  Li  Li29  1  1.43411347  0.42629360  -0.06965306  1
  Li  Li30  1  0.93411347  0.07370640  0.56965306  1
  Li  Li31  1  -0.43411347  0.92629360  1.06965306  1
  Li  Li32  1  0.99695886  0.92796654  0.64556452  1
  Li  Li33  1  0.50304114  0.07203346  0.14556452  1
  Li  Li34  1  0.00304114  0.42796654  0.35443548  1
  Li  Li35  1  0.49695886  0.57203346  0.85443548  1
  Li  Li36  1  0.00304114  0.07203346  0.35443548  1
  Li  Li37  1  0.49695886  0.92796654  0.85443548  1
  Li  Li38  1  0.99695886  0.57203346  0.64556452  1
  Li  Li39  1  0.50304114  0.42796654  0.14556452  1
  Li  Li40  1  0.77649131  0.25000000  0.16805256  1
  Li  Li41  1  0.72350869  0.75000000  0.66805256  1
  Li  Li42  1  0.22350869  0.75000000  0.83194744  1
  Li  Li43  1  0.27649131  0.25000000  0.33194744  1
  Li  Li44  1  0.99949287  0.25000000  0.27340548  1
  Li  Li45  1  0.50050713  0.75000000  0.77340548  1
  Li  Li46  1  0.00050713  0.75000000  0.72659452  1
  Li  Li47  1  0.49949287  0.25000000  0.22659452  1
