# generated using pymatgen
data_Li2Y2As3P2Se
_symmetry_space_group_name_H-M   'P 1'
_cell_length_a   4.94743597
_cell_length_b   5.02520637
_cell_length_c   7.03618251
_cell_angle_alpha   94.81751147
_cell_angle_beta   100.35606437
_cell_angle_gamma   109.13756969
_symmetry_Int_Tables_number   1
_chemical_formula_structural   Li2Y2As3P2Se
_chemical_formula_sum   'Li2 Y2 As3 P2 Se1'
_cell_volume   160.63890676
_cell_formula_units_Z   1
loop_
 _symmetry_equiv_pos_site_id
 _symmetry_equiv_pos_as_xyz
  1  'x, y, z'
loop_
 _atom_site_type_symbol
 _atom_site_label
 _atom_site_symmetry_multiplicity
 _atom_site_fract_x
 _atom_site_fract_y
 _atom_site_fract_z
 _atom_site_occupancy
  Se  Se0  1  0.00000000  0.00000000  0.00000000  1
  Y  Y1  1  0.50000000  0.50000000  0.50000000  1
  Y  Y2  1  0.25000000  0.25000000  0.25000000  1
  P  P3  1  0.75000000  0.25000000  0.00000000  1
  P  P4  1  0.25000000  0.75000000  0.50000000  1
  As  As5  1  0.86437259  0.89999581  0.01328845  1
  As  As6  1  0.59001638  0.77621126  0.37845613  1
  As  As7  1  0.77865754  0.66972487  0.99077597  1
  Li  Li8  1  0.94032781  0.04309508  0.51262039  1
  Li  Li9  1  0.30013856  0.69474870  0.51517699  1
