# generated using pymatgen
data_LiYMoAs2P
_symmetry_space_group_name_H-M   'P 1'
_cell_length_a   5.77167589
_cell_length_b   5.88209557
_cell_length_c   6.80837332
_cell_angle_alpha   92.44795297
_cell_angle_beta   94.57375371
_cell_angle_gamma   98.52377393
_symmetry_Int_Tables_number   1
_chemical_formula_structural   LiYMoAs2P
_chemical_formula_sum   'Li2 Y2 Mo2 As4 P2'
_cell_volume   227.51130347
_cell_formula_units_Z   2
loop_
 _symmetry_equiv_pos_site_id
 _symmetry_equiv_pos_as_xyz
  1  'x, y, z'
loop_
 _atom_site_type_symbol
 _atom_site_label
 _atom_site_symmetry_multiplicity
 _atom_site_fract_x
 _atom_site_fract_y
 _atom_site_fract_z
 _atom_site_occupancy
  Y  Y0  1  0.12500000  0.00000000  0.25000000  1
  Y  Y1  1  0.00000000  0.00000000  0.00000000  1
  P  P2  1  0.37500000  0.00000000  0.25000000  1
  P  P3  1  0.25000000  0.25000000  0.25000000  1
  Mo  Mo4  1  0.00000000  0.25000000  0.12500000  1
  Mo  Mo5  1  0.40667997  0.09238638  0.87083495  1
  As  As6  1  0.71964528  0.98688997  0.93775192  1
  As  As7  1  0.69841305  0.85002998  0.26836533  1
  As  As8  1  0.37261826  0.29483693  0.88975088  1
  As  As9  1  0.99252563  0.60419356  0.85979710  1
  Li  Li10  1  0.12325662  0.20149841  0.88373754  1
  Li  Li11  1  0.08106776  0.92151043  0.39148861  1
