# generated using pymatgen
data_LiF
_symmetry_space_group_name_H-M   'P 1'
_cell_length_a   9.79760604
_cell_length_b   9.79760604
_cell_length_c   7.49442586
_cell_angle_alpha   90.00000000
_cell_angle_beta   90.00000000
_cell_angle_gamma   120.00000000
_symmetry_Int_Tables_number   1
_chemical_formula_structural   LiF
_chemical_formula_sum   'Li18 F18'
_cell_volume   623.02997889
_cell_formula_units_Z   18
loop_
 _symmetry_equiv_pos_site_id
 _symmetry_equiv_pos_as_xyz
  1  'x, y, z'
loop_
 _atom_site_type_symbol
 _atom_site_label
 _atom_site_symmetry_multiplicity
 _atom_site_fract_x
 _atom_site_fract_y
 _atom_site_fract_z
 _atom_site_occupancy
  F  F0  1  0.54143934  1.08287869  0.53055548  1
  F  F1  1  -1.08287869  -0.54143934  0.53055548  1
  F  F2  1  0.54143934  -0.54143934  0.53055548  1
  F  F3  1  -0.54143934  -1.08287869  1.03055548  1
  F  F4  1  1.08287869  0.54143934  1.03055548  1
  F  F5  1  -0.54143934  0.54143934  1.03055548  1
  F  F6  1  1.08287869  0.54143934  -0.53055548  1
  F  F7  1  -0.54143934  -1.08287869  -0.53055548  1
  F  F8  1  -0.54143934  0.54143934  -0.53055548  1
  F  F9  1  -1.08287869  -0.54143934  -0.03055548  1
  F  F10  1  0.54143934  1.08287869  -0.03055548  1
  F  F11  1  0.54143934  -0.54143934  -0.03055548  1
  F  F12  1  0.54787482  0.09574963  0.25000000  1
  F  F13  1  0.90425037  0.45212518  0.25000000  1
  F  F14  1  0.54787482  0.45212518  0.25000000  1
  F  F15  1  0.45212518  0.90425037  0.75000000  1
  F  F16  1  0.09574963  0.54787482  0.75000000  1
  F  F17  1  0.45212518  0.54787482  0.75000000  1
  Li  Li18  1  0.00000000  0.00000000  0.25000000  1
  Li  Li19  1  0.00000000  0.00000000  0.75000000  1
  Li  Li20  1  0.07781905  0.15563809  0.39021913  1
  Li  Li21  1  0.84436191  0.92218095  0.39021913  1
  Li  Li22  1  0.07781905  0.92218095  0.39021913  1
  Li  Li23  1  0.92218095  0.84436191  0.89021913  1
  Li  Li24  1  0.15563809  0.07781905  0.89021913  1
  Li  Li25  1  0.92218095  0.07781905  0.89021913  1
  Li  Li26  1  0.15563809  0.07781905  0.60978087  1
  Li  Li27  1  0.92218095  0.84436191  0.60978087  1
  Li  Li28  1  0.92218095  0.07781905  0.60978087  1
  Li  Li29  1  0.84436191  0.92218095  0.10978087  1
  Li  Li30  1  0.07781905  0.15563809  0.10978087  1
  Li  Li31  1  0.07781905  0.92218095  0.10978087  1
  Li  Li32  1  0.33333333  0.66666667  0.75000000  1
  Li  Li33  1  0.66666667  0.33333333  0.25000000  1
  Li  Li34  1  0.33333333  0.66666667  0.25000000  1
  Li  Li35  1  0.66666667  0.33333333  0.75000000  1
