# generated using pymatgen
data_Li3Y2Cu3P3Se
_symmetry_space_group_name_H-M   'P 1'
_cell_length_a   5.23439093
_cell_length_b   5.57765671
_cell_length_c   7.07253038
_cell_angle_alpha   94.25750381
_cell_angle_beta   98.45351094
_cell_angle_gamma   105.13059454
_symmetry_Int_Tables_number   1
_chemical_formula_structural   Li3Y2Cu3P3Se
_chemical_formula_sum   'Li3 Y2 Cu3 P3 Se1'
_cell_volume   195.78723386
_cell_formula_units_Z   1
loop_
 _symmetry_equiv_pos_site_id
 _symmetry_equiv_pos_as_xyz
  1  'x, y, z'
loop_
 _atom_site_type_symbol
 _atom_site_label
 _atom_site_symmetry_multiplicity
 _atom_site_fract_x
 _atom_site_fract_y
 _atom_site_fract_z
 _atom_site_occupancy
  Se  Se0  1  0.00000000  0.00000000  0.00000000  1
  Cu  Cu1  1  0.50000000  0.50000000  0.50000000  1
  Cu  Cu2  1  0.50000000  0.50000000  0.00000000  1
  Cu  Cu3  1  0.50000000  0.00000000  0.50000000  1
  Y  Y4  1  0.00000000  0.50000000  0.50000000  1
  Y  Y5  1  0.74807831  0.95652287  0.49807023  1
  P  P6  1  0.74584784  0.15658021  0.11143366  1
  P  P7  1  0.17870302  0.93206638  0.27575952  1
  P  P8  1  0.71835552  0.51959955  0.50135031  1
  Li  Li9  1  0.39829832  0.75788594  0.42965107  1
  Li  Li10  1  0.20453459  0.88241201  0.67588867  1
  Li  Li11  1  0.77716681  0.64923715  0.15325943  1
