# generated using pymatgen
data_LiY2Cu3P2Se
_symmetry_space_group_name_H-M   'P 1'
_cell_length_a   4.25849781
_cell_length_b   4.54415580
_cell_length_c   5.78605018
_cell_angle_alpha   95.69945358
_cell_angle_beta   98.30312885
_cell_angle_gamma   103.73388058
_symmetry_Int_Tables_number   1
_chemical_formula_structural   LiY2Cu3P2Se
_chemical_formula_sum   'Li1 Y2 Cu3 P2 Se1'
_cell_volume   106.58154143
_cell_formula_units_Z   1
loop_
 _symmetry_equiv_pos_site_id
 _symmetry_equiv_pos_as_xyz
  1  'x, y, z'
loop_
 _atom_site_type_symbol
 _atom_site_label
 _atom_site_symmetry_multiplicity
 _atom_site_fract_x
 _atom_site_fract_y
 _atom_site_fract_z
 _atom_site_occupancy
  Se  Se0  1  0.00000000  0.00000000  0.00000000  1
  Cu  Cu1  1  0.50000000  0.50000000  0.50000000  1
  Cu  Cu2  1  0.50000000  0.50000000  0.00000000  1
  Cu  Cu3  1  0.50000000  0.00000000  0.50000000  1
  Y  Y4  1  0.00000000  0.50000000  0.50000000  1
  Y  Y5  1  0.07851578  0.81583550  0.80877333  1
  P  P6  1  0.34371617  0.14035550  0.65136016  1
  P  P7  1  0.96772958  0.25694430  0.15540051  1
  Li  Li8  1  0.64662989  0.53060585  0.80008968  1
