# generated using pymatgen
data_LiSbTe2P
_symmetry_space_group_name_H-M   'P 1'
_cell_length_a   5.02962666
_cell_length_b   5.13680372
_cell_length_c   6.92992217
_cell_angle_alpha   94.48906733
_cell_angle_beta   99.89303647
_cell_angle_gamma   108.17180580
_symmetry_Int_Tables_number   1
_chemical_formula_structural   LiSbTe2P
_chemical_formula_sum   'Li2 Sb2 Te4 P2'
_cell_volume   165.91264852
_cell_formula_units_Z   2
loop_
 _symmetry_equiv_pos_site_id
 _symmetry_equiv_pos_as_xyz
  1  'x, y, z'
loop_
 _atom_site_type_symbol
 _atom_site_label
 _atom_site_symmetry_multiplicity
 _atom_site_fract_x
 _atom_site_fract_y
 _atom_site_fract_z
 _atom_site_occupancy
  Te  Te0  1  0.12500000  0.00000000  0.25000000  1
  Te  Te1  1  0.00000000  0.00000000  0.00000000  1
  Te  Te2  1  0.37500000  0.00000000  0.25000000  1
  Te  Te3  1  0.25000000  0.25000000  0.25000000  1
  P  P4  1  0.00000000  0.25000000  0.12500000  1
  P  P5  1  0.47640763  0.75944196  0.51243812  1
  Li  Li6  1  0.76149048  0.30731445  0.25916273  1
  Li  Li7  1  0.79401092  0.48119121  0.68347731  1
  Sb  Sb8  1  0.32491614  0.68273524  0.50516223  1
  Sb  Sb9  1  0.89252981  0.09177254  0.78310621  1
