# generated using pymatgen
data_LiBO2
_symmetry_space_group_name_H-M   'P 1'
_cell_length_a   11.65098462
_cell_length_b   11.65098462
_cell_length_c   9.86090130
_cell_angle_alpha   90.00000000
_cell_angle_beta   90.00000000
_cell_angle_gamma   120.00000000
_symmetry_Int_Tables_number   1
_chemical_formula_structural   LiBO2
_chemical_formula_sum   'Li18 B18 O36'
_cell_volume   1159.23771353
_cell_formula_units_Z   18
loop_
 _symmetry_equiv_pos_site_id
 _symmetry_equiv_pos_as_xyz
  1  'x, y, z'
loop_
 _atom_site_type_symbol
 _atom_site_label
 _atom_site_symmetry_multiplicity
 _atom_site_fract_x
 _atom_site_fract_y
 _atom_site_fract_z
 _atom_site_occupancy
  B  B0  1  0.00000000  0.00000000  0.25000000  1
  B  B1  1  0.00000000  0.00000000  0.75000000  1
  B  B2  1  0.66666667  0.33333333  0.58333333  1
  B  B3  1  0.66666667  0.33333333  0.08333333  1
  B  B4  1  0.33333333  0.66666667  0.91666667  1
  B  B5  1  0.33333333  0.66666667  0.41666667  1
  B  B6  1  0.00000000  0.00000000  0.95651171  1
  B  B7  1  0.00000000  0.00000000  0.54348829  1
  B  B8  1  0.00000000  0.00000000  0.04348829  1
  B  B9  1  0.00000000  0.00000000  0.45651171  1
  B  B10  1  0.66666667  0.33333333  0.28984504  1
  B  B11  1  0.66666667  0.33333333  0.87682162  1
  B  B12  1  0.66666667  0.33333333  0.37682162  1
  B  B13  1  0.66666667  0.33333333  0.78984504  1
  B  B14  1  0.33333333  0.66666667  0.62317838  1
  B  B15  1  0.33333333  0.66666667  0.21015496  1
  B  B16  1  0.33333333  0.66666667  0.71015496  1
  B  B17  1  0.33333333  0.66666667  0.12317838  1
  Li  Li18  1  0.50000000  0.00000000  0.00000000  1
  Li  Li19  1  0.00000000  0.50000000  0.00000000  1
  Li  Li20  1  0.50000000  0.50000000  0.00000000  1
  Li  Li21  1  0.00000000  0.50000000  0.50000000  1
  Li  Li22  1  0.50000000  0.00000000  0.50000000  1
  Li  Li23  1  0.50000000  0.50000000  0.50000000  1
  Li  Li24  1  0.16666667  0.33333333  0.33333333  1
  Li  Li25  1  0.66666667  0.83333333  0.33333333  1
  Li  Li26  1  0.16666667  0.83333333  0.33333333  1
  Li  Li27  1  0.66666667  0.83333333  0.83333333  1
  Li  Li28  1  0.16666667  0.33333333  0.83333333  1
  Li  Li29  1  0.16666667  0.83333333  0.83333333  1
  Li  Li30  1  0.83333333  0.66666667  0.66666667  1
  Li  Li31  1  0.33333333  0.16666667  0.66666667  1
  Li  Li32  1  0.83333333  0.16666667  0.66666667  1
  Li  Li33  1  0.33333333  0.16666667  0.16666667  1
  Li  Li34  1  0.83333333  0.66666667  0.16666667  1
  Li  Li35  1  0.83333333  0.16666667  0.16666667  1
  O  O36  1  0.67488079  0.01589906  0.84231209  1
  O  O37  1  -0.01589906  0.65898174  0.84231209  1
  O  O38  1  -0.65898174  -0.67488079  0.84231209  1
  O  O39  1  0.01589906  0.67488079  -0.34231209  1
  O  O40  1  0.65898174  -0.01589906  -0.34231209  1
  O  O41  1  -0.67488079  -0.65898174  -0.34231209  1
  O  O42  1  -0.67488079  -0.01589906  -0.84231209  1
  O  O43  1  0.01589906  -0.65898174  -0.84231209  1
  O  O44  1  0.65898174  0.67488079  -0.84231209  1
  O  O45  1  -0.01589906  -0.67488079  1.34231209  1
  O  O46  1  -0.65898174  0.01589906  1.34231209  1
  O  O47  1  0.67488079  0.65898174  1.34231209  1
  O  O48  1  1.34154746  0.34923239  1.17564542  1
  O  O49  1  0.65076761  0.99231507  1.17564542  1
  O  O50  1  0.00768493  -0.34154746  1.17564542  1
  O  O51  1  0.68256572  1.00821413  -0.00897875  1
  O  O52  1  1.32564840  0.31743428  -0.00897875  1
  O  O53  1  -0.00821413  -0.32564840  -0.00897875  1
  O  O54  1  -0.00821413  0.31743428  -0.50897875  1
  O  O55  1  0.68256572  -0.32564840  -0.50897875  1
  O  O56  1  1.32564840  1.00821413  -0.50897875  1
  O  O57  1  0.65076761  -0.34154746  1.67564542  1
  O  O58  1  0.00768493  0.34923239  1.67564542  1
  O  O59  1  1.34154746  0.99231507  1.67564542  1
  O  O60  1  1.00821413  0.68256572  1.50897875  1
  O  O61  1  0.31743428  1.32564840  1.50897875  1
  O  O62  1  -0.32564840  -0.00821413  1.50897875  1
  O  O63  1  0.34923239  1.34154746  0.32435458  1
  O  O64  1  0.99231507  0.65076761  0.32435458  1
  O  O65  1  -0.34154746  0.00768493  0.32435458  1
  O  O66  1  -0.34154746  0.65076761  -0.17564542  1
  O  O67  1  0.34923239  0.00768493  -0.17564542  1
  O  O68  1  0.99231507  1.34154746  -0.17564542  1
  O  O69  1  0.31743428  -0.00821413  2.00897875  1
  O  O70  1  -0.32564840  0.68256572  2.00897875  1
  O  O71  1  1.00821413  1.32564840  2.00897875  1
