# generated using pymatgen
data_LiF
_symmetry_space_group_name_H-M   'P 1'
_cell_length_a   10.35277638
_cell_length_b   10.35277638
_cell_length_c   3.87688270
_cell_angle_alpha   90.00000000
_cell_angle_beta   90.00000000
_cell_angle_gamma   120.00000000
_symmetry_Int_Tables_number   1
_chemical_formula_structural   LiF
_chemical_formula_sum   'Li19 F19'
_cell_volume   359.85451786
_cell_formula_units_Z   19
loop_
 _symmetry_equiv_pos_site_id
 _symmetry_equiv_pos_as_xyz
  1  'x, y, z'
loop_
 _atom_site_type_symbol
 _atom_site_label
 _atom_site_symmetry_multiplicity
 _atom_site_fract_x
 _atom_site_fract_y
 _atom_site_fract_z
 _atom_site_occupancy
  F  F0  1  0.22392013  0.77607987  0.50000000  1
  F  F1  1  0.22392013  0.44784027  0.50000000  1
  F  F2  1  0.55215973  0.77607987  0.50000000  1
  F  F3  1  0.72095785  0.17900138  0.89261764  1
  F  F4  1  0.82099862  0.54195647  0.89261764  1
  F  F5  1  0.45804353  0.27904215  0.89261764  1
  F  F6  1  0.82099862  0.27904215  0.10738236  1
  F  F7  1  0.45804353  0.17900138  0.10738236  1
  F  F8  1  0.72095785  0.54195647  0.10738236  1
  F  F9  1  0.00000000  0.00000000  0.00000000  1
  F  F10  1  0.33333333  0.66666667  0.50000000  1
  F  F11  1  0.55537100  0.13681939  0.58341785  1
  F  F12  1  0.86318061  0.41855161  0.58341785  1
  F  F13  1  0.58144839  0.44462900  0.58341785  1
  F  F14  1  0.86318061  0.44462900  0.41658215  1
  F  F15  1  0.58144839  0.13681939  0.41658215  1
  F  F16  1  0.55537100  0.41855161  0.41658215  1
  F  F17  1  0.66666667  0.33333333  0.84128348  1
  F  F18  1  0.66666667  0.33333333  0.15871652  1
  Li  Li19  1  0.68566219  0.79213866  0.35574231  1
  Li  Li20  1  -0.79213866  -0.10647647  0.35574231  1
  Li  Li21  1  0.10647647  -0.68566219  0.35574231  1
  Li  Li22  1  -0.79213866  -0.68566219  -0.35574231  1
  Li  Li23  1  0.10647647  0.79213866  -0.35574231  1
  Li  Li24  1  0.68566219  -0.10647647  -0.35574231  1
  Li  Li25  1  0.89667981  0.30941508  0.44352315  1
  Li  Li26  1  0.69058492  0.58726473  0.44352315  1
  Li  Li27  1  0.41273527  0.10332019  0.44352315  1
  Li  Li28  1  0.69058492  0.10332019  0.55647685  1
  Li  Li29  1  0.41273527  0.30941508  0.55647685  1
  Li  Li30  1  0.89667981  0.58726473  0.55647685  1
  Li  Li31  1  0.20098261  0.79901739  -0.00000000  1
  Li  Li32  1  0.20098261  0.40196523  0.00000000  1
  Li  Li33  1  0.59803477  0.79901739  0.00000000  1
  Li  Li34  1  0.38829546  0.61170454  0.50000000  1
  Li  Li35  1  0.38829546  0.77659093  0.50000000  1
  Li  Li36  1  0.22340907  0.61170454  0.50000000  1
  Li  Li37  1  0.00000000  0.00000000  0.50000000  1
