# generated using pymatgen
data_Li2Y2MoP3Se2
_symmetry_space_group_name_H-M   'P 1'
_cell_length_a   4.19857469
_cell_length_b   4.48802232
_cell_length_c   6.85975714
_cell_angle_alpha   96.17759464
_cell_angle_beta   103.45351682
_cell_angle_gamma   114.81294242
_symmetry_Int_Tables_number   1
_chemical_formula_structural   Li2Y2MoP3Se2
_chemical_formula_sum   'Li2 Y2 Mo1 P3 Se2'
_cell_volume   110.98087398
_cell_formula_units_Z   1
loop_
 _symmetry_equiv_pos_site_id
 _symmetry_equiv_pos_as_xyz
  1  'x, y, z'
loop_
 _atom_site_type_symbol
 _atom_site_label
 _atom_site_symmetry_multiplicity
 _atom_site_fract_x
 _atom_site_fract_y
 _atom_site_fract_z
 _atom_site_occupancy
  Se  Se0  1  0.12500000  0.00000000  0.25000000  1
  Se  Se1  1  0.00000000  0.00000000  0.00000000  1
  P  P2  1  0.37500000  0.00000000  0.25000000  1
  P  P3  1  0.25000000  0.25000000  0.25000000  1
  P  P4  1  0.00000000  0.25000000  0.12500000  1
  Mo  Mo5  1  0.67723325  0.18289144  0.56759830  1
  Li  Li6  1  0.07890400  0.76006180  0.74037397  1
  Li  Li7  1  0.69822409  0.76634982  0.00466365  1
  Y  Y8  1  0.28091105  0.24140819  0.95437300  1
  Y  Y9  1  0.37990288  0.05650035  0.62654349  1
