# generated using pymatgen
data_Li2Y2As4P2Se
_symmetry_space_group_name_H-M   'P 1'
_cell_length_a   4.82307085
_cell_length_b   4.98806302
_cell_length_c   6.60564460
_cell_angle_alpha   94.43257666
_cell_angle_beta   99.02950790
_cell_angle_gamma   106.74806932
_symmetry_Int_Tables_number   1
_chemical_formula_structural   Li2Y2As4P2Se
_chemical_formula_sum   'Li2 Y2 As4 P2 Se1'
_cell_volume   149.02385108
_cell_formula_units_Z   1
loop_
 _symmetry_equiv_pos_site_id
 _symmetry_equiv_pos_as_xyz
  1  'x, y, z'
loop_
 _atom_site_type_symbol
 _atom_site_label
 _atom_site_symmetry_multiplicity
 _atom_site_fract_x
 _atom_site_fract_y
 _atom_site_fract_z
 _atom_site_occupancy
  Se  Se0  1  0.00000000  0.00000000  0.00000000  1
  Y  Y1  1  0.50000000  0.50000000  0.50000000  1
  Y  Y2  1  0.25000000  0.25000000  0.25000000  1
  P  P3  1  0.75000000  0.25000000  0.00000000  1
  P  P4  1  0.25000000  0.75000000  0.50000000  1
  As  As5  1  0.98153737  0.54191737  0.73714959  1
  As  As6  1  0.85091359  0.22132733  0.71828404  1
  As  As7  1  0.30607409  0.33799364  0.64909518  1
  As  As8  1  0.14902590  0.66510075  0.64749403  1
  Li  Li9  1  0.79165534  0.35761974  0.08373433  1
  Li  Li10  1  0.15308691  0.94213281  0.53570677  1
