# generated using pymatgen
data_LiF
_symmetry_space_group_name_H-M   'P 1'
_cell_length_a   17.26467807
_cell_length_b   17.26467807
_cell_length_c   7.51460205
_cell_angle_alpha   90.00000000
_cell_angle_beta   90.00000000
_cell_angle_gamma   120.00000000
_symmetry_Int_Tables_number   1
_chemical_formula_structural   LiF
_chemical_formula_sum   'Li52 F52'
_cell_volume   1939.78495907
_cell_formula_units_Z   52
loop_
 _symmetry_equiv_pos_site_id
 _symmetry_equiv_pos_as_xyz
  1  'x, y, z'
loop_
 _atom_site_type_symbol
 _atom_site_label
 _atom_site_symmetry_multiplicity
 _atom_site_fract_x
 _atom_site_fract_y
 _atom_site_fract_z
 _atom_site_occupancy
  F  F0  1  0.41685875  0.97970116  0.68040567  1
  F  F1  1  0.02029884  0.43715759  0.68040567  1
  F  F2  1  0.56284241  0.58314125  0.68040567  1
  F  F3  1  0.02029884  0.58314125  0.31959433  1
  F  F4  1  0.56284241  0.97970116  0.31959433  1
  F  F5  1  0.41685875  0.43715759  0.31959433  1
  F  F6  1  0.51525231  0.48474769  0.00000000  1
  F  F7  1  0.51525231  0.03050461  -0.00000000  1
  F  F8  1  0.96949539  0.48474769  -0.00000000  1
  F  F9  1  0.81480410  0.41622282  0.58894057  1
  F  F10  1  0.58377718  0.39858129  0.58894057  1
  F  F11  1  0.60141871  0.18519590  0.58894057  1
  F  F12  1  0.58377718  0.18519590  0.41105943  1
  F  F13  1  0.60141871  0.41622282  0.41105943  1
  F  F14  1  0.81480410  0.39858129  0.41105943  1
  F  F15  1  0.00000000  0.00000000  0.00000000  1
  F  F16  1  0.47725824  0.49201085  0.57460351  1
  F  F17  1  0.50798915  0.98524740  0.57460351  1
  F  F18  1  0.01475260  0.52274176  0.57460351  1
  F  F19  1  0.50798915  0.52274176  0.42539649  1
  F  F20  1  0.01475260  0.49201085  0.42539649  1
  F  F21  1  0.47725824  0.98524740  0.42539649  1
  F  F22  1  0.62867318  0.34343359  0.36883725  1
  F  F23  1  0.65656641  0.28523958  0.36883725  1
  F  F24  1  0.71476042  0.37132682  0.36883725  1
  F  F25  1  0.65656641  0.37132682  0.63116275  1
  F  F26  1  0.71476042  0.34343359  0.63116275  1
  F  F27  1  0.62867318  0.28523958  0.63116275  1
  F  F28  1  0.31090184  0.09691696  0.11283834  1
  F  F29  1  0.90308304  0.21398489  0.11283834  1
  F  F30  1  0.78601511  0.68909816  0.11283834  1
  F  F31  1  0.90308304  0.68909816  0.88716166  1
  F  F32  1  0.78601511  0.09691696  0.88716166  1
  F  F33  1  0.31090184  0.21398489  0.88716166  1
  F  F34  1  0.00000000  0.00000000  0.50000000  1
  F  F35  1  0.20326702  0.26544046  0.19586285  1
  F  F36  1  0.73455954  0.93782655  0.19586285  1
  F  F37  1  0.06217345  0.79673298  0.19586285  1
  F  F38  1  0.73455954  0.79673298  0.80413715  1
  F  F39  1  0.06217345  0.26544046  0.80413715  1
  F  F40  1  0.20326702  0.93782655  0.80413715  1
  F  F41  1  0.61697115  0.50707084  0.44991430  1
  F  F42  1  0.49292916  0.10990031  0.44991430  1
  F  F43  1  0.89009969  0.38302885  0.44991430  1
  F  F44  1  0.49292916  0.38302885  0.55008570  1
  F  F45  1  0.89009969  0.50707084  0.55008570  1
  F  F46  1  0.61697115  0.10990031  0.55008570  1
  F  F47  1  0.00000000  0.00000000  0.80836651  1
  F  F48  1  0.00000000  0.00000000  0.19163349  1
  F  F49  1  0.11631258  0.88368742  0.00000000  1
  F  F50  1  0.11631258  0.23262515  -0.00000000  1
  F  F51  1  0.76737485  0.88368742  0.00000000  1
  Li  Li52  1  0.81919562  0.96692465  0.09490555  1
  Li  Li53  1  -0.96692465  -0.14772902  0.09490555  1
  Li  Li54  1  0.14772902  -0.81919562  0.09490555  1
  Li  Li55  1  -0.96692465  -0.81919562  -0.09490555  1
  Li  Li56  1  0.14772902  0.96692465  -0.09490555  1
  Li  Li57  1  0.81919562  -0.14772902  -0.09490555  1
  Li  Li58  1  0.77061615  0.22938385  -0.00000000  1
  Li  Li59  1  0.77061615  0.54123231  -0.00000000  1
  Li  Li60  1  0.45876769  0.22938385  0.00000000  1
  Li  Li61  1  0.33333333  0.66666667  -0.00000000  1
  Li  Li62  1  0.27881960  0.28103131  0.50561123  1
  Li  Li63  1  0.71896869  0.99778829  0.50561123  1
  Li  Li64  1  0.00221171  0.72118040  0.50561123  1
  Li  Li65  1  0.71896869  0.72118040  0.49438877  1
  Li  Li66  1  0.00221171  0.28103131  0.49438877  1
  Li  Li67  1  0.27881960  0.99778829  0.49438877  1
  Li  Li68  1  0.21626959  0.56237641  0.86288619  1
  Li  Li69  1  0.43762359  0.65389318  0.86288619  1
  Li  Li70  1  0.34610682  0.78373041  0.86288619  1
  Li  Li71  1  0.43762359  0.78373041  0.13711381  1
  Li  Li72  1  0.34610682  0.56237641  0.13711381  1
  Li  Li73  1  0.21626959  0.65389318  0.13711381  1
  Li  Li74  1  0.66666667  0.33333333  0.50000000  1
  Li  Li75  1  0.79067553  0.11204054  0.27220539  1
  Li  Li76  1  0.88795946  0.67863499  0.27220539  1
  Li  Li77  1  0.32136501  0.20932447  0.27220539  1
  Li  Li78  1  0.88795946  0.20932447  0.72779461  1
  Li  Li79  1  0.32136501  0.11204054  0.72779461  1
  Li  Li80  1  0.79067553  0.67863499  0.72779461  1
  Li  Li81  1  0.40929240  0.51306829  0.16219166  1
  Li  Li82  1  0.48693171  0.89622411  0.16219166  1
  Li  Li83  1  0.10377589  0.59070760  0.16219166  1
  Li  Li84  1  0.48693171  0.59070760  0.83780834  1
  Li  Li85  1  0.10377589  0.51306829  0.83780834  1
  Li  Li86  1  0.40929240  0.89622411  0.83780834  1
  Li  Li87  1  0.18966683  0.09663900  0.81574837  1
  Li  Li88  1  0.90336100  0.09302783  0.81574837  1
  Li  Li89  1  0.90697217  0.81033317  0.81574837  1
  Li  Li90  1  0.90336100  0.81033317  0.18425163  1
  Li  Li91  1  0.90697217  0.09663900  0.18425163  1
  Li  Li92  1  0.18966683  0.09302783  0.18425163  1
  Li  Li93  1  0.63436183  0.81161141  0.74394526  1
  Li  Li94  1  0.18838859  0.82275042  0.74394526  1
  Li  Li95  1  0.17724958  0.36563817  0.74394526  1
  Li  Li96  1  0.18838859  0.36563817  0.25605474  1
  Li  Li97  1  0.17724958  0.81161141  0.25605474  1
  Li  Li98  1  0.63436183  0.82275042  0.25605474  1
  Li  Li99  1  0.66666667  0.33333333  -0.00000000  1
  Li  Li100  1  0.09755741  0.90244259  0.50000000  1
  Li  Li101  1  0.09755741  0.19511483  0.50000000  1
  Li  Li102  1  0.80488517  0.90244259  0.50000000  1
  Li  Li103  1  0.33333333  0.66666667  0.50000000  1
