# generated using pymatgen
data_Li2Si4Te3F12
_symmetry_space_group_name_H-M   'P 1'
_cell_length_a   11.76061316
_cell_length_b   11.76061316
_cell_length_c   7.65706922
_cell_angle_alpha   90.00000000
_cell_angle_beta   90.00000000
_cell_angle_gamma   90.00000000
_symmetry_Int_Tables_number   1
_chemical_formula_structural   Li2Si4Te3F12
_chemical_formula_sum   'Li8 Si16 Te12 F48'
_cell_volume   1059.06472517
_cell_formula_units_Z   4
loop_
 _symmetry_equiv_pos_site_id
 _symmetry_equiv_pos_as_xyz
  1  'x, y, z'
loop_
 _atom_site_type_symbol
 _atom_site_label
 _atom_site_symmetry_multiplicity
 _atom_site_fract_x
 _atom_site_fract_y
 _atom_site_fract_z
 _atom_site_occupancy
  F  F0  1  0.20822970  0.18021240  0.11736629  1
  F  F1  1  0.29177030  -0.18021240  0.61736629  1
  F  F2  1  0.06978760  0.95822970  0.36736629  1
  F  F3  1  0.43021240  0.04177030  0.86736629  1
  F  F4  1  0.29177030  0.18021240  0.38263371  1
  F  F5  1  0.20822970  -0.18021240  -0.11736629  1
  F  F6  1  0.43021240  0.95822970  0.13263371  1
  F  F7  1  0.06978760  0.04177030  0.63263371  1
  F  F8  1  -0.20822970  -0.18021240  -0.11736629  1
  F  F9  1  0.70822970  0.18021240  0.38263371  1
  F  F10  1  0.93021240  0.04177030  0.63263371  1
  F  F11  1  0.56978760  0.95822970  0.13263371  1
  F  F12  1  0.70822970  -0.18021240  0.61736629  1
  F  F13  1  -0.20822970  0.18021240  0.11736629  1
  F  F14  1  0.56978760  0.04177030  0.86736629  1
  F  F15  1  0.93021240  0.95822970  0.36736629  1
  F  F16  1  0.70822970  0.68021240  0.61736629  1
  F  F17  1  0.79177030  0.31978760  1.11736629  1
  F  F18  1  0.56978760  1.45822970  0.86736629  1
  F  F19  1  0.93021240  0.54177030  1.36736629  1
  F  F20  1  0.79177030  0.68021240  0.88263371  1
  F  F21  1  0.70822970  0.31978760  0.38263371  1
  F  F22  1  0.93021240  1.45822970  0.63263371  1
  F  F23  1  0.56978760  0.54177030  1.13263371  1
  F  F24  1  0.29177030  0.31978760  0.38263371  1
  F  F25  1  1.20822970  0.68021240  0.88263371  1
  F  F26  1  1.43021240  0.54177030  1.13263371  1
  F  F27  1  1.06978760  1.45822970  0.63263371  1
  F  F28  1  1.20822970  0.31978760  1.11736629  1
  F  F29  1  0.29177030  0.68021240  0.61736629  1
  F  F30  1  1.06978760  0.54177030  1.36736629  1
  F  F31  1  1.43021240  1.45822970  0.86736629  1
  F  F32  1  0.44765987  0.69765987  0.87500000  1
  F  F33  1  0.05234013  0.30234013  0.37500000  1
  F  F34  1  0.55234013  0.19765987  0.12500000  1
  F  F35  1  0.94765987  0.80234013  0.62500000  1
  F  F36  1  0.55234013  0.30234013  0.12500000  1
  F  F37  1  0.94765987  0.69765987  0.62500000  1
  F  F38  1  0.44765987  0.80234013  0.87500000  1
  F  F39  1  0.05234013  0.19765987  0.37500000  1
  F  F40  1  0.94765987  0.19765987  0.37500000  1
  F  F41  1  0.55234013  0.80234013  0.87500000  1
  F  F42  1  0.05234013  0.69765987  0.62500000  1
  F  F43  1  0.44765987  0.30234013  0.12500000  1
  F  F44  1  0.05234013  0.80234013  0.62500000  1
  F  F45  1  0.44765987  0.19765987  0.12500000  1
  F  F46  1  0.94765987  0.30234013  0.37500000  1
  F  F47  1  0.55234013  0.69765987  0.87500000  1
  Li  Li48  1  0.00000000  0.00000000  0.00000000  1
  Li  Li49  1  0.50000000  0.00000000  0.50000000  1
  Li  Li50  1  0.25000000  0.75000000  0.25000000  1
  Li  Li51  1  0.25000000  0.25000000  0.75000000  1
  Li  Li52  1  0.50000000  0.50000000  0.50000000  1
  Li  Li53  1  0.00000000  0.50000000  0.00000000  1
  Li  Li54  1  0.75000000  0.25000000  0.75000000  1
  Li  Li55  1  0.75000000  0.75000000  0.25000000  1
  Si  Si56  1  0.71795986  -0.00000000  0.00000000  1
  Si  Si57  1  0.78204014  -0.00000000  0.50000000  1
  Si  Si58  1  0.25000000  0.46795986  0.25000000  1
  Si  Si59  1  0.25000000  0.53204014  0.75000000  1
  Si  Si60  1  0.28204014  0.00000000  -0.00000000  1
  Si  Si61  1  0.21795986  0.00000000  0.50000000  1
  Si  Si62  1  0.75000000  0.53204014  0.75000000  1
  Si  Si63  1  0.75000000  0.46795986  0.25000000  1
  Si  Si64  1  0.21795986  0.50000000  0.50000000  1
  Si  Si65  1  0.28204014  0.50000000  0.00000000  1
  Si  Si66  1  0.75000000  0.96795986  0.75000000  1
  Si  Si67  1  0.75000000  0.03204014  0.25000000  1
  Si  Si68  1  0.78204014  0.50000000  0.50000000  1
  Si  Si69  1  0.71795986  0.50000000  -0.00000000  1
  Si  Si70  1  0.25000000  0.03204014  0.25000000  1
  Si  Si71  1  0.25000000  0.96795986  0.75000000  1
  Te  Te72  1  0.00000000  0.75000000  0.12500000  1
  Te  Te73  1  0.50000000  0.75000000  0.37500000  1
  Te  Te74  1  0.50000000  0.25000000  0.62500000  1
  Te  Te75  1  0.00000000  0.25000000  0.87500000  1
  Te  Te76  1  0.00000000  0.00000000  0.50000000  1
  Te  Te77  1  0.50000000  0.00000000  0.00000000  1
  Te  Te78  1  0.25000000  0.75000000  0.75000000  1
  Te  Te79  1  0.25000000  0.25000000  0.25000000  1
  Te  Te80  1  0.50000000  0.50000000  0.00000000  1
  Te  Te81  1  0.00000000  0.50000000  0.50000000  1
  Te  Te82  1  0.75000000  0.25000000  0.25000000  1
  Te  Te83  1  0.75000000  0.75000000  0.75000000  1
