# generated using pymatgen
data_Li2Mo2As2P3
_symmetry_space_group_name_H-M   'P 1'
_cell_length_a   5.24048634
_cell_length_b   5.42471293
_cell_length_c   6.78782808
_cell_angle_alpha   93.47865471
_cell_angle_beta   98.04102978
_cell_angle_gamma   103.28236093
_symmetry_Int_Tables_number   1
_chemical_formula_structural   Li2Mo2As2P3
_chemical_formula_sum   'Li2 Mo2 As2 P3'
_cell_volume   185.09245372
_cell_formula_units_Z   1
loop_
 _symmetry_equiv_pos_site_id
 _symmetry_equiv_pos_as_xyz
  1  'x, y, z'
loop_
 _atom_site_type_symbol
 _atom_site_label
 _atom_site_symmetry_multiplicity
 _atom_site_fract_x
 _atom_site_fract_y
 _atom_site_fract_z
 _atom_site_occupancy
  P  P0  1  0.00000000  0.00000000  0.00000000  1
  P  P1  1  0.50000000  0.50000000  0.50000000  1
  P  P2  1  0.50000000  0.50000000  0.00000000  1
  Mo  Mo3  1  0.50000000  0.00000000  0.50000000  1
  Mo  Mo4  1  0.00000000  0.50000000  0.50000000  1
  As  As5  1  0.10853059  0.49672249  0.23058269  1
  As  As6  1  0.71898388  0.54658019  0.92497010  1
  Li  Li7  1  0.05749192  0.94299749  0.64821999  1
  Li  Li8  1  0.40585285  0.84228234  0.57204316  1
