# generated using pymatgen
data_LiF
_symmetry_space_group_name_H-M   'P 1'
_cell_length_a   11.85431759
_cell_length_b   7.73363928
_cell_length_c   7.09845486
_cell_angle_alpha   90.00000000
_cell_angle_beta   90.00000000
_cell_angle_gamma   90.00000000
_symmetry_Int_Tables_number   1
_chemical_formula_structural   LiF
_chemical_formula_sum   'Li24 F24'
_cell_volume   650.76516093
_cell_formula_units_Z   24
loop_
 _symmetry_equiv_pos_site_id
 _symmetry_equiv_pos_as_xyz
  1  'x, y, z'
loop_
 _atom_site_type_symbol
 _atom_site_label
 _atom_site_symmetry_multiplicity
 _atom_site_fract_x
 _atom_site_fract_y
 _atom_site_fract_z
 _atom_site_occupancy
  F  F0  1  0.30653540  0.25000000  0.93082022  1
  F  F1  1  0.19346460  0.75000000  0.43082022  1
  F  F2  1  0.69346460  0.75000000  0.06917978  1
  F  F3  1  0.80653540  0.25000000  0.56917978  1
  F  F4  1  0.98542691  0.88881168  0.89623030  1
  F  F5  1  0.51457309  0.11118832  0.39623030  1
  F  F6  1  0.01457309  0.38881168  0.10376970  1
  F  F7  1  0.48542691  0.61118832  0.60376970  1
  F  F8  1  0.01457309  0.11118832  0.10376970  1
  F  F9  1  0.48542691  0.88881168  0.60376970  1
  F  F10  1  0.98542691  0.61118832  0.89623030  1
  F  F11  1  0.51457309  0.38881168  0.39623030  1
  F  F12  1  0.62387445  0.38815082  0.01015811  1
  F  F13  1  0.87612555  0.61184918  0.51015811  1
  F  F14  1  0.37612555  0.88815082  0.98984189  1
  F  F15  1  0.12387445  0.11184918  0.48984189  1
  F  F16  1  0.37612555  0.61184918  0.98984189  1
  F  F17  1  0.12387445  0.38815082  0.48984189  1
  F  F18  1  0.62387445  0.11184918  0.01015811  1
  F  F19  1  0.87612555  0.88815082  0.51015811  1
  F  F20  1  0.42656722  0.25000000  0.75006993  1
  F  F21  1  0.07343278  0.75000000  0.25006993  1
  F  F22  1  0.57343278  0.75000000  0.24993007  1
  F  F23  1  0.92656722  0.25000000  0.74993007  1
  Li  Li24  1  0.49463301  0.25000000  0.11952760  1
  Li  Li25  1  0.00536699  0.75000000  0.61952760  1
  Li  Li26  1  0.50536699  0.75000000  0.88047240  1
  Li  Li27  1  0.99463301  0.25000000  0.38047240  1
  Li  Li28  1  0.00000000  0.00000000  0.50000000  1
  Li  Li29  1  0.50000000  0.00000000  0.00000000  1
  Li  Li30  1  0.00000000  0.50000000  0.50000000  1
  Li  Li31  1  0.50000000  0.50000000  0.00000000  1
  Li  Li32  1  0.36090677  0.03609019  0.89913080  1
  Li  Li33  1  0.13909323  -0.03609019  1.39913080  1
  Li  Li34  1  -0.36090677  0.53609019  -0.89913080  1
  Li  Li35  1  0.86090677  0.46390981  -0.39913080  1
  Li  Li36  1  -0.36090677  -0.03609019  -0.89913080  1
  Li  Li37  1  0.86090677  0.03609019  -0.39913080  1
  Li  Li38  1  0.36090677  0.46390981  0.89913080  1
  Li  Li39  1  0.13909323  0.53609019  1.39913080  1
  Li  Li40  1  0.63645836  0.25000000  0.03042187  1
  Li  Li41  1  0.86354164  0.75000000  0.53042187  1
  Li  Li42  1  0.36354164  0.75000000  0.96957813  1
  Li  Li43  1  0.13645836  0.25000000  0.46957813  1
  Li  Li44  1  0.00000000  0.00000000  0.00000000  1
  Li  Li45  1  0.50000000  0.00000000  0.50000000  1
  Li  Li46  1  0.00000000  0.50000000  0.00000000  1
  Li  Li47  1  0.50000000  0.50000000  0.50000000  1
