# generated using pymatgen
data_LiF
_symmetry_space_group_name_H-M   'P 1'
_cell_length_a   5.56515095
_cell_length_b   9.28798809
_cell_length_c   11.74792480
_cell_angle_alpha   90.00000000
_cell_angle_beta   90.00000000
_cell_angle_gamma   90.00000000
_symmetry_Int_Tables_number   1
_chemical_formula_structural   LiF
_chemical_formula_sum   'Li28 F28'
_cell_volume   607.23913944
_cell_formula_units_Z   28
loop_
 _symmetry_equiv_pos_site_id
 _symmetry_equiv_pos_as_xyz
  1  'x, y, z'
loop_
 _atom_site_type_symbol
 _atom_site_label
 _atom_site_symmetry_multiplicity
 _atom_site_fract_x
 _atom_site_fract_y
 _atom_site_fract_z
 _atom_site_occupancy
  F  F0  1  0.00000000  0.00000000  0.00000000  1
  F  F1  1  0.50000000  0.00000000  0.50000000  1
  F  F2  1  0.00000000  0.50000000  0.00000000  1
  F  F3  1  0.50000000  0.50000000  0.50000000  1
  F  F4  1  0.32051533  0.90135607  0.66737271  1
  F  F5  1  0.17948467  0.09864393  0.16737271  1
  F  F6  1  0.67948467  0.40135607  0.33262729  1
  F  F7  1  0.82051533  0.59864393  0.83262729  1
  F  F8  1  0.67948467  0.09864393  0.33262729  1
  F  F9  1  0.82051533  0.90135607  0.83262729  1
  F  F10  1  0.32051533  0.59864393  0.66737271  1
  F  F11  1  0.17948467  0.40135607  0.16737271  1
  F  F12  1  0.07586388  0.40927135  0.72612382  1
  F  F13  1  0.42413612  0.59072865  0.22612382  1
  F  F14  1  0.92413612  0.90927135  0.27387618  1
  F  F15  1  0.57586388  0.09072865  0.77387618  1
  F  F16  1  0.92413612  0.59072865  0.27387618  1
  F  F17  1  0.57586388  0.40927135  0.77387618  1
  F  F18  1  0.07586388  0.09072865  0.72612382  1
  F  F19  1  0.42413612  0.90927135  0.22612382  1
  F  F20  1  0.67524759  0.83456494  0.04640330  1
  F  F21  1  0.82475241  0.16543506  0.54640330  1
  F  F22  1  0.32475241  0.33456494  0.95359670  1
  F  F23  1  0.17524759  0.66543506  0.45359670  1
  F  F24  1  0.32475241  0.16543506  0.95359670  1
  F  F25  1  0.17524759  0.83456494  0.45359670  1
  F  F26  1  0.67524759  0.66543506  0.04640330  1
  F  F27  1  0.82475241  0.33456494  0.54640330  1
  Li  Li28  1  0.55640882  0.66349504  0.17785848  1
  Li  Li29  1  -0.05640882  -0.66349504  0.67785848  1
  Li  Li30  1  -0.55640882  1.16349504  -0.17785848  1
  Li  Li31  1  1.05640882  -0.16349504  0.32214152  1
  Li  Li32  1  -0.55640882  -0.66349504  -0.17785848  1
  Li  Li33  1  1.05640882  0.66349504  0.32214152  1
  Li  Li34  1  0.55640882  -0.16349504  0.17785848  1
  Li  Li35  1  -0.05640882  1.16349504  0.67785848  1
  Li  Li36  1  0.31707761  0.25000000  0.04565120  1
  Li  Li37  1  0.18292239  0.75000000  0.54565120  1
  Li  Li38  1  0.68292239  0.75000000  0.95434880  1
  Li  Li39  1  0.81707761  0.25000000  0.45434880  1
  Li  Li40  1  0.58086007  0.25000000  0.40737862  1
  Li  Li41  1  0.91913993  0.75000000  0.90737862  1
  Li  Li42  1  0.41913993  0.75000000  0.59262138  1
  Li  Li43  1  0.08086007  0.25000000  0.09262138  1
  Li  Li44  1  0.12467355  0.83024612  0.01568541  1
  Li  Li45  1  0.37532645  0.16975388  0.51568541  1
  Li  Li46  1  0.87532645  0.33024612  0.98431459  1
  Li  Li47  1  0.62467355  0.66975388  0.48431459  1
  Li  Li48  1  0.87532645  0.16975388  0.98431459  1
  Li  Li49  1  0.62467355  0.83024612  0.48431459  1
  Li  Li50  1  0.12467355  0.66975388  0.01568541  1
  Li  Li51  1  0.37532645  0.33024612  0.51568541  1
  Li  Li52  1  0.63449598  0.25000000  0.98773377  1
  Li  Li53  1  0.86550402  0.75000000  0.48773377  1
  Li  Li54  1  0.36550402  0.75000000  0.01226623  1
  Li  Li55  1  0.13449598  0.25000000  0.51226623  1
