# generated using pymatgen
data_Li2O
_symmetry_space_group_name_H-M   'P 1'
_cell_length_a   12.47496004
_cell_length_b   12.47496004
_cell_length_c   18.70737981
_cell_angle_alpha   90.00000000
_cell_angle_beta   90.00000000
_cell_angle_gamma   120.00000000
_symmetry_Int_Tables_number   1
_chemical_formula_structural   Li2O
_chemical_formula_sum   'Li96 O48'
_cell_volume   2521.28489194
_cell_formula_units_Z   48
loop_
 _symmetry_equiv_pos_site_id
 _symmetry_equiv_pos_as_xyz
  1  'x, y, z'
loop_
 _atom_site_type_symbol
 _atom_site_label
 _atom_site_symmetry_multiplicity
 _atom_site_fract_x
 _atom_site_fract_y
 _atom_site_fract_z
 _atom_site_occupancy
  Li  Li0  1  0.33333333  0.66666667  0.19071110  1
  Li  Li1  1  0.33333333  0.66666667  0.80928890  1
  Li  Li2  1  0.66666667  0.33333333  0.80928890  1
  Li  Li3  1  0.66666667  0.33333333  0.19071110  1
  Li  Li4  1  0.06643690  0.00000000  0.10562229  1
  Li  Li5  1  0.00000000  0.06643690  0.10562229  1
  Li  Li6  1  0.93356310  0.93356310  0.10562229  1
  Li  Li7  1  0.06643690  0.00000000  0.89437771  1
  Li  Li8  1  0.00000000  0.06643690  0.89437771  1
  Li  Li9  1  0.93356310  0.93356310  0.89437771  1
  Li  Li10  1  0.33333333  0.66666667  0.00000000  1
  Li  Li11  1  0.66666667  0.33333333  0.00000000  1
  Li  Li12  1  0.57180213  0.85764125  0.53824531  1
  Li  Li13  1  0.14235875  0.71416088  0.53824531  1
  Li  Li14  1  0.28583912  0.42819787  0.53824531  1
  Li  Li15  1  0.57180213  0.85764125  0.46175469  1
  Li  Li16  1  0.14235875  0.71416088  0.46175469  1
  Li  Li17  1  0.28583912  0.42819787  0.46175469  1
  Li  Li18  1  0.85764125  0.57180213  0.46175469  1
  Li  Li19  1  0.71416088  0.14235875  0.46175469  1
  Li  Li20  1  0.42819787  0.28583912  0.46175469  1
  Li  Li21  1  0.85764125  0.57180213  0.53824531  1
  Li  Li22  1  0.71416088  0.14235875  0.53824531  1
  Li  Li23  1  0.42819787  0.28583912  0.53824531  1
  Li  Li24  1  0.54889691  0.00000000  0.00000000  1
  Li  Li25  1  0.00000000  0.54889691  0.00000000  1
  Li  Li26  1  0.45110309  0.45110309  0.00000000  1
  Li  Li27  1  0.76512832  0.35351647  0.89003208  1
  Li  Li28  1  0.64648353  0.41161184  0.89003208  1
  Li  Li29  1  0.58838816  0.23487168  0.89003208  1
  Li  Li30  1  0.76512832  0.35351647  0.10996792  1
  Li  Li31  1  0.64648353  0.41161184  0.10996792  1
  Li  Li32  1  0.58838816  0.23487168  0.10996792  1
  Li  Li33  1  0.35351647  0.76512832  0.10996792  1
  Li  Li34  1  0.41161184  0.64648353  0.10996792  1
  Li  Li35  1  0.23487168  0.58838816  0.10996792  1
  Li  Li36  1  0.35351647  0.76512832  0.89003208  1
  Li  Li37  1  0.41161184  0.64648353  0.89003208  1
  Li  Li38  1  0.23487168  0.58838816  0.89003208  1
  Li  Li39  1  0.00000000  0.00000000  0.23024406  1
  Li  Li40  1  0.00000000  0.00000000  0.76975594  1
  Li  Li41  1  0.93245918  0.19303996  0.87359939  1
  Li  Li42  1  0.80696004  0.73941922  0.87359939  1
  Li  Li43  1  0.26058078  0.06754082  0.87359939  1
  Li  Li44  1  0.93245918  0.19303996  0.12640061  1
  Li  Li45  1  0.80696004  0.73941922  0.12640061  1
  Li  Li46  1  0.26058078  0.06754082  0.12640061  1
  Li  Li47  1  0.19303996  0.93245918  0.12640061  1
  Li  Li48  1  0.73941922  0.80696004  0.12640061  1
  Li  Li49  1  0.06754082  0.26058078  0.12640061  1
  Li  Li50  1  0.19303996  0.93245918  0.87359939  1
  Li  Li51  1  0.73941922  0.80696004  0.87359939  1
  Li  Li52  1  0.06754082  0.26058078  0.87359939  1
  Li  Li53  1  0.66188849  0.83110698  0.79091845  1
  Li  Li54  1  0.16889302  0.83078151  0.79091845  1
  Li  Li55  1  0.16921849  0.33811151  0.79091845  1
  Li  Li56  1  0.66188849  0.83110698  0.20908155  1
  Li  Li57  1  0.16889302  0.83078151  0.20908155  1
  Li  Li58  1  0.16921849  0.33811151  0.20908155  1
  Li  Li59  1  0.83110698  0.66188849  0.20908155  1
  Li  Li60  1  0.83078151  0.16889302  0.20908155  1
  Li  Li61  1  0.33811151  0.16921849  0.20908155  1
  Li  Li62  1  0.83110698  0.66188849  0.79091845  1
  Li  Li63  1  0.83078151  0.16889302  0.79091845  1
  Li  Li64  1  0.33811151  0.16921849  0.79091845  1
  Li  Li65  1  0.46752789  0.26276662  0.20474811  1
  Li  Li66  1  0.73723338  0.20476127  0.20474811  1
  Li  Li67  1  0.79523873  0.53247211  0.20474811  1
  Li  Li68  1  0.46752789  0.26276662  0.79525189  1
  Li  Li69  1  0.73723338  0.20476127  0.79525189  1
  Li  Li70  1  0.79523873  0.53247211  0.79525189  1
  Li  Li71  1  0.26276662  0.46752789  0.79525189  1
  Li  Li72  1  0.20476127  0.73723338  0.79525189  1
  Li  Li73  1  0.53247211  0.79523873  0.79525189  1
  Li  Li74  1  0.26276662  0.46752789  0.20474811  1
  Li  Li75  1  0.20476127  0.73723338  0.20474811  1
  Li  Li76  1  0.53247211  0.79523873  0.20474811  1
  Li  Li77  1  0.19779095  0.00000000  0.40989064  1
  Li  Li78  1  0.00000000  0.19779095  0.40989064  1
  Li  Li79  1  0.80220905  0.80220905  0.40989064  1
  Li  Li80  1  0.19779095  0.00000000  0.59010936  1
  Li  Li81  1  0.00000000  0.19779095  0.59010936  1
  Li  Li82  1  0.80220905  0.80220905  0.59010936  1
  Li  Li83  1  0.10433763  0.46762215  0.28703938  1
  Li  Li84  1  0.53237785  0.63671548  0.28703938  1
  Li  Li85  1  0.36328452  0.89566237  0.28703938  1
  Li  Li86  1  0.10433763  0.46762215  0.71296062  1
  Li  Li87  1  0.53237785  0.63671548  0.71296062  1
  Li  Li88  1  0.36328452  0.89566237  0.71296062  1
  Li  Li89  1  0.46762215  0.10433763  0.71296062  1
  Li  Li90  1  0.63671548  0.53237785  0.71296062  1
  Li  Li91  1  0.89566237  0.36328452  0.71296062  1
  Li  Li92  1  0.46762215  0.10433763  0.28703938  1
  Li  Li93  1  0.63671548  0.53237785  0.28703938  1
  Li  Li94  1  0.89566237  0.36328452  0.28703938  1
  Li  Li95  1  0.00000000  0.00000000  0.50000000  1
  O  O96  1  0.96689828  0.51120543  0.15226628  1
  O  O97  1  -0.51120543  0.45569285  0.15226628  1
  O  O98  1  -0.45569285  -0.96689828  0.15226628  1
  O  O99  1  0.96689828  0.51120543  -0.15226628  1
  O  O100  1  -0.51120543  0.45569285  -0.15226628  1
  O  O101  1  -0.45569285  -0.96689828  -0.15226628  1
  O  O102  1  0.51120543  0.96689828  -0.15226628  1
  O  O103  1  0.45569285  -0.51120543  -0.15226628  1
  O  O104  1  -0.96689828  -0.45569285  -0.15226628  1
  O  O105  1  0.51120543  0.96689828  0.15226628  1
  O  O106  1  0.45569285  -0.51120543  0.15226628  1
  O  O107  1  -0.96689828  -0.45569285  0.15226628  1
  O  O108  1  0.05662508  0.89666512  0.62621053  1
  O  O109  1  0.10333488  0.15995997  0.62621053  1
  O  O110  1  0.84004003  0.94337492  0.62621053  1
  O  O111  1  0.05662508  0.89666512  0.37378947  1
  O  O112  1  0.10333488  0.15995997  0.37378947  1
  O  O113  1  0.84004003  0.94337492  0.37378947  1
  O  O114  1  0.89666512  0.05662508  0.37378947  1
  O  O115  1  0.15995997  0.10333488  0.37378947  1
  O  O116  1  0.94337492  0.84004003  0.37378947  1
  O  O117  1  0.89666512  0.05662508  0.62621053  1
  O  O118  1  0.15995997  0.10333488  0.62621053  1
  O  O119  1  0.94337492  0.84004003  0.62621053  1
  O  O120  1  0.77208296  0.65425941  0.50000000  1
  O  O121  1  0.34574059  0.11782355  0.50000000  1
  O  O122  1  0.88217645  0.22791704  0.50000000  1
  O  O123  1  0.65425941  0.77208296  0.50000000  1
  O  O124  1  0.11782355  0.34574059  0.50000000  1
  O  O125  1  0.22791704  0.88217645  0.50000000  1
  O  O126  1  0.38158827  0.21248374  0.07244753  1
  O  O127  1  0.78751626  0.16910453  0.07244753  1
  O  O128  1  0.83089547  0.61841173  0.07244753  1
  O  O129  1  0.38158827  0.21248374  0.92755247  1
  O  O130  1  0.78751626  0.16910453  0.92755247  1
  O  O131  1  0.83089547  0.61841173  0.92755247  1
  O  O132  1  0.21248374  0.38158827  0.92755247  1
  O  O133  1  0.16910453  0.78751626  0.92755247  1
  O  O134  1  0.61841173  0.83089547  0.92755247  1
  O  O135  1  0.21248374  0.38158827  0.07244753  1
  O  O136  1  0.16910453  0.78751626  0.07244753  1
  O  O137  1  0.61841173  0.83089547  0.07244753  1
  O  O138  1  0.46820165  0.73476502  0.00000000  1
  O  O139  1  0.26523498  0.73343664  0.00000000  1
  O  O140  1  0.26656336  0.53179835  0.00000000  1
  O  O141  1  0.73476502  0.46820165  0.00000000  1
  O  O142  1  0.73343664  0.26523498  0.00000000  1
  O  O143  1  0.53179835  0.26656336  0.00000000  1
