# generated using pymatgen
data_Li4TeF2
_symmetry_space_group_name_H-M   'P 1'
_cell_length_a   9.92320711
_cell_length_b   9.92320711
_cell_length_c   20.10295599
_cell_angle_alpha   90.00000000
_cell_angle_beta   90.00000000
_cell_angle_gamma   90.00000000
_symmetry_Int_Tables_number   1
_chemical_formula_structural   Li4TeF2
_chemical_formula_sum   'Li96 Te24 F48'
_cell_volume   1979.53886755
_cell_formula_units_Z   24
loop_
 _symmetry_equiv_pos_site_id
 _symmetry_equiv_pos_as_xyz
  1  'x, y, z'
loop_
 _atom_site_type_symbol
 _atom_site_label
 _atom_site_symmetry_multiplicity
 _atom_site_fract_x
 _atom_site_fract_y
 _atom_site_fract_z
 _atom_site_occupancy
  F  F0  1  0.14668921  0.54459998  0.87075964  1
  F  F1  1  0.35331079  -0.54459998  1.37075964  1
  F  F2  1  -0.29459998  0.89668921  1.12075964  1
  F  F3  1  0.79459998  0.10331079  1.62075964  1
  F  F4  1  0.35331079  0.54459998  -0.37075964  1
  F  F5  1  0.14668921  -0.54459998  -0.87075964  1
  F  F6  1  0.79459998  0.89668921  -0.62075964  1
  F  F7  1  -0.29459998  0.10331079  -0.12075964  1
  F  F8  1  -0.14668921  -0.54459998  -0.87075964  1
  F  F9  1  0.64668921  0.54459998  -0.37075964  1
  F  F10  1  1.29459998  0.10331079  -0.12075964  1
  F  F11  1  0.20540002  0.89668921  -0.62075964  1
  F  F12  1  0.64668921  -0.54459998  1.37075964  1
  F  F13  1  -0.14668921  0.54459998  0.87075964  1
  F  F14  1  0.20540002  0.10331079  1.62075964  1
  F  F15  1  1.29459998  0.89668921  1.12075964  1
  F  F16  1  0.64668921  1.04459998  1.37075964  1
  F  F17  1  0.85331079  -0.04459998  1.87075964  1
  F  F18  1  0.20540002  1.39668921  1.62075964  1
  F  F19  1  1.29459998  0.60331079  2.12075964  1
  F  F20  1  0.85331079  1.04459998  0.12924036  1
  F  F21  1  0.64668921  -0.04459998  -0.37075964  1
  F  F22  1  1.29459998  1.39668921  -0.12075964  1
  F  F23  1  0.20540002  0.60331079  0.37924036  1
  F  F24  1  0.35331079  -0.04459998  -0.37075964  1
  F  F25  1  1.14668921  1.04459998  0.12924036  1
  F  F26  1  1.79459998  0.60331079  0.37924036  1
  F  F27  1  0.70540002  1.39668921  -0.12075964  1
  F  F28  1  1.14668921  -0.04459998  1.87075964  1
  F  F29  1  0.35331079  1.04459998  1.37075964  1
  F  F30  1  0.70540002  0.60331079  2.12075964  1
  F  F31  1  1.79459998  1.39668921  1.62075964  1
  F  F32  1  0.00000000  0.21014593  0.29334745  1
  F  F33  1  0.50000000  0.78985407  0.79334745  1
  F  F34  1  0.03985407  0.75000000  0.54334745  1
  F  F35  1  0.46014593  0.25000000  0.04334745  1
  F  F36  1  0.50000000  0.21014593  0.20665255  1
  F  F37  1  0.00000000  0.78985407  0.70665255  1
  F  F38  1  0.46014593  0.75000000  0.95665255  1
  F  F39  1  0.03985407  0.25000000  0.45665255  1
  F  F40  1  0.50000000  0.71014593  0.79334745  1
  F  F41  1  0.00000000  0.28985407  0.29334745  1
  F  F42  1  0.53985407  0.25000000  0.04334745  1
  F  F43  1  0.96014593  0.75000000  0.54334745  1
  F  F44  1  0.00000000  0.71014593  0.70665255  1
  F  F45  1  0.50000000  0.28985407  0.20665255  1
  F  F46  1  0.96014593  0.25000000  0.45665255  1
  F  F47  1  0.53985407  0.75000000  0.95665255  1
  Li  Li48  1  0.88030890  0.06927718  0.97383487  1
  Li  Li49  1  0.61969110  0.93072282  0.47383487  1
  Li  Li50  1  0.18072282  0.63030890  0.22383487  1
  Li  Li51  1  0.31927718  0.36969110  0.72383487  1
  Li  Li52  1  0.61969110  0.06927718  0.52616513  1
  Li  Li53  1  0.88030890  0.93072282  0.02616513  1
  Li  Li54  1  0.31927718  0.63030890  0.27616513  1
  Li  Li55  1  0.18072282  0.36969110  0.77616513  1
  Li  Li56  1  0.11969110  0.93072282  0.02616513  1
  Li  Li57  1  0.38030890  0.06927718  0.52616513  1
  Li  Li58  1  0.81927718  0.36969110  0.77616513  1
  Li  Li59  1  0.68072282  0.63030890  0.27616513  1
  Li  Li60  1  0.38030890  0.93072282  0.47383487  1
  Li  Li61  1  0.11969110  0.06927718  0.97383487  1
  Li  Li62  1  0.68072282  0.36969110  0.72383487  1
  Li  Li63  1  0.81927718  0.63030890  0.22383487  1
  Li  Li64  1  0.38030890  0.56927718  0.47383487  1
  Li  Li65  1  0.11969110  0.43072282  0.97383487  1
  Li  Li66  1  0.68072282  0.13030890  0.72383487  1
  Li  Li67  1  0.81927718  0.86969110  0.22383487  1
  Li  Li68  1  0.11969110  0.56927718  0.02616513  1
  Li  Li69  1  0.38030890  0.43072282  0.52616513  1
  Li  Li70  1  0.81927718  0.13030890  0.77616513  1
  Li  Li71  1  0.68072282  0.86969110  0.27616513  1
  Li  Li72  1  0.61969110  0.43072282  0.52616513  1
  Li  Li73  1  0.88030890  0.56927718  0.02616513  1
  Li  Li74  1  0.31927718  0.86969110  0.27616513  1
  Li  Li75  1  0.18072282  0.13030890  0.77616513  1
  Li  Li76  1  0.88030890  0.43072282  0.97383487  1
  Li  Li77  1  0.61969110  0.56927718  0.47383487  1
  Li  Li78  1  0.18072282  0.86969110  0.22383487  1
  Li  Li79  1  0.31927718  0.13030890  0.72383487  1
  Li  Li80  1  0.14778454  0.88204933  0.93871859  1
  Li  Li81  1  0.35221546  0.11795067  0.43871859  1
  Li  Li82  1  0.36795067  0.89778454  0.18871859  1
  Li  Li83  1  0.13204933  0.10221546  0.68871859  1
  Li  Li84  1  0.35221546  0.88204933  0.56128141  1
  Li  Li85  1  0.14778454  0.11795067  0.06128141  1
  Li  Li86  1  0.13204933  0.89778454  0.31128141  1
  Li  Li87  1  0.36795067  0.10221546  0.81128141  1
  Li  Li88  1  0.85221546  0.11795067  0.06128141  1
  Li  Li89  1  0.64778454  0.88204933  0.56128141  1
  Li  Li90  1  0.63204933  0.10221546  0.81128141  1
  Li  Li91  1  0.86795067  0.89778454  0.31128141  1
  Li  Li92  1  0.64778454  0.11795067  0.43871859  1
  Li  Li93  1  0.85221546  0.88204933  0.93871859  1
  Li  Li94  1  0.86795067  0.10221546  0.68871859  1
  Li  Li95  1  0.63204933  0.89778454  0.18871859  1
  Li  Li96  1  0.64778454  0.38204933  0.43871859  1
  Li  Li97  1  0.85221546  0.61795067  0.93871859  1
  Li  Li98  1  0.86795067  0.39778454  0.68871859  1
  Li  Li99  1  0.63204933  0.60221546  0.18871859  1
  Li  Li100  1  0.85221546  0.38204933  0.06128141  1
  Li  Li101  1  0.64778454  0.61795067  0.56128141  1
  Li  Li102  1  0.63204933  0.39778454  0.81128141  1
  Li  Li103  1  0.86795067  0.60221546  0.31128141  1
  Li  Li104  1  0.35221546  0.61795067  0.56128141  1
  Li  Li105  1  0.14778454  0.38204933  0.06128141  1
  Li  Li106  1  0.13204933  0.60221546  0.31128141  1
  Li  Li107  1  0.36795067  0.39778454  0.81128141  1
  Li  Li108  1  0.14778454  0.61795067  0.93871859  1
  Li  Li109  1  0.35221546  0.38204933  0.43871859  1
  Li  Li110  1  0.36795067  0.60221546  0.18871859  1
  Li  Li111  1  0.13204933  0.39778454  0.68871859  1
  Li  Li112  1  0.00000000  0.41435296  0.74106817  1
  Li  Li113  1  0.50000000  0.58564704  0.24106817  1
  Li  Li114  1  0.83564704  0.75000000  0.99106817  1
  Li  Li115  1  0.66435296  0.25000000  0.49106817  1
  Li  Li116  1  0.50000000  0.41435296  0.75893183  1
  Li  Li117  1  0.00000000  0.58564704  0.25893183  1
  Li  Li118  1  0.66435296  0.75000000  0.50893183  1
  Li  Li119  1  0.83564704  0.25000000  0.00893183  1
  Li  Li120  1  0.50000000  0.91435296  0.24106817  1
  Li  Li121  1  0.00000000  0.08564704  0.74106817  1
  Li  Li122  1  0.33564704  0.25000000  0.49106817  1
  Li  Li123  1  0.16435296  0.75000000  0.99106817  1
  Li  Li124  1  0.00000000  0.91435296  0.25893183  1
  Li  Li125  1  0.50000000  0.08564704  0.75893183  1
  Li  Li126  1  0.16435296  0.25000000  0.00893183  1
  Li  Li127  1  0.33564704  0.75000000  0.50893183  1
  Li  Li128  1  0.00000000  0.59886373  0.36533179  1
  Li  Li129  1  0.50000000  0.40113627  0.86533179  1
  Li  Li130  1  0.65113627  0.75000000  0.61533179  1
  Li  Li131  1  0.84886373  0.25000000  0.11533179  1
  Li  Li132  1  0.50000000  0.59886373  0.13466821  1
  Li  Li133  1  0.00000000  0.40113627  0.63466821  1
  Li  Li134  1  0.84886373  0.75000000  0.88466821  1
  Li  Li135  1  0.65113627  0.25000000  0.38466821  1
  Li  Li136  1  0.50000000  0.09886373  0.86533179  1
  Li  Li137  1  0.00000000  0.90113627  0.36533179  1
  Li  Li138  1  0.15113627  0.25000000  0.11533179  1
  Li  Li139  1  0.34886373  0.75000000  0.61533179  1
  Li  Li140  1  0.00000000  0.09886373  0.63466821  1
  Li  Li141  1  0.50000000  0.90113627  0.13466821  1
  Li  Li142  1  0.34886373  0.25000000  0.38466821  1
  Li  Li143  1  0.15113627  0.75000000  0.88466821  1
  Te  Te144  1  0.00000000  0.25000000  0.00821011  1
  Te  Te145  1  0.00000000  0.75000000  0.25821011  1
  Te  Te146  1  0.50000000  0.25000000  0.49178989  1
  Te  Te147  1  0.50000000  0.75000000  0.24178989  1
  Te  Te148  1  0.50000000  0.75000000  0.50821011  1
  Te  Te149  1  0.50000000  0.25000000  0.75821011  1
  Te  Te150  1  0.00000000  0.75000000  0.99178989  1
  Te  Te151  1  0.00000000  0.25000000  0.74178989  1
  Te  Te152  1  0.00000000  0.25000000  0.37500000  1
  Te  Te153  1  0.00000000  0.75000000  0.62500000  1
  Te  Te154  1  0.50000000  0.75000000  0.87500000  1
  Te  Te155  1  0.50000000  0.25000000  0.12500000  1
  Te  Te156  1  0.00000000  0.00000000  0.50000000  1
  Te  Te157  1  0.50000000  0.00000000  0.00000000  1
  Te  Te158  1  0.25000000  0.75000000  0.75000000  1
  Te  Te159  1  0.25000000  0.25000000  0.25000000  1
  Te  Te160  1  0.50000000  0.50000000  0.00000000  1
  Te  Te161  1  0.00000000  0.50000000  0.50000000  1
  Te  Te162  1  0.75000000  0.25000000  0.25000000  1
  Te  Te163  1  0.75000000  0.75000000  0.75000000  1
  Te  Te164  1  0.00000000  0.75000000  0.12500000  1
  Te  Te165  1  0.50000000  0.75000000  0.37500000  1
  Te  Te166  1  0.50000000  0.25000000  0.62500000  1
  Te  Te167  1  0.00000000  0.25000000  0.87500000  1
