# generated using pymatgen
data_LiF
_symmetry_space_group_name_H-M   'P 1'
_cell_length_a   9.47054045
_cell_length_b   9.47054045
_cell_length_c   5.18317128
_cell_angle_alpha   90.00000000
_cell_angle_beta   90.00000000
_cell_angle_gamma   120.00000000
_symmetry_Int_Tables_number   1
_chemical_formula_structural   LiF
_chemical_formula_sum   'Li16 F16'
_cell_volume   402.60180628
_cell_formula_units_Z   16
loop_
 _symmetry_equiv_pos_site_id
 _symmetry_equiv_pos_as_xyz
  1  'x, y, z'
loop_
 _atom_site_type_symbol
 _atom_site_label
 _atom_site_symmetry_multiplicity
 _atom_site_fract_x
 _atom_site_fract_y
 _atom_site_fract_z
 _atom_site_occupancy
  F  F0  1  0.66666667  0.33333333  0.50000000  1
  F  F1  1  0.70829444  0.22531793  0.49198824  1
  F  F2  1  0.77468207  0.48297651  0.49198824  1
  F  F3  1  0.51702349  0.29170556  0.49198824  1
  F  F4  1  0.77468207  0.29170556  0.50801176  1
  F  F5  1  0.51702349  0.22531793  0.50801176  1
  F  F6  1  0.70829444  0.48297651  0.50801176  1
  F  F7  1  0.81633396  0.36183115  0.15764607  1
  F  F8  1  0.63816885  0.45450281  0.15764607  1
  F  F9  1  0.54549719  0.18366604  0.15764607  1
  F  F10  1  0.63816885  0.18366604  0.84235393  1
  F  F11  1  0.54549719  0.36183115  0.84235393  1
  F  F12  1  0.81633396  0.45450281  0.84235393  1
  F  F13  1  0.48716804  0.51283196  0.50000000  1
  F  F14  1  0.48716804  0.97433608  0.50000000  1
  F  F15  1  0.02566392  0.51283196  0.50000000  1
  Li  Li16  1  0.33333333  0.66666667  0.50000000  1
  Li  Li17  1  0.82378284  0.48244064  0.24161875  1
  Li  Li18  1  -0.48244064  0.34134220  0.24161875  1
  Li  Li19  1  -0.34134220  -0.82378284  0.24161875  1
  Li  Li20  1  -0.48244064  -0.82378284  -0.24161875  1
  Li  Li21  1  -0.34134220  0.48244064  -0.24161875  1
  Li  Li22  1  0.82378284  0.34134220  -0.24161875  1
  Li  Li23  1  0.33333333  0.66666667  0.00000000  1
  Li  Li24  1  0.18601696  0.81398304  0.50000000  1
  Li  Li25  1  0.18601696  0.37203393  0.50000000  1
  Li  Li26  1  0.62796607  0.81398304  0.50000000  1
  Li  Li27  1  0.44358087  0.55641913  0.00000000  1
  Li  Li28  1  0.44358087  0.88716173  0.00000000  1
  Li  Li29  1  0.11283827  0.55641913  0.00000000  1
  Li  Li30  1  0.00000000  0.00000000  0.50000000  1
  Li  Li31  1  0.66666667  0.33333333  0.00000000  1
