# generated using pymatgen
data_LiF
_symmetry_space_group_name_H-M   'P 1'
_cell_length_a   9.41790562
_cell_length_b   9.43627666
_cell_length_c   7.71550854
_cell_angle_alpha   90.00000000
_cell_angle_beta   90.00000000
_cell_angle_gamma   90.00000000
_symmetry_Int_Tables_number   1
_chemical_formula_structural   LiF
_chemical_formula_sum   'Li24 F24'
_cell_volume   685.67695881
_cell_formula_units_Z   24
loop_
 _symmetry_equiv_pos_site_id
 _symmetry_equiv_pos_as_xyz
  1  'x, y, z'
loop_
 _atom_site_type_symbol
 _atom_site_label
 _atom_site_symmetry_multiplicity
 _atom_site_fract_x
 _atom_site_fract_y
 _atom_site_fract_z
 _atom_site_occupancy
  F  F0  1  0.51000357  0.25000000  0.84176708  1
  F  F1  1  0.98999643  0.75000000  0.34176708  1
  F  F2  1  0.48999643  0.75000000  0.15823292  1
  F  F3  1  0.01000357  0.25000000  0.65823292  1
  F  F4  1  0.52873302  0.82835258  0.26262243  1
  F  F5  1  0.97126698  0.17164742  0.76262243  1
  F  F6  1  0.47126698  0.32835258  0.73737757  1
  F  F7  1  0.02873302  0.67164742  0.23737757  1
  F  F8  1  0.47126698  0.17164742  0.73737757  1
  F  F9  1  0.02873302  0.82835258  0.23737757  1
  F  F10  1  0.52873302  0.67164742  0.26262243  1
  F  F11  1  0.97126698  0.32835258  0.76262243  1
  F  F12  1  0.00000000  0.00000000  0.00000000  1
  F  F13  1  0.50000000  0.00000000  0.50000000  1
  F  F14  1  0.00000000  0.50000000  0.00000000  1
  F  F15  1  0.50000000  0.50000000  0.50000000  1
  F  F16  1  0.52774682  0.44867371  0.53362485  1
  F  F17  1  0.97225318  0.55132629  0.03362485  1
  F  F18  1  0.47225318  0.94867371  0.46637515  1
  F  F19  1  0.02774682  0.05132629  0.96637515  1
  F  F20  1  0.47225318  0.55132629  0.46637515  1
  F  F21  1  0.02774682  0.44867371  0.96637515  1
  F  F22  1  0.52774682  0.05132629  0.53362485  1
  F  F23  1  0.97225318  0.94867371  0.03362485  1
  Li  Li24  1  0.65992317  0.25000000  0.72101908  1
  Li  Li25  1  0.84007683  0.75000000  0.22101908  1
  Li  Li26  1  0.34007683  0.75000000  0.27898092  1
  Li  Li27  1  0.15992317  0.25000000  0.77898092  1
  Li  Li28  1  0.77594213  0.33265869  0.92135454  1
  Li  Li29  1  -0.27594213  -0.33265869  1.42135454  1
  Li  Li30  1  -0.77594213  0.83265869  -0.92135454  1
  Li  Li31  1  1.27594213  0.16734131  -0.42135454  1
  Li  Li32  1  -0.77594213  -0.33265869  -0.92135454  1
  Li  Li33  1  1.27594213  0.33265869  -0.42135454  1
  Li  Li34  1  0.77594213  0.16734131  0.92135454  1
  Li  Li35  1  -0.27594213  0.83265869  1.42135454  1
  Li  Li36  1  0.02361825  0.01483312  0.22861736  1
  Li  Li37  1  0.47638175  0.98516688  0.72861736  1
  Li  Li38  1  0.97638175  0.51483312  0.77138264  1
  Li  Li39  1  0.52361825  0.48516688  0.27138264  1
  Li  Li40  1  0.97638175  0.98516688  0.77138264  1
  Li  Li41  1  0.52361825  0.01483312  0.27138264  1
  Li  Li42  1  0.02361825  0.48516688  0.22861736  1
  Li  Li43  1  0.47638175  0.51483312  0.72861736  1
  Li  Li44  1  0.28380963  0.25000000  0.86463622  1
  Li  Li45  1  0.21619037  0.75000000  0.36463622  1
  Li  Li46  1  0.71619037  0.75000000  0.13536378  1
  Li  Li47  1  0.78380963  0.25000000  0.63536378  1
