# generated using pymatgen
data_LiF
_symmetry_space_group_name_H-M   'P 1'
_cell_length_a   7.52681186
_cell_length_b   7.52681186
_cell_length_c   31.00194991
_cell_angle_alpha   90.00000000
_cell_angle_beta   90.00000000
_cell_angle_gamma   90.00000000
_symmetry_Int_Tables_number   1
_chemical_formula_structural   LiF
_chemical_formula_sum   'Li64 F64'
_cell_volume   1756.35026982
_cell_formula_units_Z   64
loop_
 _symmetry_equiv_pos_site_id
 _symmetry_equiv_pos_as_xyz
  1  'x, y, z'
loop_
 _atom_site_type_symbol
 _atom_site_label
 _atom_site_symmetry_multiplicity
 _atom_site_fract_x
 _atom_site_fract_y
 _atom_site_fract_z
 _atom_site_occupancy
  F  F0  1  0.43416185  0.39470773  0.21976551  1
  F  F1  1  0.06583815  0.60529227  0.71976551  1
  F  F2  1  0.85529227  0.18416185  0.46976551  1
  F  F3  1  0.64470773  0.81583815  0.96976551  1
  F  F4  1  0.06583815  0.39470773  0.78023449  1
  F  F5  1  0.43416185  0.60529227  0.28023449  1
  F  F6  1  0.64470773  0.18416185  0.53023449  1
  F  F7  1  0.85529227  0.81583815  0.03023449  1
  F  F8  1  0.56583815  0.60529227  0.78023449  1
  F  F9  1  0.93416185  0.39470773  0.28023449  1
  F  F10  1  0.14470773  0.81583815  0.53023449  1
  F  F11  1  0.35529227  0.18416185  0.03023449  1
  F  F12  1  0.93416185  0.60529227  0.21976551  1
  F  F13  1  0.56583815  0.39470773  0.71976551  1
  F  F14  1  0.35529227  0.81583815  0.46976551  1
  F  F15  1  0.14470773  0.18416185  0.96976551  1
  F  F16  1  0.93416185  0.89470773  0.71976551  1
  F  F17  1  0.56583815  0.10529227  0.21976551  1
  F  F18  1  0.35529227  0.68416185  0.96976551  1
  F  F19  1  0.14470773  0.31583815  0.46976551  1
  F  F20  1  0.56583815  0.89470773  0.28023449  1
  F  F21  1  0.93416185  0.10529227  0.78023449  1
  F  F22  1  0.14470773  0.68416185  0.03023449  1
  F  F23  1  0.35529227  0.31583815  0.53023449  1
  F  F24  1  0.06583815  0.10529227  0.28023449  1
  F  F25  1  0.43416185  0.89470773  0.78023449  1
  F  F26  1  0.64470773  0.31583815  0.03023449  1
  F  F27  1  0.85529227  0.68416185  0.53023449  1
  F  F28  1  0.43416185  0.10529227  0.71976551  1
  F  F29  1  0.06583815  0.89470773  0.21976551  1
  F  F30  1  0.85529227  0.31583815  0.96976551  1
  F  F31  1  0.64470773  0.68416185  0.46976551  1
  F  F32  1  0.00000000  0.25000000  0.20312078  1
  F  F33  1  0.00000000  0.75000000  0.45312078  1
  F  F34  1  0.50000000  0.25000000  0.79687922  1
  F  F35  1  0.50000000  0.75000000  0.54687922  1
  F  F36  1  0.00000000  0.75000000  0.79687922  1
  F  F37  1  0.00000000  0.25000000  0.54687922  1
  F  F38  1  0.50000000  0.75000000  0.20312078  1
  F  F39  1  0.50000000  0.25000000  0.45312078  1
  F  F40  1  0.50000000  0.75000000  0.70312078  1
  F  F41  1  0.50000000  0.25000000  0.95312078  1
  F  F42  1  0.00000000  0.75000000  0.29687922  1
  F  F43  1  0.00000000  0.25000000  0.04687922  1
  F  F44  1  0.50000000  0.25000000  0.29687922  1
  F  F45  1  0.50000000  0.75000000  0.04687922  1
  F  F46  1  0.00000000  0.25000000  0.70312078  1
  F  F47  1  0.00000000  0.75000000  0.95312078  1
  F  F48  1  0.45829850  0.00000000  0.25000000  1
  F  F49  1  0.04170150  0.00000000  0.75000000  1
  F  F50  1  0.25000000  0.20829850  0.50000000  1
  F  F51  1  0.25000000  0.79170150  0.00000000  1
  F  F52  1  0.54170150  0.00000000  0.75000000  1
  F  F53  1  0.95829850  0.00000000  0.25000000  1
  F  F54  1  0.75000000  0.79170150  0.50000000  1
  F  F55  1  0.75000000  0.20829850  0.00000000  1
  F  F56  1  0.95829850  0.50000000  0.75000000  1
  F  F57  1  0.54170150  0.50000000  0.25000000  1
  F  F58  1  0.75000000  0.70829850  0.00000000  1
  F  F59  1  0.75000000  0.29170150  0.50000000  1
  F  F60  1  0.04170150  0.50000000  0.25000000  1
  F  F61  1  0.45829850  0.50000000  0.75000000  1
  F  F62  1  0.25000000  0.29170150  -0.00000000  1
  F  F63  1  0.25000000  0.70829850  0.50000000  1
  Li  Li64  1  0.24674992  0.49674992  0.12500000  1
  Li  Li65  1  0.25325008  0.50325008  0.62500000  1
  Li  Li66  1  0.75325008  0.99674992  0.37500000  1
  Li  Li67  1  0.74674992  0.00325008  0.87500000  1
  Li  Li68  1  0.75325008  0.50325008  0.87500000  1
  Li  Li69  1  0.74674992  0.49674992  0.37500000  1
  Li  Li70  1  0.24674992  0.00325008  0.62500000  1
  Li  Li71  1  0.25325008  0.99674992  0.12500000  1
  Li  Li72  1  0.74674992  0.99674992  0.62500000  1
  Li  Li73  1  0.75325008  0.00325008  0.12500000  1
  Li  Li74  1  0.25325008  0.49674992  0.87500000  1
  Li  Li75  1  0.24674992  0.50325008  0.37500000  1
  Li  Li76  1  0.25325008  0.00325008  0.37500000  1
  Li  Li77  1  0.24674992  0.99674992  0.87500000  1
  Li  Li78  1  0.74674992  0.50325008  0.12500000  1
  Li  Li79  1  0.75325008  0.49674992  0.62500000  1
  Li  Li80  1  0.82138386  0.49359410  0.70573919  1
  Li  Li81  1  -0.32138386  -0.49359410  1.20573919  1
  Li  Li82  1  -0.24359410  1.57138386  0.95573919  1
  Li  Li83  1  0.74359410  -0.57138386  1.45573919  1
  Li  Li84  1  -0.32138386  0.49359410  -0.70573919  1
  Li  Li85  1  0.82138386  -0.49359410  -0.20573919  1
  Li  Li86  1  0.74359410  1.57138386  0.04426081  1
  Li  Li87  1  -0.24359410  -0.57138386  -0.45573919  1
  Li  Li88  1  -0.82138386  -0.49359410  -0.70573919  1
  Li  Li89  1  1.32138386  0.49359410  -0.20573919  1
  Li  Li90  1  1.24359410  -0.57138386  0.04426081  1
  Li  Li91  1  0.25640590  1.57138386  -0.45573919  1
  Li  Li92  1  1.32138386  -0.49359410  0.70573919  1
  Li  Li93  1  -0.82138386  0.49359410  1.20573919  1
  Li  Li94  1  0.25640590  -0.57138386  0.95573919  1
  Li  Li95  1  1.24359410  1.57138386  1.45573919  1
  Li  Li96  1  1.32138386  0.99359410  1.20573919  1
  Li  Li97  1  0.17861614  0.00640590  1.70573919  1
  Li  Li98  1  0.25640590  2.07138386  1.45573919  1
  Li  Li99  1  1.24359410  -0.07138386  1.95573919  1
  Li  Li100  1  0.17861614  0.99359410  -0.20573919  1
  Li  Li101  1  1.32138386  0.00640590  0.29426081  1
  Li  Li102  1  1.24359410  2.07138386  0.54426081  1
  Li  Li103  1  0.25640590  -0.07138386  0.04426081  1
  Li  Li104  1  -0.32138386  0.00640590  -0.20573919  1
  Li  Li105  1  1.82138386  0.99359410  0.29426081  1
  Li  Li106  1  1.74359410  -0.07138386  0.54426081  1
  Li  Li107  1  0.75640590  2.07138386  0.04426081  1
  Li  Li108  1  1.82138386  0.00640590  1.20573919  1
  Li  Li109  1  -0.32138386  0.99359410  1.70573919  1
  Li  Li110  1  0.75640590  -0.07138386  1.45573919  1
  Li  Li111  1  1.74359410  2.07138386  1.95573919  1
  Li  Li112  1  0.00000000  0.25000000  0.46402439  1
  Li  Li113  1  0.00000000  0.75000000  0.71402439  1
  Li  Li114  1  0.50000000  0.25000000  0.53597561  1
  Li  Li115  1  0.50000000  0.75000000  0.28597561  1
  Li  Li116  1  0.00000000  0.75000000  0.53597561  1
  Li  Li117  1  0.00000000  0.25000000  0.28597561  1
  Li  Li118  1  0.50000000  0.75000000  0.46402439  1
  Li  Li119  1  0.50000000  0.25000000  0.71402439  1
  Li  Li120  1  0.50000000  0.75000000  0.96402439  1
  Li  Li121  1  0.50000000  0.25000000  0.21402439  1
  Li  Li122  1  0.00000000  0.75000000  0.03597561  1
  Li  Li123  1  0.00000000  0.25000000  0.78597561  1
  Li  Li124  1  0.50000000  0.25000000  0.03597561  1
  Li  Li125  1  0.50000000  0.75000000  0.78597561  1
  Li  Li126  1  0.00000000  0.25000000  0.96402439  1
  Li  Li127  1  0.00000000  0.75000000  0.21402439  1
