# generated using pymatgen
data_Li2Y2Te4P3
_symmetry_space_group_name_H-M   'P 1'
_cell_length_a   4.25619968
_cell_length_b   4.54045501
_cell_length_c   6.81252444
_cell_angle_alpha   96.22944245
_cell_angle_beta   103.56643057
_cell_angle_gamma   115.02119447
_symmetry_Int_Tables_number   1
_chemical_formula_structural   Li2Y2Te4P3
_chemical_formula_sum   'Li2 Y2 Te4 P3'
_cell_volume   112.69803088
_cell_formula_units_Z   1
loop_
 _symmetry_equiv_pos_site_id
 _symmetry_equiv_pos_as_xyz
  1  'x, y, z'
loop_
 _atom_site_type_symbol
 _atom_site_label
 _atom_site_symmetry_multiplicity
 _atom_site_fract_x
 _atom_site_fract_y
 _atom_site_fract_z
 _atom_site_occupancy
  Te  Te0  1  0.00000000  0.00000000  0.00000000  1
  Te  Te1  1  0.33300000  0.66700000  0.25000000  1
  Te  Te2  1  0.66700000  0.33300000  0.50000000  1
  Te  Te3  1  0.00000000  0.00000000  0.75000000  1
  P  P4  1  0.80105363  0.10306325  0.96798585  1
  P  P5  1  0.78292654  0.68210838  0.71804701  1
  P  P6  1  0.88590543  0.31671923  0.16981114  1
  Li  Li7  1  0.89495916  0.23067808  0.46678838  1
  Li  Li8  1  0.12833467  0.65319207  0.37737065  1
  Y  Y9  1  0.89398329  0.27478773  0.78071387  1
  Y  Y10  1  0.16367890  0.88791021  0.52981987  1
