# generated using pymatgen
data_Li4TeF2
_symmetry_space_group_name_H-M   'P 1'
_cell_length_a   11.25328648
_cell_length_b   11.25328648
_cell_length_c   26.09456478
_cell_angle_alpha   90.00000000
_cell_angle_beta   90.00000000
_cell_angle_gamma   120.00000000
_symmetry_Int_Tables_number   1
_chemical_formula_structural   Li4TeF2
_chemical_formula_sum   'Li96 Te24 F48'
_cell_volume   2861.80105395
_cell_formula_units_Z   24
loop_
 _symmetry_equiv_pos_site_id
 _symmetry_equiv_pos_as_xyz
  1  'x, y, z'
loop_
 _atom_site_type_symbol
 _atom_site_label
 _atom_site_symmetry_multiplicity
 _atom_site_fract_x
 _atom_site_fract_y
 _atom_site_fract_z
 _atom_site_occupancy
  F  F0  1  0.43216533  0.22185826  0.80297753  1
  F  F1  1  -0.22185826  0.21030707  0.80297753  1
  F  F2  1  -0.21030707  -0.43216533  0.80297753  1
  F  F3  1  -0.43216533  -0.22185826  1.30297753  1
  F  F4  1  0.22185826  -0.21030707  1.30297753  1
  F  F5  1  0.21030707  0.43216533  1.30297753  1
  F  F6  1  -0.43216533  -0.22185826  -0.80297753  1
  F  F7  1  0.22185826  -0.21030707  -0.80297753  1
  F  F8  1  0.21030707  0.43216533  -0.80297753  1
  F  F9  1  0.43216533  0.22185826  -0.30297753  1
  F  F10  1  -0.22185826  0.21030707  -0.30297753  1
  F  F11  1  -0.21030707  -0.43216533  -0.30297753  1
  F  F12  1  0.02957227  0.19788043  0.05219303  1
  F  F13  1  0.80211957  0.83169184  0.05219303  1
  F  F14  1  0.16830816  0.97042773  0.05219303  1
  F  F15  1  0.97042773  0.80211957  0.55219303  1
  F  F16  1  0.19788043  0.16830816  0.55219303  1
  F  F17  1  0.83169184  0.02957227  0.55219303  1
  F  F18  1  0.97042773  0.80211957  0.94780697  1
  F  F19  1  0.19788043  0.16830816  0.94780697  1
  F  F20  1  0.83169184  0.02957227  0.94780697  1
  F  F21  1  0.02957227  0.19788043  0.44780697  1
  F  F22  1  0.80211957  0.83169184  0.44780697  1
  F  F23  1  0.16830816  0.97042773  0.44780697  1
  F  F24  1  0.71095842  0.52965625  0.96238372  1
  F  F25  1  0.47034375  0.18130217  0.96238372  1
  F  F26  1  0.81869783  0.28904158  0.96238372  1
  F  F27  1  0.28904158  0.47034375  0.46238372  1
  F  F28  1  0.52965625  0.81869783  0.46238372  1
  F  F29  1  0.18130217  0.71095842  0.46238372  1
  F  F30  1  0.28904158  0.47034375  0.03761628  1
  F  F31  1  0.52965625  0.81869783  0.03761628  1
  F  F32  1  0.18130217  0.71095842  0.03761628  1
  F  F33  1  0.71095842  0.52965625  0.53761628  1
  F  F34  1  0.47034375  0.18130217  0.53761628  1
  F  F35  1  0.81869783  0.28904158  0.53761628  1
  F  F36  1  0.08745233  0.09659561  0.78793471  1
  F  F37  1  0.90340439  0.99085672  0.78793471  1
  F  F38  1  0.00914328  0.91254767  0.78793471  1
  F  F39  1  0.91254767  0.90340439  0.28793471  1
  F  F40  1  0.09659561  0.00914328  0.28793471  1
  F  F41  1  0.99085672  0.08745233  0.28793471  1
  F  F42  1  0.91254767  0.90340439  0.21206529  1
  F  F43  1  0.09659561  0.00914328  0.21206529  1
  F  F44  1  0.99085672  0.08745233  0.21206529  1
  F  F45  1  0.08745233  0.09659561  0.71206529  1
  F  F46  1  0.90340439  0.99085672  0.71206529  1
  F  F47  1  0.00914328  0.91254767  0.71206529  1
  Li  Li48  1  0.00000000  0.00000000  0.00000000  1
  Li  Li49  1  0.00000000  0.00000000  0.50000000  1
  Li  Li50  1  0.14374259  0.57295899  0.43061150  1
  Li  Li51  1  0.42704101  0.57078361  0.43061150  1
  Li  Li52  1  0.42921639  0.85625741  0.43061150  1
  Li  Li53  1  0.85625741  0.42704101  0.93061150  1
  Li  Li54  1  0.57295899  0.42921639  0.93061150  1
  Li  Li55  1  0.57078361  0.14374259  0.93061150  1
  Li  Li56  1  0.85625741  0.42704101  0.56938850  1
  Li  Li57  1  0.57295899  0.42921639  0.56938850  1
  Li  Li58  1  0.57078361  0.14374259  0.56938850  1
  Li  Li59  1  0.14374259  0.57295899  0.06938850  1
  Li  Li60  1  0.42704101  0.57078361  0.06938850  1
  Li  Li61  1  0.42921639  0.85625741  0.06938850  1
  Li  Li62  1  0.28038734  0.80485235  0.09637004  1
  Li  Li63  1  0.19514765  0.47553500  0.09637004  1
  Li  Li64  1  0.52446500  0.71961266  0.09637004  1
  Li  Li65  1  0.71961266  0.19514765  0.59637004  1
  Li  Li66  1  0.80485235  0.52446500  0.59637004  1
  Li  Li67  1  0.47553500  0.28038734  0.59637004  1
  Li  Li68  1  0.71961266  0.19514765  0.90362996  1
  Li  Li69  1  0.80485235  0.52446500  0.90362996  1
  Li  Li70  1  0.47553500  0.28038734  0.90362996  1
  Li  Li71  1  0.28038734  0.80485235  0.40362996  1
  Li  Li72  1  0.19514765  0.47553500  0.40362996  1
  Li  Li73  1  0.52446500  0.71961266  0.40362996  1
  Li  Li74  1  0.88529014  0.31407548  0.86428477  1
  Li  Li75  1  0.68592452  0.57121466  0.86428477  1
  Li  Li76  1  0.42878534  0.11470986  0.86428477  1
  Li  Li77  1  0.11470986  0.68592452  0.36428477  1
  Li  Li78  1  0.31407548  0.42878534  0.36428477  1
  Li  Li79  1  0.57121466  0.88529014  0.36428477  1
  Li  Li80  1  0.11470986  0.68592452  0.13571523  1
  Li  Li81  1  0.31407548  0.42878534  0.13571523  1
  Li  Li82  1  0.57121466  0.88529014  0.13571523  1
  Li  Li83  1  0.88529014  0.31407548  0.63571523  1
  Li  Li84  1  0.68592452  0.57121466  0.63571523  1
  Li  Li85  1  0.42878534  0.11470986  0.63571523  1
  Li  Li86  1  0.74989777  0.49855197  0.64449366  1
  Li  Li87  1  0.50144803  0.25134580  0.64449366  1
  Li  Li88  1  0.74865420  0.25010223  0.64449366  1
  Li  Li89  1  0.25010223  0.50144803  0.14449366  1
  Li  Li90  1  0.49855197  0.74865420  0.14449366  1
  Li  Li91  1  0.25134580  0.74989777  0.14449366  1
  Li  Li92  1  0.25010223  0.50144803  0.35550634  1
  Li  Li93  1  0.49855197  0.74865420  0.35550634  1
  Li  Li94  1  0.25134580  0.74989777  0.35550634  1
  Li  Li95  1  0.74989777  0.49855197  0.85550634  1
  Li  Li96  1  0.50144803  0.25134580  0.85550634  1
  Li  Li97  1  0.74865420  0.25010223  0.85550634  1
  Li  Li98  1  0.48200674  0.54401916  0.20299747  1
  Li  Li99  1  0.45598084  0.93798758  0.20299747  1
  Li  Li100  1  0.06201242  0.51799326  0.20299747  1
  Li  Li101  1  0.51799326  0.45598084  0.70299747  1
  Li  Li102  1  0.54401916  0.06201242  0.70299747  1
  Li  Li103  1  0.93798758  0.48200674  0.70299747  1
  Li  Li104  1  0.51799326  0.45598084  0.79700253  1
  Li  Li105  1  0.54401916  0.06201242  0.79700253  1
  Li  Li106  1  0.93798758  0.48200674  0.79700253  1
  Li  Li107  1  0.48200674  0.54401916  0.29700253  1
  Li  Li108  1  0.45598084  0.93798758  0.29700253  1
  Li  Li109  1  0.06201242  0.51799326  0.29700253  1
  Li  Li110  1  0.35502923  0.84987286  0.66598062  1
  Li  Li111  1  0.15012714  0.50515638  0.66598062  1
  Li  Li112  1  0.49484362  0.64497077  0.66598062  1
  Li  Li113  1  0.64497077  0.15012714  0.16598062  1
  Li  Li114  1  0.84987286  0.49484362  0.16598062  1
  Li  Li115  1  0.50515638  0.35502923  0.16598062  1
  Li  Li116  1  0.64497077  0.15012714  0.33401938  1
  Li  Li117  1  0.84987286  0.49484362  0.33401938  1
  Li  Li118  1  0.50515638  0.35502923  0.33401938  1
  Li  Li119  1  0.35502923  0.84987286  0.83401938  1
  Li  Li120  1  0.15012714  0.50515638  0.83401938  1
  Li  Li121  1  0.49484362  0.64497077  0.83401938  1
  Li  Li122  1  0.75218481  0.03258238  0.98386371  1
  Li  Li123  1  0.96741762  0.71960243  0.98386371  1
  Li  Li124  1  0.28039757  0.24781519  0.98386371  1
  Li  Li125  1  0.24781519  0.96741762  0.48386371  1
  Li  Li126  1  0.03258238  0.28039757  0.48386371  1
  Li  Li127  1  0.71960243  0.75218481  0.48386371  1
  Li  Li128  1  0.24781519  0.96741762  0.01613629  1
  Li  Li129  1  0.03258238  0.28039757  0.01613629  1
  Li  Li130  1  0.71960243  0.75218481  0.01613629  1
  Li  Li131  1  0.75218481  0.03258238  0.51613629  1
  Li  Li132  1  0.96741762  0.71960243  0.51613629  1
  Li  Li133  1  0.28039757  0.24781519  0.51613629  1
  Li  Li134  1  0.94249258  0.11688716  0.25000000  1
  Li  Li135  1  0.88311284  0.82560542  0.25000000  1
  Li  Li136  1  0.17439458  0.05750742  0.25000000  1
  Li  Li137  1  0.05750742  0.88311284  0.75000000  1
  Li  Li138  1  0.11688716  0.17439458  0.75000000  1
  Li  Li139  1  0.82560542  0.94249258  0.75000000  1
  Li  Li140  1  0.33333333  0.66666667  0.31173455  1
  Li  Li141  1  0.66666667  0.33333333  0.81173455  1
  Li  Li142  1  0.66666667  0.33333333  0.68826545  1
  Li  Li143  1  0.33333333  0.66666667  0.18826545  1
  Te  Te144  1  0.00000000  0.00000000  0.66995139  1
  Te  Te145  1  0.00000000  0.00000000  0.16995139  1
  Te  Te146  1  0.00000000  0.00000000  0.33004861  1
  Te  Te147  1  0.00000000  0.00000000  0.83004861  1
  Te  Te148  1  0.33333333  0.66666667  0.40608805  1
  Te  Te149  1  0.66666667  0.33333333  0.90608805  1
  Te  Te150  1  0.66666667  0.33333333  0.59391195  1
  Te  Te151  1  0.33333333  0.66666667  0.09391195  1
  Te  Te152  1  0.33333333  0.66666667  0.25000000  1
  Te  Te153  1  0.66666667  0.33333333  0.75000000  1
  Te  Te154  1  0.50000000  0.00000000  0.00000000  1
  Te  Te155  1  0.00000000  0.50000000  0.00000000  1
  Te  Te156  1  0.50000000  0.50000000  0.00000000  1
  Te  Te157  1  0.50000000  0.00000000  0.50000000  1
  Te  Te158  1  0.00000000  0.50000000  0.50000000  1
  Te  Te159  1  0.50000000  0.50000000  0.50000000  1
  Te  Te160  1  0.03109058  0.59154039  0.25000000  1
  Te  Te161  1  0.40845961  0.43955019  0.25000000  1
  Te  Te162  1  0.56044981  0.96890942  0.25000000  1
  Te  Te163  1  0.96890942  0.40845961  0.75000000  1
  Te  Te164  1  0.59154039  0.56044981  0.75000000  1
  Te  Te165  1  0.43955019  0.03109058  0.75000000  1
  Te  Te166  1  0.00000000  0.00000000  0.25000000  1
  Te  Te167  1  0.00000000  0.00000000  0.75000000  1
