# generated using pymatgen
data_LiF
_symmetry_space_group_name_H-M   'P 1'
_cell_length_a   4.66444381
_cell_length_b   13.43483440
_cell_length_c   8.27079313
_cell_angle_alpha   90.00000000
_cell_angle_beta   90.00000000
_cell_angle_gamma   90.00000000
_symmetry_Int_Tables_number   1
_chemical_formula_structural   LiF
_chemical_formula_sum   'Li30 F30'
_cell_volume   518.29777184
_cell_formula_units_Z   30
loop_
 _symmetry_equiv_pos_site_id
 _symmetry_equiv_pos_as_xyz
  1  'x, y, z'
loop_
 _atom_site_type_symbol
 _atom_site_label
 _atom_site_symmetry_multiplicity
 _atom_site_fract_x
 _atom_site_fract_y
 _atom_site_fract_z
 _atom_site_occupancy
  F  F0  1  0.00000000  0.00000000  0.21656220  1
  F  F1  1  0.50000000  0.50000000  0.78343780  1
  F  F2  1  0.00000000  0.00000000  0.78343780  1
  F  F3  1  0.50000000  0.50000000  0.21656220  1
  F  F4  1  0.92155785  0.72993021  0.23808787  1
  F  F5  1  -0.92155785  -0.72993021  0.23808787  1
  F  F6  1  -0.42155785  1.22993021  -0.23808787  1
  F  F7  1  1.42155785  -0.22993021  -0.23808787  1
  F  F8  1  -0.92155785  -0.72993021  -0.23808787  1
  F  F9  1  0.92155785  0.72993021  -0.23808787  1
  F  F10  1  1.42155785  -0.22993021  0.23808787  1
  F  F11  1  -0.42155785  1.22993021  0.23808787  1
  F  F12  1  0.92828590  0.77451921  0.00000000  1
  F  F13  1  0.07171410  0.22548079  0.00000000  1
  F  F14  1  0.57171410  0.27451921  0.00000000  1
  F  F15  1  0.42828590  0.72548079  0.00000000  1
  F  F16  1  0.09728174  0.62606496  0.05453875  1
  F  F17  1  0.90271826  0.37393504  0.05453875  1
  F  F18  1  0.40271826  0.12606496  0.94546125  1
  F  F19  1  0.59728174  0.87393504  0.94546125  1
  F  F20  1  0.90271826  0.37393504  0.94546125  1
  F  F21  1  0.09728174  0.62606496  0.94546125  1
  F  F22  1  0.59728174  0.87393504  0.05453875  1
  F  F23  1  0.40271826  0.12606496  0.05453875  1
  F  F24  1  0.45950706  0.11863957  0.50000000  1
  F  F25  1  0.54049294  0.88136043  0.50000000  1
  F  F26  1  0.04049294  0.61863957  0.50000000  1
  F  F27  1  0.95950706  0.38136043  0.50000000  1
  F  F28  1  0.00000000  0.00000000  0.00000000  1
  F  F29  1  0.50000000  0.50000000  0.00000000  1
  Li  Li30  1  0.71693282  0.15354593  0.00000000  1
  Li  Li31  1  0.28306718  0.84645407  0.00000000  1
  Li  Li32  1  0.78306718  0.65354593  0.00000000  1
  Li  Li33  1  0.21693282  0.34645407  -0.00000000  1
  Li  Li34  1  0.03709226  0.79876073  0.25942520  1
  Li  Li35  1  0.96290774  0.20123927  0.25942520  1
  Li  Li36  1  0.46290774  0.29876073  0.74057480  1
  Li  Li37  1  0.53709226  0.70123927  0.74057480  1
  Li  Li38  1  0.96290774  0.20123927  0.74057480  1
  Li  Li39  1  0.03709226  0.79876073  0.74057480  1
  Li  Li40  1  0.53709226  0.70123927  0.25942520  1
  Li  Li41  1  0.46290774  0.29876073  0.25942520  1
  Li  Li42  1  0.39363705  0.57376048  0.17307972  1
  Li  Li43  1  0.60636295  0.42623952  0.17307972  1
  Li  Li44  1  0.10636295  0.07376048  0.82692028  1
  Li  Li45  1  0.89363705  0.92623952  0.82692028  1
  Li  Li46  1  0.60636295  0.42623952  0.82692028  1
  Li  Li47  1  0.39363705  0.57376048  0.82692028  1
  Li  Li48  1  0.89363705  0.92623952  0.17307972  1
  Li  Li49  1  0.10636295  0.07376048  0.17307972  1
  Li  Li50  1  0.00000000  0.50000000  0.00000000  1
  Li  Li51  1  0.50000000  0.00000000  0.00000000  1
  Li  Li52  1  0.00000000  0.00000000  0.50000000  1
  Li  Li53  1  0.50000000  0.50000000  0.50000000  1
  Li  Li54  1  0.17446498  0.71986242  0.00000000  1
  Li  Li55  1  0.82553502  0.28013758  -0.00000000  1
  Li  Li56  1  0.32553502  0.21986242  0.00000000  1
  Li  Li57  1  0.67446498  0.78013758  0.00000000  1
  Li  Li58  1  0.00000000  0.50000000  0.50000000  1
  Li  Li59  1  0.50000000  0.00000000  0.50000000  1
