# generated using pymatgen
data_LiF
_symmetry_space_group_name_H-M   'P 1'
_cell_length_a   5.47074318
_cell_length_b   9.35602254
_cell_length_c   8.19661572
_cell_angle_alpha   90.00000000
_cell_angle_beta   90.00000000
_cell_angle_gamma   90.00000000
_symmetry_Int_Tables_number   1
_chemical_formula_structural   LiF
_chemical_formula_sum   'Li24 F24'
_cell_volume   419.53882948
_cell_formula_units_Z   24
loop_
 _symmetry_equiv_pos_site_id
 _symmetry_equiv_pos_as_xyz
  1  'x, y, z'
loop_
 _atom_site_type_symbol
 _atom_site_label
 _atom_site_symmetry_multiplicity
 _atom_site_fract_x
 _atom_site_fract_y
 _atom_site_fract_z
 _atom_site_occupancy
  F  F0  1  0.09823329  0.25000000  0.57455160  1
  F  F1  1  0.40176671  0.75000000  0.07455160  1
  F  F2  1  0.90176671  0.75000000  0.42544840  1
  F  F3  1  0.59823329  0.25000000  0.92544840  1
  F  F4  1  0.79264296  0.25000000  0.20471646  1
  F  F5  1  0.70735704  0.75000000  0.70471646  1
  F  F6  1  0.20735704  0.75000000  0.79528354  1
  F  F7  1  0.29264296  0.25000000  0.29528354  1
  F  F8  1  0.22198333  0.28679444  0.32680840  1
  F  F9  1  0.27801667  0.71320556  0.82680840  1
  F  F10  1  0.77801667  0.78679444  0.67319160  1
  F  F11  1  0.72198333  0.21320556  0.17319160  1
  F  F12  1  0.77801667  0.71320556  0.67319160  1
  F  F13  1  0.72198333  0.28679444  0.17319160  1
  F  F14  1  0.22198333  0.21320556  0.32680840  1
  F  F15  1  0.27801667  0.78679444  0.82680840  1
  F  F16  1  0.23122344  0.25000000  0.55998837  1
  F  F17  1  0.26877656  0.75000000  0.05998837  1
  F  F18  1  0.76877656  0.75000000  0.44001163  1
  F  F19  1  0.73122344  0.25000000  0.94001163  1
  F  F20  1  0.15378480  0.25000000  0.91470745  1
  F  F21  1  0.34621520  0.75000000  0.41470745  1
  F  F22  1  0.84621520  0.75000000  0.08529255  1
  F  F23  1  0.65378480  0.25000000  0.58529255  1
  Li  Li24  1  0.00000000  0.00000000  0.50000000  1
  Li  Li25  1  0.50000000  0.00000000  0.00000000  1
  Li  Li26  1  0.00000000  0.50000000  0.50000000  1
  Li  Li27  1  0.50000000  0.50000000  0.00000000  1
  Li  Li28  1  0.63358070  0.25000000  0.39789758  1
  Li  Li29  1  0.86641930  0.75000000  0.89789758  1
  Li  Li30  1  0.36641930  0.75000000  0.60210242  1
  Li  Li31  1  0.13358070  0.25000000  0.10210242  1
  Li  Li32  1  0.60462213  0.81994858  0.97370518  1
  Li  Li33  1  -0.10462213  -0.81994858  1.47370518  1
  Li  Li34  1  -0.60462213  1.31994858  -0.97370518  1
  Li  Li35  1  1.10462213  -0.31994858  -0.47370518  1
  Li  Li36  1  -0.60462213  -0.81994858  -0.97370518  1
  Li  Li37  1  1.10462213  0.81994858  -0.47370518  1
  Li  Li38  1  0.60462213  -0.31994858  0.97370518  1
  Li  Li39  1  -0.10462213  1.31994858  1.47370518  1
  Li  Li40  1  0.14448534  0.46151635  0.77183152  1
  Li  Li41  1  0.35551466  0.53848365  0.27183152  1
  Li  Li42  1  0.85551466  0.96151635  0.22816848  1
  Li  Li43  1  0.64448534  0.03848365  0.72816848  1
  Li  Li44  1  0.85551466  0.53848365  0.22816848  1
  Li  Li45  1  0.64448534  0.46151635  0.72816848  1
  Li  Li46  1  0.14448534  0.03848365  0.77183152  1
  Li  Li47  1  0.35551466  0.96151635  0.27183152  1
