# generated using pymatgen
data_Li2S
_symmetry_space_group_name_H-M   'P 1'
_cell_length_a   8.67314075
_cell_length_b   8.67314075
_cell_length_c   11.81026522
_cell_angle_alpha   90.00000000
_cell_angle_beta   90.00000000
_cell_angle_gamma   90.00000000
_symmetry_Int_Tables_number   1
_chemical_formula_structural   Li2S
_chemical_formula_sum   'Li32 S16'
_cell_volume   888.40795558
_cell_formula_units_Z   16
loop_
 _symmetry_equiv_pos_site_id
 _symmetry_equiv_pos_as_xyz
  1  'x, y, z'
loop_
 _atom_site_type_symbol
 _atom_site_label
 _atom_site_symmetry_multiplicity
 _atom_site_fract_x
 _atom_site_fract_y
 _atom_site_fract_z
 _atom_site_occupancy
  Li  Li0  1  0.19341927  0.31841809  0.56059516  1
  Li  Li1  1  -0.19341927  -0.31841809  0.56059516  1
  Li  Li2  1  -0.31841809  0.19341927  0.56059516  1
  Li  Li3  1  0.31841809  -0.19341927  0.56059516  1
  Li  Li4  1  -0.19341927  0.31841809  -0.56059516  1
  Li  Li5  1  0.19341927  -0.31841809  -0.56059516  1
  Li  Li6  1  0.31841809  0.19341927  -0.56059516  1
  Li  Li7  1  -0.31841809  -0.19341927  -0.56059516  1
  Li  Li8  1  -0.19341927  -0.31841809  -0.56059516  1
  Li  Li9  1  0.19341927  0.31841809  -0.56059516  1
  Li  Li10  1  0.31841809  -0.19341927  -0.56059516  1
  Li  Li11  1  -0.31841809  0.19341927  -0.56059516  1
  Li  Li12  1  0.19341927  -0.31841809  0.56059516  1
  Li  Li13  1  -0.19341927  0.31841809  0.56059516  1
  Li  Li14  1  -0.31841809  -0.19341927  0.56059516  1
  Li  Li15  1  0.31841809  0.19341927  0.56059516  1
  Li  Li16  1  0.41033553  0.00000000  0.84937393  1
  Li  Li17  1  0.58966447  0.00000000  0.84937393  1
  Li  Li18  1  0.00000000  0.41033553  0.84937393  1
  Li  Li19  1  0.00000000  0.58966447  0.84937393  1
  Li  Li20  1  0.58966447  0.00000000  0.15062607  1
  Li  Li21  1  0.41033553  0.00000000  0.15062607  1
  Li  Li22  1  0.00000000  0.41033553  0.15062607  1
  Li  Li23  1  0.00000000  0.58966447  0.15062607  1
  Li  Li24  1  0.73568673  0.73568673  0.27885286  1
  Li  Li25  1  0.26431327  0.26431327  0.27885286  1
  Li  Li26  1  0.26431327  0.73568673  0.27885286  1
  Li  Li27  1  0.73568673  0.26431327  0.27885286  1
  Li  Li28  1  0.26431327  0.73568673  0.72114714  1
  Li  Li29  1  0.73568673  0.26431327  0.72114714  1
  Li  Li30  1  0.73568673  0.73568673  0.72114714  1
  Li  Li31  1  0.26431327  0.26431327  0.72114714  1
  S  S32  1  0.50000000  0.50000000  0.50000000  1
  S  S33  1  0.70485152  0.50000000  0.31123273  1
  S  S34  1  0.29514848  0.50000000  0.31123273  1
  S  S35  1  0.50000000  0.70485152  0.31123273  1
  S  S36  1  0.50000000  0.29514848  0.31123273  1
  S  S37  1  0.29514848  0.50000000  0.68876727  1
  S  S38  1  0.70485152  0.50000000  0.68876727  1
  S  S39  1  0.50000000  0.70485152  0.68876727  1
  S  S40  1  0.50000000  0.29514848  0.68876727  1
  S  S41  1  0.00000000  0.00000000  0.50000000  1
  S  S42  1  0.00000000  0.00000000  0.00000000  1
  S  S43  1  0.25903815  0.00000000  0.00000000  1
  S  S44  1  0.74096185  0.00000000  0.00000000  1
  S  S45  1  0.00000000  0.25903815  0.00000000  1
  S  S46  1  0.00000000  0.74096185  0.00000000  1
  S  S47  1  0.50000000  0.50000000  0.00000000  1
