# generated using pymatgen
data_Li2Sn12Te4(SeF12)3
_symmetry_space_group_name_H-M   'P 1'
_cell_length_a   18.37685137
_cell_length_b   18.37685137
_cell_length_c   18.37685137
_cell_angle_alpha   90.00000000
_cell_angle_beta   90.00000000
_cell_angle_gamma   90.00000000
_symmetry_Int_Tables_number   1
_chemical_formula_structural   Li2Sn12Te4(SeF12)3
_chemical_formula_sum   'Li16 Sn96 Te32 Se24 F288'
_cell_volume   6206.02196751
_cell_formula_units_Z   8
loop_
 _symmetry_equiv_pos_site_id
 _symmetry_equiv_pos_as_xyz
  1  'x, y, z'
loop_
 _atom_site_type_symbol
 _atom_site_label
 _atom_site_symmetry_multiplicity
 _atom_site_fract_x
 _atom_site_fract_y
 _atom_site_fract_z
 _atom_site_occupancy
  F  F0  1  0.94417539  0.52062615  0.86023154  1
  F  F1  1  -0.94417539  -0.52062615  0.86023154  1
  F  F2  1  -0.94417539  0.52062615  -0.86023154  1
  F  F3  1  0.94417539  -0.52062615  -0.86023154  1
  F  F4  1  0.86023154  0.94417539  0.52062615  1
  F  F5  1  0.86023154  -0.94417539  -0.52062615  1
  F  F6  1  -0.86023154  -0.94417539  0.52062615  1
  F  F7  1  -0.86023154  0.94417539  -0.52062615  1
  F  F8  1  0.52062615  0.86023154  0.94417539  1
  F  F9  1  -0.52062615  0.86023154  -0.94417539  1
  F  F10  1  0.52062615  -0.86023154  -0.94417539  1
  F  F11  1  -0.52062615  -0.86023154  0.94417539  1
  F  F12  1  0.52062615  0.94417539  0.86023154  1
  F  F13  1  -0.52062615  -0.94417539  0.86023154  1
  F  F14  1  0.52062615  -0.94417539  -0.86023154  1
  F  F15  1  -0.52062615  0.94417539  -0.86023154  1
  F  F16  1  0.94417539  0.86023154  0.52062615  1
  F  F17  1  -0.94417539  0.86023154  -0.52062615  1
  F  F18  1  -0.94417539  -0.86023154  0.52062615  1
  F  F19  1  0.94417539  -0.86023154  -0.52062615  1
  F  F20  1  0.86023154  0.52062615  0.94417539  1
  F  F21  1  0.86023154  -0.52062615  -0.94417539  1
  F  F22  1  -0.86023154  0.52062615  -0.94417539  1
  F  F23  1  -0.86023154  -0.52062615  0.94417539  1
  F  F24  1  0.94417539  1.02062615  1.36023154  1
  F  F25  1  -0.94417539  -0.02062615  1.36023154  1
  F  F26  1  -0.94417539  1.02062615  -0.36023154  1
  F  F27  1  0.94417539  -0.02062615  -0.36023154  1
  F  F28  1  0.86023154  1.44417539  1.02062615  1
  F  F29  1  0.86023154  -0.44417539  -0.02062615  1
  F  F30  1  -0.86023154  -0.44417539  1.02062615  1
  F  F31  1  -0.86023154  1.44417539  -0.02062615  1
  F  F32  1  0.52062615  1.36023154  1.44417539  1
  F  F33  1  -0.52062615  1.36023154  -0.44417539  1
  F  F34  1  0.52062615  -0.36023154  -0.44417539  1
  F  F35  1  -0.52062615  -0.36023154  1.44417539  1
  F  F36  1  0.52062615  1.44417539  1.36023154  1
  F  F37  1  -0.52062615  -0.44417539  1.36023154  1
  F  F38  1  0.52062615  -0.44417539  -0.36023154  1
  F  F39  1  -0.52062615  1.44417539  -0.36023154  1
  F  F40  1  0.94417539  1.36023154  1.02062615  1
  F  F41  1  -0.94417539  1.36023154  -0.02062615  1
  F  F42  1  -0.94417539  -0.36023154  1.02062615  1
  F  F43  1  0.94417539  -0.36023154  -0.02062615  1
  F  F44  1  0.86023154  1.02062615  1.44417539  1
  F  F45  1  0.86023154  -0.02062615  -0.44417539  1
  F  F46  1  -0.86023154  1.02062615  -0.44417539  1
  F  F47  1  -0.86023154  -0.02062615  1.44417539  1
  F  F48  1  1.44417539  0.52062615  1.36023154  1
  F  F49  1  -0.44417539  -0.52062615  1.36023154  1
  F  F50  1  -0.44417539  0.52062615  -0.36023154  1
  F  F51  1  1.44417539  -0.52062615  -0.36023154  1
  F  F52  1  1.36023154  0.94417539  1.02062615  1
  F  F53  1  1.36023154  -0.94417539  -0.02062615  1
  F  F54  1  -0.36023154  -0.94417539  1.02062615  1
  F  F55  1  -0.36023154  0.94417539  -0.02062615  1
  F  F56  1  1.02062615  0.86023154  1.44417539  1
  F  F57  1  -0.02062615  0.86023154  -0.44417539  1
  F  F58  1  1.02062615  -0.86023154  -0.44417539  1
  F  F59  1  -0.02062615  -0.86023154  1.44417539  1
  F  F60  1  1.02062615  0.94417539  1.36023154  1
  F  F61  1  -0.02062615  -0.94417539  1.36023154  1
  F  F62  1  1.02062615  -0.94417539  -0.36023154  1
  F  F63  1  -0.02062615  0.94417539  -0.36023154  1
  F  F64  1  1.44417539  0.86023154  1.02062615  1
  F  F65  1  -0.44417539  0.86023154  -0.02062615  1
  F  F66  1  -0.44417539  -0.86023154  1.02062615  1
  F  F67  1  1.44417539  -0.86023154  -0.02062615  1
  F  F68  1  1.36023154  0.52062615  1.44417539  1
  F  F69  1  1.36023154  -0.52062615  -0.44417539  1
  F  F70  1  -0.36023154  0.52062615  -0.44417539  1
  F  F71  1  -0.36023154  -0.52062615  1.44417539  1
  F  F72  1  1.44417539  1.02062615  0.86023154  1
  F  F73  1  -0.44417539  -0.02062615  0.86023154  1
  F  F74  1  -0.44417539  1.02062615  -0.86023154  1
  F  F75  1  1.44417539  -0.02062615  -0.86023154  1
  F  F76  1  1.36023154  1.44417539  0.52062615  1
  F  F77  1  1.36023154  -0.44417539  -0.52062615  1
  F  F78  1  -0.36023154  -0.44417539  0.52062615  1
  F  F79  1  -0.36023154  1.44417539  -0.52062615  1
  F  F80  1  1.02062615  1.36023154  0.94417539  1
  F  F81  1  -0.02062615  1.36023154  -0.94417539  1
  F  F82  1  1.02062615  -0.36023154  -0.94417539  1
  F  F83  1  -0.02062615  -0.36023154  0.94417539  1
  F  F84  1  1.02062615  1.44417539  0.86023154  1
  F  F85  1  -0.02062615  -0.44417539  0.86023154  1
  F  F86  1  1.02062615  -0.44417539  -0.86023154  1
  F  F87  1  -0.02062615  1.44417539  -0.86023154  1
  F  F88  1  1.44417539  1.36023154  0.52062615  1
  F  F89  1  -0.44417539  1.36023154  -0.52062615  1
  F  F90  1  -0.44417539  -0.36023154  0.52062615  1
  F  F91  1  1.44417539  -0.36023154  -0.52062615  1
  F  F92  1  1.36023154  1.02062615  0.94417539  1
  F  F93  1  1.36023154  -0.02062615  -0.94417539  1
  F  F94  1  -0.36023154  1.02062615  -0.94417539  1
  F  F95  1  -0.36023154  -0.02062615  0.94417539  1
  F  F96  1  0.91394998  0.91394998  0.55381946  1
  F  F97  1  0.08605002  0.08605002  0.55381946  1
  F  F98  1  0.08605002  0.91394998  0.44618054  1
  F  F99  1  0.91394998  0.08605002  0.44618054  1
  F  F100  1  0.55381946  0.91394998  0.91394998  1
  F  F101  1  0.55381946  0.08605002  0.08605002  1
  F  F102  1  0.44618054  0.08605002  0.91394998  1
  F  F103  1  0.44618054  0.91394998  0.08605002  1
  F  F104  1  0.91394998  0.55381946  0.91394998  1
  F  F105  1  0.08605002  0.55381946  0.08605002  1
  F  F106  1  0.91394998  0.44618054  0.08605002  1
  F  F107  1  0.08605002  0.44618054  0.91394998  1
  F  F108  1  0.91394998  0.41394998  0.05381946  1
  F  F109  1  0.08605002  0.58605002  0.05381946  1
  F  F110  1  0.08605002  0.41394998  0.94618054  1
  F  F111  1  0.91394998  0.58605002  0.94618054  1
  F  F112  1  0.55381946  0.41394998  0.41394998  1
  F  F113  1  0.55381946  0.58605002  0.58605002  1
  F  F114  1  0.44618054  0.58605002  0.41394998  1
  F  F115  1  0.44618054  0.41394998  0.58605002  1
  F  F116  1  0.91394998  0.05381946  0.41394998  1
  F  F117  1  0.08605002  0.05381946  0.58605002  1
  F  F118  1  0.91394998  0.94618054  0.58605002  1
  F  F119  1  0.08605002  0.94618054  0.41394998  1
  F  F120  1  0.41394998  0.91394998  0.05381946  1
  F  F121  1  0.58605002  0.08605002  0.05381946  1
  F  F122  1  0.58605002  0.91394998  0.94618054  1
  F  F123  1  0.41394998  0.08605002  0.94618054  1
  F  F124  1  0.05381946  0.91394998  0.41394998  1
  F  F125  1  0.05381946  0.08605002  0.58605002  1
  F  F126  1  0.94618054  0.08605002  0.41394998  1
  F  F127  1  0.94618054  0.91394998  0.58605002  1
  F  F128  1  0.41394998  0.55381946  0.41394998  1
  F  F129  1  0.58605002  0.55381946  0.58605002  1
  F  F130  1  0.41394998  0.44618054  0.58605002  1
  F  F131  1  0.58605002  0.44618054  0.41394998  1
  F  F132  1  0.41394998  0.41394998  0.55381946  1
  F  F133  1  0.58605002  0.58605002  0.55381946  1
  F  F134  1  0.58605002  0.41394998  0.44618054  1
  F  F135  1  0.41394998  0.58605002  0.44618054  1
  F  F136  1  0.05381946  0.41394998  0.91394998  1
  F  F137  1  0.05381946  0.58605002  0.08605002  1
  F  F138  1  0.94618054  0.58605002  0.91394998  1
  F  F139  1  0.94618054  0.41394998  0.08605002  1
  F  F140  1  0.41394998  0.05381946  0.91394998  1
  F  F141  1  0.58605002  0.05381946  0.08605002  1
  F  F142  1  0.41394998  0.94618054  0.08605002  1
  F  F143  1  0.58605002  0.94618054  0.91394998  1
  F  F144  1  0.45800856  0.45800856  0.27790069  1
  F  F145  1  0.54199144  0.54199144  0.27790069  1
  F  F146  1  0.54199144  0.45800856  0.72209931  1
  F  F147  1  0.45800856  0.54199144  0.72209931  1
  F  F148  1  0.27790069  0.45800856  0.45800856  1
  F  F149  1  0.27790069  0.54199144  0.54199144  1
  F  F150  1  0.72209931  0.54199144  0.45800856  1
  F  F151  1  0.72209931  0.45800856  0.54199144  1
  F  F152  1  0.45800856  0.27790069  0.45800856  1
  F  F153  1  0.54199144  0.27790069  0.54199144  1
  F  F154  1  0.45800856  0.72209931  0.54199144  1
  F  F155  1  0.54199144  0.72209931  0.45800856  1
  F  F156  1  0.45800856  0.95800856  0.77790069  1
  F  F157  1  0.54199144  0.04199144  0.77790069  1
  F  F158  1  0.54199144  0.95800856  0.22209931  1
  F  F159  1  0.45800856  0.04199144  0.22209931  1
  F  F160  1  0.27790069  0.95800856  0.95800856  1
  F  F161  1  0.27790069  0.04199144  0.04199144  1
  F  F162  1  0.72209931  0.04199144  0.95800856  1
  F  F163  1  0.72209931  0.95800856  0.04199144  1
  F  F164  1  0.45800856  0.77790069  0.95800856  1
  F  F165  1  0.54199144  0.77790069  0.04199144  1
  F  F166  1  0.45800856  0.22209931  0.04199144  1
  F  F167  1  0.54199144  0.22209931  0.95800856  1
  F  F168  1  0.95800856  0.45800856  0.77790069  1
  F  F169  1  0.04199144  0.54199144  0.77790069  1
  F  F170  1  0.04199144  0.45800856  0.22209931  1
  F  F171  1  0.95800856  0.54199144  0.22209931  1
  F  F172  1  0.77790069  0.45800856  0.95800856  1
  F  F173  1  0.77790069  0.54199144  0.04199144  1
  F  F174  1  0.22209931  0.54199144  0.95800856  1
  F  F175  1  0.22209931  0.45800856  0.04199144  1
  F  F176  1  0.95800856  0.27790069  0.95800856  1
  F  F177  1  0.04199144  0.27790069  0.04199144  1
  F  F178  1  0.95800856  0.72209931  0.04199144  1
  F  F179  1  0.04199144  0.72209931  0.95800856  1
  F  F180  1  0.95800856  0.95800856  0.27790069  1
  F  F181  1  0.04199144  0.04199144  0.27790069  1
  F  F182  1  0.04199144  0.95800856  0.72209931  1
  F  F183  1  0.95800856  0.04199144  0.72209931  1
  F  F184  1  0.77790069  0.95800856  0.45800856  1
  F  F185  1  0.77790069  0.04199144  0.54199144  1
  F  F186  1  0.22209931  0.04199144  0.45800856  1
  F  F187  1  0.22209931  0.95800856  0.54199144  1
  F  F188  1  0.95800856  0.77790069  0.45800856  1
  F  F189  1  0.04199144  0.77790069  0.54199144  1
  F  F190  1  0.95800856  0.22209931  0.54199144  1
  F  F191  1  0.04199144  0.22209931  0.45800856  1
  F  F192  1  0.03821811  0.60574820  0.78119753  1
  F  F193  1  0.96178189  0.39425180  0.78119753  1
  F  F194  1  0.96178189  0.60574820  0.21880247  1
  F  F195  1  0.03821811  0.39425180  0.21880247  1
  F  F196  1  0.78119753  0.03821811  0.60574820  1
  F  F197  1  0.78119753  0.96178189  0.39425180  1
  F  F198  1  0.21880247  0.96178189  0.60574820  1
  F  F199  1  0.21880247  0.03821811  0.39425180  1
  F  F200  1  0.60574820  0.78119753  0.03821811  1
  F  F201  1  0.39425180  0.78119753  0.96178189  1
  F  F202  1  0.60574820  0.21880247  0.96178189  1
  F  F203  1  0.39425180  0.21880247  0.03821811  1
  F  F204  1  0.60574820  0.03821811  0.78119753  1
  F  F205  1  0.39425180  0.96178189  0.78119753  1
  F  F206  1  0.60574820  0.96178189  0.21880247  1
  F  F207  1  0.39425180  0.03821811  0.21880247  1
  F  F208  1  0.03821811  0.78119753  0.60574820  1
  F  F209  1  0.96178189  0.78119753  0.39425180  1
  F  F210  1  0.96178189  0.21880247  0.60574820  1
  F  F211  1  0.03821811  0.21880247  0.39425180  1
  F  F212  1  0.78119753  0.60574820  0.03821811  1
  F  F213  1  0.78119753  0.39425180  0.96178189  1
  F  F214  1  0.21880247  0.60574820  0.96178189  1
  F  F215  1  0.21880247  0.39425180  0.03821811  1
  F  F216  1  0.03821811  0.10574820  0.28119753  1
  F  F217  1  0.96178189  0.89425180  0.28119753  1
  F  F218  1  0.96178189  0.10574820  0.71880247  1
  F  F219  1  0.03821811  0.89425180  0.71880247  1
  F  F220  1  0.78119753  0.53821811  0.10574820  1
  F  F221  1  0.78119753  0.46178189  0.89425180  1
  F  F222  1  0.21880247  0.46178189  0.10574820  1
  F  F223  1  0.21880247  0.53821811  0.89425180  1
  F  F224  1  0.60574820  0.28119753  0.53821811  1
  F  F225  1  0.39425180  0.28119753  0.46178189  1
  F  F226  1  0.60574820  0.71880247  0.46178189  1
  F  F227  1  0.39425180  0.71880247  0.53821811  1
  F  F228  1  0.60574820  0.53821811  0.28119753  1
  F  F229  1  0.39425180  0.46178189  0.28119753  1
  F  F230  1  0.60574820  0.46178189  0.71880247  1
  F  F231  1  0.39425180  0.53821811  0.71880247  1
  F  F232  1  0.03821811  0.28119753  0.10574820  1
  F  F233  1  0.96178189  0.28119753  0.89425180  1
  F  F234  1  0.96178189  0.71880247  0.10574820  1
  F  F235  1  0.03821811  0.71880247  0.89425180  1
  F  F236  1  0.78119753  0.10574820  0.53821811  1
  F  F237  1  0.78119753  0.89425180  0.46178189  1
  F  F238  1  0.21880247  0.10574820  0.46178189  1
  F  F239  1  0.21880247  0.89425180  0.53821811  1
  F  F240  1  0.53821811  0.60574820  0.28119753  1
  F  F241  1  0.46178189  0.39425180  0.28119753  1
  F  F242  1  0.46178189  0.60574820  0.71880247  1
  F  F243  1  0.53821811  0.39425180  0.71880247  1
  F  F244  1  0.28119753  0.03821811  0.10574820  1
  F  F245  1  0.28119753  0.96178189  0.89425180  1
  F  F246  1  0.71880247  0.96178189  0.10574820  1
  F  F247  1  0.71880247  0.03821811  0.89425180  1
  F  F248  1  0.10574820  0.78119753  0.53821811  1
  F  F249  1  0.89425180  0.78119753  0.46178189  1
  F  F250  1  0.10574820  0.21880247  0.46178189  1
  F  F251  1  0.89425180  0.21880247  0.53821811  1
  F  F252  1  0.10574820  0.03821811  0.28119753  1
  F  F253  1  0.89425180  0.96178189  0.28119753  1
  F  F254  1  0.10574820  0.96178189  0.71880247  1
  F  F255  1  0.89425180  0.03821811  0.71880247  1
  F  F256  1  0.53821811  0.78119753  0.10574820  1
  F  F257  1  0.46178189  0.78119753  0.89425180  1
  F  F258  1  0.46178189  0.21880247  0.10574820  1
  F  F259  1  0.53821811  0.21880247  0.89425180  1
  F  F260  1  0.28119753  0.60574820  0.53821811  1
  F  F261  1  0.28119753  0.39425180  0.46178189  1
  F  F262  1  0.71880247  0.60574820  0.46178189  1
  F  F263  1  0.71880247  0.39425180  0.53821811  1
  F  F264  1  0.53821811  0.10574820  0.78119753  1
  F  F265  1  0.46178189  0.89425180  0.78119753  1
  F  F266  1  0.46178189  0.10574820  0.21880247  1
  F  F267  1  0.53821811  0.89425180  0.21880247  1
  F  F268  1  0.28119753  0.53821811  0.60574820  1
  F  F269  1  0.28119753  0.46178189  0.39425180  1
  F  F270  1  0.71880247  0.46178189  0.60574820  1
  F  F271  1  0.71880247  0.53821811  0.39425180  1
  F  F272  1  0.10574820  0.28119753  0.03821811  1
  F  F273  1  0.89425180  0.28119753  0.96178189  1
  F  F274  1  0.10574820  0.71880247  0.96178189  1
  F  F275  1  0.89425180  0.71880247  0.03821811  1
  F  F276  1  0.10574820  0.53821811  0.78119753  1
  F  F277  1  0.89425180  0.46178189  0.78119753  1
  F  F278  1  0.10574820  0.46178189  0.21880247  1
  F  F279  1  0.89425180  0.53821811  0.21880247  1
  F  F280  1  0.53821811  0.28119753  0.60574820  1
  F  F281  1  0.46178189  0.28119753  0.39425180  1
  F  F282  1  0.46178189  0.71880247  0.60574820  1
  F  F283  1  0.53821811  0.71880247  0.39425180  1
  F  F284  1  0.28119753  0.10574820  0.03821811  1
  F  F285  1  0.28119753  0.89425180  0.96178189  1
  F  F286  1  0.71880247  0.10574820  0.96178189  1
  F  F287  1  0.71880247  0.89425180  0.03821811  1
  Li  Li288  1  0.04266513  0.04266513  0.04266513  1
  Li  Li289  1  0.95733487  0.95733487  0.04266513  1
  Li  Li290  1  0.95733487  0.04266513  0.95733487  1
  Li  Li291  1  0.04266513  0.95733487  0.95733487  1
  Li  Li292  1  0.04266513  0.54266513  0.54266513  1
  Li  Li293  1  0.95733487  0.45733487  0.54266513  1
  Li  Li294  1  0.95733487  0.54266513  0.45733487  1
  Li  Li295  1  0.04266513  0.45733487  0.45733487  1
  Li  Li296  1  0.54266513  0.04266513  0.54266513  1
  Li  Li297  1  0.45733487  0.95733487  0.54266513  1
  Li  Li298  1  0.45733487  0.04266513  0.45733487  1
  Li  Li299  1  0.54266513  0.95733487  0.45733487  1
  Li  Li300  1  0.54266513  0.54266513  0.04266513  1
  Li  Li301  1  0.45733487  0.45733487  0.04266513  1
  Li  Li302  1  0.45733487  0.54266513  0.95733487  1
  Li  Li303  1  0.54266513  0.45733487  0.95733487  1
  Se  Se304  1  0.11567400  -0.00000000  -0.00000000  1
  Se  Se305  1  0.88432600  0.00000000  0.00000000  1
  Se  Se306  1  0.00000000  0.11567400  -0.00000000  1
  Se  Se307  1  0.00000000  0.88432600  0.00000000  1
  Se  Se308  1  0.00000000  0.00000000  0.11567400  1
  Se  Se309  1  0.00000000  0.00000000  0.88432600  1
  Se  Se310  1  0.11567400  0.50000000  0.50000000  1
  Se  Se311  1  0.88432600  0.50000000  0.50000000  1
  Se  Se312  1  0.00000000  0.61567400  0.50000000  1
  Se  Se313  1  0.00000000  0.38432600  0.50000000  1
  Se  Se314  1  0.00000000  0.50000000  0.61567400  1
  Se  Se315  1  0.00000000  0.50000000  0.38432600  1
  Se  Se316  1  0.61567400  -0.00000000  0.50000000  1
  Se  Se317  1  0.38432600  0.00000000  0.50000000  1
  Se  Se318  1  0.50000000  0.11567400  0.50000000  1
  Se  Se319  1  0.50000000  0.88432600  0.50000000  1
  Se  Se320  1  0.50000000  0.00000000  0.61567400  1
  Se  Se321  1  0.50000000  0.00000000  0.38432600  1
  Se  Se322  1  0.61567400  0.50000000  -0.00000000  1
  Se  Se323  1  0.38432600  0.50000000  0.00000000  1
  Se  Se324  1  0.50000000  0.61567400  -0.00000000  1
  Se  Se325  1  0.50000000  0.38432600  0.00000000  1
  Se  Se326  1  0.50000000  0.50000000  0.11567400  1
  Se  Se327  1  0.50000000  0.50000000  0.88432600  1
  Sn  Sn328  1  0.62999672  -0.00000000  -0.00000000  1
  Sn  Sn329  1  0.37000328  0.00000000  0.00000000  1
  Sn  Sn330  1  0.00000000  0.62999672  -0.00000000  1
  Sn  Sn331  1  0.00000000  0.37000328  0.00000000  1
  Sn  Sn332  1  0.00000000  0.00000000  0.62999672  1
  Sn  Sn333  1  0.00000000  0.00000000  0.37000328  1
  Sn  Sn334  1  0.62999672  0.50000000  0.50000000  1
  Sn  Sn335  1  0.37000328  0.50000000  0.50000000  1
  Sn  Sn336  1  0.00000000  0.12999672  0.50000000  1
  Sn  Sn337  1  0.00000000  0.87000328  0.50000000  1
  Sn  Sn338  1  0.00000000  0.50000000  0.12999672  1
  Sn  Sn339  1  0.00000000  0.50000000  0.87000328  1
  Sn  Sn340  1  0.12999672  0.00000000  0.50000000  1
  Sn  Sn341  1  0.87000328  0.00000000  0.50000000  1
  Sn  Sn342  1  0.50000000  0.62999672  0.50000000  1
  Sn  Sn343  1  0.50000000  0.37000328  0.50000000  1
  Sn  Sn344  1  0.50000000  0.00000000  0.12999672  1
  Sn  Sn345  1  0.50000000  0.00000000  0.87000328  1
  Sn  Sn346  1  0.12999672  0.50000000  0.00000000  1
  Sn  Sn347  1  0.87000328  0.50000000  0.00000000  1
  Sn  Sn348  1  0.50000000  0.12999672  0.00000000  1
  Sn  Sn349  1  0.50000000  0.87000328  0.00000000  1
  Sn  Sn350  1  0.50000000  0.50000000  0.62999672  1
  Sn  Sn351  1  0.50000000  0.50000000  0.37000328  1
  Sn  Sn352  1  0.00000000  0.00000000  0.00000000  1
  Sn  Sn353  1  0.00000000  0.50000000  0.50000000  1
  Sn  Sn354  1  0.50000000  0.00000000  0.50000000  1
  Sn  Sn355  1  0.50000000  0.50000000  0.00000000  1
  Sn  Sn356  1  0.37739690  0.37739690  0.56895807  1
  Sn  Sn357  1  0.62260310  0.62260310  0.56895807  1
  Sn  Sn358  1  0.62260310  0.37739690  0.43104193  1
  Sn  Sn359  1  0.37739690  0.62260310  0.43104193  1
  Sn  Sn360  1  0.56895807  0.37739690  0.37739690  1
  Sn  Sn361  1  0.56895807  0.62260310  0.62260310  1
  Sn  Sn362  1  0.43104193  0.62260310  0.37739690  1
  Sn  Sn363  1  0.43104193  0.37739690  0.62260310  1
  Sn  Sn364  1  0.37739690  0.56895807  0.37739690  1
  Sn  Sn365  1  0.62260310  0.56895807  0.62260310  1
  Sn  Sn366  1  0.37739690  0.43104193  0.62260310  1
  Sn  Sn367  1  0.62260310  0.43104193  0.37739690  1
  Sn  Sn368  1  0.37739690  0.87739690  0.06895807  1
  Sn  Sn369  1  0.62260310  0.12260310  0.06895807  1
  Sn  Sn370  1  0.62260310  0.87739690  0.93104193  1
  Sn  Sn371  1  0.37739690  0.12260310  0.93104193  1
  Sn  Sn372  1  0.56895807  0.87739690  0.87739690  1
  Sn  Sn373  1  0.56895807  0.12260310  0.12260310  1
  Sn  Sn374  1  0.43104193  0.12260310  0.87739690  1
  Sn  Sn375  1  0.43104193  0.87739690  0.12260310  1
  Sn  Sn376  1  0.37739690  0.06895807  0.87739690  1
  Sn  Sn377  1  0.62260310  0.06895807  0.12260310  1
  Sn  Sn378  1  0.37739690  0.93104193  0.12260310  1
  Sn  Sn379  1  0.62260310  0.93104193  0.87739690  1
  Sn  Sn380  1  0.87739690  0.37739690  0.06895807  1
  Sn  Sn381  1  0.12260310  0.62260310  0.06895807  1
  Sn  Sn382  1  0.12260310  0.37739690  0.93104193  1
  Sn  Sn383  1  0.87739690  0.62260310  0.93104193  1
  Sn  Sn384  1  0.06895807  0.37739690  0.87739690  1
  Sn  Sn385  1  0.06895807  0.62260310  0.12260310  1
  Sn  Sn386  1  0.93104193  0.62260310  0.87739690  1
  Sn  Sn387  1  0.93104193  0.37739690  0.12260310  1
  Sn  Sn388  1  0.87739690  0.56895807  0.87739690  1
  Sn  Sn389  1  0.12260310  0.56895807  0.12260310  1
  Sn  Sn390  1  0.87739690  0.43104193  0.12260310  1
  Sn  Sn391  1  0.12260310  0.43104193  0.87739690  1
  Sn  Sn392  1  0.87739690  0.87739690  0.56895807  1
  Sn  Sn393  1  0.12260310  0.12260310  0.56895807  1
  Sn  Sn394  1  0.12260310  0.87739690  0.43104193  1
  Sn  Sn395  1  0.87739690  0.12260310  0.43104193  1
  Sn  Sn396  1  0.06895807  0.87739690  0.37739690  1
  Sn  Sn397  1  0.06895807  0.12260310  0.62260310  1
  Sn  Sn398  1  0.93104193  0.12260310  0.37739690  1
  Sn  Sn399  1  0.93104193  0.87739690  0.62260310  1
  Sn  Sn400  1  0.87739690  0.06895807  0.37739690  1
  Sn  Sn401  1  0.12260310  0.06895807  0.62260310  1
  Sn  Sn402  1  0.87739690  0.93104193  0.62260310  1
  Sn  Sn403  1  0.12260310  0.93104193  0.37739690  1
  Sn  Sn404  1  0.35209914  0.35209914  0.35209914  1
  Sn  Sn405  1  0.64790086  0.64790086  0.35209914  1
  Sn  Sn406  1  0.64790086  0.35209914  0.64790086  1
  Sn  Sn407  1  0.35209914  0.64790086  0.64790086  1
  Sn  Sn408  1  0.35209914  0.85209914  0.85209914  1
  Sn  Sn409  1  0.64790086  0.14790086  0.85209914  1
  Sn  Sn410  1  0.64790086  0.85209914  0.14790086  1
  Sn  Sn411  1  0.35209914  0.14790086  0.14790086  1
  Sn  Sn412  1  0.85209914  0.35209914  0.85209914  1
  Sn  Sn413  1  0.14790086  0.64790086  0.85209914  1
  Sn  Sn414  1  0.14790086  0.35209914  0.14790086  1
  Sn  Sn415  1  0.85209914  0.64790086  0.14790086  1
  Sn  Sn416  1  0.85209914  0.85209914  0.35209914  1
  Sn  Sn417  1  0.14790086  0.14790086  0.35209914  1
  Sn  Sn418  1  0.14790086  0.85209914  0.64790086  1
  Sn  Sn419  1  0.85209914  0.14790086  0.64790086  1
  Sn  Sn420  1  0.75000000  0.75000000  0.75000000  1
  Sn  Sn421  1  0.75000000  0.25000000  0.25000000  1
  Sn  Sn422  1  0.25000000  0.75000000  0.25000000  1
  Sn  Sn423  1  0.25000000  0.25000000  0.75000000  1
  Te  Te424  1  0.34610536  0.25000000  0.25000000  1
  Te  Te425  1  0.65389464  0.75000000  0.25000000  1
  Te  Te426  1  0.25000000  0.34610536  0.25000000  1
  Te  Te427  1  0.25000000  0.65389464  0.75000000  1
  Te  Te428  1  0.25000000  0.25000000  0.34610536  1
  Te  Te429  1  0.75000000  0.25000000  0.65389464  1
  Te  Te430  1  0.34610536  0.75000000  0.75000000  1
  Te  Te431  1  0.65389464  0.25000000  0.75000000  1
  Te  Te432  1  0.25000000  0.84610536  0.75000000  1
  Te  Te433  1  0.25000000  0.15389464  0.25000000  1
  Te  Te434  1  0.25000000  0.75000000  0.84610536  1
  Te  Te435  1  0.75000000  0.75000000  0.15389464  1
  Te  Te436  1  0.84610536  0.25000000  0.75000000  1
  Te  Te437  1  0.15389464  0.75000000  0.75000000  1
  Te  Te438  1  0.75000000  0.34610536  0.75000000  1
  Te  Te439  1  0.75000000  0.65389464  0.25000000  1
  Te  Te440  1  0.75000000  0.25000000  0.84610536  1
  Te  Te441  1  0.25000000  0.25000000  0.15389464  1
  Te  Te442  1  0.84610536  0.75000000  0.25000000  1
  Te  Te443  1  0.15389464  0.25000000  0.25000000  1
  Te  Te444  1  0.75000000  0.84610536  0.25000000  1
  Te  Te445  1  0.75000000  0.15389464  0.75000000  1
  Te  Te446  1  0.75000000  0.75000000  0.34610536  1
  Te  Te447  1  0.25000000  0.75000000  0.65389464  1
  Te  Te448  1  0.50000000  0.50000000  0.50000000  1
  Te  Te449  1  0.50000000  0.00000000  0.00000000  1
  Te  Te450  1  0.00000000  0.50000000  0.00000000  1
  Te  Te451  1  0.00000000  0.00000000  0.50000000  1
  Te  Te452  1  0.25000000  0.25000000  0.25000000  1
  Te  Te453  1  0.25000000  0.75000000  0.75000000  1
  Te  Te454  1  0.75000000  0.25000000  0.75000000  1
  Te  Te455  1  0.75000000  0.75000000  0.25000000  1
