# generated using pymatgen
data_LiF
_symmetry_space_group_name_H-M   'P 1'
_cell_length_a   15.56044257
_cell_length_b   15.56044257
_cell_length_c   4.62180709
_cell_angle_alpha   90.00000000
_cell_angle_beta   90.00000000
_cell_angle_gamma   90.00000000
_symmetry_Int_Tables_number   1
_chemical_formula_structural   LiF
_chemical_formula_sum   'Li36 F36'
_cell_volume   1119.06600845
_cell_formula_units_Z   36
loop_
 _symmetry_equiv_pos_site_id
 _symmetry_equiv_pos_as_xyz
  1  'x, y, z'
loop_
 _atom_site_type_symbol
 _atom_site_label
 _atom_site_symmetry_multiplicity
 _atom_site_fract_x
 _atom_site_fract_y
 _atom_site_fract_z
 _atom_site_occupancy
  F  F0  1  0.06595388  0.41691020  0.75183988  1
  F  F1  1  -0.06595388  -0.41691020  0.75183988  1
  F  F2  1  -0.41691020  0.06595388  0.75183988  1
  F  F3  1  0.41691020  -0.06595388  0.75183988  1
  F  F4  1  -0.06595388  0.41691020  -0.75183988  1
  F  F5  1  0.06595388  -0.41691020  -0.75183988  1
  F  F6  1  0.41691020  0.06595388  -0.75183988  1
  F  F7  1  -0.41691020  -0.06595388  -0.75183988  1
  F  F8  1  -0.06595388  -0.41691020  -0.75183988  1
  F  F9  1  0.06595388  0.41691020  -0.75183988  1
  F  F10  1  0.41691020  -0.06595388  -0.75183988  1
  F  F11  1  -0.41691020  0.06595388  -0.75183988  1
  F  F12  1  0.06595388  -0.41691020  0.75183988  1
  F  F13  1  -0.06595388  0.41691020  0.75183988  1
  F  F14  1  -0.41691020  -0.06595388  0.75183988  1
  F  F15  1  0.41691020  0.06595388  0.75183988  1
  F  F16  1  0.88658919  0.98094092  0.15138972  1
  F  F17  1  0.11341081  0.01905908  0.15138972  1
  F  F18  1  0.01905908  0.88658919  0.15138972  1
  F  F19  1  0.98094092  0.11341081  0.15138972  1
  F  F20  1  0.11341081  0.98094092  0.84861028  1
  F  F21  1  0.88658919  0.01905908  0.84861028  1
  F  F22  1  0.98094092  0.88658919  0.84861028  1
  F  F23  1  0.01905908  0.11341081  0.84861028  1
  F  F24  1  0.11341081  0.01905908  0.84861028  1
  F  F25  1  0.88658919  0.98094092  0.84861028  1
  F  F26  1  0.98094092  0.11341081  0.84861028  1
  F  F27  1  0.01905908  0.88658919  0.84861028  1
  F  F28  1  0.88658919  0.01905908  0.15138972  1
  F  F29  1  0.11341081  0.98094092  0.15138972  1
  F  F30  1  0.01905908  0.11341081  0.15138972  1
  F  F31  1  0.98094092  0.88658919  0.15138972  1
  F  F32  1  0.58820572  0.00000000  0.50000000  1
  F  F33  1  0.41179428  0.00000000  0.50000000  1
  F  F34  1  0.00000000  0.58820572  0.50000000  1
  F  F35  1  0.00000000  0.41179428  0.50000000  1
  Li  Li36  1  0.19812138  0.33734026  0.32066988  1
  Li  Li37  1  0.80187862  0.66265974  0.32066988  1
  Li  Li38  1  0.66265974  0.19812138  0.32066988  1
  Li  Li39  1  0.33734026  0.80187862  0.32066988  1
  Li  Li40  1  0.80187862  0.33734026  0.67933012  1
  Li  Li41  1  0.19812138  0.66265974  0.67933012  1
  Li  Li42  1  0.33734026  0.19812138  0.67933012  1
  Li  Li43  1  0.66265974  0.80187862  0.67933012  1
  Li  Li44  1  0.80187862  0.66265974  0.67933012  1
  Li  Li45  1  0.19812138  0.33734026  0.67933012  1
  Li  Li46  1  0.33734026  0.80187862  0.67933012  1
  Li  Li47  1  0.66265974  0.19812138  0.67933012  1
  Li  Li48  1  0.19812138  0.66265974  0.32066988  1
  Li  Li49  1  0.80187862  0.33734026  0.32066988  1
  Li  Li50  1  0.66265974  0.80187862  0.32066988  1
  Li  Li51  1  0.33734026  0.19812138  0.32066988  1
  Li  Li52  1  0.59152088  0.71548684  0.50000000  1
  Li  Li53  1  0.40847912  0.28451316  0.50000000  1
  Li  Li54  1  0.28451316  0.59152088  0.50000000  1
  Li  Li55  1  0.71548684  0.40847912  0.50000000  1
  Li  Li56  1  0.40847912  0.71548684  0.50000000  1
  Li  Li57  1  0.59152088  0.28451316  0.50000000  1
  Li  Li58  1  0.71548684  0.59152088  0.50000000  1
  Li  Li59  1  0.28451316  0.40847912  0.50000000  1
  Li  Li60  1  0.00000000  0.50000000  0.50000000  1
  Li  Li61  1  0.50000000  0.00000000  0.50000000  1
  Li  Li62  1  0.71088957  0.00000000  0.84273995  1
  Li  Li63  1  0.28911043  0.00000000  0.84273995  1
  Li  Li64  1  0.00000000  0.71088957  0.84273995  1
  Li  Li65  1  0.00000000  0.28911043  0.84273995  1
  Li  Li66  1  0.28911043  0.00000000  0.15726005  1
  Li  Li67  1  0.71088957  0.00000000  0.15726005  1
  Li  Li68  1  0.00000000  0.71088957  0.15726005  1
  Li  Li69  1  0.00000000  0.28911043  0.15726005  1
  Li  Li70  1  0.00000000  0.00000000  0.16779957  1
  Li  Li71  1  0.00000000  0.00000000  0.83220043  1
