# generated using pymatgen
data_LiF
_symmetry_space_group_name_H-M   'P 1'
_cell_length_a   7.00486229
_cell_length_b   7.00486229
_cell_length_c   12.35547608
_cell_angle_alpha   90.00000000
_cell_angle_beta   90.00000000
_cell_angle_gamma   120.00000000
_symmetry_Int_Tables_number   1
_chemical_formula_structural   LiF
_chemical_formula_sum   'Li13 F13'
_cell_volume   525.03628611
_cell_formula_units_Z   13
loop_
 _symmetry_equiv_pos_site_id
 _symmetry_equiv_pos_as_xyz
  1  'x, y, z'
loop_
 _atom_site_type_symbol
 _atom_site_label
 _atom_site_symmetry_multiplicity
 _atom_site_fract_x
 _atom_site_fract_y
 _atom_site_fract_z
 _atom_site_occupancy
  F  F0  1  0.40001919  0.00508562  0.35615515  1
  F  F1  1  0.99491438  0.39493357  0.35615515  1
  F  F2  1  0.60506643  0.59998081  0.35615515  1
  F  F3  1  0.99491438  0.59998081  0.64384485  1
  F  F4  1  0.60506643  0.00508562  0.64384485  1
  F  F5  1  0.40001919  0.39493357  0.64384485  1
  F  F6  1  0.66666667  0.33333333  0.77563840  1
  F  F7  1  0.66666667  0.33333333  0.22436160  1
  F  F8  1  0.27541212  0.72458788  0.00000000  1
  F  F9  1  0.27541212  0.55082423  0.00000000  1
  F  F10  1  0.44917577  0.72458788  0.00000000  1
  F  F11  1  0.00000000  0.00000000  0.00000000  1
  F  F12  1  0.66666667  0.33333333  -0.00000000  1
  Li  Li13  1  0.07729722  0.91578086  0.16328802  1
  Li  Li14  1  -0.91578086  -0.83848365  0.16328802  1
  Li  Li15  1  0.83848365  -0.07729722  0.16328802  1
  Li  Li16  1  -0.91578086  -0.07729722  -0.16328802  1
  Li  Li17  1  0.83848365  0.91578086  -0.16328802  1
  Li  Li18  1  0.07729722  -0.83848365  -0.16328802  1
  Li  Li19  1  0.77381442  0.22618558  0.00000000  1
  Li  Li20  1  0.77381442  0.54762884  0.00000000  1
  Li  Li21  1  0.45237116  0.22618558  0.00000000  1
  Li  Li22  1  0.66666667  0.33333333  0.90757722  1
  Li  Li23  1  0.66666667  0.33333333  0.09242278  1
  Li  Li24  1  0.33333333  0.66666667  0.65173680  1
  Li  Li25  1  0.33333333  0.66666667  0.34826320  1
