# generated using pymatgen
data_LiF
_symmetry_space_group_name_H-M   'P 1'
_cell_length_a   9.58624258
_cell_length_b   13.79111493
_cell_length_c   6.04800862
_cell_angle_alpha   90.00000000
_cell_angle_beta   90.00000000
_cell_angle_gamma   90.00000000
_symmetry_Int_Tables_number   1
_chemical_formula_structural   LiF
_chemical_formula_sum   'Li24 F24'
_cell_volume   799.57681743
_cell_formula_units_Z   24
loop_
 _symmetry_equiv_pos_site_id
 _symmetry_equiv_pos_as_xyz
  1  'x, y, z'
loop_
 _atom_site_type_symbol
 _atom_site_label
 _atom_site_symmetry_multiplicity
 _atom_site_fract_x
 _atom_site_fract_y
 _atom_site_fract_z
 _atom_site_occupancy
  F  F0  1  0.32727554  0.55947377  0.29141013  1
  F  F1  1  0.17272446  0.44052623  0.79141013  1
  F  F2  1  0.67272446  0.05947377  0.70858987  1
  F  F3  1  0.82727554  0.94052623  0.20858987  1
  F  F4  1  0.67272446  0.44052623  0.70858987  1
  F  F5  1  0.82727554  0.55947377  0.20858987  1
  F  F6  1  0.32727554  0.94052623  0.29141013  1
  F  F7  1  0.17272446  0.05947377  0.79141013  1
  F  F8  1  0.27931535  0.44628084  0.24170090  1
  F  F9  1  0.22068465  0.55371916  0.74170090  1
  F  F10  1  0.72068465  0.94628084  0.75829910  1
  F  F11  1  0.77931535  0.05371916  0.25829910  1
  F  F12  1  0.72068465  0.55371916  0.75829910  1
  F  F13  1  0.77931535  0.44628084  0.25829910  1
  F  F14  1  0.27931535  0.05371916  0.24170090  1
  F  F15  1  0.22068465  0.94628084  0.74170090  1
  F  F16  1  0.00000000  0.00000000  0.50000000  1
  F  F17  1  0.50000000  0.00000000  0.00000000  1
  F  F18  1  0.00000000  0.50000000  0.50000000  1
  F  F19  1  0.50000000  0.50000000  0.00000000  1
  F  F20  1  0.00000000  0.00000000  0.00000000  1
  F  F21  1  0.50000000  0.00000000  0.50000000  1
  F  F22  1  0.00000000  0.50000000  0.00000000  1
  F  F23  1  0.50000000  0.50000000  0.50000000  1
  Li  Li24  1  0.29500308  0.45829681  0.05110622  1
  Li  Li25  1  0.20499692  -0.45829681  0.55110622  1
  Li  Li26  1  -0.29500308  0.95829681  -0.05110622  1
  Li  Li27  1  0.79500308  0.04170319  0.44889378  1
  Li  Li28  1  -0.29500308  -0.45829681  -0.05110622  1
  Li  Li29  1  0.79500308  0.45829681  0.44889378  1
  Li  Li30  1  0.29500308  0.04170319  0.05110622  1
  Li  Li31  1  0.20499692  0.95829681  0.55110622  1
  Li  Li32  1  0.95120185  0.25000000  0.92912060  1
  Li  Li33  1  0.54879815  0.75000000  0.42912060  1
  Li  Li34  1  0.04879815  0.75000000  0.07087940  1
  Li  Li35  1  0.45120185  0.25000000  0.57087940  1
  Li  Li36  1  0.33084891  0.13934096  0.12478583  1
  Li  Li37  1  0.16915109  0.86065904  0.62478583  1
  Li  Li38  1  0.66915109  0.63934096  0.87521417  1
  Li  Li39  1  0.83084891  0.36065904  0.37521417  1
  Li  Li40  1  0.66915109  0.86065904  0.87521417  1
  Li  Li41  1  0.83084891  0.13934096  0.37521417  1
  Li  Li42  1  0.33084891  0.36065904  0.12478583  1
  Li  Li43  1  0.16915109  0.63934096  0.62478583  1
  Li  Li44  1  0.36651264  0.25000000  0.37981754  1
  Li  Li45  1  0.13348736  0.75000000  0.87981754  1
  Li  Li46  1  0.63348736  0.75000000  0.62018246  1
  Li  Li47  1  0.86651264  0.25000000  0.12018246  1
