# generated using pymatgen
data_LiF
_symmetry_space_group_name_H-M   'P 1'
_cell_length_a   9.13506191
_cell_length_b   18.16407668
_cell_length_c   14.05357976
_cell_angle_alpha   90.00000000
_cell_angle_beta   90.00000000
_cell_angle_gamma   90.00000000
_symmetry_Int_Tables_number   1
_chemical_formula_structural   LiF
_chemical_formula_sum   'Li82 F82'
_cell_volume   2331.90999871
_cell_formula_units_Z   82
loop_
 _symmetry_equiv_pos_site_id
 _symmetry_equiv_pos_as_xyz
  1  'x, y, z'
loop_
 _atom_site_type_symbol
 _atom_site_label
 _atom_site_symmetry_multiplicity
 _atom_site_fract_x
 _atom_site_fract_y
 _atom_site_fract_z
 _atom_site_occupancy
  F  F0  1  0.74357879  0.13382665  0.89888211  1
  F  F1  1  0.25642121  0.86617335  0.89888211  1
  F  F2  1  0.75642121  0.63382665  0.10111789  1
  F  F3  1  0.24357879  0.36617335  0.10111789  1
  F  F4  1  0.25642121  0.86617335  0.10111789  1
  F  F5  1  0.74357879  0.13382665  0.10111789  1
  F  F6  1  0.24357879  0.36617335  0.89888211  1
  F  F7  1  0.75642121  0.63382665  0.89888211  1
  F  F8  1  0.67903246  0.66734863  0.50000000  1
  F  F9  1  0.32096754  0.33265137  0.50000000  1
  F  F10  1  0.82096754  0.16734863  0.50000000  1
  F  F11  1  0.17903246  0.83265137  0.50000000  1
  F  F12  1  0.00000000  0.50000000  0.00000000  1
  F  F13  1  0.50000000  0.00000000  0.00000000  1
  F  F14  1  0.94794784  0.20256090  0.02044817  1
  F  F15  1  0.05205216  0.79743910  0.02044817  1
  F  F16  1  0.55205216  0.70256090  0.97955183  1
  F  F17  1  0.44794784  0.29743910  0.97955183  1
  F  F18  1  0.05205216  0.79743910  0.97955183  1
  F  F19  1  0.94794784  0.20256090  0.97955183  1
  F  F20  1  0.44794784  0.29743910  0.02044817  1
  F  F21  1  0.55205216  0.70256090  0.02044817  1
  F  F22  1  0.07616330  0.36862026  0.33090946  1
  F  F23  1  0.92383670  0.63137974  0.33090946  1
  F  F24  1  0.42383670  0.86862026  0.66909054  1
  F  F25  1  0.57616330  0.13137974  0.66909054  1
  F  F26  1  0.92383670  0.63137974  0.66909054  1
  F  F27  1  0.07616330  0.36862026  0.66909054  1
  F  F28  1  0.57616330  0.13137974  0.33090946  1
  F  F29  1  0.42383670  0.86862026  0.33090946  1
  F  F30  1  0.14494140  0.94463248  0.00000000  1
  F  F31  1  0.85505860  0.05536752  0.00000000  1
  F  F32  1  0.35505860  0.44463248  0.00000000  1
  F  F33  1  0.64494140  0.55536752  0.00000000  1
  F  F34  1  0.59459891  0.77317088  0.90177435  1
  F  F35  1  0.40540109  0.22682912  0.90177435  1
  F  F36  1  0.90540109  0.27317088  0.09822565  1
  F  F37  1  0.09459891  0.72682912  0.09822565  1
  F  F38  1  0.40540109  0.22682912  0.09822565  1
  F  F39  1  0.59459891  0.77317088  0.09822565  1
  F  F40  1  0.09459891  0.72682912  0.90177435  1
  F  F41  1  0.90540109  0.27317088  0.90177435  1
  F  F42  1  0.84725033  0.95711429  0.06197779  1
  F  F43  1  0.15274967  0.04288571  0.06197779  1
  F  F44  1  0.65274967  0.45711429  0.93802221  1
  F  F45  1  0.34725033  0.54288571  0.93802221  1
  F  F46  1  0.15274967  0.04288571  0.93802221  1
  F  F47  1  0.84725033  0.95711429  0.93802221  1
  F  F48  1  0.34725033  0.54288571  0.06197779  1
  F  F49  1  0.65274967  0.45711429  0.06197779  1
  F  F50  1  0.74964794  0.81823533  0.52712584  1
  F  F51  1  0.25035206  0.18176467  0.52712584  1
  F  F52  1  0.75035206  0.31823533  0.47287416  1
  F  F53  1  0.24964794  0.68176467  0.47287416  1
  F  F54  1  0.25035206  0.18176467  0.47287416  1
  F  F55  1  0.74964794  0.81823533  0.47287416  1
  F  F56  1  0.24964794  0.68176467  0.52712584  1
  F  F57  1  0.75035206  0.31823533  0.52712584  1
  F  F58  1  0.55382245  0.02072952  0.85554513  1
  F  F59  1  0.44617755  0.97927048  0.85554513  1
  F  F60  1  0.94617755  0.52072952  0.14445487  1
  F  F61  1  0.05382245  0.47927048  0.14445487  1
  F  F62  1  0.44617755  0.97927048  0.14445487  1
  F  F63  1  0.55382245  0.02072952  0.14445487  1
  F  F64  1  0.05382245  0.47927048  0.85554513  1
  F  F65  1  0.94617755  0.52072952  0.85554513  1
  F  F66  1  0.89534044  0.65412787  -0.00000000  1
  F  F67  1  0.10465956  0.34587213  0.00000000  1
  F  F68  1  0.60465956  0.15412787  0.00000000  1
  F  F69  1  0.39534044  0.84587213  -0.00000000  1
  F  F70  1  0.50818341  0.08469486  0.86574096  1
  F  F71  1  0.49181659  0.91530514  0.86574096  1
  F  F72  1  0.99181659  0.58469486  0.13425904  1
  F  F73  1  0.00818341  0.41530514  0.13425904  1
  F  F74  1  0.49181659  0.91530514  0.13425904  1
  F  F75  1  0.50818341  0.08469486  0.13425904  1
  F  F76  1  0.00818341  0.41530514  0.86574096  1
  F  F77  1  0.99181659  0.58469486  0.86574096  1
  F  F78  1  0.00000000  0.50000000  0.41485281  1
  F  F79  1  0.50000000  0.00000000  0.58514719  1
  F  F80  1  0.00000000  0.50000000  0.58514719  1
  F  F81  1  0.50000000  0.00000000  0.41485281  1
  Li  Li82  1  0.28774851  0.80807077  0.70004346  1
  Li  Li83  1  -0.28774851  -0.80807077  0.70004346  1
  Li  Li84  1  0.21225149  1.30807077  -0.70004346  1
  Li  Li85  1  0.78774851  -0.30807077  -0.70004346  1
  Li  Li86  1  -0.28774851  -0.80807077  -0.70004346  1
  Li  Li87  1  0.28774851  0.80807077  -0.70004346  1
  Li  Li88  1  0.78774851  -0.30807077  0.70004346  1
  Li  Li89  1  0.21225149  1.30807077  0.70004346  1
  Li  Li90  1  0.28442413  0.66951621  0.18894084  1
  Li  Li91  1  0.71557587  0.33048379  0.18894084  1
  Li  Li92  1  0.21557587  0.16951621  0.81105916  1
  Li  Li93  1  0.78442413  0.83048379  0.81105916  1
  Li  Li94  1  0.71557587  0.33048379  0.81105916  1
  Li  Li95  1  0.28442413  0.66951621  0.81105916  1
  Li  Li96  1  0.78442413  0.83048379  0.18894084  1
  Li  Li97  1  0.21557587  0.16951621  0.18894084  1
  Li  Li98  1  0.57339839  0.28552261  0.17506177  1
  Li  Li99  1  0.42660161  0.71447739  0.17506177  1
  Li  Li100  1  0.92660161  0.78552261  0.82493823  1
  Li  Li101  1  0.07339839  0.21447739  0.82493823  1
  Li  Li102  1  0.42660161  0.71447739  0.82493823  1
  Li  Li103  1  0.57339839  0.28552261  0.82493823  1
  Li  Li104  1  0.07339839  0.21447739  0.17506177  1
  Li  Li105  1  0.92660161  0.78552261  0.17506177  1
  Li  Li106  1  0.56011142  0.59794970  0.79794635  1
  Li  Li107  1  0.43988858  0.40205030  0.79794635  1
  Li  Li108  1  0.93988858  0.09794970  0.20205365  1
  Li  Li109  1  0.06011142  0.90205030  0.20205365  1
  Li  Li110  1  0.43988858  0.40205030  0.20205365  1
  Li  Li111  1  0.56011142  0.59794970  0.20205365  1
  Li  Li112  1  0.06011142  0.90205030  0.79794635  1
  Li  Li113  1  0.93988858  0.09794970  0.79794635  1
  Li  Li114  1  0.00000000  0.50000000  0.50000000  1
  Li  Li115  1  0.50000000  0.00000000  0.50000000  1
  Li  Li116  1  0.00000000  0.00000000  0.00000000  1
  Li  Li117  1  0.50000000  0.50000000  0.00000000  1
  Li  Li118  1  0.54547153  0.89383363  0.94081043  1
  Li  Li119  1  0.45452847  0.10616637  0.94081043  1
  Li  Li120  1  0.95452847  0.39383363  0.05918957  1
  Li  Li121  1  0.04547153  0.60616637  0.05918957  1
  Li  Li122  1  0.45452847  0.10616637  0.05918957  1
  Li  Li123  1  0.54547153  0.89383363  0.05918957  1
  Li  Li124  1  0.04547153  0.60616637  0.94081043  1
  Li  Li125  1  0.95452847  0.39383363  0.94081043  1
  Li  Li126  1  0.54650087  0.53930020  0.36403449  1
  Li  Li127  1  0.45349913  0.46069980  0.36403449  1
  Li  Li128  1  0.95349913  0.03930020  0.63596551  1
  Li  Li129  1  0.04650087  0.96069980  0.63596551  1
  Li  Li130  1  0.45349913  0.46069980  0.63596551  1
  Li  Li131  1  0.54650087  0.53930020  0.63596551  1
  Li  Li132  1  0.04650087  0.96069980  0.36403449  1
  Li  Li133  1  0.95349913  0.03930020  0.36403449  1
  Li  Li134  1  0.00000000  0.50000000  0.77637924  1
  Li  Li135  1  0.50000000  0.00000000  0.22362076  1
  Li  Li136  1  0.00000000  0.50000000  0.22362076  1
  Li  Li137  1  0.50000000  0.00000000  0.77637924  1
  Li  Li138  1  0.73457734  0.98720750  0.76371123  1
  Li  Li139  1  0.26542266  0.01279250  0.76371123  1
  Li  Li140  1  0.76542266  0.48720750  0.23628877  1
  Li  Li141  1  0.23457734  0.51279250  0.23628877  1
  Li  Li142  1  0.26542266  0.01279250  0.23628877  1
  Li  Li143  1  0.73457734  0.98720750  0.23628877  1
  Li  Li144  1  0.23457734  0.51279250  0.76371123  1
  Li  Li145  1  0.76542266  0.48720750  0.76371123  1
  Li  Li146  1  0.67690198  0.64132421  0.42242386  1
  Li  Li147  1  0.32309802  0.35867579  0.42242386  1
  Li  Li148  1  0.82309802  0.14132421  0.57757614  1
  Li  Li149  1  0.17690198  0.85867579  0.57757614  1
  Li  Li150  1  0.32309802  0.35867579  0.57757614  1
  Li  Li151  1  0.67690198  0.64132421  0.57757614  1
  Li  Li152  1  0.17690198  0.85867579  0.42242386  1
  Li  Li153  1  0.82309802  0.14132421  0.42242386  1
  Li  Li154  1  0.77522572  0.41961532  0.68117992  1
  Li  Li155  1  0.22477428  0.58038468  0.68117992  1
  Li  Li156  1  0.72477428  0.91961532  0.31882008  1
  Li  Li157  1  0.27522572  0.08038468  0.31882008  1
  Li  Li158  1  0.22477428  0.58038468  0.31882008  1
  Li  Li159  1  0.77522572  0.41961532  0.31882008  1
  Li  Li160  1  0.27522572  0.08038468  0.68117992  1
  Li  Li161  1  0.72477428  0.91961532  0.68117992  1
  Li  Li162  1  0.00000000  0.00000000  0.50000000  1
  Li  Li163  1  0.50000000  0.50000000  0.50000000  1
