# generated using pymatgen
data_Li2Si4Te3F12
_symmetry_space_group_name_H-M   'P 1'
_cell_length_a   5.63746133
_cell_length_b   19.85753331
_cell_length_c   11.15115301
_cell_angle_alpha   90.00000000
_cell_angle_beta   90.00000000
_cell_angle_gamma   90.00000000
_symmetry_Int_Tables_number   1
_chemical_formula_structural   Li2Si4Te3F12
_chemical_formula_sum   'Li8 Si16 Te12 F48'
_cell_volume   1248.32782440
_cell_formula_units_Z   4
loop_
 _symmetry_equiv_pos_site_id
 _symmetry_equiv_pos_as_xyz
  1  'x, y, z'
loop_
 _atom_site_type_symbol
 _atom_site_label
 _atom_site_symmetry_multiplicity
 _atom_site_fract_x
 _atom_site_fract_y
 _atom_site_fract_z
 _atom_site_occupancy
  F  F0  1  0.86904585  0.15935503  0.45362064  1
  F  F1  1  -0.86904585  -0.15935503  0.45362064  1
  F  F2  1  -0.36904585  0.65935503  -0.45362064  1
  F  F3  1  1.36904585  0.34064497  -0.45362064  1
  F  F4  1  -0.86904585  -0.15935503  -0.45362064  1
  F  F5  1  0.86904585  0.15935503  -0.45362064  1
  F  F6  1  1.36904585  0.34064497  0.45362064  1
  F  F7  1  -0.36904585  0.65935503  0.45362064  1
  F  F8  1  0.59675206  0.84383019  0.36505924  1
  F  F9  1  0.40324794  0.15616981  0.36505924  1
  F  F10  1  0.90324794  0.34383019  0.63494076  1
  F  F11  1  0.09675206  0.65616981  0.63494076  1
  F  F12  1  0.40324794  0.15616981  0.63494076  1
  F  F13  1  0.59675206  0.84383019  0.63494076  1
  F  F14  1  0.09675206  0.65616981  0.36505924  1
  F  F15  1  0.90324794  0.34383019  0.36505924  1
  F  F16  1  0.61901427  0.60961612  0.54760409  1
  F  F17  1  0.38098573  0.39038388  0.54760409  1
  F  F18  1  0.88098573  0.10961612  0.45239591  1
  F  F19  1  0.11901427  0.89038388  0.45239591  1
  F  F20  1  0.38098573  0.39038388  0.45239591  1
  F  F21  1  0.61901427  0.60961612  0.45239591  1
  F  F22  1  0.11901427  0.89038388  0.54760409  1
  F  F23  1  0.88098573  0.10961612  0.54760409  1
  F  F24  1  0.00000000  0.50000000  0.50000000  1
  F  F25  1  0.50000000  0.00000000  0.50000000  1
  F  F26  1  0.62347715  0.73971346  0.23911359  1
  F  F27  1  0.37652285  0.26028654  0.23911359  1
  F  F28  1  0.87652285  0.23971346  0.76088641  1
  F  F29  1  0.12347715  0.76028654  0.76088641  1
  F  F30  1  0.37652285  0.26028654  0.76088641  1
  F  F31  1  0.62347715  0.73971346  0.76088641  1
  F  F32  1  0.12347715  0.76028654  0.23911359  1
  F  F33  1  0.87652285  0.23971346  0.23911359  1
  F  F34  1  0.98683182  0.79434850  0.50000000  1
  F  F35  1  0.01316818  0.20565150  0.50000000  1
  F  F36  1  0.51316818  0.29434850  0.50000000  1
  F  F37  1  0.48683182  0.70565150  0.50000000  1
  F  F38  1  0.00000000  0.50000000  -0.00000000  1
  F  F39  1  0.50000000  0.00000000  0.00000000  1
  F  F40  1  0.04680765  0.73783200  -0.00000000  1
  F  F41  1  0.95319235  0.26216800  0.00000000  1
  F  F42  1  0.45319235  0.23783200  -0.00000000  1
  F  F43  1  0.54680765  0.76216800  -0.00000000  1
  F  F44  1  0.17838952  0.18713117  0.50000000  1
  F  F45  1  0.82161048  0.81286883  0.50000000  1
  F  F46  1  0.32161048  0.68713117  0.50000000  1
  F  F47  1  0.67838952  0.31286883  0.50000000  1
  Li  Li48  1  0.82173218  0.19040782  -0.00000000  1
  Li  Li49  1  0.17826782  0.80959218  -0.00000000  1
  Li  Li50  1  0.67826782  0.69040782  -0.00000000  1
  Li  Li51  1  0.32173218  0.30959218  -0.00000000  1
  Li  Li52  1  0.27205328  0.95704238  0.50000000  1
  Li  Li53  1  0.72794672  0.04295762  0.50000000  1
  Li  Li54  1  0.22794672  0.45704238  0.50000000  1
  Li  Li55  1  0.77205328  0.54295762  0.50000000  1
  Si  Si56  1  0.53861055  0.34354158  0.50000000  1
  Si  Si57  1  0.46138945  0.65645842  0.50000000  1
  Si  Si58  1  0.96138945  0.84354158  0.50000000  1
  Si  Si59  1  0.03861055  0.15645842  0.50000000  1
  Si  Si60  1  0.00000000  0.00000000  0.35185993  1
  Si  Si61  1  0.50000000  0.50000000  0.64814007  1
  Si  Si62  1  0.00000000  0.00000000  0.64814007  1
  Si  Si63  1  0.50000000  0.50000000  0.35185993  1
  Si  Si64  1  0.00000000  0.00000000  0.05121474  1
  Si  Si65  1  0.50000000  0.50000000  0.94878526  1
  Si  Si66  1  0.00000000  0.00000000  0.94878526  1
  Si  Si67  1  0.50000000  0.50000000  0.05121474  1
  Si  Si68  1  0.43597340  0.19319990  0.50000000  1
  Si  Si69  1  0.56402660  0.80680010  0.50000000  1
  Si  Si70  1  0.06402660  0.69319990  0.50000000  1
  Si  Si71  1  0.93597340  0.30680010  0.50000000  1
  Te  Te72  1  0.97851658  0.62241625  0.27351112  1
  Te  Te73  1  0.02148342  0.37758375  0.27351112  1
  Te  Te74  1  0.52148342  0.12241625  0.72648888  1
  Te  Te75  1  0.47851658  0.87758375  0.72648888  1
  Te  Te76  1  0.02148342  0.37758375  0.72648888  1
  Te  Te77  1  0.97851658  0.62241625  0.72648888  1
  Te  Te78  1  0.47851658  0.87758375  0.27351112  1
  Te  Te79  1  0.52148342  0.12241625  0.27351112  1
  Te  Te80  1  0.61778087  0.35162262  0.00000000  1
  Te  Te81  1  0.38221913  0.64837738  -0.00000000  1
  Te  Te82  1  0.88221913  0.85162262  0.00000000  1
  Te  Te83  1  0.11778087  0.14837738  -0.00000000  1
