# generated using pymatgen
data_LiF
_symmetry_space_group_name_H-M   'P 1'
_cell_length_a   9.49806223
_cell_length_b   6.88282502
_cell_length_c   8.70156826
_cell_angle_alpha   90.00000000
_cell_angle_beta   90.00000000
_cell_angle_gamma   90.00000000
_symmetry_Int_Tables_number   1
_chemical_formula_structural   LiF
_chemical_formula_sum   'Li24 F24'
_cell_volume   568.85197584
_cell_formula_units_Z   24
loop_
 _symmetry_equiv_pos_site_id
 _symmetry_equiv_pos_as_xyz
  1  'x, y, z'
loop_
 _atom_site_type_symbol
 _atom_site_label
 _atom_site_symmetry_multiplicity
 _atom_site_fract_x
 _atom_site_fract_y
 _atom_site_fract_z
 _atom_site_occupancy
  F  F0  1  0.27008970  0.97878205  0.95481782  1
  F  F1  1  0.22991030  -0.97878205  1.45481782  1
  F  F2  1  -0.27008970  1.47878205  -0.95481782  1
  F  F3  1  0.77008970  -0.47878205  -0.45481782  1
  F  F4  1  -0.27008970  -0.97878205  -0.95481782  1
  F  F5  1  0.77008970  0.97878205  -0.45481782  1
  F  F6  1  0.27008970  -0.47878205  0.95481782  1
  F  F7  1  0.22991030  1.47878205  1.45481782  1
  F  F8  1  0.65069898  0.10671129  0.18139516  1
  F  F9  1  0.84930102  0.89328871  0.68139516  1
  F  F10  1  0.34930102  0.60671129  0.81860484  1
  F  F11  1  0.15069898  0.39328871  0.31860484  1
  F  F12  1  0.34930102  0.89328871  0.81860484  1
  F  F13  1  0.15069898  0.10671129  0.31860484  1
  F  F14  1  0.65069898  0.39328871  0.18139516  1
  F  F15  1  0.84930102  0.60671129  0.68139516  1
  F  F16  1  0.20262676  0.45513939  0.95979964  1
  F  F17  1  0.29737324  0.54486061  0.45979964  1
  F  F18  1  0.79737324  0.95513939  0.04020036  1
  F  F19  1  0.70262676  0.04486061  0.54020036  1
  F  F20  1  0.79737324  0.54486061  0.04020036  1
  F  F21  1  0.70262676  0.45513939  0.54020036  1
  F  F22  1  0.20262676  0.04486061  0.95979964  1
  F  F23  1  0.29737324  0.95513939  0.45979964  1
  Li  Li24  1  0.00000000  0.00000000  0.00000000  1
  Li  Li25  1  0.50000000  0.00000000  0.50000000  1
  Li  Li26  1  0.00000000  0.50000000  -0.00000000  1
  Li  Li27  1  0.50000000  0.50000000  0.50000000  1
  Li  Li28  1  0.00000000  0.00000000  0.50000000  1
  Li  Li29  1  0.50000000  0.00000000  0.00000000  1
  Li  Li30  1  0.00000000  0.50000000  0.50000000  1
  Li  Li31  1  0.50000000  0.50000000  0.00000000  1
  Li  Li32  1  0.35931290  0.25000000  0.26214114  1
  Li  Li33  1  0.14068710  0.75000000  0.76214114  1
  Li  Li34  1  0.64068710  0.75000000  0.73785886  1
  Li  Li35  1  0.85931290  0.25000000  0.23785886  1
  Li  Li36  1  0.45396794  0.25000000  0.65651241  1
  Li  Li37  1  0.04603206  0.75000000  0.15651241  1
  Li  Li38  1  0.54603206  0.75000000  0.34348759  1
  Li  Li39  1  0.95396794  0.25000000  0.84348759  1
  Li  Li40  1  0.98679965  0.25000000  0.44909717  1
  Li  Li41  1  0.51320035  0.75000000  0.94909717  1
  Li  Li42  1  0.01320035  0.75000000  0.55090283  1
  Li  Li43  1  0.48679965  0.25000000  0.05090283  1
  Li  Li44  1  0.13308435  0.25000000  0.69624473  1
  Li  Li45  1  0.36691565  0.75000000  0.19624473  1
  Li  Li46  1  0.86691565  0.75000000  0.30375527  1
  Li  Li47  1  0.63308435  0.25000000  0.80375527  1
