# generated using pymatgen
data_LiF
_symmetry_space_group_name_H-M   'P 1'
_cell_length_a   11.90889587
_cell_length_b   11.90889587
_cell_length_c   9.54147195
_cell_angle_alpha   90.00000000
_cell_angle_beta   90.00000000
_cell_angle_gamma   120.00000000
_symmetry_Int_Tables_number   1
_chemical_formula_structural   LiF
_chemical_formula_sum   'Li36 F36'
_cell_volume   1171.89582107
_cell_formula_units_Z   36
loop_
 _symmetry_equiv_pos_site_id
 _symmetry_equiv_pos_as_xyz
  1  'x, y, z'
loop_
 _atom_site_type_symbol
 _atom_site_label
 _atom_site_symmetry_multiplicity
 _atom_site_fract_x
 _atom_site_fract_y
 _atom_site_fract_z
 _atom_site_occupancy
  F  F0  1  0.57806609  0.19805597  0.03238818  1
  F  F1  1  -0.19805597  0.38001012  0.03238818  1
  F  F2  1  -0.38001012  -0.57806609  0.03238818  1
  F  F3  1  -0.57806609  -0.19805597  0.53238818  1
  F  F4  1  0.19805597  -0.38001012  0.53238818  1
  F  F5  1  0.38001012  0.57806609  0.53238818  1
  F  F6  1  -0.57806609  -0.19805597  -0.03238818  1
  F  F7  1  0.19805597  -0.38001012  -0.03238818  1
  F  F8  1  0.38001012  0.57806609  -0.03238818  1
  F  F9  1  0.57806609  0.19805597  0.46761182  1
  F  F10  1  -0.19805597  0.38001012  0.46761182  1
  F  F11  1  -0.38001012  -0.57806609  0.46761182  1
  F  F12  1  0.11413627  0.46351188  0.92391547  1
  F  F13  1  0.53648812  0.65062439  0.92391547  1
  F  F14  1  0.34937561  0.88586373  0.92391547  1
  F  F15  1  0.88586373  0.53648812  0.42391547  1
  F  F16  1  0.46351188  0.34937561  0.42391547  1
  F  F17  1  0.65062439  0.11413627  0.42391547  1
  F  F18  1  0.88586373  0.53648812  0.07608453  1
  F  F19  1  0.46351188  0.34937561  0.07608453  1
  F  F20  1  0.65062439  0.11413627  0.07608453  1
  F  F21  1  0.11413627  0.46351188  0.57608453  1
  F  F22  1  0.53648812  0.65062439  0.57608453  1
  F  F23  1  0.34937561  0.88586373  0.57608453  1
  F  F24  1  0.74363290  0.60870679  0.10639718  1
  F  F25  1  0.39129321  0.13492611  0.10639718  1
  F  F26  1  0.86507389  0.25636710  0.10639718  1
  F  F27  1  0.25636710  0.39129321  0.60639718  1
  F  F28  1  0.60870679  0.86507389  0.60639718  1
  F  F29  1  0.13492611  0.74363290  0.60639718  1
  F  F30  1  0.25636710  0.39129321  0.89360282  1
  F  F31  1  0.60870679  0.86507389  0.89360282  1
  F  F32  1  0.13492611  0.74363290  0.89360282  1
  F  F33  1  0.74363290  0.60870679  0.39360282  1
  F  F34  1  0.39129321  0.13492611  0.39360282  1
  F  F35  1  0.86507389  0.25636710  0.39360282  1
  Li  Li36  1  0.97635073  0.61686853  0.60577626  1
  Li  Li37  1  0.38313147  0.35948220  0.60577626  1
  Li  Li38  1  0.64051780  0.02364927  0.60577626  1
  Li  Li39  1  0.02364927  0.38313147  0.10577626  1
  Li  Li40  1  0.61686853  0.64051780  0.10577626  1
  Li  Li41  1  0.35948220  0.97635073  0.10577626  1
  Li  Li42  1  0.02364927  0.38313147  0.39422374  1
  Li  Li43  1  0.61686853  0.64051780  0.39422374  1
  Li  Li44  1  0.35948220  0.97635073  0.39422374  1
  Li  Li45  1  0.97635073  0.61686853  0.89422374  1
  Li  Li46  1  0.38313147  0.35948220  0.89422374  1
  Li  Li47  1  0.64051780  0.02364927  0.89422374  1
  Li  Li48  1  0.09091027  0.29302787  0.12105530  1
  Li  Li49  1  0.70697213  0.79788240  0.12105530  1
  Li  Li50  1  0.20211760  0.90908973  0.12105530  1
  Li  Li51  1  0.90908973  0.70697213  0.62105530  1
  Li  Li52  1  0.29302787  0.20211760  0.62105530  1
  Li  Li53  1  0.79788240  0.09091027  0.62105530  1
  Li  Li54  1  0.90908973  0.70697213  0.87894470  1
  Li  Li55  1  0.29302787  0.20211760  0.87894470  1
  Li  Li56  1  0.79788240  0.09091027  0.87894470  1
  Li  Li57  1  0.09091027  0.29302787  0.37894470  1
  Li  Li58  1  0.70697213  0.79788240  0.37894470  1
  Li  Li59  1  0.20211760  0.90908973  0.37894470  1
  Li  Li60  1  0.50000000  0.00000000  -0.00000000  1
  Li  Li61  1  0.00000000  0.50000000  0.00000000  1
  Li  Li62  1  0.50000000  0.50000000  -0.00000000  1
  Li  Li63  1  0.50000000  0.00000000  0.50000000  1
  Li  Li64  1  0.00000000  0.50000000  0.50000000  1
  Li  Li65  1  0.50000000  0.50000000  0.50000000  1
  Li  Li66  1  0.79083234  0.42015693  0.25000000  1
  Li  Li67  1  0.57984307  0.37067541  0.25000000  1
  Li  Li68  1  0.62932459  0.20916766  0.25000000  1
  Li  Li69  1  0.20916766  0.57984307  0.75000000  1
  Li  Li70  1  0.42015693  0.62932459  0.75000000  1
  Li  Li71  1  0.37067541  0.79083234  0.75000000  1
