# generated using pymatgen
data_Li3Mo2P4SeO3
_symmetry_space_group_name_H-M   'P 1'
_cell_length_a   3.87357264
_cell_length_b   4.39135734
_cell_length_c   4.64299420
_cell_angle_alpha   89.12714250
_cell_angle_beta   92.34671048
_cell_angle_gamma   91.62282777
_symmetry_Int_Tables_number   1
_chemical_formula_structural   Li3Mo2P4SeO3
_chemical_formula_sum   'Li3 Mo2 P4 Se1 O3'
_cell_volume   78.87273471
_cell_formula_units_Z   1
loop_
 _symmetry_equiv_pos_site_id
 _symmetry_equiv_pos_as_xyz
  1  'x, y, z'
loop_
 _atom_site_type_symbol
 _atom_site_label
 _atom_site_symmetry_multiplicity
 _atom_site_fract_x
 _atom_site_fract_y
 _atom_site_fract_z
 _atom_site_occupancy
  Se  Se0  1  0.12500000  0.00000000  0.25000000  1
  P  P1  1  0.00000000  0.00000000  0.00000000  1
  P  P2  1  0.37500000  0.00000000  0.25000000  1
  P  P3  1  0.25000000  0.25000000  0.25000000  1
  P  P4  1  0.00000000  0.25000000  0.12500000  1
  Mo  Mo5  1  0.79437463  0.85421780  0.35623571  1
  Mo  Mo6  1  0.43731760  0.96433908  0.66609565  1
  O  O7  1  0.43164088  0.70629407  0.95705604  1
  O  O8  1  0.17410616  0.91000937  0.23888908  1
  O  O9  1  0.99104387  0.52302255  0.17955785  1
  Li  Li10  1  0.64521160  0.00421844  0.95182205  1
  Li  Li11  1  0.98882295  0.77843054  0.24564576  1
  Li  Li12  1  0.03615110  0.72861433  0.90136669  1
