# generated using pymatgen
data_Li2TiCl
_symmetry_space_group_name_H-M   'P 1'
_cell_length_a   3.39218743
_cell_length_b   3.66351338
_cell_length_c   6.23322778
_cell_angle_alpha   112.51304141
_cell_angle_beta   101.04994678
_cell_angle_gamma   110.37041658
_symmetry_Int_Tables_number   1
_chemical_formula_structural   Li2TiCl
_chemical_formula_sum   'Li2 Ti1 Cl1'
_cell_volume   62.18259569
_cell_formula_units_Z   1
loop_
 _symmetry_equiv_pos_site_id
 _symmetry_equiv_pos_as_xyz
  1  'x, y, z'
loop_
 _atom_site_type_symbol
 _atom_site_label
 _atom_site_symmetry_multiplicity
 _atom_site_fract_x
 _atom_site_fract_y
 _atom_site_fract_z
 _atom_site_occupancy
  Cl  Cl0  1  0.00000000  0.00000000  0.00000000  1
  Li  Li1  1  0.33300000  0.66700000  0.25000000  1
  Li  Li2  1  0.66700000  0.33300000  0.50000000  1
  Ti  Ti3  1  0.00000000  0.00000000  0.75000000  1
