# generated using pymatgen
data_LiF
_symmetry_space_group_name_H-M   'P 1'
_cell_length_a   8.59702627
_cell_length_b   4.11334460
_cell_length_c   9.16256904
_cell_angle_alpha   90.00000000
_cell_angle_beta   90.00000000
_cell_angle_gamma   90.00000000
_symmetry_Int_Tables_number   1
_chemical_formula_structural   LiF
_chemical_formula_sum   'Li24 F24'
_cell_volume   324.01163756
_cell_formula_units_Z   24
loop_
 _symmetry_equiv_pos_site_id
 _symmetry_equiv_pos_as_xyz
  1  'x, y, z'
loop_
 _atom_site_type_symbol
 _atom_site_label
 _atom_site_symmetry_multiplicity
 _atom_site_fract_x
 _atom_site_fract_y
 _atom_site_fract_z
 _atom_site_occupancy
  F  F0  1  0.38916498  0.36453226  0.86832363  1
  F  F1  1  0.11083502  0.63546774  0.36832363  1
  F  F2  1  0.61083502  0.86453226  0.13167637  1
  F  F3  1  0.88916498  0.13546774  0.63167637  1
  F  F4  1  0.61083502  0.63546774  0.13167637  1
  F  F5  1  0.88916498  0.36453226  0.63167637  1
  F  F6  1  0.38916498  0.13546774  0.86832363  1
  F  F7  1  0.11083502  0.86453226  0.36832363  1
  F  F8  1  0.22662454  0.09618645  0.00463906  1
  F  F9  1  0.27337546  0.90381355  0.50463906  1
  F  F10  1  0.77337546  0.59618645  0.99536094  1
  F  F11  1  0.72662454  0.40381355  0.49536094  1
  F  F12  1  0.77337546  0.90381355  0.99536094  1
  F  F13  1  0.72662454  0.09618645  0.49536094  1
  F  F14  1  0.22662454  0.40381355  0.00463906  1
  F  F15  1  0.27337546  0.59618645  0.50463906  1
  F  F16  1  0.62704273  0.92176149  0.07493316  1
  F  F17  1  0.87295727  0.07823851  0.57493316  1
  F  F18  1  0.37295727  0.42176149  0.92506684  1
  F  F19  1  0.12704273  0.57823851  0.42506684  1
  F  F20  1  0.37295727  0.07823851  0.92506684  1
  F  F21  1  0.12704273  0.92176149  0.42506684  1
  F  F22  1  0.62704273  0.57823851  0.07493316  1
  F  F23  1  0.87295727  0.42176149  0.57493316  1
  Li  Li24  1  0.68822902  0.25000000  0.78890365  1
  Li  Li25  1  0.81177098  0.75000000  0.28890365  1
  Li  Li26  1  0.31177098  0.75000000  0.21109635  1
  Li  Li27  1  0.18822902  0.25000000  0.71109635  1
  Li  Li28  1  0.34260721  0.25000000  0.72155193  1
  Li  Li29  1  0.15739279  0.75000000  0.22155193  1
  Li  Li30  1  0.65739279  0.75000000  0.27844807  1
  Li  Li31  1  0.84260721  0.25000000  0.77844807  1
  Li  Li32  1  0.52019244  0.92118203  0.70036418  1
  Li  Li33  1  -0.02019244  -0.92118203  1.20036418  1
  Li  Li34  1  -0.52019244  1.42118203  -0.70036418  1
  Li  Li35  1  1.02019244  -0.42118203  -0.20036418  1
  Li  Li36  1  -0.52019244  -0.92118203  -0.70036418  1
  Li  Li37  1  1.02019244  0.92118203  -0.20036418  1
  Li  Li38  1  0.52019244  -0.42118203  0.70036418  1
  Li  Li39  1  -0.02019244  1.42118203  1.20036418  1
  Li  Li40  1  0.00000000  0.00000000  0.00000000  1
  Li  Li41  1  0.50000000  0.00000000  0.50000000  1
  Li  Li42  1  0.00000000  0.50000000  0.00000000  1
  Li  Li43  1  0.50000000  0.50000000  0.50000000  1
  Li  Li44  1  0.00000000  0.00000000  0.50000000  1
  Li  Li45  1  0.50000000  0.00000000  0.00000000  1
  Li  Li46  1  0.00000000  0.50000000  0.50000000  1
  Li  Li47  1  0.50000000  0.50000000  -0.00000000  1
