# generated using pymatgen
data_LiYP3
_symmetry_space_group_name_H-M   'P 1'
_cell_length_a   5.39657885
_cell_length_b   5.44596453
_cell_length_c   7.49642930
_cell_angle_alpha   94.98464888
_cell_angle_beta   100.85552897
_cell_angle_gamma   110.02135344
_symmetry_Int_Tables_number   1
_chemical_formula_structural   LiYP3
_chemical_formula_sum   'Li1 Y1 P3'
_cell_volume   200.54384367
_cell_formula_units_Z   1
loop_
 _symmetry_equiv_pos_site_id
 _symmetry_equiv_pos_as_xyz
  1  'x, y, z'
loop_
 _atom_site_type_symbol
 _atom_site_label
 _atom_site_symmetry_multiplicity
 _atom_site_fract_x
 _atom_site_fract_y
 _atom_site_fract_z
 _atom_site_occupancy
  P  P0  1  0.00000000  0.00000000  0.00000000  1
  P  P1  1  0.50000000  0.50000000  0.50000000  1
  P  P2  1  0.50000000  0.50000000  0.00000000  1
  Li  Li3  1  0.50000000  0.00000000  0.50000000  1
  Y  Y4  1  0.00000000  0.50000000  0.50000000  1
