# generated using pymatgen
data_LiF
_symmetry_space_group_name_H-M   'P 1'
_cell_length_a   5.29366849
_cell_length_b   10.08333056
_cell_length_c   10.59967433
_cell_angle_alpha   90.00000000
_cell_angle_beta   90.00000000
_cell_angle_gamma   90.00000000
_symmetry_Int_Tables_number   1
_chemical_formula_structural   LiF
_chemical_formula_sum   'Li24 F24'
_cell_volume   565.78739512
_cell_formula_units_Z   24
loop_
 _symmetry_equiv_pos_site_id
 _symmetry_equiv_pos_as_xyz
  1  'x, y, z'
loop_
 _atom_site_type_symbol
 _atom_site_label
 _atom_site_symmetry_multiplicity
 _atom_site_fract_x
 _atom_site_fract_y
 _atom_site_fract_z
 _atom_site_occupancy
  F  F0  1  0.85925397  0.56503063  0.38647209  1
  F  F1  1  -0.35925397  -0.56503063  0.88647209  1
  F  F2  1  -0.85925397  1.06503063  -0.38647209  1
  F  F3  1  1.35925397  -0.06503063  0.11352791  1
  F  F4  1  -0.85925397  -0.56503063  -0.38647209  1
  F  F5  1  1.35925397  0.56503063  0.11352791  1
  F  F6  1  0.85925397  -0.06503063  0.38647209  1
  F  F7  1  -0.35925397  1.06503063  0.88647209  1
  F  F8  1  0.46422563  0.44951467  0.82501526  1
  F  F9  1  0.03577437  0.55048533  0.32501526  1
  F  F10  1  0.53577437  0.94951467  0.17498474  1
  F  F11  1  0.96422563  0.05048533  0.67498474  1
  F  F12  1  0.53577437  0.55048533  0.17498474  1
  F  F13  1  0.96422563  0.44951467  0.67498474  1
  F  F14  1  0.46422563  0.05048533  0.82501526  1
  F  F15  1  0.03577437  0.94951467  0.32501526  1
  F  F16  1  0.00000000  0.00000000  0.00000000  1
  F  F17  1  0.50000000  0.00000000  0.50000000  1
  F  F18  1  0.00000000  0.50000000  0.00000000  1
  F  F19  1  0.50000000  0.50000000  0.50000000  1
  F  F20  1  0.70824807  0.25000000  0.29750458  1
  F  F21  1  0.79175193  0.75000000  0.79750458  1
  F  F22  1  0.29175193  0.75000000  0.70249542  1
  F  F23  1  0.20824807  0.25000000  0.20249542  1
  Li  Li24  1  0.78962263  0.62912314  0.79944057  1
  Li  Li25  1  0.71037737  0.37087686  0.29944057  1
  Li  Li26  1  0.21037737  0.12912314  0.20055943  1
  Li  Li27  1  0.28962263  0.87087686  0.70055943  1
  Li  Li28  1  0.21037737  0.37087686  0.20055943  1
  Li  Li29  1  0.28962263  0.62912314  0.70055943  1
  Li  Li30  1  0.78962263  0.87087686  0.79944057  1
  Li  Li31  1  0.71037737  0.12912314  0.29944057  1
  Li  Li32  1  0.66853382  0.25000000  0.55969574  1
  Li  Li33  1  0.83146618  0.75000000  0.05969574  1
  Li  Li34  1  0.33146618  0.75000000  0.44030426  1
  Li  Li35  1  0.16853382  0.25000000  0.94030426  1
  Li  Li36  1  0.26842323  0.93111348  0.30608578  1
  Li  Li37  1  0.23157677  0.06888652  0.80608578  1
  Li  Li38  1  0.73157677  0.43111348  0.69391422  1
  Li  Li39  1  0.76842323  0.56888652  0.19391422  1
  Li  Li40  1  0.73157677  0.06888652  0.69391422  1
  Li  Li41  1  0.76842323  0.93111348  0.19391422  1
  Li  Li42  1  0.26842323  0.56888652  0.30608578  1
  Li  Li43  1  0.23157677  0.43111348  0.80608578  1
  Li  Li44  1  0.00000000  0.00000000  0.50000000  1
  Li  Li45  1  0.50000000  0.00000000  0.00000000  1
  Li  Li46  1  0.00000000  0.50000000  0.50000000  1
  Li  Li47  1  0.50000000  0.50000000  0.00000000  1
