# generated using pymatgen
data_Li2Ca3F8
_symmetry_space_group_name_H-M   'P 1'
_cell_length_a   12.72798948
_cell_length_b   10.50452026
_cell_length_c   11.88681209
_cell_angle_alpha   90.00000000
_cell_angle_beta   90.00000000
_cell_angle_gamma   90.00000000
_symmetry_Int_Tables_number   1
_chemical_formula_structural   Li2Ca3F8
_chemical_formula_sum   'Li16 Ca24 F64'
_cell_volume   1589.28369491
_cell_formula_units_Z   8
loop_
 _symmetry_equiv_pos_site_id
 _symmetry_equiv_pos_as_xyz
  1  'x, y, z'
loop_
 _atom_site_type_symbol
 _atom_site_label
 _atom_site_symmetry_multiplicity
 _atom_site_fract_x
 _atom_site_fract_y
 _atom_site_fract_z
 _atom_site_occupancy
  Ca  Ca0  1  0.92120487  0.94306006  0.27581964  1
  Ca  Ca1  1  0.07879513  0.05693994  0.27581964  1
  Ca  Ca2  1  0.57879513  0.44306006  0.72418036  1
  Ca  Ca3  1  0.42120487  0.55693994  0.72418036  1
  Ca  Ca4  1  0.07879513  0.05693994  0.72418036  1
  Ca  Ca5  1  0.92120487  0.94306006  0.72418036  1
  Ca  Ca6  1  0.42120487  0.55693994  0.27581964  1
  Ca  Ca7  1  0.57879513  0.44306006  0.27581964  1
  Ca  Ca8  1  0.05499824  0.67303089  0.00000000  1
  Ca  Ca9  1  0.94500176  0.32696911  0.00000000  1
  Ca  Ca10  1  0.44500176  0.17303089  -0.00000000  1
  Ca  Ca11  1  0.55499824  0.82696911  0.00000000  1
  Ca  Ca12  1  0.84245735  0.55314399  0.50000000  1
  Ca  Ca13  1  0.15754265  0.44685601  0.50000000  1
  Ca  Ca14  1  0.65754265  0.05314399  0.50000000  1
  Ca  Ca15  1  0.34245735  0.94685601  0.50000000  1
  Ca  Ca16  1  0.34168648  0.08803994  0.36676850  1
  Ca  Ca17  1  0.65831352  0.91196006  0.36676850  1
  Ca  Ca18  1  0.15831352  0.58803994  0.63323150  1
  Ca  Ca19  1  0.84168648  0.41196006  0.63323150  1
  Ca  Ca20  1  0.65831352  0.91196006  0.63323150  1
  Ca  Ca21  1  0.34168648  0.08803994  0.63323150  1
  Ca  Ca22  1  0.84168648  0.41196006  0.36676850  1
  Ca  Ca23  1  0.15831352  0.58803994  0.36676850  1
  F  F24  1  0.30469991  0.36187971  0.12181706  1
  F  F25  1  -0.30469991  -0.36187971  0.12181706  1
  F  F26  1  0.19530009  0.86187971  -0.12181706  1
  F  F27  1  0.80469991  0.13812029  -0.12181706  1
  F  F28  1  -0.30469991  -0.36187971  -0.12181706  1
  F  F29  1  0.30469991  0.36187971  -0.12181706  1
  F  F30  1  0.80469991  0.13812029  0.12181706  1
  F  F31  1  0.19530009  0.86187971  0.12181706  1
  F  F32  1  0.53835994  0.54333103  0.66301250  1
  F  F33  1  0.46164006  0.45666897  0.66301250  1
  F  F34  1  0.96164006  0.04333103  0.33698750  1
  F  F35  1  0.03835994  0.95666897  0.33698750  1
  F  F36  1  0.46164006  0.45666897  0.33698750  1
  F  F37  1  0.53835994  0.54333103  0.33698750  1
  F  F38  1  0.03835994  0.95666897  0.66301250  1
  F  F39  1  0.96164006  0.04333103  0.66301250  1
  F  F40  1  0.01302897  0.88565481  0.67874069  1
  F  F41  1  0.98697103  0.11434519  0.67874069  1
  F  F42  1  0.48697103  0.38565481  0.32125931  1
  F  F43  1  0.51302897  0.61434519  0.32125931  1
  F  F44  1  0.98697103  0.11434519  0.32125931  1
  F  F45  1  0.01302897  0.88565481  0.32125931  1
  F  F46  1  0.51302897  0.61434519  0.67874069  1
  F  F47  1  0.48697103  0.38565481  0.67874069  1
  F  F48  1  0.00000000  0.50000000  0.33393841  1
  F  F49  1  0.50000000  0.00000000  0.66606159  1
  F  F50  1  0.00000000  0.50000000  0.66606159  1
  F  F51  1  0.50000000  0.00000000  0.33393841  1
  F  F52  1  0.37240735  0.20562064  0.45051137  1
  F  F53  1  0.62759265  0.79437936  0.45051137  1
  F  F54  1  0.12759265  0.70562064  0.54948863  1
  F  F55  1  0.87240735  0.29437936  0.54948863  1
  F  F56  1  0.62759265  0.79437936  0.54948863  1
  F  F57  1  0.37240735  0.20562064  0.54948863  1
  F  F58  1  0.87240735  0.29437936  0.45051137  1
  F  F59  1  0.12759265  0.70562064  0.45051137  1
  F  F60  1  0.62465151  0.28569629  0.32531782  1
  F  F61  1  0.37534849  0.71430371  0.32531782  1
  F  F62  1  0.87534849  0.78569629  0.67468218  1
  F  F63  1  0.12465151  0.21430371  0.67468218  1
  F  F64  1  0.37534849  0.71430371  0.67468218  1
  F  F65  1  0.62465151  0.28569629  0.67468218  1
  F  F66  1  0.12465151  0.21430371  0.32531782  1
  F  F67  1  0.87534849  0.78569629  0.32531782  1
  F  F68  1  0.82147348  0.08004643  0.11270560  1
  F  F69  1  0.17852652  0.91995357  0.11270560  1
  F  F70  1  0.67852652  0.58004643  0.88729440  1
  F  F71  1  0.32147348  0.41995357  0.88729440  1
  F  F72  1  0.17852652  0.91995357  0.88729440  1
  F  F73  1  0.82147348  0.08004643  0.88729440  1
  F  F74  1  0.32147348  0.41995357  0.11270560  1
  F  F75  1  0.67852652  0.58004643  0.11270560  1
  F  F76  1  0.43494229  0.79713754  0.39259160  1
  F  F77  1  0.56505771  0.20286246  0.39259160  1
  F  F78  1  0.06505771  0.29713754  0.60740840  1
  F  F79  1  0.93494229  0.70286246  0.60740840  1
  F  F80  1  0.56505771  0.20286246  0.60740840  1
  F  F81  1  0.43494229  0.79713754  0.60740840  1
  F  F82  1  0.93494229  0.70286246  0.39259160  1
  F  F83  1  0.06505771  0.29713754  0.39259160  1
  F  F84  1  0.49616858  0.58395271  0.00000000  1
  F  F85  1  0.50383142  0.41604729  0.00000000  1
  F  F86  1  0.00383142  0.08395271  0.00000000  1
  F  F87  1  0.99616858  0.91604729  -0.00000000  1
  Li  Li88  1  0.75872087  0.00345154  0.07138473  1
  Li  Li89  1  0.24127913  0.99654846  0.07138473  1
  Li  Li90  1  0.74127913  0.50345154  0.92861527  1
  Li  Li91  1  0.25872087  0.49654846  0.92861527  1
  Li  Li92  1  0.24127913  0.99654846  0.92861527  1
  Li  Li93  1  0.75872087  0.00345154  0.92861527  1
  Li  Li94  1  0.25872087  0.49654846  0.07138473  1
  Li  Li95  1  0.74127913  0.50345154  0.07138473  1
  Li  Li96  1  0.44305364  0.45383227  0.50000000  1
  Li  Li97  1  0.55694636  0.54616773  0.50000000  1
  Li  Li98  1  0.05694636  0.95383227  0.50000000  1
  Li  Li99  1  0.94305364  0.04616773  0.50000000  1
  Li  Li100  1  0.00000000  0.50000000  0.57826444  1
  Li  Li101  1  0.50000000  0.00000000  0.42173556  1
  Li  Li102  1  0.00000000  0.50000000  0.42173556  1
  Li  Li103  1  0.50000000  0.00000000  0.57826444  1
