# generated using pymatgen
data_LiF
_symmetry_space_group_name_H-M   'P 1'
_cell_length_a   12.75932416
_cell_length_b   12.75932416
_cell_length_c   14.54092797
_cell_angle_alpha   90.00000000
_cell_angle_beta   90.00000000
_cell_angle_gamma   120.00000000
_symmetry_Int_Tables_number   1
_chemical_formula_structural   LiF
_chemical_formula_sum   'Li74 F74'
_cell_volume   2050.11440463
_cell_formula_units_Z   74
loop_
 _symmetry_equiv_pos_site_id
 _symmetry_equiv_pos_as_xyz
  1  'x, y, z'
loop_
 _atom_site_type_symbol
 _atom_site_label
 _atom_site_symmetry_multiplicity
 _atom_site_fract_x
 _atom_site_fract_y
 _atom_site_fract_z
 _atom_site_occupancy
  F  F0  1  0.78456299  0.69160130  0.50835958  1
  F  F1  1  0.30839870  0.09296169  0.50835958  1
  F  F2  1  0.90703831  0.21543701  0.50835958  1
  F  F3  1  0.30839870  0.21543701  0.49164042  1
  F  F4  1  0.90703831  0.69160130  0.49164042  1
  F  F5  1  0.78456299  0.09296169  0.49164042  1
  F  F6  1  0.33333333  0.66666667  -0.00000000  1
  F  F7  1  0.42506631  0.91214035  0.74507642  1
  F  F8  1  0.08785965  0.51292596  0.74507642  1
  F  F9  1  0.48707404  0.57493369  0.74507642  1
  F  F10  1  0.08785965  0.57493369  0.25492358  1
  F  F11  1  0.48707404  0.91214035  0.25492358  1
  F  F12  1  0.42506631  0.51292596  0.25492358  1
  F  F13  1  0.61515464  0.28479077  0.57244583  1
  F  F14  1  0.71520923  0.33036387  0.57244583  1
  F  F15  1  0.66963613  0.38484536  0.57244583  1
  F  F16  1  0.71520923  0.38484536  0.42755417  1
  F  F17  1  0.66963613  0.28479077  0.42755417  1
  F  F18  1  0.61515464  0.33036387  0.42755417  1
  F  F19  1  0.82672787  0.44846687  0.31571358  1
  F  F20  1  0.55153313  0.37826101  0.31571358  1
  F  F21  1  0.62173899  0.17327213  0.31571358  1
  F  F22  1  0.55153313  0.17327213  0.68428642  1
  F  F23  1  0.62173899  0.44846687  0.68428642  1
  F  F24  1  0.82672787  0.37826101  0.68428642  1
  F  F25  1  0.23528161  0.76471839  0.00000000  1
  F  F26  1  0.23528161  0.47056322  0.00000000  1
  F  F27  1  0.52943678  0.76471839  0.00000000  1
  F  F28  1  0.29119461  0.72319957  0.70386476  1
  F  F29  1  0.27680043  0.56799504  0.70386476  1
  F  F30  1  0.43200496  0.70880539  0.70386476  1
  F  F31  1  0.27680043  0.70880539  0.29613524  1
  F  F32  1  0.43200496  0.72319957  0.29613524  1
  F  F33  1  0.29119461  0.56799504  0.29613524  1
  F  F34  1  0.37065911  0.77681153  0.23856624  1
  F  F35  1  0.22318847  0.59384757  0.23856624  1
  F  F36  1  0.40615243  0.62934089  0.23856624  1
  F  F37  1  0.22318847  0.62934089  0.76143376  1
  F  F38  1  0.40615243  0.77681153  0.76143376  1
  F  F39  1  0.37065911  0.59384757  0.76143376  1
  F  F40  1  0.66666667  0.33333333  0.50000000  1
  F  F41  1  0.77802982  0.66351386  0.26237033  1
  F  F42  1  0.33648614  0.11451596  0.26237033  1
  F  F43  1  0.88548404  0.22197018  0.26237033  1
  F  F44  1  0.33648614  0.22197018  0.73762967  1
  F  F45  1  0.88548404  0.66351386  0.73762967  1
  F  F46  1  0.77802982  0.11451596  0.73762967  1
  F  F47  1  0.10438641  0.65320163  0.78587793  1
  F  F48  1  0.34679837  0.45118478  0.78587793  1
  F  F49  1  0.54881522  0.89561359  0.78587793  1
  F  F50  1  0.34679837  0.89561359  0.21412207  1
  F  F51  1  0.54881522  0.65320163  0.21412207  1
  F  F52  1  0.10438641  0.45118478  0.21412207  1
  F  F53  1  0.20977734  0.06503224  0.46311196  1
  F  F54  1  0.93496776  0.14474510  0.46311196  1
  F  F55  1  0.85525490  0.79022266  0.46311196  1
  F  F56  1  0.93496776  0.79022266  0.53688804  1
  F  F57  1  0.85525490  0.06503224  0.53688804  1
  F  F58  1  0.20977734  0.14474510  0.53688804  1
  F  F59  1  0.90051474  0.91282755  0.50879745  1
  F  F60  1  0.08717245  0.98768719  0.50879745  1
  F  F61  1  0.01231281  0.09948526  0.50879745  1
  F  F62  1  0.08717245  0.09948526  0.49120255  1
  F  F63  1  0.01231281  0.91282755  0.49120255  1
  F  F64  1  0.90051474  0.98768719  0.49120255  1
  F  F65  1  0.33765696  0.53008753  0.99117830  1
  F  F66  1  0.46991247  0.80756943  0.99117830  1
  F  F67  1  0.19243057  0.66234304  0.99117830  1
  F  F68  1  0.46991247  0.66234304  0.00882170  1
  F  F69  1  0.19243057  0.53008753  0.00882170  1
  F  F70  1  0.33765696  0.80756943  0.00882170  1
  F  F71  1  0.53285838  0.46714162  0.50000000  1
  F  F72  1  0.53285838  0.06571677  0.50000000  1
  F  F73  1  0.93428323  0.46714162  0.50000000  1
  Li  Li74  1  0.00000000  0.00000000  0.00000000  1
  Li  Li75  1  0.21156036  0.22828158  0.22798754  1
  Li  Li76  1  -0.22828158  -0.01672122  0.22798754  1
  Li  Li77  1  0.01672122  -0.21156036  0.22798754  1
  Li  Li78  1  -0.22828158  -0.21156036  -0.22798754  1
  Li  Li79  1  0.01672122  0.22828158  -0.22798754  1
  Li  Li80  1  0.21156036  -0.01672122  -0.22798754  1
  Li  Li81  1  0.33333333  0.66666667  0.11096525  1
  Li  Li82  1  0.33333333  0.66666667  0.88903475  1
  Li  Li83  1  0.66666667  0.33333333  0.27127907  1
  Li  Li84  1  0.66666667  0.33333333  0.72872093  1
  Li  Li85  1  0.29572817  0.70427183  0.50000000  1
  Li  Li86  1  0.29572817  0.59145634  0.50000000  1
  Li  Li87  1  0.40854366  0.70427183  0.50000000  1
  Li  Li88  1  0.81890147  0.18109853  0.50000000  1
  Li  Li89  1  0.81890147  0.63780293  0.50000000  1
  Li  Li90  1  0.36219707  0.18109853  0.50000000  1
  Li  Li91  1  0.58807449  0.41192551  0.00000000  1
  Li  Li92  1  0.58807449  0.17614898  0.00000000  1
  Li  Li93  1  0.82385102  0.41192551  0.00000000  1
  Li  Li94  1  0.66666667  0.33333333  -0.00000000  1
  Li  Li95  1  0.30097132  0.35285599  0.62660650  1
  Li  Li96  1  0.64714401  0.94811533  0.62660650  1
  Li  Li97  1  0.05188467  0.69902868  0.62660650  1
  Li  Li98  1  0.64714401  0.69902868  0.37339350  1
  Li  Li99  1  0.05188467  0.35285599  0.37339350  1
  Li  Li100  1  0.30097132  0.94811533  0.37339350  1
  Li  Li101  1  0.16353577  0.83444241  0.12637527  1
  Li  Li102  1  0.16555759  0.32909336  0.12637527  1
  Li  Li103  1  0.67090664  0.83646423  0.12637527  1
  Li  Li104  1  0.16555759  0.83646423  0.87362473  1
  Li  Li105  1  0.67090664  0.83444241  0.87362473  1
  Li  Li106  1  0.16353577  0.32909336  0.87362473  1
  Li  Li107  1  0.83485249  0.90122643  0.69044833  1
  Li  Li108  1  0.09877357  0.93362606  0.69044833  1
  Li  Li109  1  0.06637394  0.16514751  0.69044833  1
  Li  Li110  1  0.09877357  0.16514751  0.30955167  1
  Li  Li111  1  0.06637394  0.90122643  0.30955167  1
  Li  Li112  1  0.83485249  0.93362606  0.30955167  1
  Li  Li113  1  0.29087928  0.27103186  0.55255268  1
  Li  Li114  1  0.72896814  0.01984742  0.55255268  1
  Li  Li115  1  0.98015258  0.70912072  0.55255268  1
  Li  Li116  1  0.72896814  0.70912072  0.44744732  1
  Li  Li117  1  0.98015258  0.27103186  0.44744732  1
  Li  Li118  1  0.29087928  0.01984742  0.44744732  1
  Li  Li119  1  0.51109573  0.19936317  0.80836526  1
  Li  Li120  1  0.80063683  0.31173256  0.80836526  1
  Li  Li121  1  0.68826744  0.48890427  0.80836526  1
  Li  Li122  1  0.80063683  0.48890427  0.19163474  1
  Li  Li123  1  0.68826744  0.19936317  0.19163474  1
  Li  Li124  1  0.51109573  0.31173256  0.19163474  1
  Li  Li125  1  0.82101195  0.14343468  0.28630387  1
  Li  Li126  1  0.85656532  0.67757727  0.28630387  1
  Li  Li127  1  0.32242273  0.17898805  0.28630387  1
  Li  Li128  1  0.85656532  0.17898805  0.71369613  1
  Li  Li129  1  0.32242273  0.14343468  0.71369613  1
  Li  Li130  1  0.82101195  0.67757727  0.71369613  1
  Li  Li131  1  0.32616938  0.51224113  0.53073618  1
  Li  Li132  1  0.48775887  0.81392825  0.53073618  1
  Li  Li133  1  0.18607175  0.67383062  0.53073618  1
  Li  Li134  1  0.48775887  0.67383062  0.46926382  1
  Li  Li135  1  0.18607175  0.51224113  0.46926382  1
  Li  Li136  1  0.32616938  0.81392825  0.46926382  1
  Li  Li137  1  0.14453081  0.33200785  0.62857201  1
  Li  Li138  1  0.66799215  0.81252296  0.62857201  1
  Li  Li139  1  0.18747704  0.85546919  0.62857201  1
  Li  Li140  1  0.66799215  0.85546919  0.37142799  1
  Li  Li141  1  0.18747704  0.33200785  0.37142799  1
  Li  Li142  1  0.14453081  0.81252296  0.37142799  1
  Li  Li143  1  0.16567750  0.83432250  0.00000000  1
  Li  Li144  1  0.16567750  0.33135500  0.00000000  1
  Li  Li145  1  0.66864500  0.83432250  -0.00000000  1
  Li  Li146  1  0.33333333  0.66666667  0.41255254  1
  Li  Li147  1  0.33333333  0.66666667  0.58744746  1
