# generated using pymatgen
data_LiYAs2P
_symmetry_space_group_name_H-M   'P 1'
_cell_length_a   5.00449117
_cell_length_b   5.01958966
_cell_length_c   6.89323584
_cell_angle_alpha   94.68902294
_cell_angle_beta   100.21171713
_cell_angle_gamma   108.83394153
_symmetry_Int_Tables_number   1
_chemical_formula_structural   LiYAs2P
_chemical_formula_sum   'Li2 Y2 As4 P2'
_cell_volume   159.48847473
_cell_formula_units_Z   2
loop_
 _symmetry_equiv_pos_site_id
 _symmetry_equiv_pos_as_xyz
  1  'x, y, z'
loop_
 _atom_site_type_symbol
 _atom_site_label
 _atom_site_symmetry_multiplicity
 _atom_site_fract_x
 _atom_site_fract_y
 _atom_site_fract_z
 _atom_site_occupancy
  P  P0  1  0.12500000  0.00000000  0.25000000  1
  P  P1  1  0.00000000  0.00000000  0.00000000  1
  As  As2  1  0.37500000  0.00000000  0.25000000  1
  As  As3  1  0.25000000  0.25000000  0.25000000  1
  As  As4  1  0.00000000  0.25000000  0.12500000  1
  As  As5  1  0.96559777  0.32477842  0.52778388  1
  Li  Li6  1  0.69909955  0.98348149  0.85750390  1
  Li  Li7  1  0.74154273  0.19941746  0.89118614  1
  Y  Y8  1  0.31359710  0.59184196  0.97059597  1
  Y  Y9  1  0.42394221  0.47933320  0.91405438  1
