# generated using pymatgen
data_Li2Si4Te3F12
_symmetry_space_group_name_H-M   'P 1'
_cell_length_a   7.97051092
_cell_length_b   8.91448521
_cell_length_c   21.69406453
_cell_angle_alpha   90.00000000
_cell_angle_beta   90.00000000
_cell_angle_gamma   90.00000000
_symmetry_Int_Tables_number   1
_chemical_formula_structural   Li2Si4Te3F12
_chemical_formula_sum   'Li8 Si16 Te12 F48'
_cell_volume   1541.42840455
_cell_formula_units_Z   4
loop_
 _symmetry_equiv_pos_site_id
 _symmetry_equiv_pos_as_xyz
  1  'x, y, z'
loop_
 _atom_site_type_symbol
 _atom_site_label
 _atom_site_symmetry_multiplicity
 _atom_site_fract_x
 _atom_site_fract_y
 _atom_site_fract_z
 _atom_site_occupancy
  F  F0  1  0.58789361  0.24995563  -0.00000000  1
  F  F1  1  0.41210639  0.75004437  -0.00000000  1
  F  F2  1  0.91210639  0.74995563  0.00000000  1
  F  F3  1  0.08789361  0.25004437  0.00000000  1
  F  F4  1  0.14472126  0.69974759  0.80754802  1
  F  F5  1  0.85527874  0.30025241  0.80754802  1
  F  F6  1  0.35527874  0.19974759  0.19245198  1
  F  F7  1  0.64472126  0.80025241  0.19245198  1
  F  F8  1  0.85527874  0.30025241  0.19245198  1
  F  F9  1  0.14472126  0.69974759  0.19245198  1
  F  F10  1  0.64472126  0.80025241  0.80754802  1
  F  F11  1  0.35527874  0.19974759  0.80754802  1
  F  F12  1  0.70223686  0.97496344  0.89673694  1
  F  F13  1  0.29776314  0.02503656  0.89673694  1
  F  F14  1  0.79776314  0.47496344  0.10326306  1
  F  F15  1  0.20223686  0.52503656  0.10326306  1
  F  F16  1  0.29776314  0.02503656  0.10326306  1
  F  F17  1  0.70223686  0.97496344  0.10326306  1
  F  F18  1  0.20223686  0.52503656  0.89673694  1
  F  F19  1  0.79776314  0.47496344  0.89673694  1
  F  F20  1  0.08101572  0.24658059  0.28937072  1
  F  F21  1  0.91898428  0.75341941  0.28937072  1
  F  F22  1  0.41898428  0.74658059  0.71062928  1
  F  F23  1  0.58101572  0.25341941  0.71062928  1
  F  F24  1  0.91898428  0.75341941  0.71062928  1
  F  F25  1  0.08101572  0.24658059  0.71062928  1
  F  F26  1  0.58101572  0.25341941  0.28937072  1
  F  F27  1  0.41898428  0.74658059  0.28937072  1
  F  F28  1  0.66386349  0.44490734  0.44885568  1
  F  F29  1  0.33613651  0.55509266  0.44885568  1
  F  F30  1  0.83613651  0.94490734  0.55114432  1
  F  F31  1  0.16386349  0.05509266  0.55114432  1
  F  F32  1  0.33613651  0.55509266  0.55114432  1
  F  F33  1  0.66386349  0.44490734  0.55114432  1
  F  F34  1  0.16386349  0.05509266  0.44885568  1
  F  F35  1  0.83613651  0.94490734  0.44885568  1
  F  F36  1  0.00000000  0.50000000  0.00000000  1
  F  F37  1  0.50000000  -0.00000000  -0.00000000  1
  F  F38  1  0.00000000  0.50000000  0.39484195  1
  F  F39  1  0.50000000  -0.00000000  0.60515805  1
  F  F40  1  0.00000000  0.50000000  0.60515805  1
  F  F41  1  0.50000000  -0.00000000  0.39484195  1
  F  F42  1  0.91445675  0.27424552  0.50000000  1
  F  F43  1  0.08554325  0.72575448  0.50000000  1
  F  F44  1  0.58554325  0.77424552  0.50000000  1
  F  F45  1  0.41445675  0.22575448  0.50000000  1
  F  F46  1  0.00000000  0.00000000  0.50000000  1
  F  F47  1  0.50000000  0.50000000  0.50000000  1
  Li  Li48  1  0.31741368  0.90182417  0.15192578  1
  Li  Li49  1  0.68258632  0.09817583  0.15192578  1
  Li  Li50  1  0.18258632  0.40182417  0.84807422  1
  Li  Li51  1  0.81741368  0.59817583  0.84807422  1
  Li  Li52  1  0.68258632  0.09817583  0.84807422  1
  Li  Li53  1  0.31741368  0.90182417  0.84807422  1
  Li  Li54  1  0.81741368  0.59817583  0.15192578  1
  Li  Li55  1  0.18258632  0.40182417  0.15192578  1
  Si  Si56  1  0.83504979  0.37746464  0.26906262  1
  Si  Si57  1  -0.83504979  -0.37746464  0.26906262  1
  Si  Si58  1  -0.33504979  0.87746464  -0.26906262  1
  Si  Si59  1  1.33504979  0.12253536  -0.26906262  1
  Si  Si60  1  -0.83504979  -0.37746464  -0.26906262  1
  Si  Si61  1  0.83504979  0.37746464  -0.26906262  1
  Si  Si62  1  1.33504979  0.12253536  0.26906262  1
  Si  Si63  1  -0.33504979  0.87746464  0.26906262  1
  Si  Si64  1  0.36771653  0.28602229  -0.00000000  1
  Si  Si65  1  0.63228347  0.71397771  -0.00000000  1
  Si  Si66  1  0.13228347  0.78602229  0.00000000  1
  Si  Si67  1  0.86771653  0.21397771  -0.00000000  1
  Si  Si68  1  0.00000000  0.50000000  0.50000000  1
  Si  Si69  1  0.50000000  -0.00000000  0.50000000  1
  Si  Si70  1  0.00000000  0.00000000  0.00000000  1
  Si  Si71  1  0.50000000  0.50000000  0.00000000  1
  Te  Te72  1  0.61781042  0.19764304  0.42049981  1
  Te  Te73  1  0.38218958  0.80235696  0.42049981  1
  Te  Te74  1  0.88218958  0.69764304  0.57950019  1
  Te  Te75  1  0.11781042  0.30235696  0.57950019  1
  Te  Te76  1  0.38218958  0.80235696  0.57950019  1
  Te  Te77  1  0.61781042  0.19764304  0.57950019  1
  Te  Te78  1  0.11781042  0.30235696  0.42049981  1
  Te  Te79  1  0.88218958  0.69764304  0.42049981  1
  Te  Te80  1  0.54346370  0.64927048  0.50000000  1
  Te  Te81  1  0.45653630  0.35072952  0.50000000  1
  Te  Te82  1  0.95653630  0.14927048  0.50000000  1
  Te  Te83  1  0.04346370  0.85072952  0.50000000  1
