# generated using pymatgen
data_LiF
_symmetry_space_group_name_H-M   'P 1'
_cell_length_a   12.02355779
_cell_length_b   12.02355779
_cell_length_c   5.95238641
_cell_angle_alpha   90.00000000
_cell_angle_beta   90.00000000
_cell_angle_gamma   120.00000000
_symmetry_Int_Tables_number   1
_chemical_formula_structural   LiF
_chemical_formula_sum   'Li36 F36'
_cell_volume   745.22555332
_cell_formula_units_Z   36
loop_
 _symmetry_equiv_pos_site_id
 _symmetry_equiv_pos_as_xyz
  1  'x, y, z'
loop_
 _atom_site_type_symbol
 _atom_site_label
 _atom_site_symmetry_multiplicity
 _atom_site_fract_x
 _atom_site_fract_y
 _atom_site_fract_z
 _atom_site_occupancy
  F  F0  1  0.00000000  0.00000000  0.00000000  1
  F  F1  1  0.00000000  0.00000000  0.50000000  1
  F  F2  1  0.66666667  0.33333333  0.33333333  1
  F  F3  1  0.66666667  0.33333333  0.83333333  1
  F  F4  1  0.33333333  0.66666667  0.66666667  1
  F  F5  1  0.33333333  0.66666667  0.16666667  1
  F  F6  1  0.50000000  0.00000000  0.00000000  1
  F  F7  1  0.00000000  0.50000000  0.00000000  1
  F  F8  1  0.50000000  0.50000000  0.00000000  1
  F  F9  1  0.00000000  0.50000000  0.50000000  1
  F  F10  1  0.50000000  0.00000000  0.50000000  1
  F  F11  1  0.50000000  0.50000000  0.50000000  1
  F  F12  1  0.16666667  0.33333333  0.33333333  1
  F  F13  1  0.66666667  0.83333333  0.33333333  1
  F  F14  1  0.16666667  0.83333333  0.33333333  1
  F  F15  1  0.66666667  0.83333333  0.83333333  1
  F  F16  1  0.16666667  0.33333333  0.83333333  1
  F  F17  1  0.16666667  0.83333333  0.83333333  1
  F  F18  1  0.83333333  0.66666667  0.66666667  1
  F  F19  1  0.33333333  0.16666667  0.66666667  1
  F  F20  1  0.83333333  0.16666667  0.66666667  1
  F  F21  1  0.33333333  0.16666667  0.16666667  1
  F  F22  1  0.83333333  0.66666667  0.16666667  1
  F  F23  1  0.83333333  0.16666667  0.16666667  1
  F  F24  1  0.00000000  0.00000000  0.30367716  1
  F  F25  1  0.00000000  0.00000000  0.19632284  1
  F  F26  1  0.00000000  0.00000000  0.69632284  1
  F  F27  1  0.00000000  0.00000000  0.80367716  1
  F  F28  1  0.66666667  0.33333333  0.63701049  1
  F  F29  1  0.66666667  0.33333333  0.52965617  1
  F  F30  1  0.66666667  0.33333333  0.02965617  1
  F  F31  1  0.66666667  0.33333333  0.13701049  1
  F  F32  1  0.33333333  0.66666667  0.97034383  1
  F  F33  1  0.33333333  0.66666667  0.86298951  1
  F  F34  1  0.33333333  0.66666667  0.36298951  1
  F  F35  1  0.33333333  0.66666667  0.47034383  1
  Li  Li36  1  0.50197368  0.89965060  0.57052714  1
  Li  Li37  1  -0.89965060  -0.39767692  0.57052714  1
  Li  Li38  1  0.39767692  -0.50197368  0.57052714  1
  Li  Li39  1  0.89965060  0.50197368  -0.07052714  1
  Li  Li40  1  -0.39767692  -0.89965060  -0.07052714  1
  Li  Li41  1  -0.50197368  0.39767692  -0.07052714  1
  Li  Li42  1  -0.50197368  -0.89965060  -0.57052714  1
  Li  Li43  1  0.89965060  0.39767692  -0.57052714  1
  Li  Li44  1  -0.39767692  0.50197368  -0.57052714  1
  Li  Li45  1  -0.89965060  -0.50197368  1.07052714  1
  Li  Li46  1  0.39767692  0.89965060  1.07052714  1
  Li  Li47  1  0.50197368  -0.39767692  1.07052714  1
  Li  Li48  1  1.16864035  1.23298393  0.90386048  1
  Li  Li49  1  -0.23298393  -0.06434359  0.90386048  1
  Li  Li50  1  1.06434359  -0.16864035  0.90386048  1
  Li  Li51  1  1.56631727  0.83530701  0.26280619  1
  Li  Li52  1  0.26898975  -0.56631727  0.26280619  1
  Li  Li53  1  0.16469299  0.73101025  0.26280619  1
  Li  Li54  1  0.16469299  -0.56631727  -0.23719381  1
  Li  Li55  1  1.56631727  0.73101025  -0.23719381  1
  Li  Li56  1  0.26898975  0.83530701  -0.23719381  1
  Li  Li57  1  -0.23298393  -0.16864035  1.40386048  1
  Li  Li58  1  1.06434359  1.23298393  1.40386048  1
  Li  Li59  1  1.16864035  -0.06434359  1.40386048  1
  Li  Li60  1  0.83530701  1.56631727  1.23719381  1
  Li  Li61  1  -0.56631727  0.26898975  1.23719381  1
  Li  Li62  1  0.73101025  0.16469299  1.23719381  1
  Li  Li63  1  1.23298393  1.16864035  0.59613952  1
  Li  Li64  1  -0.06434359  -0.23298393  0.59613952  1
  Li  Li65  1  -0.16864035  1.06434359  0.59613952  1
  Li  Li66  1  -0.16864035  -0.23298393  0.09613952  1
  Li  Li67  1  1.23298393  1.06434359  0.09613952  1
  Li  Li68  1  -0.06434359  1.16864035  0.09613952  1
  Li  Li69  1  -0.56631727  0.16469299  1.73719381  1
  Li  Li70  1  0.73101025  1.56631727  1.73719381  1
  Li  Li71  1  0.83530701  0.26898975  1.73719381  1
