# generated using pymatgen
data_LiY2Cu3P2
_symmetry_space_group_name_H-M   'P 1'
_cell_length_a   4.53248998
_cell_length_b   4.77055513
_cell_length_c   6.82484868
_cell_angle_alpha   95.48981048
_cell_angle_beta   101.60256521
_cell_angle_gamma   111.49663146
_symmetry_Int_Tables_number   1
_chemical_formula_structural   LiY2Cu3P2
_chemical_formula_sum   'Li1 Y2 Cu3 P2'
_cell_volume   132.15678215
_cell_formula_units_Z   1
loop_
 _symmetry_equiv_pos_site_id
 _symmetry_equiv_pos_as_xyz
  1  'x, y, z'
loop_
 _atom_site_type_symbol
 _atom_site_label
 _atom_site_symmetry_multiplicity
 _atom_site_fract_x
 _atom_site_fract_y
 _atom_site_fract_z
 _atom_site_occupancy
  Cu  Cu0  1  0.00000000  0.00000000  0.00000000  1
  Cu  Cu1  1  0.33300000  0.66700000  0.25000000  1
  Cu  Cu2  1  0.66700000  0.33300000  0.50000000  1
  P  P3  1  0.00000000  0.00000000  0.75000000  1
  P  P4  1  0.92182582  0.57650445  0.40554984  1
  Li  Li5  1  0.28776365  0.82918065  0.43261497  1
  Y  Y6  1  0.27737307  0.22923704  0.14632141  1
  Y  Y7  1  0.90884857  0.24238049  0.84288230  1
