# generated using pymatgen
data_LiF
_symmetry_space_group_name_H-M   'P 1'
_cell_length_a   21.33576550
_cell_length_b   21.33576550
_cell_length_c   7.40538980
_cell_angle_alpha   90.00000000
_cell_angle_beta   90.00000000
_cell_angle_gamma   120.00000000
_symmetry_Int_Tables_number   1
_chemical_formula_structural   LiF
_chemical_formula_sum   'Li108 F108'
_cell_volume   2919.40948248
_cell_formula_units_Z   108
loop_
 _symmetry_equiv_pos_site_id
 _symmetry_equiv_pos_as_xyz
  1  'x, y, z'
loop_
 _atom_site_type_symbol
 _atom_site_label
 _atom_site_symmetry_multiplicity
 _atom_site_fract_x
 _atom_site_fract_y
 _atom_site_fract_z
 _atom_site_occupancy
  F  F0  1  0.00000000  0.00000000  0.10451763  1
  F  F1  1  0.00000000  0.00000000  0.39548237  1
  F  F2  1  0.00000000  0.00000000  0.89548237  1
  F  F3  1  0.00000000  0.00000000  0.60451763  1
  F  F4  1  0.66666667  0.33333333  0.43785096  1
  F  F5  1  0.66666667  0.33333333  0.72881570  1
  F  F6  1  0.66666667  0.33333333  0.22881570  1
  F  F7  1  0.66666667  0.33333333  0.93785096  1
  F  F8  1  0.33333333  0.66666667  0.77118430  1
  F  F9  1  0.33333333  0.66666667  0.06214904  1
  F  F10  1  0.33333333  0.66666667  0.56214904  1
  F  F11  1  0.33333333  0.66666667  0.27118430  1
  F  F12  1  0.78672499  0.50468014  0.26217846  1
  F  F13  1  0.49531986  0.28204485  0.26217846  1
  F  F14  1  0.71795515  0.21327501  0.26217846  1
  F  F15  1  0.50468014  0.78672499  0.23782154  1
  F  F16  1  0.28204485  0.49531986  0.23782154  1
  F  F17  1  0.21327501  0.71795515  0.23782154  1
  F  F18  1  0.21327501  0.49531986  0.73782154  1
  F  F19  1  0.50468014  0.71795515  0.73782154  1
  F  F20  1  0.28204485  0.78672499  0.73782154  1
  F  F21  1  0.49531986  0.21327501  0.76217846  1
  F  F22  1  0.71795515  0.50468014  0.76217846  1
  F  F23  1  0.78672499  0.28204485  0.76217846  1
  F  F24  1  0.45339165  0.83801347  0.59551179  1
  F  F25  1  0.16198653  0.61537818  0.59551179  1
  F  F26  1  0.38462182  0.54660835  0.59551179  1
  F  F27  1  0.17134680  0.12005832  0.57115487  1
  F  F28  1  0.94871152  0.82865320  0.57115487  1
  F  F29  1  0.87994168  0.05128848  0.57115487  1
  F  F30  1  0.87994168  0.82865320  0.07115487  1
  F  F31  1  0.17134680  0.05128848  0.07115487  1
  F  F32  1  0.94871152  0.12005832  0.07115487  1
  F  F33  1  0.16198653  0.54660835  0.09551179  1
  F  F34  1  0.38462182  0.83801347  0.09551179  1
  F  F35  1  0.45339165  0.61537818  0.09551179  1
  F  F36  1  0.12005832  0.17134680  0.92884513  1
  F  F37  1  0.82865320  0.94871152  0.92884513  1
  F  F38  1  0.05128848  0.87994168  0.92884513  1
  F  F39  1  0.83801347  0.45339165  0.90448821  1
  F  F40  1  0.61537818  0.16198653  0.90448821  1
  F  F41  1  0.54660835  0.38462182  0.90448821  1
  F  F42  1  0.54660835  0.16198653  0.40448821  1
  F  F43  1  0.83801347  0.38462182  0.40448821  1
  F  F44  1  0.61537818  0.45339165  0.40448821  1
  F  F45  1  0.82865320  0.87994168  0.42884513  1
  F  F46  1  0.05128848  0.17134680  0.42884513  1
  F  F47  1  0.12005832  0.94871152  0.42884513  1
  F  F48  1  0.00000000  0.00000000  0.25000000  1
  F  F49  1  0.00000000  0.00000000  0.75000000  1
  F  F50  1  0.66666667  0.33333333  0.58333333  1
  F  F51  1  0.66666667  0.33333333  0.08333333  1
  F  F52  1  0.33333333  0.66666667  0.91666667  1
  F  F53  1  0.33333333  0.66666667  0.41666667  1
  F  F54  1  0.50000000  0.00000000  0.00000000  1
  F  F55  1  0.00000000  0.50000000  0.00000000  1
  F  F56  1  0.50000000  0.50000000  0.00000000  1
  F  F57  1  0.00000000  0.50000000  0.50000000  1
  F  F58  1  0.50000000  0.00000000  0.50000000  1
  F  F59  1  0.50000000  0.50000000  0.50000000  1
  F  F60  1  0.16666667  0.33333333  0.33333333  1
  F  F61  1  0.66666667  0.83333333  0.33333333  1
  F  F62  1  0.16666667  0.83333333  0.33333333  1
  F  F63  1  0.66666667  0.83333333  0.83333333  1
  F  F64  1  0.16666667  0.33333333  0.83333333  1
  F  F65  1  0.16666667  0.83333333  0.83333333  1
  F  F66  1  0.83333333  0.66666667  0.66666667  1
  F  F67  1  0.33333333  0.16666667  0.66666667  1
  F  F68  1  0.83333333  0.16666667  0.66666667  1
  F  F69  1  0.33333333  0.16666667  0.16666667  1
  F  F70  1  0.83333333  0.66666667  0.16666667  1
  F  F71  1  0.83333333  0.16666667  0.16666667  1
  F  F72  1  0.30854188  0.60062185  0.85499739  1
  F  F73  1  0.39937815  0.70792002  0.85499739  1
  F  F74  1  0.29207998  0.69145812  0.85499739  1
  F  F75  1  0.60062185  0.30854188  0.64500261  1
  F  F76  1  0.70792002  0.39937815  0.64500261  1
  F  F77  1  0.69145812  0.29207998  0.64500261  1
  F  F78  1  0.69145812  0.39937815  0.14500261  1
  F  F79  1  0.60062185  0.29207998  0.14500261  1
  F  F80  1  0.70792002  0.30854188  0.14500261  1
  F  F81  1  0.39937815  0.69145812  0.35499739  1
  F  F82  1  0.29207998  0.60062185  0.35499739  1
  F  F83  1  0.30854188  0.70792002  0.35499739  1
  F  F84  1  0.97520854  0.93395519  0.18833072  1
  F  F85  1  0.06604481  0.04125336  0.18833072  1
  F  F86  1  0.95874664  0.02479146  0.18833072  1
  F  F87  1  0.26728852  0.64187521  0.97833595  1
  F  F88  1  0.37458669  0.73271148  0.97833595  1
  F  F89  1  0.35812479  0.62541331  0.97833595  1
  F  F90  1  0.35812479  0.73271148  0.47833595  1
  F  F91  1  0.26728852  0.62541331  0.47833595  1
  F  F92  1  0.37458669  0.64187521  0.47833595  1
  F  F93  1  0.06604481  0.02479146  0.68833072  1
  F  F94  1  0.95874664  0.93395519  0.68833072  1
  F  F95  1  0.97520854  0.04125336  0.68833072  1
  F  F96  1  0.64187521  0.26728852  0.52166405  1
  F  F97  1  0.73271148  0.37458669  0.52166405  1
  F  F98  1  0.62541331  0.35812479  0.52166405  1
  F  F99  1  0.93395519  0.97520854  0.31166928  1
  F  F100  1  0.04125336  0.06604481  0.31166928  1
  F  F101  1  0.02479146  0.95874664  0.31166928  1
  F  F102  1  0.02479146  0.06604481  0.81166928  1
  F  F103  1  0.93395519  0.95874664  0.81166928  1
  F  F104  1  0.04125336  0.97520854  0.81166928  1
  F  F105  1  0.73271148  0.35812479  0.02166405  1
  F  F106  1  0.62541331  0.26728852  0.02166405  1
  F  F107  1  0.64187521  0.37458669  0.02166405  1
  Li  Li108  1  0.30370807  0.15830067  0.29894153  1
  Li  Li109  1  -0.15830067  0.14540740  0.29894153  1
  Li  Li110  1  -0.14540740  -0.30370807  0.29894153  1
  Li  Li111  1  0.15830067  0.30370807  0.20105847  1
  Li  Li112  1  0.14540740  -0.15830067  0.20105847  1
  Li  Li113  1  -0.30370807  -0.14540740  0.20105847  1
  Li  Li114  1  -0.30370807  -0.15830067  -0.29894153  1
  Li  Li115  1  0.15830067  -0.14540740  -0.29894153  1
  Li  Li116  1  0.14540740  0.30370807  -0.29894153  1
  Li  Li117  1  -0.15830067  -0.30370807  0.79894153  1
  Li  Li118  1  -0.14540740  0.15830067  0.79894153  1
  Li  Li119  1  0.30370807  0.14540740  0.79894153  1
  Li  Li120  1  0.97037474  0.49163400  0.63227486  1
  Li  Li121  1  0.50836600  0.47874074  0.63227486  1
  Li  Li122  1  0.52125926  0.02962526  0.63227486  1
  Li  Li123  1  0.82496734  0.63704141  0.53439180  1
  Li  Li124  1  0.81207407  0.17503266  0.53439180  1
  Li  Li125  1  0.36295859  0.18792593  0.53439180  1
  Li  Li126  1  0.36295859  0.17503266  0.03439180  1
  Li  Li127  1  0.82496734  0.18792593  0.03439180  1
  Li  Li128  1  0.81207407  0.63704141  0.03439180  1
  Li  Li129  1  0.50836600  0.02962526  1.13227486  1
  Li  Li130  1  0.52125926  0.49163400  1.13227486  1
  Li  Li131  1  0.97037474  0.47874074  1.13227486  1
  Li  Li132  1  0.63704141  0.82496734  0.96560820  1
  Li  Li133  1  0.17503266  0.81207407  0.96560820  1
  Li  Li134  1  0.18792593  0.36295859  0.96560820  1
  Li  Li135  1  0.49163400  0.97037474  0.86772514  1
  Li  Li136  1  0.47874074  0.50836600  0.86772514  1
  Li  Li137  1  0.02962526  0.52125926  0.86772514  1
  Li  Li138  1  0.02962526  0.50836600  0.36772514  1
  Li  Li139  1  0.49163400  0.52125926  0.36772514  1
  Li  Li140  1  0.47874074  0.97037474  0.36772514  1
  Li  Li141  1  0.17503266  0.36295859  1.46560820  1
  Li  Li142  1  0.18792593  0.82496734  1.46560820  1
  Li  Li143  1  0.63704141  0.81207407  1.46560820  1
  Li  Li144  1  0.16958422  0.80256376  0.64720728  1
  Li  Li145  1  0.19743624  0.36702046  0.64720728  1
  Li  Li146  1  0.63297954  0.83041578  0.64720728  1
  Li  Li147  1  0.80256376  0.16958422  0.85279272  1
  Li  Li148  1  0.36702046  0.19743624  0.85279272  1
  Li  Li149  1  0.83041578  0.63297954  0.85279272  1
  Li  Li150  1  0.83041578  0.19743624  0.35279272  1
  Li  Li151  1  0.80256376  0.63297954  0.35279272  1
  Li  Li152  1  0.36702046  0.16958422  0.35279272  1
  Li  Li153  1  0.19743624  0.83041578  0.14720728  1
  Li  Li154  1  0.63297954  0.80256376  0.14720728  1
  Li  Li155  1  0.16958422  0.36702046  0.14720728  1
  Li  Li156  1  0.83625089  0.13589709  0.98054062  1
  Li  Li157  1  0.86410291  0.70035380  0.98054062  1
  Li  Li158  1  0.29964620  0.16374911  0.98054062  1
  Li  Li159  1  0.46923043  0.50291756  0.18612605  1
  Li  Li160  1  0.03368713  0.53076957  0.18612605  1
  Li  Li161  1  0.49708244  0.96631287  0.18612605  1
  Li  Li162  1  0.49708244  0.53076957  0.68612605  1
  Li  Li163  1  0.46923043  0.96631287  0.68612605  1
  Li  Li164  1  0.03368713  0.50291756  0.68612605  1
  Li  Li165  1  0.86410291  0.16374911  0.48054062  1
  Li  Li166  1  0.29964620  0.13589709  0.48054062  1
  Li  Li167  1  0.83625089  0.70035380  0.48054062  1
  Li  Li168  1  0.50291756  0.46923043  0.31387395  1
  Li  Li169  1  0.53076957  0.03368713  0.31387395  1
  Li  Li170  1  0.96631287  0.49708244  0.31387395  1
  Li  Li171  1  0.13589709  0.83625089  0.51945938  1
  Li  Li172  1  0.70035380  0.86410291  0.51945938  1
  Li  Li173  1  0.16374911  0.29964620  0.51945938  1
  Li  Li174  1  0.16374911  0.86410291  0.01945938  1
  Li  Li175  1  0.13589709  0.29964620  0.01945938  1
  Li  Li176  1  0.70035380  0.83625089  0.01945938  1
  Li  Li177  1  0.53076957  0.49708244  0.81387395  1
  Li  Li178  1  0.96631287  0.46923043  0.81387395  1
  Li  Li179  1  0.50291756  0.03368713  0.81387395  1
  Li  Li180  1  0.37654251  0.88010925  0.53792561  1
  Li  Li181  1  0.11989075  0.49643326  0.53792561  1
  Li  Li182  1  0.50356674  0.62345749  0.53792561  1
  Li  Li183  1  0.88010925  0.37654251  0.96207439  1
  Li  Li184  1  0.49643326  0.11989075  0.96207439  1
  Li  Li185  1  0.62345749  0.50356674  0.96207439  1
  Li  Li186  1  0.62345749  0.11989075  0.46207439  1
  Li  Li187  1  0.88010925  0.50356674  0.46207439  1
  Li  Li188  1  0.49643326  0.37654251  0.46207439  1
  Li  Li189  1  0.11989075  0.62345749  0.03792561  1
  Li  Li190  1  0.50356674  0.88010925  0.03792561  1
  Li  Li191  1  0.37654251  0.49643326  0.03792561  1
  Li  Li192  1  0.04320918  0.21344259  0.87125894  1
  Li  Li193  1  0.78655741  0.82976659  0.87125894  1
  Li  Li194  1  0.17023341  0.95679082  0.87125894  1
  Li  Li195  1  0.54677592  0.70987584  0.29540772  1
  Li  Li196  1  0.16309992  0.45322408  0.29540772  1
  Li  Li197  1  0.29012416  0.83690008  0.29540772  1
  Li  Li198  1  0.29012416  0.45322408  0.79540772  1
  Li  Li199  1  0.54677592  0.83690008  0.79540772  1
  Li  Li200  1  0.16309992  0.70987584  0.79540772  1
  Li  Li201  1  0.78655741  0.95679082  0.37125894  1
  Li  Li202  1  0.17023341  0.21344259  0.37125894  1
  Li  Li203  1  0.04320918  0.82976659  0.37125894  1
  Li  Li204  1  0.70987584  0.54677592  0.20459228  1
  Li  Li205  1  0.45322408  0.16309992  0.20459228  1
  Li  Li206  1  0.83690008  0.29012416  0.20459228  1
  Li  Li207  1  0.21344259  0.04320918  0.62874106  1
  Li  Li208  1  0.82976659  0.78655741  0.62874106  1
  Li  Li209  1  0.95679082  0.17023341  0.62874106  1
  Li  Li210  1  0.95679082  0.78655741  0.12874106  1
  Li  Li211  1  0.21344259  0.17023341  0.12874106  1
  Li  Li212  1  0.82976659  0.04320918  0.12874106  1
  Li  Li213  1  0.45322408  0.29012416  0.70459228  1
  Li  Li214  1  0.83690008  0.54677592  0.70459228  1
  Li  Li215  1  0.70987584  0.16309992  0.70459228  1
