# generated using pymatgen
data_LiF
_symmetry_space_group_name_H-M   'P 1'
_cell_length_a   9.80408453
_cell_length_b   9.80408453
_cell_length_c   16.30836047
_cell_angle_alpha   90.00000000
_cell_angle_beta   90.00000000
_cell_angle_gamma   90.00000000
_symmetry_Int_Tables_number   1
_chemical_formula_structural   LiF
_chemical_formula_sum   'Li64 F64'
_cell_volume   1567.56080811
_cell_formula_units_Z   64
loop_
 _symmetry_equiv_pos_site_id
 _symmetry_equiv_pos_as_xyz
  1  'x, y, z'
loop_
 _atom_site_type_symbol
 _atom_site_label
 _atom_site_symmetry_multiplicity
 _atom_site_fract_x
 _atom_site_fract_y
 _atom_site_fract_z
 _atom_site_occupancy
  F  F0  1  0.00000000  0.25000000  0.12500000  1
  F  F1  1  0.00000000  0.75000000  0.37500000  1
  F  F2  1  0.00000000  0.75000000  0.87500000  1
  F  F3  1  0.00000000  0.25000000  0.62500000  1
  F  F4  1  0.50000000  0.75000000  0.62500000  1
  F  F5  1  0.50000000  0.25000000  0.87500000  1
  F  F6  1  0.50000000  0.25000000  0.37500000  1
  F  F7  1  0.50000000  0.75000000  0.12500000  1
  F  F8  1  0.00429836  -0.00000000  0.25000000  1
  F  F9  1  0.49570164  0.00000000  0.75000000  1
  F  F10  1  0.25000000  0.75429836  0.50000000  1
  F  F11  1  0.25000000  0.24570164  0.00000000  1
  F  F12  1  0.99570164  0.00000000  0.75000000  1
  F  F13  1  0.50429836  -0.00000000  0.25000000  1
  F  F14  1  0.75000000  0.24570164  0.50000000  1
  F  F15  1  0.75000000  0.75429836  0.00000000  1
  F  F16  1  0.50429836  0.50000000  0.75000000  1
  F  F17  1  0.99570164  0.50000000  0.25000000  1
  F  F18  1  0.75000000  0.25429836  0.00000000  1
  F  F19  1  0.75000000  0.74570164  0.50000000  1
  F  F20  1  0.49570164  0.50000000  0.25000000  1
  F  F21  1  0.00429836  0.50000000  0.75000000  1
  F  F22  1  0.25000000  0.74570164  0.00000000  1
  F  F23  1  0.25000000  0.25429836  0.50000000  1
  F  F24  1  0.94428278  0.50469633  0.49984786  1
  F  F25  1  -0.44428278  -0.50469633  0.99984786  1
  F  F26  1  -0.25469633  1.69428278  0.74984786  1
  F  F27  1  0.75469633  -0.69428278  1.24984786  1
  F  F28  1  -0.44428278  0.50469633  -0.49984786  1
  F  F29  1  0.94428278  -0.50469633  0.00015214  1
  F  F30  1  0.75469633  1.69428278  0.25015214  1
  F  F31  1  -0.25469633  -0.69428278  -0.24984786  1
  F  F32  1  -0.94428278  -0.50469633  -0.49984786  1
  F  F33  1  1.44428278  0.50469633  0.00015214  1
  F  F34  1  1.25469633  -0.69428278  0.25015214  1
  F  F35  1  0.24530367  1.69428278  -0.24984786  1
  F  F36  1  1.44428278  -0.50469633  0.49984786  1
  F  F37  1  -0.94428278  0.50469633  0.99984786  1
  F  F38  1  0.24530367  -0.69428278  0.74984786  1
  F  F39  1  1.25469633  1.69428278  1.24984786  1
  F  F40  1  1.44428278  1.00469633  0.99984786  1
  F  F41  1  0.05571722  -0.00469633  1.49984786  1
  F  F42  1  0.24530367  2.19428278  1.24984786  1
  F  F43  1  1.25469633  -0.19428278  1.74984786  1
  F  F44  1  0.05571722  1.00469633  0.00015214  1
  F  F45  1  1.44428278  -0.00469633  0.50015214  1
  F  F46  1  1.25469633  2.19428278  0.75015214  1
  F  F47  1  0.24530367  -0.19428278  0.25015214  1
  F  F48  1  -0.44428278  -0.00469633  0.00015214  1
  F  F49  1  1.94428278  1.00469633  0.50015214  1
  F  F50  1  1.75469633  -0.19428278  0.75015214  1
  F  F51  1  0.74530367  2.19428278  0.25015214  1
  F  F52  1  1.94428278  -0.00469633  0.99984786  1
  F  F53  1  -0.44428278  1.00469633  1.49984786  1
  F  F54  1  0.74530367  -0.19428278  1.24984786  1
  F  F55  1  1.75469633  2.19428278  1.74984786  1
  F  F56  1  0.00000000  0.25000000  0.37500000  1
  F  F57  1  0.00000000  0.75000000  0.62500000  1
  F  F58  1  0.50000000  0.25000000  0.62500000  1
  F  F59  1  0.50000000  0.75000000  0.37500000  1
  F  F60  1  0.50000000  0.75000000  0.87500000  1
  F  F61  1  0.50000000  0.25000000  0.12500000  1
  F  F62  1  0.00000000  0.75000000  0.12500000  1
  F  F63  1  0.00000000  0.25000000  0.87500000  1
  Li  Li64  1  0.10466071  0.98288636  0.55102578  1
  Li  Li65  1  0.39533929  0.01711364  0.05102578  1
  Li  Li66  1  0.26711364  0.85466071  0.80102578  1
  Li  Li67  1  0.23288636  0.14533929  0.30102578  1
  Li  Li68  1  0.39533929  0.98288636  0.44897422  1
  Li  Li69  1  0.10466071  0.01711364  0.94897422  1
  Li  Li70  1  0.23288636  0.85466071  0.19897422  1
  Li  Li71  1  0.26711364  0.14533929  0.69897422  1
  Li  Li72  1  0.89533929  0.01711364  0.44897422  1
  Li  Li73  1  0.60466071  0.98288636  0.94897422  1
  Li  Li74  1  0.73288636  0.14533929  0.19897422  1
  Li  Li75  1  0.76711364  0.85466071  0.69897422  1
  Li  Li76  1  0.60466071  0.01711364  0.55102578  1
  Li  Li77  1  0.89533929  0.98288636  0.05102578  1
  Li  Li78  1  0.76711364  0.14533929  0.80102578  1
  Li  Li79  1  0.73288636  0.85466071  0.30102578  1
  Li  Li80  1  0.60466071  0.48288636  0.05102578  1
  Li  Li81  1  0.89533929  0.51711364  0.55102578  1
  Li  Li82  1  0.76711364  0.35466071  0.30102578  1
  Li  Li83  1  0.73288636  0.64533929  0.80102578  1
  Li  Li84  1  0.89533929  0.48288636  0.94897422  1
  Li  Li85  1  0.60466071  0.51711364  0.44897422  1
  Li  Li86  1  0.73288636  0.35466071  0.69897422  1
  Li  Li87  1  0.76711364  0.64533929  0.19897422  1
  Li  Li88  1  0.39533929  0.51711364  0.94897422  1
  Li  Li89  1  0.10466071  0.48288636  0.44897422  1
  Li  Li90  1  0.23288636  0.64533929  0.69897422  1
  Li  Li91  1  0.26711364  0.35466071  0.19897422  1
  Li  Li92  1  0.10466071  0.51711364  0.05102578  1
  Li  Li93  1  0.39533929  0.48288636  0.55102578  1
  Li  Li94  1  0.26711364  0.64533929  0.30102578  1
  Li  Li95  1  0.23288636  0.35466071  0.80102578  1
  Li  Li96  1  0.70451822  0.48309737  0.57089447  1
  Li  Li97  1  0.79548178  0.51690263  0.07089447  1
  Li  Li98  1  0.76690263  0.45451822  0.82089447  1
  Li  Li99  1  0.73309737  0.54548178  0.32089447  1
  Li  Li100  1  0.79548178  0.48309737  0.42910553  1
  Li  Li101  1  0.70451822  0.51690263  0.92910553  1
  Li  Li102  1  0.73309737  0.45451822  0.17910553  1
  Li  Li103  1  0.76690263  0.54548178  0.67910553  1
  Li  Li104  1  0.29548178  0.51690263  0.42910553  1
  Li  Li105  1  0.20451822  0.48309737  0.92910553  1
  Li  Li106  1  0.23309737  0.54548178  0.17910553  1
  Li  Li107  1  0.26690263  0.45451822  0.67910553  1
  Li  Li108  1  0.20451822  0.51690263  0.57089447  1
  Li  Li109  1  0.29548178  0.48309737  0.07089447  1
  Li  Li110  1  0.26690263  0.54548178  0.82089447  1
  Li  Li111  1  0.23309737  0.45451822  0.32089447  1
  Li  Li112  1  0.20451822  0.98309737  0.07089447  1
  Li  Li113  1  0.29548178  0.01690263  0.57089447  1
  Li  Li114  1  0.26690263  0.95451822  0.32089447  1
  Li  Li115  1  0.23309737  0.04548178  0.82089447  1
  Li  Li116  1  0.29548178  0.98309737  0.92910553  1
  Li  Li117  1  0.20451822  0.01690263  0.42910553  1
  Li  Li118  1  0.23309737  0.95451822  0.67910553  1
  Li  Li119  1  0.26690263  0.04548178  0.17910553  1
  Li  Li120  1  0.79548178  0.01690263  0.92910553  1
  Li  Li121  1  0.70451822  0.98309737  0.42910553  1
  Li  Li122  1  0.73309737  0.04548178  0.67910553  1
  Li  Li123  1  0.76690263  0.95451822  0.17910553  1
  Li  Li124  1  0.70451822  0.01690263  0.07089447  1
  Li  Li125  1  0.79548178  0.98309737  0.57089447  1
  Li  Li126  1  0.76690263  0.04548178  0.32089447  1
  Li  Li127  1  0.73309737  0.95451822  0.82089447  1
