# generated using pymatgen
data_LiF
_symmetry_space_group_name_H-M   'P 1'
_cell_length_a   6.97150447
_cell_length_b   4.48661821
_cell_length_c   4.64702713
_cell_angle_alpha   90.00000000
_cell_angle_beta   90.00000000
_cell_angle_gamma   90.00000000
_symmetry_Int_Tables_number   1
_chemical_formula_structural   LiF
_chemical_formula_sum   'Li10 F10'
_cell_volume   145.35193988
_cell_formula_units_Z   10
loop_
 _symmetry_equiv_pos_site_id
 _symmetry_equiv_pos_as_xyz
  1  'x, y, z'
loop_
 _atom_site_type_symbol
 _atom_site_label
 _atom_site_symmetry_multiplicity
 _atom_site_fract_x
 _atom_site_fract_y
 _atom_site_fract_z
 _atom_site_occupancy
  F  F0  1  0.32428462  0.47606331  0.74724908  1
  F  F1  1  -0.32428462  -0.47606331  0.74724908  1
  F  F2  1  0.17571538  0.97606331  -0.24724908  1
  F  F3  1  0.82428462  0.02393669  -0.24724908  1
  F  F4  1  -0.32428462  -0.47606331  -0.74724908  1
  F  F5  1  0.32428462  0.47606331  -0.74724908  1
  F  F6  1  0.82428462  0.02393669  1.24724908  1
  F  F7  1  0.17571538  0.97606331  1.24724908  1
  F  F8  1  0.00000000  0.50000000  0.00000000  1
  F  F9  1  0.50000000  0.00000000  0.50000000  1
  Li  Li10  1  0.00000000  0.00000000  0.00000000  1
  Li  Li11  1  0.50000000  0.50000000  0.50000000  1
  Li  Li12  1  0.57886928  0.77651534  0.23473110  1
  Li  Li13  1  0.42113072  0.22348466  0.23473110  1
  Li  Li14  1  0.92113072  0.27651534  0.26526890  1
  Li  Li15  1  0.07886928  0.72348466  0.26526890  1
  Li  Li16  1  0.42113072  0.22348466  0.76526890  1
  Li  Li17  1  0.57886928  0.77651534  0.76526890  1
  Li  Li18  1  0.07886928  0.72348466  0.73473110  1
  Li  Li19  1  0.92113072  0.27651534  0.73473110  1
