# generated using pymatgen
data_LiF
_symmetry_space_group_name_H-M   'P 1'
_cell_length_a   9.13683495
_cell_length_b   5.78090008
_cell_length_c   9.65492755
_cell_angle_alpha   90.00000000
_cell_angle_beta   90.00000000
_cell_angle_gamma   90.00000000
_symmetry_Int_Tables_number   1
_chemical_formula_structural   LiF
_chemical_formula_sum   'Li22 F22'
_cell_volume   509.96487278
_cell_formula_units_Z   22
loop_
 _symmetry_equiv_pos_site_id
 _symmetry_equiv_pos_as_xyz
  1  'x, y, z'
loop_
 _atom_site_type_symbol
 _atom_site_label
 _atom_site_symmetry_multiplicity
 _atom_site_fract_x
 _atom_site_fract_y
 _atom_site_fract_z
 _atom_site_occupancy
  F  F0  1  0.35757733  0.32154899  0.60924225  1
  F  F1  1  0.64242267  0.67845101  0.60924225  1
  F  F2  1  0.14242267  0.82154899  0.39075775  1
  F  F3  1  0.85757733  0.17845101  0.39075775  1
  F  F4  1  0.64242267  0.67845101  0.39075775  1
  F  F5  1  0.35757733  0.32154899  0.39075775  1
  F  F6  1  0.85757733  0.17845101  0.60924225  1
  F  F7  1  0.14242267  0.82154899  0.60924225  1
  F  F8  1  0.00000000  0.00000000  0.00000000  1
  F  F9  1  0.50000000  0.50000000  0.00000000  1
  F  F10  1  0.00000000  0.50000000  0.00000000  1
  F  F11  1  0.50000000  0.00000000  0.00000000  1
  F  F12  1  0.79407236  0.12146114  0.21559402  1
  F  F13  1  0.20592764  0.87853886  0.21559402  1
  F  F14  1  0.70592764  0.62146114  0.78440598  1
  F  F15  1  0.29407236  0.37853886  0.78440598  1
  F  F16  1  0.20592764  0.87853886  0.78440598  1
  F  F17  1  0.79407236  0.12146114  0.78440598  1
  F  F18  1  0.29407236  0.37853886  0.21559402  1
  F  F19  1  0.70592764  0.62146114  0.21559402  1
  F  F20  1  0.00000000  0.50000000  0.50000000  1
  F  F21  1  0.50000000  0.00000000  0.50000000  1
  Li  Li22  1  0.88619617  0.70444096  0.16007440  1
  Li  Li23  1  -0.88619617  -0.70444096  0.16007440  1
  Li  Li24  1  -0.38619617  1.20444096  -0.16007440  1
  Li  Li25  1  1.38619617  -0.20444096  -0.16007440  1
  Li  Li26  1  -0.88619617  -0.70444096  -0.16007440  1
  Li  Li27  1  0.88619617  0.70444096  -0.16007440  1
  Li  Li28  1  1.38619617  -0.20444096  0.16007440  1
  Li  Li29  1  -0.38619617  1.20444096  0.16007440  1
  Li  Li30  1  0.57745988  0.85165107  0.00000000  1
  Li  Li31  1  0.42254012  0.14834893  -0.00000000  1
  Li  Li32  1  0.92254012  0.35165107  -0.00000000  1
  Li  Li33  1  0.07745988  0.64834893  -0.00000000  1
  Li  Li34  1  0.00000000  0.00000000  0.50000000  1
  Li  Li35  1  0.50000000  0.50000000  0.50000000  1
  Li  Li36  1  0.00000000  0.00000000  0.65455136  1
  Li  Li37  1  0.50000000  0.50000000  0.34544864  1
  Li  Li38  1  0.00000000  0.00000000  0.34544864  1
  Li  Li39  1  0.50000000  0.50000000  0.65455136  1
  Li  Li40  1  0.26148905  0.09445540  0.00000000  1
  Li  Li41  1  0.73851095  0.90554460  -0.00000000  1
  Li  Li42  1  0.23851095  0.59445540  -0.00000000  1
  Li  Li43  1  0.76148905  0.40554460  0.00000000  1
