# generated using pymatgen
data_LiF
_symmetry_space_group_name_H-M   'P 1'
_cell_length_a   6.69437179
_cell_length_b   6.69437179
_cell_length_c   8.79080692
_cell_angle_alpha   90.00000000
_cell_angle_beta   90.00000000
_cell_angle_gamma   120.00000000
_symmetry_Int_Tables_number   1
_chemical_formula_structural   LiF
_chemical_formula_sum   'Li16 F16'
_cell_volume   341.17643768
_cell_formula_units_Z   16
loop_
 _symmetry_equiv_pos_site_id
 _symmetry_equiv_pos_as_xyz
  1  'x, y, z'
loop_
 _atom_site_type_symbol
 _atom_site_label
 _atom_site_symmetry_multiplicity
 _atom_site_fract_x
 _atom_site_fract_y
 _atom_site_fract_z
 _atom_site_occupancy
  F  F0  1  0.33333333  0.66666667  0.50000000  1
  F  F1  1  0.33333333  0.66666667  0.00000000  1
  F  F2  1  0.66666667  0.33333333  0.39752060  1
  F  F3  1  0.66666667  0.33333333  0.60247940  1
  F  F4  1  0.19846293  0.06426395  0.04729560  1
  F  F5  1  0.93573605  0.13419898  0.04729560  1
  F  F6  1  0.86580102  0.80153707  0.04729560  1
  F  F7  1  0.93573605  0.80153707  0.95270440  1
  F  F8  1  0.86580102  0.06426395  0.95270440  1
  F  F9  1  0.19846293  0.13419898  0.95270440  1
  F  F10  1  0.73587070  0.09088478  0.94711508  1
  F  F11  1  0.90911522  0.64498592  0.94711508  1
  F  F12  1  0.35501408  0.26412930  0.94711508  1
  F  F13  1  0.90911522  0.26412930  0.05288492  1
  F  F14  1  0.35501408  0.09088478  0.05288492  1
  F  F15  1  0.73587070  0.64498592  0.05288492  1
  Li  Li16  1  0.19110854  0.94396657  0.34040064  1
  Li  Li17  1  -0.94396657  -0.75285802  0.34040064  1
  Li  Li18  1  0.75285802  -0.19110854  0.34040064  1
  Li  Li19  1  -0.94396657  -0.19110854  -0.34040064  1
  Li  Li20  1  0.75285802  0.94396657  -0.34040064  1
  Li  Li21  1  0.19110854  -0.75285802  -0.34040064  1
  Li  Li22  1  0.00000000  0.00000000  0.28375504  1
  Li  Li23  1  0.00000000  0.00000000  0.71624496  1
  Li  Li24  1  0.00000000  0.00000000  0.50000000  1
  Li  Li25  1  0.95681936  0.19579346  0.58012727  1
  Li  Li26  1  0.80420654  0.76102590  0.58012727  1
  Li  Li27  1  0.23897410  0.04318064  0.58012727  1
  Li  Li28  1  0.80420654  0.04318064  0.41987273  1
  Li  Li29  1  0.23897410  0.19579346  0.41987273  1
  Li  Li30  1  0.95681936  0.76102590  0.41987273  1
  Li  Li31  1  0.00000000  0.00000000  0.00000000  1
