# generated using pymatgen
data_LiF
_symmetry_space_group_name_H-M   'P 1'
_cell_length_a   8.36691323
_cell_length_b   9.95578827
_cell_length_c   9.44343489
_cell_angle_alpha   90.00000000
_cell_angle_beta   90.00000000
_cell_angle_gamma   90.00000000
_symmetry_Int_Tables_number   1
_chemical_formula_structural   LiF
_chemical_formula_sum   'Li32 F32'
_cell_volume   786.63072873
_cell_formula_units_Z   32
loop_
 _symmetry_equiv_pos_site_id
 _symmetry_equiv_pos_as_xyz
  1  'x, y, z'
loop_
 _atom_site_type_symbol
 _atom_site_label
 _atom_site_symmetry_multiplicity
 _atom_site_fract_x
 _atom_site_fract_y
 _atom_site_fract_z
 _atom_site_occupancy
  F  F0  1  0.11277272  0.93948352  0.68759484  1
  F  F1  1  0.38722728  0.06051648  0.18759484  1
  F  F2  1  0.88722728  0.43948352  0.31240516  1
  F  F3  1  0.61277272  0.56051648  0.81240516  1
  F  F4  1  0.88722728  0.06051648  0.31240516  1
  F  F5  1  0.61277272  0.93948352  0.81240516  1
  F  F6  1  0.11277272  0.56051648  0.68759484  1
  F  F7  1  0.38722728  0.43948352  0.18759484  1
  F  F8  1  0.78653139  0.05881997  0.92390026  1
  F  F9  1  0.71346861  0.94118003  0.42390026  1
  F  F10  1  0.21346861  0.55881997  0.07609974  1
  F  F11  1  0.28653139  0.44118003  0.57609974  1
  F  F12  1  0.21346861  0.94118003  0.07609974  1
  F  F13  1  0.28653139  0.05881997  0.57609974  1
  F  F14  1  0.78653139  0.44118003  0.92390026  1
  F  F15  1  0.71346861  0.55881997  0.42390026  1
  F  F16  1  0.81976599  0.25000000  0.85221055  1
  F  F17  1  0.68023401  0.75000000  0.35221055  1
  F  F18  1  0.18023401  0.75000000  0.14778945  1
  F  F19  1  0.31976599  0.25000000  0.64778945  1
  F  F20  1  0.59948810  0.31368120  0.10520033  1
  F  F21  1  0.90051190  0.68631880  0.60520033  1
  F  F22  1  0.40051190  0.81368120  0.89479967  1
  F  F23  1  0.09948810  0.18631880  0.39479967  1
  F  F24  1  0.40051190  0.68631880  0.89479967  1
  F  F25  1  0.09948810  0.31368120  0.39479967  1
  F  F26  1  0.59948810  0.18631880  0.10520033  1
  F  F27  1  0.90051190  0.81368120  0.60520033  1
  F  F28  1  0.00000000  0.00000000  0.50000000  1
  F  F29  1  0.50000000  0.00000000  0.00000000  1
  F  F30  1  0.00000000  0.50000000  0.50000000  1
  F  F31  1  0.50000000  0.50000000  0.00000000  1
  Li  Li32  1  0.72653572  0.46423880  0.01032275  1
  Li  Li33  1  -0.22653572  -0.46423880  0.51032275  1
  Li  Li34  1  -0.72653572  0.96423880  -0.01032275  1
  Li  Li35  1  1.22653572  0.03576120  0.48967725  1
  Li  Li36  1  -0.72653572  -0.46423880  -0.01032275  1
  Li  Li37  1  1.22653572  0.46423880  0.48967725  1
  Li  Li38  1  0.72653572  0.03576120  0.01032275  1
  Li  Li39  1  -0.22653572  0.96423880  0.51032275  1
  Li  Li40  1  0.00000000  0.00000000  0.00000000  1
  Li  Li41  1  0.50000000  0.00000000  0.50000000  1
  Li  Li42  1  0.00000000  0.50000000  0.00000000  1
  Li  Li43  1  0.50000000  0.50000000  0.50000000  1
  Li  Li44  1  0.55953657  0.38662976  0.81489977  1
  Li  Li45  1  0.94046343  0.61337024  0.31489977  1
  Li  Li46  1  0.44046343  0.88662976  0.18510023  1
  Li  Li47  1  0.05953657  0.11337024  0.68510023  1
  Li  Li48  1  0.44046343  0.61337024  0.18510023  1
  Li  Li49  1  0.05953657  0.38662976  0.68510023  1
  Li  Li50  1  0.55953657  0.11337024  0.81489977  1
  Li  Li51  1  0.94046343  0.88662976  0.31489977  1
  Li  Li52  1  0.30641808  0.16873575  0.95573224  1
  Li  Li53  1  0.19358192  0.83126425  0.45573224  1
  Li  Li54  1  0.69358192  0.66873575  0.04426776  1
  Li  Li55  1  0.80641808  0.33126425  0.54426776  1
  Li  Li56  1  0.69358192  0.83126425  0.04426776  1
  Li  Li57  1  0.80641808  0.16873575  0.54426776  1
  Li  Li58  1  0.30641808  0.33126425  0.95573224  1
  Li  Li59  1  0.19358192  0.66873575  0.45573224  1
  Li  Li60  1  0.90071140  0.25000000  0.93800863  1
  Li  Li61  1  0.59928860  0.75000000  0.43800863  1
  Li  Li62  1  0.09928860  0.75000000  0.06199137  1
  Li  Li63  1  0.40071140  0.25000000  0.56199137  1
