# generated using pymatgen
data_LiCaF3
_symmetry_space_group_name_H-M   'P 1'
_cell_length_a   8.57357262
_cell_length_b   8.57357262
_cell_length_c   27.89213675
_cell_angle_alpha   90.00000000
_cell_angle_beta   90.00000000
_cell_angle_gamma   120.00000000
_symmetry_Int_Tables_number   1
_chemical_formula_structural   LiCaF3
_chemical_formula_sum   'Li18 Ca18 F54'
_cell_volume   1775.56297020
_cell_formula_units_Z   18
loop_
 _symmetry_equiv_pos_site_id
 _symmetry_equiv_pos_as_xyz
  1  'x, y, z'
loop_
 _atom_site_type_symbol
 _atom_site_label
 _atom_site_symmetry_multiplicity
 _atom_site_fract_x
 _atom_site_fract_y
 _atom_site_fract_z
 _atom_site_occupancy
  Ca  Ca0  1  0.50000000  -0.00000000  0.00000000  1
  Ca  Ca1  1  0.00000000  0.50000000  0.00000000  1
  Ca  Ca2  1  0.50000000  0.50000000  0.00000000  1
  Ca  Ca3  1  0.00000000  0.50000000  0.50000000  1
  Ca  Ca4  1  0.50000000  -0.00000000  0.50000000  1
  Ca  Ca5  1  0.50000000  0.50000000  0.50000000  1
  Ca  Ca6  1  0.16666667  0.33333333  0.33333333  1
  Ca  Ca7  1  0.66666667  0.83333333  0.33333333  1
  Ca  Ca8  1  0.16666667  0.83333333  0.33333333  1
  Ca  Ca9  1  0.66666667  0.83333333  0.83333333  1
  Ca  Ca10  1  0.16666667  0.33333333  0.83333333  1
  Ca  Ca11  1  0.16666667  0.83333333  0.83333333  1
  Ca  Ca12  1  0.83333333  0.66666667  0.66666667  1
  Ca  Ca13  1  0.33333333  0.16666667  0.66666667  1
  Ca  Ca14  1  0.83333333  0.16666667  0.66666667  1
  Ca  Ca15  1  0.33333333  0.16666667  0.16666667  1
  Ca  Ca16  1  0.83333333  0.66666667  0.16666667  1
  Ca  Ca17  1  0.83333333  0.16666667  0.16666667  1
  F  F18  1  0.44727013  -0.00000000  0.25000000  1
  F  F19  1  0.00000000  0.44727013  0.25000000  1
  F  F20  1  0.55272987  0.55272987  0.25000000  1
  F  F21  1  0.55272987  -0.00000000  0.75000000  1
  F  F22  1  0.00000000  0.55272987  0.75000000  1
  F  F23  1  0.44727013  0.44727013  0.75000000  1
  F  F24  1  0.11393680  0.33333333  0.58333333  1
  F  F25  1  0.66666667  0.78060347  0.58333333  1
  F  F26  1  0.21939653  0.88606320  0.58333333  1
  F  F27  1  0.21939653  0.33333333  0.08333333  1
  F  F28  1  0.66666667  0.88606320  0.08333333  1
  F  F29  1  0.11393680  0.78060347  0.08333333  1
  F  F30  1  0.78060347  0.66666667  0.91666667  1
  F  F31  1  0.33333333  0.11393680  0.91666667  1
  F  F32  1  0.88606320  0.21939653  0.91666667  1
  F  F33  1  0.88606320  0.66666667  0.41666667  1
  F  F34  1  0.33333333  0.21939653  0.41666667  1
  F  F35  1  0.78060347  0.11393680  0.41666667  1
  F  F36  1  0.71261999  0.48714096  0.02348445  1
  F  F37  1  -0.48714096  0.22547903  0.02348445  1
  F  F38  1  -0.22547903  -0.71261999  0.02348445  1
  F  F39  1  0.48714096  0.71261999  0.47651555  1
  F  F40  1  0.22547903  -0.48714096  0.47651555  1
  F  F41  1  -0.71261999  -0.22547903  0.47651555  1
  F  F42  1  -0.71261999  -0.48714096  -0.02348445  1
  F  F43  1  0.48714096  -0.22547903  -0.02348445  1
  F  F44  1  0.22547903  0.71261999  -0.02348445  1
  F  F45  1  -0.48714096  -0.71261999  0.52348445  1
  F  F46  1  -0.22547903  0.48714096  0.52348445  1
  F  F47  1  0.71261999  0.22547903  0.52348445  1
  F  F48  1  1.37928665  0.82047429  0.35681778  1
  F  F49  1  0.17952571  0.55881236  0.35681778  1
  F  F50  1  0.44118764  -0.37928665  0.35681778  1
  F  F51  1  1.15380763  1.04595332  0.80984888  1
  F  F52  1  0.89214569  -0.15380763  0.80984888  1
  F  F53  1  -0.04595332  0.10785431  0.80984888  1
  F  F54  1  -0.04595332  -0.15380763  0.30984888  1
  F  F55  1  1.15380763  0.10785431  0.30984888  1
  F  F56  1  0.89214569  1.04595332  0.30984888  1
  F  F57  1  0.17952571  -0.37928665  0.85681778  1
  F  F58  1  0.44118764  0.82047429  0.85681778  1
  F  F59  1  1.37928665  0.55881236  0.85681778  1
  F  F60  1  1.04595332  1.15380763  0.69015112  1
  F  F61  1  -0.15380763  0.89214569  0.69015112  1
  F  F62  1  0.10785431  -0.04595332  0.69015112  1
  F  F63  1  0.82047429  1.37928665  1.14318222  1
  F  F64  1  0.55881236  0.17952571  1.14318222  1
  F  F65  1  -0.37928665  0.44118764  1.14318222  1
  F  F66  1  -0.37928665  0.17952571  0.64318222  1
  F  F67  1  0.82047429  0.44118764  0.64318222  1
  F  F68  1  0.55881236  1.37928665  0.64318222  1
  F  F69  1  -0.15380763  -0.04595332  1.19015112  1
  F  F70  1  0.10785431  1.15380763  1.19015112  1
  F  F71  1  1.04595332  0.89214569  1.19015112  1
  Li  Li72  1  0.33688703  -0.00000000  0.25000000  1
  Li  Li73  1  0.00000000  0.33688703  0.25000000  1
  Li  Li74  1  0.66311297  0.66311297  0.25000000  1
  Li  Li75  1  0.66311297  0.00000000  0.75000000  1
  Li  Li76  1  0.00000000  0.66311297  0.75000000  1
  Li  Li77  1  0.33688703  0.33688703  0.75000000  1
  Li  Li78  1  0.00355370  0.33333333  0.58333333  1
  Li  Li79  1  0.66666667  0.67022037  0.58333333  1
  Li  Li80  1  0.32977963  0.99644630  0.58333333  1
  Li  Li81  1  0.32977963  0.33333333  0.08333333  1
  Li  Li82  1  0.66666667  0.99644630  0.08333333  1
  Li  Li83  1  0.00355370  0.67022037  0.08333333  1
  Li  Li84  1  0.67022037  0.66666667  0.91666667  1
  Li  Li85  1  0.33333333  0.00355370  0.91666667  1
  Li  Li86  1  0.99644630  0.32977963  0.91666667  1
  Li  Li87  1  0.99644630  0.66666667  0.41666667  1
  Li  Li88  1  0.33333333  0.32977963  0.41666667  1
  Li  Li89  1  0.67022037  0.00355370  0.41666667  1
