# generated using pymatgen
data_Li2Y2As2P4Se
_symmetry_space_group_name_H-M   'P 1'
_cell_length_a   5.30499947
_cell_length_b   5.34250699
_cell_length_c   7.43227707
_cell_angle_alpha   94.30075558
_cell_angle_beta   99.36615155
_cell_angle_gamma   107.27442587
_symmetry_Int_Tables_number   1
_chemical_formula_structural   Li2Y2As2P4Se
_chemical_formula_sum   'Li2 Y2 As2 P4 Se1'
_cell_volume   196.75516710
_cell_formula_units_Z   1
loop_
 _symmetry_equiv_pos_site_id
 _symmetry_equiv_pos_as_xyz
  1  'x, y, z'
loop_
 _atom_site_type_symbol
 _atom_site_label
 _atom_site_symmetry_multiplicity
 _atom_site_fract_x
 _atom_site_fract_y
 _atom_site_fract_z
 _atom_site_occupancy
  Se  Se0  1  0.00000000  0.00000000  0.00000000  1
  Y  Y1  1  0.50000000  0.50000000  0.50000000  1
  Y  Y2  1  0.25000000  0.25000000  0.25000000  1
  P  P3  1  0.75000000  0.25000000  0.00000000  1
  P  P4  1  0.25000000  0.75000000  0.50000000  1
  P  P5  1  0.95757279  0.81964777  0.30258970  1
  P  P6  1  0.99663190  0.61980711  0.32140553  1
  As  As7  1  0.30999634  0.66619708  0.77760187  1
  As  As8  1  0.99016684  0.73368449  0.73073002  1
  Li  Li9  1  0.60520452  0.81572663  0.98084575  1
  Li  Li10  1  0.54429037  0.10511506  0.97746506  1
