# generated using pymatgen
data_LiF
_symmetry_space_group_name_H-M   'P 1'
_cell_length_a   4.66449027
_cell_length_b   5.32888778
_cell_length_c   5.21517954
_cell_angle_alpha   90.00000000
_cell_angle_beta   90.00000000
_cell_angle_gamma   90.00000000
_symmetry_Int_Tables_number   1
_chemical_formula_structural   LiF
_chemical_formula_sum   'Li4 F4'
_cell_volume   129.63134600
_cell_formula_units_Z   4
loop_
 _symmetry_equiv_pos_site_id
 _symmetry_equiv_pos_as_xyz
  1  'x, y, z'
loop_
 _atom_site_type_symbol
 _atom_site_label
 _atom_site_symmetry_multiplicity
 _atom_site_fract_x
 _atom_site_fract_y
 _atom_site_fract_z
 _atom_site_occupancy
  F  F0  1  0.76961888  0.76647804  0.00000000  1
  F  F1  1  -0.76961888  -0.76647804  -0.00000000  1
  F  F2  1  -0.26961888  1.26647804  0.00000000  1
  F  F3  1  1.26961888  -0.26647804  0.00000000  1
  Li  Li4  1  0.97172245  0.63560778  0.00000000  1
  Li  Li5  1  0.02827755  0.36439222  0.00000000  1
  Li  Li6  1  0.52827755  0.13560778  0.00000000  1
  Li  Li7  1  0.47172245  0.86439222  0.00000000  1
