# generated using pymatgen
data_LiF
_symmetry_space_group_name_H-M   'P 1'
_cell_length_a   7.34467525
_cell_length_b   7.34467525
_cell_length_c   10.32128091
_cell_angle_alpha   90.00000000
_cell_angle_beta   90.00000000
_cell_angle_gamma   120.00000000
_symmetry_Int_Tables_number   1
_chemical_formula_structural   LiF
_chemical_formula_sum   'Li17 F17'
_cell_volume   482.18025859
_cell_formula_units_Z   17
loop_
 _symmetry_equiv_pos_site_id
 _symmetry_equiv_pos_as_xyz
  1  'x, y, z'
loop_
 _atom_site_type_symbol
 _atom_site_label
 _atom_site_symmetry_multiplicity
 _atom_site_fract_x
 _atom_site_fract_y
 _atom_site_fract_z
 _atom_site_occupancy
  F  F0  1  0.33333333  0.66666667  0.10155275  1
  F  F1  1  0.33333333  0.66666667  0.89844725  1
  F  F2  1  0.79597410  0.65978194  0.55741939  1
  F  F3  1  0.34021806  0.13619216  0.55741939  1
  F  F4  1  0.86380784  0.20402590  0.55741939  1
  F  F5  1  0.34021806  0.20402590  0.44258061  1
  F  F6  1  0.86380784  0.65978194  0.44258061  1
  F  F7  1  0.79597410  0.13619216  0.44258061  1
  F  F8  1  0.00000000  0.00000000  0.12922266  1
  F  F9  1  0.00000000  0.00000000  0.87077734  1
  F  F10  1  0.00000000  0.00000000  0.00000000  1
  F  F11  1  0.01142493  0.57645929  0.37143607  1
  F  F12  1  0.42354071  0.43496564  0.37143607  1
  F  F13  1  0.56503436  0.98857507  0.37143607  1
  F  F14  1  0.42354071  0.98857507  0.62856393  1
  F  F15  1  0.56503436  0.57645929  0.62856393  1
  F  F16  1  0.01142493  0.43496564  0.62856393  1
  Li  Li17  1  0.78735647  0.79474188  0.54811044  1
  Li  Li18  1  -0.79474188  -0.00738540  0.54811044  1
  Li  Li19  1  0.00738540  -0.78735647  0.54811044  1
  Li  Li20  1  -0.79474188  -0.78735647  -0.54811044  1
  Li  Li21  1  0.00738540  0.79474188  -0.54811044  1
  Li  Li22  1  0.78735647  -0.00738540  -0.54811044  1
  Li  Li23  1  0.16599742  0.43362953  0.18188781  1
  Li  Li24  1  0.56637047  0.73236790  0.18188781  1
  Li  Li25  1  0.26763210  0.83400258  0.18188781  1
  Li  Li26  1  0.56637047  0.83400258  0.81811219  1
  Li  Li27  1  0.26763210  0.43362953  0.81811219  1
  Li  Li28  1  0.16599742  0.73236790  0.81811219  1
  Li  Li29  1  0.66666667  0.33333333  -0.00000000  1
  Li  Li30  1  0.33333333  0.66666667  0.00000000  1
  Li  Li31  1  0.66666667  0.33333333  0.73138303  1
  Li  Li32  1  0.66666667  0.33333333  0.26861697  1
  Li  Li33  1  0.33333333  0.66666667  0.50000000  1
