# generated using pymatgen
data_LiF
_symmetry_space_group_name_H-M   'P 1'
_cell_length_a   17.49476957
_cell_length_b   11.63376391
_cell_length_c   10.88544566
_cell_angle_alpha   90.00000000
_cell_angle_beta   90.00000000
_cell_angle_gamma   90.00000000
_symmetry_Int_Tables_number   1
_chemical_formula_structural   LiF
_chemical_formula_sum   'Li56 F56'
_cell_volume   2215.51496097
_cell_formula_units_Z   56
loop_
 _symmetry_equiv_pos_site_id
 _symmetry_equiv_pos_as_xyz
  1  'x, y, z'
loop_
 _atom_site_type_symbol
 _atom_site_label
 _atom_site_symmetry_multiplicity
 _atom_site_fract_x
 _atom_site_fract_y
 _atom_site_fract_z
 _atom_site_occupancy
  F  F0  1  0.13322349  0.84952107  0.98946016  1
  F  F1  1  0.36677651  0.15047893  0.48946016  1
  F  F2  1  0.86677651  0.34952107  0.01053984  1
  F  F3  1  0.63322349  0.65047893  0.51053984  1
  F  F4  1  0.86677651  0.15047893  0.01053984  1
  F  F5  1  0.63322349  0.84952107  0.51053984  1
  F  F6  1  0.13322349  0.65047893  0.98946016  1
  F  F7  1  0.36677651  0.34952107  0.48946016  1
  F  F8  1  0.71371691  0.36412723  0.62869219  1
  F  F9  1  0.78628309  0.63587277  0.12869219  1
  F  F10  1  0.28628309  0.86412723  0.37130781  1
  F  F11  1  0.21371691  0.13587277  0.87130781  1
  F  F12  1  0.28628309  0.63587277  0.37130781  1
  F  F13  1  0.21371691  0.36412723  0.87130781  1
  F  F14  1  0.71371691  0.13587277  0.62869219  1
  F  F15  1  0.78628309  0.86412723  0.12869219  1
  F  F16  1  0.85967094  0.61005477  0.67986749  1
  F  F17  1  0.64032906  0.38994523  0.17986749  1
  F  F18  1  0.14032906  0.11005477  0.32013251  1
  F  F19  1  0.35967094  0.88994523  0.82013251  1
  F  F20  1  0.14032906  0.38994523  0.32013251  1
  F  F21  1  0.35967094  0.61005477  0.82013251  1
  F  F22  1  0.85967094  0.88994523  0.67986749  1
  F  F23  1  0.64032906  0.11005477  0.17986749  1
  F  F24  1  0.66588194  0.25000000  0.33262665  1
  F  F25  1  0.83411806  0.75000000  0.83262665  1
  F  F26  1  0.33411806  0.75000000  0.66737335  1
  F  F27  1  0.16588194  0.25000000  0.16737335  1
  F  F28  1  0.41792091  0.88774035  0.17024907  1
  F  F29  1  0.08207909  0.11225965  0.67024907  1
  F  F30  1  0.58207909  0.38774035  0.82975093  1
  F  F31  1  0.91792091  0.61225965  0.32975093  1
  F  F32  1  0.58207909  0.11225965  0.82975093  1
  F  F33  1  0.91792091  0.88774035  0.32975093  1
  F  F34  1  0.41792091  0.61225965  0.17024907  1
  F  F35  1  0.08207909  0.38774035  0.67024907  1
  F  F36  1  0.56334356  0.88148595  0.19479656  1
  F  F37  1  0.93665644  0.11851405  0.69479656  1
  F  F38  1  0.43665644  0.38148595  0.80520344  1
  F  F39  1  0.06334356  0.61851405  0.30520344  1
  F  F40  1  0.43665644  0.11851405  0.80520344  1
  F  F41  1  0.06334356  0.88148595  0.30520344  1
  F  F42  1  0.56334356  0.61851405  0.19479656  1
  F  F43  1  0.93665644  0.38148595  0.69479656  1
  F  F44  1  0.57267360  0.54454201  0.89791373  1
  F  F45  1  0.92732640  0.45545799  0.39791373  1
  F  F46  1  0.42732640  0.04454201  0.10208627  1
  F  F47  1  0.07267360  0.95545799  0.60208627  1
  F  F48  1  0.42732640  0.45545799  0.10208627  1
  F  F49  1  0.07267360  0.54454201  0.60208627  1
  F  F50  1  0.57267360  0.95545799  0.89791373  1
  F  F51  1  0.92732640  0.04454201  0.39791373  1
  F  F52  1  0.00000000  0.00000000  0.50000000  1
  F  F53  1  0.50000000  0.00000000  0.00000000  1
  F  F54  1  0.00000000  0.50000000  0.50000000  1
  F  F55  1  0.50000000  0.50000000  -0.00000000  1
  Li  Li56  1  0.43623398  0.54095460  0.50388671  1
  Li  Li57  1  0.06376602  -0.54095460  1.00388671  1
  Li  Li58  1  -0.43623398  1.04095460  -0.50388671  1
  Li  Li59  1  0.93623398  -0.04095460  -0.00388671  1
  Li  Li60  1  -0.43623398  -0.54095460  -0.50388671  1
  Li  Li61  1  0.93623398  0.54095460  -0.00388671  1
  Li  Li62  1  0.43623398  -0.04095460  0.50388671  1
  Li  Li63  1  0.06376602  1.04095460  1.00388671  1
  Li  Li64  1  0.24631452  0.25000000  0.96062810  1
  Li  Li65  1  0.25368548  0.75000000  0.46062810  1
  Li  Li66  1  0.75368548  0.75000000  0.03937190  1
  Li  Li67  1  0.74631452  0.25000000  0.53937190  1
  Li  Li68  1  0.94381099  0.25000000  0.00912040  1
  Li  Li69  1  0.55618901  0.75000000  0.50912040  1
  Li  Li70  1  0.05618901  0.75000000  0.99087960  1
  Li  Li71  1  0.44381099  0.25000000  0.49087960  1
  Li  Li72  1  0.25538787  0.25000000  0.28609669  1
  Li  Li73  1  0.24461213  0.75000000  0.78609669  1
  Li  Li74  1  0.74461213  0.75000000  0.71390331  1
  Li  Li75  1  0.75538787  0.25000000  0.21390331  1
  Li  Li76  1  0.89488561  0.33276426  0.14406275  1
  Li  Li77  1  0.60511439  0.66723574  0.64406275  1
  Li  Li78  1  0.10511439  0.83276426  0.85593725  1
  Li  Li79  1  0.39488561  0.16723574  0.35593725  1
  Li  Li80  1  0.10511439  0.66723574  0.85593725  1
  Li  Li81  1  0.39488561  0.33276426  0.35593725  1
  Li  Li82  1  0.89488561  0.16723574  0.14406275  1
  Li  Li83  1  0.60511439  0.83276426  0.64406275  1
  Li  Li84  1  0.81421426  0.25000000  0.34504404  1
  Li  Li85  1  0.68578574  0.75000000  0.84504404  1
  Li  Li86  1  0.18578574  0.75000000  0.65495596  1
  Li  Li87  1  0.31421426  0.25000000  0.15495596  1
  Li  Li88  1  0.46896677  0.04227105  0.21724635  1
  Li  Li89  1  0.03103323  0.95772895  0.71724635  1
  Li  Li90  1  0.53103323  0.54227105  0.78275365  1
  Li  Li91  1  0.96896677  0.45772895  0.28275365  1
  Li  Li92  1  0.53103323  0.95772895  0.78275365  1
  Li  Li93  1  0.96896677  0.04227105  0.28275365  1
  Li  Li94  1  0.46896677  0.45772895  0.21724635  1
  Li  Li95  1  0.03103323  0.54227105  0.71724635  1
  Li  Li96  1  0.06641374  0.16004324  0.36858022  1
  Li  Li97  1  0.43358626  0.83995676  0.86858022  1
  Li  Li98  1  0.93358626  0.66004324  0.63141978  1
  Li  Li99  1  0.56641374  0.33995676  0.13141978  1
  Li  Li100  1  0.93358626  0.83995676  0.63141978  1
  Li  Li101  1  0.56641374  0.16004324  0.13141978  1
  Li  Li102  1  0.06641374  0.33995676  0.36858022  1
  Li  Li103  1  0.43358626  0.66004324  0.86858022  1
  Li  Li104  1  0.88615726  0.80703421  0.13310832  1
  Li  Li105  1  0.61384274  0.19296579  0.63310832  1
  Li  Li106  1  0.11384274  0.30703421  0.86689168  1
  Li  Li107  1  0.38615726  0.69296579  0.36689168  1
  Li  Li108  1  0.11384274  0.19296579  0.86689168  1
  Li  Li109  1  0.38615726  0.80703421  0.36689168  1
  Li  Li110  1  0.88615726  0.69296579  0.13310832  1
  Li  Li111  1  0.61384274  0.30703421  0.63310832  1
