# generated using pymatgen
data_Li2Ca3F8
_symmetry_space_group_name_H-M   'P 1'
_cell_length_a   12.35486384
_cell_length_b   10.69402855
_cell_length_c   12.97643670
_cell_angle_alpha   90.00000000
_cell_angle_beta   90.00000000
_cell_angle_gamma   90.00000000
_symmetry_Int_Tables_number   1
_chemical_formula_structural   Li2Ca3F8
_chemical_formula_sum   'Li16 Ca24 F64'
_cell_volume   1714.48920613
_cell_formula_units_Z   8
loop_
 _symmetry_equiv_pos_site_id
 _symmetry_equiv_pos_as_xyz
  1  'x, y, z'
loop_
 _atom_site_type_symbol
 _atom_site_label
 _atom_site_symmetry_multiplicity
 _atom_site_fract_x
 _atom_site_fract_y
 _atom_site_fract_z
 _atom_site_occupancy
  Ca  Ca0  1  0.80508984  0.00875032  0.36905167  1
  Ca  Ca1  1  0.19491016  0.99124968  0.36905167  1
  Ca  Ca2  1  0.69491016  0.50875032  0.63094833  1
  Ca  Ca3  1  0.30508984  0.49124968  0.63094833  1
  Ca  Ca4  1  0.19491016  0.99124968  0.63094833  1
  Ca  Ca5  1  0.80508984  0.00875032  0.63094833  1
  Ca  Ca6  1  0.30508984  0.49124968  0.36905167  1
  Ca  Ca7  1  0.69491016  0.50875032  0.36905167  1
  Ca  Ca8  1  0.69768977  0.69255124  0.86937914  1
  Ca  Ca9  1  0.30231023  0.30744876  0.86937914  1
  Ca  Ca10  1  0.80231023  0.19255124  0.13062086  1
  Ca  Ca11  1  0.19768977  0.80744876  0.13062086  1
  Ca  Ca12  1  0.30231023  0.30744876  0.13062086  1
  Ca  Ca13  1  0.69768977  0.69255124  0.13062086  1
  Ca  Ca14  1  0.19768977  0.80744876  0.86937914  1
  Ca  Ca15  1  0.80231023  0.19255124  0.86937914  1
  Ca  Ca16  1  0.00000000  0.00000000  0.67702921  1
  Ca  Ca17  1  0.50000000  0.50000000  0.32297079  1
  Ca  Ca18  1  0.00000000  0.00000000  0.32297079  1
  Ca  Ca19  1  0.50000000  0.50000000  0.67702921  1
  Ca  Ca20  1  0.29492405  0.08638551  0.50000000  1
  Ca  Ca21  1  0.70507595  0.91361449  0.50000000  1
  Ca  Ca22  1  0.20507595  0.58638551  0.50000000  1
  Ca  Ca23  1  0.79492405  0.41361449  0.50000000  1
  F  F24  1  0.00000000  0.50000000  0.19609043  1
  F  F25  1  0.50000000  0.00000000  0.80390957  1
  F  F26  1  0.00000000  0.50000000  0.80390957  1
  F  F27  1  0.50000000  0.00000000  0.19609043  1
  F  F28  1  0.56022967  0.67121588  0.15303655  1
  F  F29  1  -0.56022967  -0.67121588  0.15303655  1
  F  F30  1  -0.06022967  1.17121588  -0.15303655  1
  F  F31  1  1.06022967  -0.17121588  -0.15303655  1
  F  F32  1  -0.56022967  -0.67121588  -0.15303655  1
  F  F33  1  0.56022967  0.67121588  -0.15303655  1
  F  F34  1  1.06022967  -0.17121588  0.15303655  1
  F  F35  1  -0.06022967  1.17121588  0.15303655  1
  F  F36  1  0.77058587  0.61363529  0.02323239  1
  F  F37  1  0.22941413  0.38636471  0.02323239  1
  F  F38  1  0.72941413  0.11363529  0.97676761  1
  F  F39  1  0.27058587  0.88636471  0.97676761  1
  F  F40  1  0.22941413  0.38636471  0.97676761  1
  F  F41  1  0.77058587  0.61363529  0.97676761  1
  F  F42  1  0.27058587  0.88636471  0.02323239  1
  F  F43  1  0.72941413  0.11363529  0.02323239  1
  F  F44  1  0.58902764  0.82194611  0.06155028  1
  F  F45  1  0.41097236  0.17805389  0.06155028  1
  F  F46  1  0.91097236  0.32194611  0.93844972  1
  F  F47  1  0.08902764  0.67805389  0.93844972  1
  F  F48  1  0.41097236  0.17805389  0.93844972  1
  F  F49  1  0.58902764  0.82194611  0.93844972  1
  F  F50  1  0.08902764  0.67805389  0.06155028  1
  F  F51  1  0.91097236  0.32194611  0.06155028  1
  F  F52  1  0.83103762  0.35710203  0.29257475  1
  F  F53  1  0.16896238  0.64289797  0.29257475  1
  F  F54  1  0.66896238  0.85710203  0.70742525  1
  F  F55  1  0.33103762  0.14289797  0.70742525  1
  F  F56  1  0.16896238  0.64289797  0.70742525  1
  F  F57  1  0.83103762  0.35710203  0.70742525  1
  F  F58  1  0.33103762  0.14289797  0.29257475  1
  F  F59  1  0.66896238  0.85710203  0.29257475  1
  F  F60  1  0.73521168  0.30926152  0.14014142  1
  F  F61  1  0.26478832  0.69073848  0.14014142  1
  F  F62  1  0.76478832  0.80926152  0.85985858  1
  F  F63  1  0.23521168  0.19073848  0.85985858  1
  F  F64  1  0.26478832  0.69073848  0.85985858  1
  F  F65  1  0.73521168  0.30926152  0.85985858  1
  F  F66  1  0.23521168  0.19073848  0.14014142  1
  F  F67  1  0.76478832  0.80926152  0.14014142  1
  F  F68  1  0.00000000  0.00000000  0.50000000  1
  F  F69  1  0.50000000  0.50000000  0.50000000  1
  F  F70  1  0.42113881  0.80573144  0.62847846  1
  F  F71  1  0.57886119  0.19426856  0.62847846  1
  F  F72  1  0.07886119  0.30573144  0.37152154  1
  F  F73  1  0.92113881  0.69426856  0.37152154  1
  F  F74  1  0.57886119  0.19426856  0.37152154  1
  F  F75  1  0.42113881  0.80573144  0.37152154  1
  F  F76  1  0.92113881  0.69426856  0.62847846  1
  F  F77  1  0.07886119  0.30573144  0.62847846  1
  F  F78  1  0.59348044  0.53643677  0.25328362  1
  F  F79  1  0.40651956  0.46356323  0.25328362  1
  F  F80  1  0.90651956  0.03643677  0.74671638  1
  F  F81  1  0.09348044  0.96356323  0.74671638  1
  F  F82  1  0.40651956  0.46356323  0.74671638  1
  F  F83  1  0.59348044  0.53643677  0.74671638  1
  F  F84  1  0.09348044  0.96356323  0.25328362  1
  F  F85  1  0.90651956  0.03643677  0.25328362  1
  F  F86  1  0.00000000  0.00000000  0.00000000  1
  F  F87  1  0.50000000  0.50000000  -0.00000000  1
  Li  Li88  1  0.08834257  0.19587387  0.50000000  1
  Li  Li89  1  0.91165743  0.80412613  0.50000000  1
  Li  Li90  1  0.41165743  0.69587387  0.50000000  1
  Li  Li91  1  0.58834257  0.30412613  0.50000000  1
  Li  Li92  1  0.47034942  0.08072224  0.40198304  1
  Li  Li93  1  0.52965058  0.91927776  0.40198304  1
  Li  Li94  1  0.02965058  0.58072224  0.59801696  1
  Li  Li95  1  0.97034942  0.41927776  0.59801696  1
  Li  Li96  1  0.52965058  0.91927776  0.59801696  1
  Li  Li97  1  0.47034942  0.08072224  0.59801696  1
  Li  Li98  1  0.97034942  0.41927776  0.40198304  1
  Li  Li99  1  0.02965058  0.58072224  0.40198304  1
  Li  Li100  1  0.29310551  0.93308446  0.50000000  1
  Li  Li101  1  0.70689449  0.06691554  0.50000000  1
  Li  Li102  1  0.20689449  0.43308446  0.50000000  1
  Li  Li103  1  0.79310551  0.56691554  0.50000000  1
