# generated using pymatgen
data_LiF
_symmetry_space_group_name_H-M   'P 1'
_cell_length_a   15.23309935
_cell_length_b   15.23309935
_cell_length_c   6.03200392
_cell_angle_alpha   90.00000000
_cell_angle_beta   90.00000000
_cell_angle_gamma   120.00000000
_symmetry_Int_Tables_number   1
_chemical_formula_structural   LiF
_chemical_formula_sum   'Li78 F78'
_cell_volume   1212.18469283
_cell_formula_units_Z   78
loop_
 _symmetry_equiv_pos_site_id
 _symmetry_equiv_pos_as_xyz
  1  'x, y, z'
loop_
 _atom_site_type_symbol
 _atom_site_label
 _atom_site_symmetry_multiplicity
 _atom_site_fract_x
 _atom_site_fract_y
 _atom_site_fract_z
 _atom_site_occupancy
  F  F0  1  0.22467200  0.26972584  0.85904604  1
  F  F1  1  0.73027416  0.95494616  0.85904604  1
  F  F2  1  0.04505384  0.77532800  0.85904604  1
  F  F3  1  0.26972584  0.22467200  0.64095396  1
  F  F4  1  0.95494616  0.73027416  0.64095396  1
  F  F5  1  0.77532800  0.04505384  0.64095396  1
  F  F6  1  0.77532800  0.73027416  0.14095396  1
  F  F7  1  0.26972584  0.04505384  0.14095396  1
  F  F8  1  0.95494616  0.22467200  0.14095396  1
  F  F9  1  0.73027416  0.77532800  0.35904604  1
  F  F10  1  0.04505384  0.26972584  0.35904604  1
  F  F11  1  0.22467200  0.95494616  0.35904604  1
  F  F12  1  0.89133866  0.60305917  0.19237937  1
  F  F13  1  0.39694083  0.28827949  0.19237937  1
  F  F14  1  0.71172051  0.10866134  0.19237937  1
  F  F15  1  0.93639251  0.55800533  0.97428729  1
  F  F16  1  0.62161282  0.06360749  0.97428729  1
  F  F17  1  0.44199467  0.37838718  0.97428729  1
  F  F18  1  0.44199467  0.06360749  0.47428729  1
  F  F19  1  0.93639251  0.37838718  0.47428729  1
  F  F20  1  0.62161282  0.55800533  0.47428729  1
  F  F21  1  0.39694083  0.10866134  0.69237937  1
  F  F22  1  0.71172051  0.60305917  0.69237937  1
  F  F23  1  0.89133866  0.28827949  0.69237937  1
  F  F24  1  0.55800533  0.93639251  0.52571271  1
  F  F25  1  0.06360749  0.62161282  0.52571271  1
  F  F26  1  0.37838718  0.44199467  0.52571271  1
  F  F27  1  0.60305917  0.89133866  0.30762063  1
  F  F28  1  0.28827949  0.39694083  0.30762063  1
  F  F29  1  0.10866134  0.71172051  0.30762063  1
  F  F30  1  0.10866134  0.39694083  0.80762063  1
  F  F31  1  0.60305917  0.71172051  0.80762063  1
  F  F32  1  0.28827949  0.89133866  0.80762063  1
  F  F33  1  0.06360749  0.44199467  0.02571271  1
  F  F34  1  0.37838718  0.93639251  0.02571271  1
  F  F35  1  0.55800533  0.62161282  0.02571271  1
  F  F36  1  0.50536792  0.33587727  0.92151524  1
  F  F37  1  0.66412273  0.16949065  0.92151524  1
  F  F38  1  0.83050935  0.49463208  0.92151524  1
  F  F39  1  0.33587727  0.50536792  0.57848476  1
  F  F40  1  0.16949065  0.66412273  0.57848476  1
  F  F41  1  0.49463208  0.83050935  0.57848476  1
  F  F42  1  0.49463208  0.66412273  0.07848476  1
  F  F43  1  0.33587727  0.83050935  0.07848476  1
  F  F44  1  0.16949065  0.50536792  0.07848476  1
  F  F45  1  0.66412273  0.49463208  0.42151524  1
  F  F46  1  0.83050935  0.33587727  0.42151524  1
  F  F47  1  0.50536792  0.16949065  0.42151524  1
  F  F48  1  0.17203459  0.66921061  0.25484857  1
  F  F49  1  0.33078939  0.50282398  0.25484857  1
  F  F50  1  0.49717602  0.82796541  0.25484857  1
  F  F51  1  0.00254394  0.83870126  0.91181810  1
  F  F52  1  0.83615731  0.99745606  0.91181810  1
  F  F53  1  0.16129874  0.16384269  0.91181810  1
  F  F54  1  0.16129874  0.99745606  0.41181810  1
  F  F55  1  0.00254394  0.16384269  0.41181810  1
  F  F56  1  0.83615731  0.83870126  0.41181810  1
  F  F57  1  0.33078939  0.82796541  0.75484857  1
  F  F58  1  0.49717602  0.66921061  0.75484857  1
  F  F59  1  0.17203459  0.50282398  0.75484857  1
  F  F60  1  0.83870126  0.00254394  0.58818190  1
  F  F61  1  0.99745606  0.83615731  0.58818190  1
  F  F62  1  0.16384269  0.16129874  0.58818190  1
  F  F63  1  0.66921061  0.17203459  0.24515143  1
  F  F64  1  0.50282398  0.33078939  0.24515143  1
  F  F65  1  0.82796541  0.49717602  0.24515143  1
  F  F66  1  0.82796541  0.33078939  0.74515143  1
  F  F67  1  0.66921061  0.49717602  0.74515143  1
  F  F68  1  0.50282398  0.17203459  0.74515143  1
  F  F69  1  0.99745606  0.16129874  0.08818190  1
  F  F70  1  0.16384269  0.00254394  0.08818190  1
  F  F71  1  0.83870126  0.83615731  0.08818190  1
  F  F72  1  0.00000000  0.00000000  0.25000000  1
  F  F73  1  0.00000000  0.00000000  0.75000000  1
  F  F74  1  0.66666667  0.33333333  0.58333333  1
  F  F75  1  0.66666667  0.33333333  0.08333333  1
  F  F76  1  0.33333333  0.66666667  0.91666667  1
  F  F77  1  0.33333333  0.66666667  0.41666667  1
  Li  Li78  1  0.28363055  0.74644369  0.33260842  1
  Li  Li79  1  -0.74644369  -0.46281314  0.33260842  1
  Li  Li80  1  0.46281314  -0.28363055  0.33260842  1
  Li  Li81  1  0.74644369  0.28363055  0.16739158  1
  Li  Li82  1  -0.46281314  -0.74644369  0.16739158  1
  Li  Li83  1  -0.28363055  0.46281314  0.16739158  1
  Li  Li84  1  -0.28363055  -0.74644369  -0.33260842  1
  Li  Li85  1  0.74644369  0.46281314  -0.33260842  1
  Li  Li86  1  -0.46281314  0.28363055  -0.33260842  1
  Li  Li87  1  -0.74644369  -0.28363055  0.83260842  1
  Li  Li88  1  0.46281314  0.74644369  0.83260842  1
  Li  Li89  1  0.28363055  -0.46281314  0.83260842  1
  Li  Li90  1  0.95029721  1.07977702  0.66594175  1
  Li  Li91  1  -0.07977702  -0.12947981  0.66594175  1
  Li  Li92  1  1.12947981  0.04970279  0.66594175  1
  Li  Li93  1  1.41311035  0.61696388  0.50072491  1
  Li  Li94  1  0.20385353  -0.41311035  0.50072491  1
  Li  Li95  1  0.38303612  0.79614647  0.50072491  1
  Li  Li96  1  0.38303612  -0.41311035  0.00072491  1
  Li  Li97  1  1.41311035  0.79614647  0.00072491  1
  Li  Li98  1  0.20385353  0.61696388  0.00072491  1
  Li  Li99  1  -0.07977702  0.04970279  1.16594175  1
  Li  Li100  1  1.12947981  1.07977702  1.16594175  1
  Li  Li101  1  0.95029721  -0.12947981  1.16594175  1
  Li  Li102  1  0.61696388  1.41311035  0.99927509  1
  Li  Li103  1  -0.41311035  0.20385353  0.99927509  1
  Li  Li104  1  0.79614647  0.38303612  0.99927509  1
  Li  Li105  1  1.07977702  0.95029721  0.83405825  1
  Li  Li106  1  -0.12947981  -0.07977702  0.83405825  1
  Li  Li107  1  0.04970279  1.12947981  0.83405825  1
  Li  Li108  1  0.04970279  -0.07977702  0.33405825  1
  Li  Li109  1  1.07977702  1.12947981  0.33405825  1
  Li  Li110  1  -0.12947981  0.95029721  0.33405825  1
  Li  Li111  1  -0.41311035  0.38303612  1.49927509  1
  Li  Li112  1  0.79614647  1.41311035  1.49927509  1
  Li  Li113  1  0.61696388  0.20385353  1.49927509  1
  Li  Li114  1  0.00000000  0.00000000  0.00000000  1
  Li  Li115  1  0.00000000  0.00000000  0.50000000  1
  Li  Li116  1  0.66666667  0.33333333  0.33333333  1
  Li  Li117  1  0.66666667  0.33333333  0.83333333  1
  Li  Li118  1  0.33333333  0.66666667  0.66666667  1
  Li  Li119  1  0.33333333  0.66666667  0.16666667  1
  Li  Li120  1  0.30882507  -0.00000000  0.25000000  1
  Li  Li121  1  0.00000000  0.30882507  0.25000000  1
  Li  Li122  1  0.69117493  0.69117493  0.25000000  1
  Li  Li123  1  0.69117493  0.00000000  0.75000000  1
  Li  Li124  1  0.00000000  0.69117493  0.75000000  1
  Li  Li125  1  0.30882507  0.30882507  0.75000000  1
  Li  Li126  1  0.97549173  0.33333333  0.58333333  1
  Li  Li127  1  0.66666667  0.64215840  0.58333333  1
  Li  Li128  1  0.35784160  0.02450827  0.58333333  1
  Li  Li129  1  0.35784160  0.33333333  0.08333333  1
  Li  Li130  1  0.66666667  0.02450827  0.08333333  1
  Li  Li131  1  0.97549173  0.64215840  0.08333333  1
  Li  Li132  1  0.64215840  0.66666667  0.91666667  1
  Li  Li133  1  0.33333333  0.97549173  0.91666667  1
  Li  Li134  1  0.02450827  0.35784160  0.91666667  1
  Li  Li135  1  0.02450827  0.66666667  0.41666667  1
  Li  Li136  1  0.33333333  0.35784160  0.41666667  1
  Li  Li137  1  0.64215840  0.97549173  0.41666667  1
  Li  Li138  1  0.50000000  0.00000000  0.00000000  1
  Li  Li139  1  0.00000000  0.50000000  0.00000000  1
  Li  Li140  1  0.50000000  0.50000000  0.00000000  1
  Li  Li141  1  0.00000000  0.50000000  0.50000000  1
  Li  Li142  1  0.50000000  0.00000000  0.50000000  1
  Li  Li143  1  0.50000000  0.50000000  0.50000000  1
  Li  Li144  1  0.16666667  0.33333333  0.33333333  1
  Li  Li145  1  0.66666667  0.83333333  0.33333333  1
  Li  Li146  1  0.16666667  0.83333333  0.33333333  1
  Li  Li147  1  0.66666667  0.83333333  0.83333333  1
  Li  Li148  1  0.16666667  0.33333333  0.83333333  1
  Li  Li149  1  0.16666667  0.83333333  0.83333333  1
  Li  Li150  1  0.83333333  0.66666667  0.66666667  1
  Li  Li151  1  0.33333333  0.16666667  0.66666667  1
  Li  Li152  1  0.83333333  0.16666667  0.66666667  1
  Li  Li153  1  0.33333333  0.16666667  0.16666667  1
  Li  Li154  1  0.83333333  0.66666667  0.16666667  1
  Li  Li155  1  0.83333333  0.16666667  0.16666667  1
