# generated using pymatgen
data_LiF
_symmetry_space_group_name_H-M   'P 1'
_cell_length_a   10.80599407
_cell_length_b   8.83890382
_cell_length_c   8.61123855
_cell_angle_alpha   90.00000000
_cell_angle_beta   90.00000000
_cell_angle_gamma   90.00000000
_symmetry_Int_Tables_number   1
_chemical_formula_structural   LiF
_chemical_formula_sum   'Li24 F24'
_cell_volume   822.48645271
_cell_formula_units_Z   24
loop_
 _symmetry_equiv_pos_site_id
 _symmetry_equiv_pos_as_xyz
  1  'x, y, z'
loop_
 _atom_site_type_symbol
 _atom_site_label
 _atom_site_symmetry_multiplicity
 _atom_site_fract_x
 _atom_site_fract_y
 _atom_site_fract_z
 _atom_site_occupancy
  F  F0  1  0.86172146  0.25000000  0.26782257  1
  F  F1  1  0.63827854  0.75000000  0.76782257  1
  F  F2  1  0.13827854  0.75000000  0.73217743  1
  F  F3  1  0.36172146  0.25000000  0.23217743  1
  F  F4  1  0.96529973  0.06185283  0.17535383  1
  F  F5  1  0.53470027  0.93814717  0.67535383  1
  F  F6  1  0.03470027  0.56185283  0.82464617  1
  F  F7  1  0.46529973  0.43814717  0.32464617  1
  F  F8  1  0.03470027  0.93814717  0.82464617  1
  F  F9  1  0.46529973  0.06185283  0.32464617  1
  F  F10  1  0.96529973  0.43814717  0.17535383  1
  F  F11  1  0.53470027  0.56185283  0.67535383  1
  F  F12  1  0.39340247  0.68510921  0.22568028  1
  F  F13  1  0.10659753  0.31489079  0.72568028  1
  F  F14  1  0.60659753  0.18510921  0.77431972  1
  F  F15  1  0.89340247  0.81489079  0.27431972  1
  F  F16  1  0.60659753  0.31489079  0.77431972  1
  F  F17  1  0.89340247  0.68510921  0.27431972  1
  F  F18  1  0.39340247  0.81489079  0.22568028  1
  F  F19  1  0.10659753  0.18510921  0.72568028  1
  F  F20  1  0.12512463  0.25000000  0.51889197  1
  F  F21  1  0.37487537  0.75000000  0.01889197  1
  F  F22  1  0.87487537  0.75000000  0.48110803  1
  F  F23  1  0.62512463  0.25000000  0.98110803  1
  Li  Li24  1  0.00000000  0.00000000  0.00000000  1
  Li  Li25  1  0.50000000  0.00000000  0.50000000  1
  Li  Li26  1  0.00000000  0.50000000  0.00000000  1
  Li  Li27  1  0.50000000  0.50000000  0.50000000  1
  Li  Li28  1  0.00000000  0.00000000  0.50000000  1
  Li  Li29  1  0.50000000  0.00000000  0.00000000  1
  Li  Li30  1  0.00000000  0.50000000  0.50000000  1
  Li  Li31  1  0.50000000  0.50000000  0.00000000  1
  Li  Li32  1  0.34447772  0.95504328  0.36816809  1
  Li  Li33  1  0.15552228  -0.95504328  0.86816809  1
  Li  Li34  1  -0.34447772  1.45504328  -0.36816809  1
  Li  Li35  1  0.84447772  -0.45504328  0.13183191  1
  Li  Li36  1  -0.34447772  -0.95504328  -0.36816809  1
  Li  Li37  1  0.84447772  0.95504328  0.13183191  1
  Li  Li38  1  0.34447772  -0.45504328  0.36816809  1
  Li  Li39  1  0.15552228  1.45504328  0.86816809  1
  Li  Li40  1  0.40807794  0.92940744  0.68482572  1
  Li  Li41  1  0.09192206  0.07059256  0.18482572  1
  Li  Li42  1  0.59192206  0.42940744  0.31517428  1
  Li  Li43  1  0.90807794  0.57059256  0.81517428  1
  Li  Li44  1  0.59192206  0.07059256  0.31517428  1
  Li  Li45  1  0.90807794  0.92940744  0.81517428  1
  Li  Li46  1  0.40807794  0.57059256  0.68482572  1
  Li  Li47  1  0.09192206  0.42940744  0.18482572  1
