# generated using pymatgen
data_LiF
_symmetry_space_group_name_H-M   'P 1'
_cell_length_a   10.68039771
_cell_length_b   10.68039771
_cell_length_c   15.71614888
_cell_angle_alpha   90.00000000
_cell_angle_beta   90.00000000
_cell_angle_gamma   120.00000000
_symmetry_Int_Tables_number   1
_chemical_formula_structural   LiF
_chemical_formula_sum   'Li60 F60'
_cell_volume   1552.57152339
_cell_formula_units_Z   60
loop_
 _symmetry_equiv_pos_site_id
 _symmetry_equiv_pos_as_xyz
  1  'x, y, z'
loop_
 _atom_site_type_symbol
 _atom_site_label
 _atom_site_symmetry_multiplicity
 _atom_site_fract_x
 _atom_site_fract_y
 _atom_site_fract_z
 _atom_site_occupancy
  F  F0  1  0.16832532  0.00000000  0.25000000  1
  F  F1  1  0.00000000  0.16832532  0.25000000  1
  F  F2  1  0.83167468  0.83167468  0.25000000  1
  F  F3  1  0.83167468  0.00000000  0.75000000  1
  F  F4  1  0.00000000  0.83167468  0.75000000  1
  F  F5  1  0.16832532  0.16832532  0.75000000  1
  F  F6  1  0.83499198  0.33333333  0.58333333  1
  F  F7  1  0.66666667  0.50165865  0.58333333  1
  F  F8  1  0.49834135  0.16500802  0.58333333  1
  F  F9  1  0.49834135  0.33333333  0.08333333  1
  F  F10  1  0.66666667  0.16500802  0.08333333  1
  F  F11  1  0.83499198  0.50165865  0.08333333  1
  F  F12  1  0.50165865  0.66666667  0.91666667  1
  F  F13  1  0.33333333  0.83499198  0.91666667  1
  F  F14  1  0.16500802  0.49834135  0.91666667  1
  F  F15  1  0.16500802  0.66666667  0.41666667  1
  F  F16  1  0.33333333  0.49834135  0.41666667  1
  F  F17  1  0.50165865  0.83499198  0.41666667  1
  F  F18  1  0.39379696  0.43090993  0.04116365  1
  F  F19  1  0.56909007  0.96288703  0.04116365  1
  F  F20  1  0.03711297  0.60620304  0.04116365  1
  F  F21  1  0.43090993  0.39379696  0.45883635  1
  F  F22  1  0.96288703  0.56909007  0.45883635  1
  F  F23  1  0.60620304  0.03711297  0.45883635  1
  F  F24  1  0.60620304  0.56909007  0.95883635  1
  F  F25  1  0.43090993  0.03711297  0.95883635  1
  F  F26  1  0.96288703  0.39379696  0.95883635  1
  F  F27  1  0.56909007  0.60620304  0.54116365  1
  F  F28  1  0.03711297  0.43090993  0.54116365  1
  F  F29  1  0.39379696  0.96288703  0.54116365  1
  F  F30  1  0.06046363  0.76424327  0.37449699  1
  F  F31  1  0.23575673  0.29622036  0.37449699  1
  F  F32  1  0.70377964  0.93953637  0.37449699  1
  F  F33  1  0.09757660  0.72713030  0.79216968  1
  F  F34  1  0.62955370  0.90242340  0.79216968  1
  F  F35  1  0.27286970  0.37044630  0.79216968  1
  F  F36  1  0.27286970  0.90242340  0.29216968  1
  F  F37  1  0.09757660  0.37044630  0.29216968  1
  F  F38  1  0.62955370  0.72713030  0.29216968  1
  F  F39  1  0.23575673  0.93953637  0.87449699  1
  F  F40  1  0.70377964  0.76424327  0.87449699  1
  F  F41  1  0.06046363  0.29622036  0.87449699  1
  F  F42  1  0.72713030  0.09757660  0.70783032  1
  F  F43  1  0.90242340  0.62955370  0.70783032  1
  F  F44  1  0.37044630  0.27286970  0.70783032  1
  F  F45  1  0.76424327  0.06046363  0.12550301  1
  F  F46  1  0.29622036  0.23575673  0.12550301  1
  F  F47  1  0.93953637  0.70377964  0.12550301  1
  F  F48  1  0.93953637  0.23575673  0.62550301  1
  F  F49  1  0.76424327  0.70377964  0.62550301  1
  F  F50  1  0.29622036  0.06046363  0.62550301  1
  F  F51  1  0.90242340  0.27286970  0.20783032  1
  F  F52  1  0.37044630  0.09757660  0.20783032  1
  F  F53  1  0.72713030  0.62955370  0.20783032  1
  F  F54  1  0.00000000  0.00000000  0.25000000  1
  F  F55  1  0.00000000  0.00000000  0.75000000  1
  F  F56  1  0.66666667  0.33333333  0.58333333  1
  F  F57  1  0.66666667  0.33333333  0.08333333  1
  F  F58  1  0.33333333  0.66666667  0.91666667  1
  F  F59  1  0.33333333  0.66666667  0.41666667  1
  Li  Li60  1  0.19328331  0.74621517  0.95448989  1
  Li  Li61  1  -0.74621517  -0.55293186  0.95448989  1
  Li  Li62  1  0.55293186  -0.19328331  0.95448989  1
  Li  Li63  1  0.74621517  0.19328331  -0.45448989  1
  Li  Li64  1  -0.55293186  -0.74621517  -0.45448989  1
  Li  Li65  1  -0.19328331  0.55293186  -0.45448989  1
  Li  Li66  1  -0.19328331  -0.74621517  -0.95448989  1
  Li  Li67  1  0.74621517  0.55293186  -0.95448989  1
  Li  Li68  1  -0.55293186  0.19328331  -0.95448989  1
  Li  Li69  1  -0.74621517  -0.19328331  1.45448989  1
  Li  Li70  1  0.55293186  0.74621517  1.45448989  1
  Li  Li71  1  0.19328331  -0.55293186  1.45448989  1
  Li  Li72  1  0.85994997  1.07954850  1.28782322  1
  Li  Li73  1  -0.07954850  -0.21959853  1.28782322  1
  Li  Li74  1  1.21959853  0.14005003  1.28782322  1
  Li  Li75  1  1.41288184  0.52661664  -0.12115655  1
  Li  Li76  1  0.11373480  -0.41288184  -0.12115655  1
  Li  Li77  1  0.47338336  0.88626520  -0.12115655  1
  Li  Li78  1  0.47338336  -0.41288184  -0.62115655  1
  Li  Li79  1  1.41288184  0.88626520  -0.62115655  1
  Li  Li80  1  0.11373480  0.52661664  -0.62115655  1
  Li  Li81  1  -0.07954850  0.14005003  1.78782322  1
  Li  Li82  1  1.21959853  1.07954850  1.78782322  1
  Li  Li83  1  0.85994997  -0.21959853  1.78782322  1
  Li  Li84  1  0.52661664  1.41288184  1.62115655  1
  Li  Li85  1  -0.41288184  0.11373480  1.62115655  1
  Li  Li86  1  0.88626520  0.47338336  1.62115655  1
  Li  Li87  1  1.07954850  0.85994997  0.21217678  1
  Li  Li88  1  -0.21959853  -0.07954850  0.21217678  1
  Li  Li89  1  0.14005003  1.21959853  0.21217678  1
  Li  Li90  1  0.14005003  -0.07954850  -0.28782322  1
  Li  Li91  1  1.07954850  1.21959853  -0.28782322  1
  Li  Li92  1  -0.21959853  0.85994997  -0.28782322  1
  Li  Li93  1  -0.41288184  0.47338336  2.12115655  1
  Li  Li94  1  0.88626520  1.41288184  2.12115655  1
  Li  Li95  1  0.52661664  0.11373480  2.12115655  1
  Li  Li96  1  0.38503891  0.00000000  0.25000000  1
  Li  Li97  1  0.00000000  0.38503891  0.25000000  1
  Li  Li98  1  0.61496109  0.61496109  0.25000000  1
  Li  Li99  1  0.61496109  -0.00000000  0.75000000  1
  Li  Li100  1  0.00000000  0.61496109  0.75000000  1
  Li  Li101  1  0.38503891  0.38503891  0.75000000  1
  Li  Li102  1  0.05170558  0.33333333  0.58333333  1
  Li  Li103  1  0.66666667  0.71837224  0.58333333  1
  Li  Li104  1  0.28162776  0.94829442  0.58333333  1
  Li  Li105  1  0.28162776  0.33333333  0.08333333  1
  Li  Li106  1  0.66666667  0.94829442  0.08333333  1
  Li  Li107  1  0.05170558  0.71837224  0.08333333  1
  Li  Li108  1  0.71837224  0.66666667  0.91666667  1
  Li  Li109  1  0.33333333  0.05170558  0.91666667  1
  Li  Li110  1  0.94829442  0.28162776  0.91666667  1
  Li  Li111  1  0.94829442  0.66666667  0.41666667  1
  Li  Li112  1  0.33333333  0.28162776  0.41666667  1
  Li  Li113  1  0.71837224  0.05170558  0.41666667  1
  Li  Li114  1  0.00000000  0.00000000  0.00000000  1
  Li  Li115  1  0.00000000  0.00000000  0.50000000  1
  Li  Li116  1  0.66666667  0.33333333  0.33333333  1
  Li  Li117  1  0.66666667  0.33333333  0.83333333  1
  Li  Li118  1  0.33333333  0.66666667  0.66666667  1
  Li  Li119  1  0.33333333  0.66666667  0.16666667  1
