# generated using pymatgen
data_LiF
_symmetry_space_group_name_H-M   'P 1'
_cell_length_a   23.29995131
_cell_length_b   3.69533258
_cell_length_c   7.84884663
_cell_angle_alpha   90.00000000
_cell_angle_beta   90.00000000
_cell_angle_gamma   90.00000000
_symmetry_Int_Tables_number   1
_chemical_formula_structural   LiF
_chemical_formula_sum   'Li24 F24'
_cell_volume   675.79408740
_cell_formula_units_Z   24
loop_
 _symmetry_equiv_pos_site_id
 _symmetry_equiv_pos_as_xyz
  1  'x, y, z'
loop_
 _atom_site_type_symbol
 _atom_site_label
 _atom_site_symmetry_multiplicity
 _atom_site_fract_x
 _atom_site_fract_y
 _atom_site_fract_z
 _atom_site_occupancy
  F  F0  1  0.70244915  0.97895288  0.41277551  1
  F  F1  1  0.79755085  0.02104712  0.91277551  1
  F  F2  1  0.29755085  0.47895288  0.58722449  1
  F  F3  1  0.20244915  0.52104712  0.08722449  1
  F  F4  1  0.29755085  0.02104712  0.58722449  1
  F  F5  1  0.20244915  0.97895288  0.08722449  1
  F  F6  1  0.70244915  0.52104712  0.41277551  1
  F  F7  1  0.79755085  0.47895288  0.91277551  1
  F  F8  1  0.07166209  0.83970835  0.39957223  1
  F  F9  1  0.42833791  0.16029165  0.89957223  1
  F  F10  1  0.92833791  0.33970835  0.60042777  1
  F  F11  1  0.57166209  0.66029165  0.10042777  1
  F  F12  1  0.92833791  0.16029165  0.60042777  1
  F  F13  1  0.57166209  0.83970835  0.10042777  1
  F  F14  1  0.07166209  0.66029165  0.39957223  1
  F  F15  1  0.42833791  0.33970835  0.89957223  1
  F  F16  1  0.64559027  0.25000000  0.99809117  1
  F  F17  1  0.85440973  0.75000000  0.49809117  1
  F  F18  1  0.35440973  0.75000000  0.00190883  1
  F  F19  1  0.14559027  0.25000000  0.50190883  1
  F  F20  1  0.34388695  0.25000000  0.46600670  1
  F  F21  1  0.15611305  0.75000000  0.96600670  1
  F  F22  1  0.65611305  0.75000000  0.53399330  1
  F  F23  1  0.84388695  0.25000000  0.03399330  1
  Li  Li24  1  0.44341461  0.25000000  0.55324580  1
  Li  Li25  1  0.05658539  0.75000000  0.05324580  1
  Li  Li26  1  0.55658539  0.75000000  0.44675420  1
  Li  Li27  1  0.94341461  0.25000000  0.94675420  1
  Li  Li28  1  0.30394726  0.55197678  0.31325873  1
  Li  Li29  1  0.19605274  -0.55197678  0.81325873  1
  Li  Li30  1  -0.30394726  1.05197678  -0.31325873  1
  Li  Li31  1  0.80394726  -0.05197678  0.18674127  1
  Li  Li32  1  -0.30394726  -0.55197678  -0.31325873  1
  Li  Li33  1  0.80394726  0.55197678  0.18674127  1
  Li  Li34  1  0.30394726  -0.05197678  0.31325873  1
  Li  Li35  1  0.19605274  1.05197678  0.81325873  1
  Li  Li36  1  0.55387632  0.25000000  0.66796054  1
  Li  Li37  1  0.94612368  0.75000000  0.16796054  1
  Li  Li38  1  0.44612368  0.75000000  0.33203946  1
  Li  Li39  1  0.05387632  0.25000000  0.83203946  1
  Li  Li40  1  0.35228088  0.25000000  0.05146957  1
  Li  Li41  1  0.14771912  0.75000000  0.55146957  1
  Li  Li42  1  0.64771912  0.75000000  0.94853043  1
  Li  Li43  1  0.85228088  0.25000000  0.44853043  1
  Li  Li44  1  0.00000000  0.00000000  0.00000000  1
  Li  Li45  1  0.50000000  0.00000000  0.50000000  1
  Li  Li46  1  0.00000000  0.50000000  -0.00000000  1
  Li  Li47  1  0.50000000  0.50000000  0.50000000  1
