# generated using pymatgen
data_LiCaF3
_symmetry_space_group_name_H-M   'P 1'
_cell_length_a   19.03226939
_cell_length_b   19.03226939
_cell_length_c   3.83622837
_cell_angle_alpha   90.00000000
_cell_angle_beta   90.00000000
_cell_angle_gamma   120.00000000
_symmetry_Int_Tables_number   1
_chemical_formula_structural   LiCaF3
_chemical_formula_sum   'Li18 Ca18 F54'
_cell_volume   1203.41726177
_cell_formula_units_Z   18
loop_
 _symmetry_equiv_pos_site_id
 _symmetry_equiv_pos_as_xyz
  1  'x, y, z'
loop_
 _atom_site_type_symbol
 _atom_site_label
 _atom_site_symmetry_multiplicity
 _atom_site_fract_x
 _atom_site_fract_y
 _atom_site_fract_z
 _atom_site_occupancy
  Ca  Ca0  1  0.50000000  0.00000000  0.00000000  1
  Ca  Ca1  1  0.00000000  0.50000000  0.00000000  1
  Ca  Ca2  1  0.50000000  0.50000000  0.00000000  1
  Ca  Ca3  1  0.00000000  0.50000000  0.50000000  1
  Ca  Ca4  1  0.50000000  0.00000000  0.50000000  1
  Ca  Ca5  1  0.50000000  0.50000000  0.50000000  1
  Ca  Ca6  1  0.16666667  0.33333333  0.33333333  1
  Ca  Ca7  1  0.66666667  0.83333333  0.33333333  1
  Ca  Ca8  1  0.16666667  0.83333333  0.33333333  1
  Ca  Ca9  1  0.66666667  0.83333333  0.83333333  1
  Ca  Ca10  1  0.16666667  0.33333333  0.83333333  1
  Ca  Ca11  1  0.16666667  0.83333333  0.83333333  1
  Ca  Ca12  1  0.83333333  0.66666667  0.66666667  1
  Ca  Ca13  1  0.33333333  0.16666667  0.66666667  1
  Ca  Ca14  1  0.83333333  0.16666667  0.66666667  1
  Ca  Ca15  1  0.33333333  0.16666667  0.16666667  1
  Ca  Ca16  1  0.83333333  0.66666667  0.16666667  1
  Ca  Ca17  1  0.83333333  0.16666667  0.16666667  1
  F  F18  1  0.77085019  0.93732411  0.48671753  1
  F  F19  1  -0.93732411  -0.16647392  0.48671753  1
  F  F20  1  0.16647392  -0.77085019  0.48671753  1
  F  F21  1  0.93732411  0.77085019  0.01328247  1
  F  F22  1  -0.16647392  -0.93732411  0.01328247  1
  F  F23  1  -0.77085019  0.16647392  0.01328247  1
  F  F24  1  -0.77085019  -0.93732411  -0.48671753  1
  F  F25  1  0.93732411  0.16647392  -0.48671753  1
  F  F26  1  -0.16647392  0.77085019  -0.48671753  1
  F  F27  1  -0.93732411  -0.77085019  0.98671753  1
  F  F28  1  0.16647392  0.93732411  0.98671753  1
  F  F29  1  0.77085019  -0.16647392  0.98671753  1
  F  F30  1  1.43751685  1.27065744  0.82005087  1
  F  F31  1  -0.27065744  0.16685941  0.82005087  1
  F  F32  1  0.83314059  -0.43751685  0.82005087  1
  F  F33  1  1.60399077  1.10418352  0.34661580  1
  F  F34  1  0.50019275  -0.60399077  0.34661580  1
  F  F35  1  -0.10418352  0.49980725  0.34661580  1
  F  F36  1  -0.10418352  -0.60399077  -0.15338420  1
  F  F37  1  1.60399077  0.49980725  -0.15338420  1
  F  F38  1  0.50019275  1.10418352  -0.15338420  1
  F  F39  1  -0.27065744  -0.43751685  1.32005087  1
  F  F40  1  0.83314059  1.27065744  1.32005087  1
  F  F41  1  1.43751685  0.16685941  1.32005087  1
  F  F42  1  1.10418352  1.60399077  1.15338420  1
  F  F43  1  -0.60399077  0.50019275  1.15338420  1
  F  F44  1  0.49980725  -0.10418352  1.15338420  1
  F  F45  1  1.27065744  1.43751685  0.67994913  1
  F  F46  1  0.16685941  -0.27065744  0.67994913  1
  F  F47  1  -0.43751685  0.83314059  0.67994913  1
  F  F48  1  -0.43751685  -0.27065744  0.17994913  1
  F  F49  1  1.27065744  0.83314059  0.17994913  1
  F  F50  1  0.16685941  1.43751685  0.17994913  1
  F  F51  1  -0.60399077  -0.10418352  1.65338420  1
  F  F52  1  0.49980725  1.60399077  1.65338420  1
  F  F53  1  1.10418352  0.50019275  1.65338420  1
  F  F54  1  0.04850780  0.00000000  0.25000000  1
  F  F55  1  0.00000000  0.04850780  0.25000000  1
  F  F56  1  0.95149220  0.95149220  0.25000000  1
  F  F57  1  0.95149220  -0.00000000  0.75000000  1
  F  F58  1  0.00000000  0.95149220  0.75000000  1
  F  F59  1  0.04850780  0.04850780  0.75000000  1
  F  F60  1  0.71517447  0.33333333  0.58333333  1
  F  F61  1  0.66666667  0.38184114  0.58333333  1
  F  F62  1  0.61815886  0.28482553  0.58333333  1
  F  F63  1  0.61815886  0.33333333  0.08333333  1
  F  F64  1  0.66666667  0.28482553  0.08333333  1
  F  F65  1  0.71517447  0.38184114  0.08333333  1
  F  F66  1  0.38184114  0.66666667  0.91666667  1
  F  F67  1  0.33333333  0.71517447  0.91666667  1
  F  F68  1  0.28482553  0.61815886  0.91666667  1
  F  F69  1  0.28482553  0.66666667  0.41666667  1
  F  F70  1  0.33333333  0.61815886  0.41666667  1
  F  F71  1  0.38184114  0.71517447  0.41666667  1
  Li  Li72  1  0.26092122  0.00000000  0.25000000  1
  Li  Li73  1  0.00000000  0.26092122  0.25000000  1
  Li  Li74  1  0.73907878  0.73907878  0.25000000  1
  Li  Li75  1  0.73907878  -0.00000000  0.75000000  1
  Li  Li76  1  0.00000000  0.73907878  0.75000000  1
  Li  Li77  1  0.26092122  0.26092122  0.75000000  1
  Li  Li78  1  0.92758789  0.33333333  0.58333333  1
  Li  Li79  1  0.66666667  0.59425456  0.58333333  1
  Li  Li80  1  0.40574544  0.07241211  0.58333333  1
  Li  Li81  1  0.40574544  0.33333333  0.08333333  1
  Li  Li82  1  0.66666667  0.07241211  0.08333333  1
  Li  Li83  1  0.92758789  0.59425456  0.08333333  1
  Li  Li84  1  0.59425456  0.66666667  0.91666667  1
  Li  Li85  1  0.33333333  0.92758789  0.91666667  1
  Li  Li86  1  0.07241211  0.40574544  0.91666667  1
  Li  Li87  1  0.07241211  0.66666667  0.41666667  1
  Li  Li88  1  0.33333333  0.40574544  0.41666667  1
  Li  Li89  1  0.59425456  0.92758789  0.41666667  1
