# generated using pymatgen
data_Li3Y2P3Se
_symmetry_space_group_name_H-M   'P 1'
_cell_length_a   5.38610667
_cell_length_b   5.58479471
_cell_length_c   6.77402050
_cell_angle_alpha   93.55923636
_cell_angle_beta   95.89587047
_cell_angle_gamma   101.38626964
_symmetry_Int_Tables_number   1
_chemical_formula_structural   Li3Y2P3Se
_chemical_formula_sum   'Li3 Y2 P3 Se1'
_cell_volume   197.98755029
_cell_formula_units_Z   1
loop_
 _symmetry_equiv_pos_site_id
 _symmetry_equiv_pos_as_xyz
  1  'x, y, z'
loop_
 _atom_site_type_symbol
 _atom_site_label
 _atom_site_symmetry_multiplicity
 _atom_site_fract_x
 _atom_site_fract_y
 _atom_site_fract_z
 _atom_site_occupancy
  Se  Se0  1  0.12500000  0.12500000  0.12500000  1
  Y  Y1  1  0.50000000  0.50000000  0.50000000  1
  Y  Y2  1  0.25000000  0.25000000  0.25000000  1
  P  P3  1  0.75000000  0.75000000  0.75000000  1
  P  P4  1  0.55802637  0.40508312  0.94458234  1
  P  P5  1  0.65445578  0.80339611  0.40137521  1
  Li  Li6  1  0.74914356  0.78036126  0.75595928  1
  Li  Li7  1  0.92518613  0.19295512  0.04430345  1
  Li  Li8  1  0.46859575  0.00361539  0.67084191  1
