# generated using pymatgen
data_LiF
_symmetry_space_group_name_H-M   'P 1'
_cell_length_a   13.44708492
_cell_length_b   13.44708492
_cell_length_c   9.96397407
_cell_angle_alpha   90.00000000
_cell_angle_beta   90.00000000
_cell_angle_gamma   90.00000000
_symmetry_Int_Tables_number   1
_chemical_formula_structural   LiF
_chemical_formula_sum   'Li64 F64'
_cell_volume   1801.72657129
_cell_formula_units_Z   64
loop_
 _symmetry_equiv_pos_site_id
 _symmetry_equiv_pos_as_xyz
  1  'x, y, z'
loop_
 _atom_site_type_symbol
 _atom_site_label
 _atom_site_symmetry_multiplicity
 _atom_site_fract_x
 _atom_site_fract_y
 _atom_site_fract_z
 _atom_site_occupancy
  F  F0  1  0.50688304  0.44190321  0.56029518  1
  F  F1  1  -0.00688304  -0.44190321  1.06029518  1
  F  F2  1  -0.19190321  1.25688304  0.81029518  1
  F  F3  1  0.69190321  -0.25688304  1.31029518  1
  F  F4  1  -0.00688304  0.44190321  -0.56029518  1
  F  F5  1  0.50688304  -0.44190321  -0.06029518  1
  F  F6  1  0.69190321  1.25688304  0.18970482  1
  F  F7  1  -0.19190321  -0.25688304  -0.31029518  1
  F  F8  1  -0.50688304  -0.44190321  -0.56029518  1
  F  F9  1  1.00688304  0.44190321  -0.06029518  1
  F  F10  1  1.19190321  -0.25688304  0.18970482  1
  F  F11  1  0.30809679  1.25688304  -0.31029518  1
  F  F12  1  1.00688304  -0.44190321  0.56029518  1
  F  F13  1  -0.50688304  0.44190321  1.06029518  1
  F  F14  1  0.30809679  -0.25688304  0.81029518  1
  F  F15  1  1.19190321  1.25688304  1.31029518  1
  F  F16  1  1.00688304  0.94190321  1.06029518  1
  F  F17  1  0.49311696  0.05809679  1.56029518  1
  F  F18  1  0.30809679  1.75688304  1.31029518  1
  F  F19  1  1.19190321  0.24311696  1.81029518  1
  F  F20  1  0.49311696  0.94190321  -0.06029518  1
  F  F21  1  1.00688304  0.05809679  0.43970482  1
  F  F22  1  1.19190321  1.75688304  0.68970482  1
  F  F23  1  0.30809679  0.24311696  0.18970482  1
  F  F24  1  -0.00688304  0.05809679  -0.06029518  1
  F  F25  1  1.50688304  0.94190321  0.43970482  1
  F  F26  1  1.69190321  0.24311696  0.68970482  1
  F  F27  1  0.80809679  1.75688304  0.18970482  1
  F  F28  1  1.50688304  0.05809679  1.06029518  1
  F  F29  1  -0.00688304  0.94190321  1.56029518  1
  F  F30  1  0.80809679  0.24311696  1.31029518  1
  F  F31  1  1.69190321  1.75688304  1.81029518  1
  F  F32  1  0.69896770  -0.00000000  0.25000000  1
  F  F33  1  0.80103230  0.00000000  0.75000000  1
  F  F34  1  0.25000000  0.44896770  0.50000000  1
  F  F35  1  0.25000000  0.55103230  0.00000000  1
  F  F36  1  0.30103230  -0.00000000  0.75000000  1
  F  F37  1  0.19896770  0.00000000  0.25000000  1
  F  F38  1  0.75000000  0.55103230  0.50000000  1
  F  F39  1  0.75000000  0.44896770  0.00000000  1
  F  F40  1  0.19896770  0.50000000  0.75000000  1
  F  F41  1  0.30103230  0.50000000  0.25000000  1
  F  F42  1  0.75000000  0.94896770  0.00000000  1
  F  F43  1  0.75000000  0.05103230  0.50000000  1
  F  F44  1  0.80103230  0.50000000  0.25000000  1
  F  F45  1  0.69896770  0.50000000  0.75000000  1
  F  F46  1  0.25000000  0.05103230  -0.00000000  1
  F  F47  1  0.25000000  0.94896770  0.50000000  1
  F  F48  1  0.00000000  0.00000000  0.00000000  1
  F  F49  1  0.50000000  0.00000000  0.50000000  1
  F  F50  1  0.25000000  0.75000000  0.25000000  1
  F  F51  1  0.25000000  0.25000000  0.75000000  1
  F  F52  1  0.50000000  0.00000000  0.00000000  1
  F  F53  1  0.00000000  0.00000000  0.50000000  1
  F  F54  1  0.25000000  0.75000000  0.75000000  1
  F  F55  1  0.25000000  0.25000000  0.25000000  1
  F  F56  1  0.50000000  0.50000000  0.50000000  1
  F  F57  1  0.00000000  0.50000000  0.00000000  1
  F  F58  1  0.75000000  0.25000000  0.75000000  1
  F  F59  1  0.75000000  0.75000000  0.25000000  1
  F  F60  1  0.00000000  0.50000000  0.50000000  1
  F  F61  1  0.50000000  0.50000000  0.00000000  1
  F  F62  1  0.75000000  0.25000000  0.25000000  1
  F  F63  1  0.75000000  0.75000000  0.75000000  1
  Li  Li64  1  0.99439213  0.68842103  0.94533276  1
  Li  Li65  1  0.50560787  0.31157897  0.44533276  1
  Li  Li66  1  0.56157897  0.74439213  0.19533276  1
  Li  Li67  1  0.93842103  0.25560787  0.69533276  1
  Li  Li68  1  0.50560787  0.68842103  0.05466724  1
  Li  Li69  1  0.99439213  0.31157897  0.55466724  1
  Li  Li70  1  0.93842103  0.74439213  0.80466724  1
  Li  Li71  1  0.56157897  0.25560787  0.30466724  1
  Li  Li72  1  0.00560787  0.31157897  0.05466724  1
  Li  Li73  1  0.49439213  0.68842103  0.55466724  1
  Li  Li74  1  0.43842103  0.25560787  0.80466724  1
  Li  Li75  1  0.06157897  0.74439213  0.30466724  1
  Li  Li76  1  0.49439213  0.31157897  0.94533276  1
  Li  Li77  1  0.00560787  0.68842103  0.44533276  1
  Li  Li78  1  0.06157897  0.25560787  0.19533276  1
  Li  Li79  1  0.43842103  0.74439213  0.69533276  1
  Li  Li80  1  0.49439213  0.18842103  0.44533276  1
  Li  Li81  1  0.00560787  0.81157897  0.94533276  1
  Li  Li82  1  0.06157897  0.24439213  0.69533276  1
  Li  Li83  1  0.43842103  0.75560787  0.19533276  1
  Li  Li84  1  0.00560787  0.18842103  0.55466724  1
  Li  Li85  1  0.49439213  0.81157897  0.05466724  1
  Li  Li86  1  0.43842103  0.24439213  0.30466724  1
  Li  Li87  1  0.06157897  0.75560787  0.80466724  1
  Li  Li88  1  0.50560787  0.81157897  0.55466724  1
  Li  Li89  1  0.99439213  0.18842103  0.05466724  1
  Li  Li90  1  0.93842103  0.75560787  0.30466724  1
  Li  Li91  1  0.56157897  0.24439213  0.80466724  1
  Li  Li92  1  0.99439213  0.81157897  0.44533276  1
  Li  Li93  1  0.50560787  0.18842103  0.94533276  1
  Li  Li94  1  0.56157897  0.75560787  0.69533276  1
  Li  Li95  1  0.93842103  0.24439213  0.19533276  1
  Li  Li96  1  0.43911135  0.10109932  0.69805944  1
  Li  Li97  1  0.06088865  0.89890068  0.19805944  1
  Li  Li98  1  0.14890068  0.18911135  0.94805944  1
  Li  Li99  1  0.35109932  0.81088865  0.44805944  1
  Li  Li100  1  0.06088865  0.10109932  0.30194056  1
  Li  Li101  1  0.43911135  0.89890068  0.80194056  1
  Li  Li102  1  0.35109932  0.18911135  0.05194056  1
  Li  Li103  1  0.14890068  0.81088865  0.55194056  1
  Li  Li104  1  0.56088865  0.89890068  0.30194056  1
  Li  Li105  1  0.93911135  0.10109932  0.80194056  1
  Li  Li106  1  0.85109932  0.81088865  0.05194056  1
  Li  Li107  1  0.64890068  0.18911135  0.55194056  1
  Li  Li108  1  0.93911135  0.89890068  0.69805944  1
  Li  Li109  1  0.56088865  0.10109932  0.19805944  1
  Li  Li110  1  0.64890068  0.81088865  0.94805944  1
  Li  Li111  1  0.85109932  0.18911135  0.44805944  1
  Li  Li112  1  0.93911135  0.60109932  0.19805944  1
  Li  Li113  1  0.56088865  0.39890068  0.69805944  1
  Li  Li114  1  0.64890068  0.68911135  0.44805944  1
  Li  Li115  1  0.85109932  0.31088865  0.94805944  1
  Li  Li116  1  0.56088865  0.60109932  0.80194056  1
  Li  Li117  1  0.93911135  0.39890068  0.30194056  1
  Li  Li118  1  0.85109932  0.68911135  0.55194056  1
  Li  Li119  1  0.64890068  0.31088865  0.05194056  1
  Li  Li120  1  0.06088865  0.39890068  0.80194056  1
  Li  Li121  1  0.43911135  0.60109932  0.30194056  1
  Li  Li122  1  0.35109932  0.31088865  0.55194056  1
  Li  Li123  1  0.14890068  0.68911135  0.05194056  1
  Li  Li124  1  0.43911135  0.39890068  0.19805944  1
  Li  Li125  1  0.06088865  0.60109932  0.69805944  1
  Li  Li126  1  0.14890068  0.31088865  0.44805944  1
  Li  Li127  1  0.35109932  0.68911135  0.94805944  1
