# generated using pymatgen
data_Li4YF
_symmetry_space_group_name_H-M   'P 1'
_cell_length_a   3.12833175
_cell_length_b   3.09677314
_cell_length_c   5.45086200
_cell_angle_alpha   103.67097801
_cell_angle_beta   107.44246556
_cell_angle_gamma   111.84442329
_symmetry_Int_Tables_number   1
_chemical_formula_structural   Li4YF
_chemical_formula_sum   'Li4 Y1 F1'
_cell_volume   43.00154967
_cell_formula_units_Z   1
loop_
 _symmetry_equiv_pos_site_id
 _symmetry_equiv_pos_as_xyz
  1  'x, y, z'
loop_
 _atom_site_type_symbol
 _atom_site_label
 _atom_site_symmetry_multiplicity
 _atom_site_fract_x
 _atom_site_fract_y
 _atom_site_fract_z
 _atom_site_occupancy
  F  F0  1  0.00000000  0.00000000  0.00000000  1
  Li  Li1  1  0.33300000  0.66700000  0.25000000  1
  Li  Li2  1  0.66700000  0.33300000  0.50000000  1
  Li  Li3  1  0.00000000  0.00000000  0.75000000  1
  Li  Li4  1  0.37888841  0.16887232  0.36142995  1
  Y  Y5  1  0.49742865  0.09718295  0.81159850  1
