# generated using pymatgen
data_KLiTe
_symmetry_space_group_name_H-M   'P 1'
_cell_length_a   10.05478824
_cell_length_b   11.03315127
_cell_length_c   12.04879681
_cell_angle_alpha   90.00000000
_cell_angle_beta   90.00000000
_cell_angle_gamma   90.00000000
_symmetry_Int_Tables_number   1
_chemical_formula_structural   KLiTe
_chemical_formula_sum   'K16 Li16 Te16'
_cell_volume   1336.64531756
_cell_formula_units_Z   16
loop_
 _symmetry_equiv_pos_site_id
 _symmetry_equiv_pos_as_xyz
  1  'x, y, z'
loop_
 _atom_site_type_symbol
 _atom_site_label
 _atom_site_symmetry_multiplicity
 _atom_site_fract_x
 _atom_site_fract_y
 _atom_site_fract_z
 _atom_site_occupancy
  K  K0  1  0.12500000  0.12500000  0.89198827  1
  K  K1  1  0.62500000  0.12500000  -0.14198827  1
  K  K2  1  0.87500000  0.87500000  -0.89198827  1
  K  K3  1  0.37500000  0.87500000  1.14198827  1
  K  K4  1  0.12500000  0.62500000  1.39198827  1
  K  K5  1  0.62500000  0.62500000  0.35801173  1
  K  K6  1  0.87500000  1.37500000  -0.39198827  1
  K  K7  1  0.37500000  1.37500000  1.64198827  1
  K  K8  1  0.62500000  0.12500000  1.39198827  1
  K  K9  1  1.12500000  0.12500000  0.35801173  1
  K  K10  1  1.37500000  0.87500000  -0.39198827  1
  K  K11  1  0.87500000  0.87500000  1.64198827  1
  K  K12  1  0.62500000  0.62500000  0.89198827  1
  K  K13  1  1.12500000  0.62500000  -0.14198827  1
  K  K14  1  1.37500000  1.37500000  -0.89198827  1
  K  K15  1  0.87500000  1.37500000  1.14198827  1
  Li  Li16  1  0.12500000  0.12500000  0.19157029  1
  Li  Li17  1  0.62500000  0.12500000  0.55842971  1
  Li  Li18  1  0.87500000  0.87500000  0.80842971  1
  Li  Li19  1  0.37500000  0.87500000  0.44157029  1
  Li  Li20  1  0.12500000  0.62500000  0.69157029  1
  Li  Li21  1  0.62500000  0.62500000  0.05842971  1
  Li  Li22  1  0.87500000  0.37500000  0.30842971  1
  Li  Li23  1  0.37500000  0.37500000  0.94157029  1
  Li  Li24  1  0.62500000  0.12500000  0.69157029  1
  Li  Li25  1  0.12500000  0.12500000  0.05842971  1
  Li  Li26  1  0.37500000  0.87500000  0.30842971  1
  Li  Li27  1  0.87500000  0.87500000  0.94157029  1
  Li  Li28  1  0.62500000  0.62500000  0.19157029  1
  Li  Li29  1  0.12500000  0.62500000  0.55842971  1
  Li  Li30  1  0.37500000  0.37500000  0.80842971  1
  Li  Li31  1  0.87500000  0.37500000  0.44157029  1
  Te  Te32  1  0.12500000  0.45978483  0.12500000  1
  Te  Te33  1  0.62500000  0.29021517  0.12500000  1
  Te  Te34  1  0.87500000  0.54021517  0.87500000  1
  Te  Te35  1  0.37500000  0.70978483  0.87500000  1
  Te  Te36  1  0.12500000  0.95978483  0.62500000  1
  Te  Te37  1  0.62500000  0.79021517  0.62500000  1
  Te  Te38  1  0.87500000  0.04021517  0.37500000  1
  Te  Te39  1  0.37500000  0.20978483  0.37500000  1
  Te  Te40  1  0.62500000  0.45978483  0.62500000  1
  Te  Te41  1  0.12500000  0.29021517  0.62500000  1
  Te  Te42  1  0.37500000  0.54021517  0.37500000  1
  Te  Te43  1  0.87500000  0.70978483  0.37500000  1
  Te  Te44  1  0.62500000  0.95978483  0.12500000  1
  Te  Te45  1  0.12500000  0.79021517  0.12500000  1
  Te  Te46  1  0.37500000  0.04021517  0.87500000  1
  Te  Te47  1  0.87500000  0.20978483  0.87500000  1
