# generated using pymatgen
data_K3Li8Zr4Se6(Cl3O)3
_symmetry_space_group_name_H-M   'P 1'
_cell_length_a   9.17211147
_cell_length_b   9.17211147
_cell_length_c   10.58823292
_cell_angle_alpha   90.00000000
_cell_angle_beta   90.00000000
_cell_angle_gamma   120.00000000
_symmetry_Int_Tables_number   1
_chemical_formula_structural   K3Li8Zr4Se6(Cl3O)3
_chemical_formula_sum   'K3 Li8 Zr4 Se6 Cl9 O3'
_cell_volume   771.42332593
_cell_formula_units_Z   1
loop_
 _symmetry_equiv_pos_site_id
 _symmetry_equiv_pos_as_xyz
  1  'x, y, z'
loop_
 _atom_site_type_symbol
 _atom_site_label
 _atom_site_symmetry_multiplicity
 _atom_site_fract_x
 _atom_site_fract_y
 _atom_site_fract_z
 _atom_site_occupancy
  Cl  Cl0  1  0.16825882  0.67296167  0.66620924  1
  Cl  Cl1  1  -0.67296167  -0.50470285  0.66620924  1
  Cl  Cl2  1  0.50470285  -0.16825882  0.66620924  1
  Cl  Cl3  1  -0.67296167  -0.16825882  -0.66620924  1
  Cl  Cl4  1  0.50470285  0.67296167  -0.66620924  1
  Cl  Cl5  1  0.16825882  -0.50470285  -0.66620924  1
  Cl  Cl6  1  0.87718585  0.12281415  0.50000000  1
  Cl  Cl7  1  0.87718585  0.75437171  0.50000000  1
  Cl  Cl8  1  0.24562829  0.12281415  0.50000000  1
  K  K9  1  0.46156672  0.53843328  0.50000000  1
  K  K10  1  0.46156672  0.92313345  0.50000000  1
  K  K11  1  0.07686655  0.53843328  0.50000000  1
  Li  Li12  1  0.00000000  0.00000000  0.18211181  1
  Li  Li13  1  0.00000000  0.00000000  0.81788819  1
  Li  Li14  1  0.73198038  0.70552901  0.18346543  1
  Li  Li15  1  0.29447099  0.02645137  0.18346543  1
  Li  Li16  1  0.97354863  0.26801962  0.18346543  1
  Li  Li17  1  0.29447099  0.26801962  0.81653457  1
  Li  Li18  1  0.97354863  0.70552901  0.81653457  1
  Li  Li19  1  0.73198038  0.02645137  0.81653457  1
  O  O20  1  0.66666667  0.33333333  -0.00000000  1
  O  O21  1  0.66666667  0.33333333  0.14070077  1
  O  O22  1  0.66666667  0.33333333  0.85929923  1
  Se  Se23  1  0.39874595  0.60125405  -0.00000000  1
  Se  Se24  1  0.39874595  0.79749191  0.00000000  1
  Se  Se25  1  0.20250809  0.60125405  0.00000000  1
  Se  Se26  1  0.89007866  0.10992134  -0.00000000  1
  Se  Se27  1  0.89007866  0.78015732  0.00000000  1
  Se  Se28  1  0.21984268  0.10992134  -0.00000000  1
  Zr  Zr29  1  0.33333333  0.66666667  0.50000000  1
  Zr  Zr30  1  0.00000000  0.00000000  0.00000000  1
  Zr  Zr31  1  0.33333333  0.66666667  0.29971656  1
  Zr  Zr32  1  0.33333333  0.66666667  0.70028344  1
