# generated using pymatgen
data_Li2Cu3P2Se
_symmetry_space_group_name_H-M   'P 1'
_cell_length_a   4.78661838
_cell_length_b   5.16056222
_cell_length_c   6.37527285
_cell_angle_alpha   93.85397755
_cell_angle_beta   97.39219633
_cell_angle_gamma   102.59757300
_symmetry_Int_Tables_number   1
_chemical_formula_structural   Li2Cu3P2Se
_chemical_formula_sum   'Li2 Cu3 P2 Se1'
_cell_volume   151.67087446
_cell_formula_units_Z   1
loop_
 _symmetry_equiv_pos_site_id
 _symmetry_equiv_pos_as_xyz
  1  'x, y, z'
loop_
 _atom_site_type_symbol
 _atom_site_label
 _atom_site_symmetry_multiplicity
 _atom_site_fract_x
 _atom_site_fract_y
 _atom_site_fract_z
 _atom_site_occupancy
  Se  Se0  1  0.12500000  0.12500000  0.12500000  1
  Cu  Cu1  1  0.50000000  0.50000000  0.50000000  1
  Cu  Cu2  1  0.25000000  0.25000000  0.25000000  1
  Cu  Cu3  1  0.75000000  0.75000000  0.75000000  1
  P  P4  1  0.98802328  0.37135677  0.45444420  1
  P  P5  1  0.57337115  0.05321944  0.41751538  1
  Li  Li6  1  0.66474465  0.40232998  0.19786110  1
  Li  Li7  1  0.33031267  0.91356523  0.85494545  1
