# generated using pymatgen
data_LiF
_symmetry_space_group_name_H-M   'P 1'
_cell_length_a   10.45314666
_cell_length_b   10.45314666
_cell_length_c   6.33492164
_cell_angle_alpha   90.00000000
_cell_angle_beta   90.00000000
_cell_angle_gamma   120.00000000
_symmetry_Int_Tables_number   1
_chemical_formula_structural   LiF
_chemical_formula_sum   'Li19 F19'
_cell_volume   599.46794583
_cell_formula_units_Z   19
loop_
 _symmetry_equiv_pos_site_id
 _symmetry_equiv_pos_as_xyz
  1  'x, y, z'
loop_
 _atom_site_type_symbol
 _atom_site_label
 _atom_site_symmetry_multiplicity
 _atom_site_fract_x
 _atom_site_fract_y
 _atom_site_fract_z
 _atom_site_occupancy
  F  F0  1  0.74576722  0.23284203  0.10013439  1
  F  F1  1  0.76715797  0.51292519  0.10013439  1
  F  F2  1  0.48707481  0.25423278  0.10013439  1
  F  F3  1  0.76715797  0.25423278  0.89986561  1
  F  F4  1  0.48707481  0.23284203  0.89986561  1
  F  F5  1  0.74576722  0.51292519  0.89986561  1
  F  F6  1  0.66666667  0.33333333  0.20447148  1
  F  F7  1  0.66666667  0.33333333  0.79552852  1
  F  F8  1  0.79118202  0.88556496  0.59285091  1
  F  F9  1  0.11443504  0.90561706  0.59285091  1
  F  F10  1  0.09438294  0.20881798  0.59285091  1
  F  F11  1  0.11443504  0.20881798  0.40714909  1
  F  F12  1  0.09438294  0.88556496  0.40714909  1
  F  F13  1  0.79118202  0.90561706  0.40714909  1
  F  F14  1  0.61623841  0.38376159  0.00000000  1
  F  F15  1  0.61623841  0.23247681  -0.00000000  1
  F  F16  1  0.76752319  0.38376159  -0.00000000  1
  F  F17  1  0.33333333  0.66666667  0.24650132  1
  F  F18  1  0.33333333  0.66666667  0.75349868  1
  Li  Li19  1  0.33333333  0.66666667  0.50000000  1
  Li  Li20  1  0.06956447  0.46232996  0.79092183  1
  Li  Li21  1  -0.46232996  -0.39276549  0.79092183  1
  Li  Li22  1  0.39276549  -0.06956447  0.79092183  1
  Li  Li23  1  -0.46232996  -0.06956447  -0.79092183  1
  Li  Li24  1  0.39276549  0.46232996  -0.79092183  1
  Li  Li25  1  0.06956447  -0.39276549  -0.79092183  1
  Li  Li26  1  0.36266356  0.00421064  0.04572484  1
  Li  Li27  1  0.99578936  0.35845292  0.04572484  1
  Li  Li28  1  0.64154708  0.63733644  0.04572484  1
  Li  Li29  1  0.99578936  0.63733644  0.95427516  1
  Li  Li30  1  0.64154708  0.00421064  0.95427516  1
  Li  Li31  1  0.36266356  0.35845292  0.95427516  1
  Li  Li32  1  0.72422624  0.09415882  0.20715779  1
  Li  Li33  1  0.90584118  0.63006742  0.20715779  1
  Li  Li34  1  0.36993258  0.27577376  0.20715779  1
  Li  Li35  1  0.90584118  0.27577376  0.79284221  1
  Li  Li36  1  0.36993258  0.09415882  0.79284221  1
  Li  Li37  1  0.72422624  0.63006742  0.79284221  1
