# generated using pymatgen
data_LiF
_symmetry_space_group_name_H-M   'P 1'
_cell_length_a   10.75871825
_cell_length_b   10.75871825
_cell_length_c   8.46942740
_cell_angle_alpha   90.00000000
_cell_angle_beta   90.00000000
_cell_angle_gamma   120.00000000
_symmetry_Int_Tables_number   1
_chemical_formula_structural   LiF
_chemical_formula_sum   'Li28 F28'
_cell_volume   848.99620685
_cell_formula_units_Z   28
loop_
 _symmetry_equiv_pos_site_id
 _symmetry_equiv_pos_as_xyz
  1  'x, y, z'
loop_
 _atom_site_type_symbol
 _atom_site_label
 _atom_site_symmetry_multiplicity
 _atom_site_fract_x
 _atom_site_fract_y
 _atom_site_fract_z
 _atom_site_occupancy
  F  F0  1  0.41573016  0.33331631  0.58719049  1
  F  F1  1  -0.33331631  0.08241385  0.58719049  1
  F  F2  1  -0.08241385  -0.41573016  0.58719049  1
  F  F3  1  -0.41573016  -0.33331631  1.08719049  1
  F  F4  1  0.33331631  -0.08241385  1.08719049  1
  F  F5  1  0.08241385  0.41573016  1.08719049  1
  F  F6  1  -0.41573016  -0.33331631  -0.58719049  1
  F  F7  1  0.33331631  -0.08241385  -0.58719049  1
  F  F8  1  0.08241385  0.41573016  -0.58719049  1
  F  F9  1  0.41573016  0.33331631  -0.08719049  1
  F  F10  1  -0.33331631  0.08241385  -0.08719049  1
  F  F11  1  -0.08241385  -0.41573016  -0.08719049  1
  F  F12  1  0.84062428  0.48295689  0.38268684  1
  F  F13  1  0.51704311  0.35766739  0.38268684  1
  F  F14  1  0.64233261  0.15937572  0.38268684  1
  F  F15  1  0.15937572  0.51704311  0.88268684  1
  F  F16  1  0.48295689  0.64233261  0.88268684  1
  F  F17  1  0.35766739  0.84062428  0.88268684  1
  F  F18  1  0.15937572  0.51704311  0.61731316  1
  F  F19  1  0.48295689  0.64233261  0.61731316  1
  F  F20  1  0.35766739  0.84062428  0.61731316  1
  F  F21  1  0.84062428  0.48295689  0.11731316  1
  F  F22  1  0.51704311  0.35766739  0.11731316  1
  F  F23  1  0.64233261  0.15937572  0.11731316  1
  F  F24  1  0.66666667  0.33333333  0.25000000  1
  F  F25  1  0.33333333  0.66666667  0.75000000  1
  F  F26  1  0.00000000  0.00000000  0.00000000  1
  F  F27  1  0.00000000  0.00000000  0.50000000  1
  Li  Li28  1  0.47890549  0.88640756  0.48921066  1
  Li  Li29  1  0.11359244  0.59249793  0.48921066  1
  Li  Li30  1  0.40750207  0.52109451  0.48921066  1
  Li  Li31  1  0.52109451  0.11359244  0.98921066  1
  Li  Li32  1  0.88640756  0.40750207  0.98921066  1
  Li  Li33  1  0.59249793  0.47890549  0.98921066  1
  Li  Li34  1  0.52109451  0.11359244  0.51078934  1
  Li  Li35  1  0.88640756  0.40750207  0.51078934  1
  Li  Li36  1  0.59249793  0.47890549  0.51078934  1
  Li  Li37  1  0.47890549  0.88640756  0.01078934  1
  Li  Li38  1  0.11359244  0.59249793  0.01078934  1
  Li  Li39  1  0.40750207  0.52109451  0.01078934  1
  Li  Li40  1  0.33333333  0.66666667  0.12892536  1
  Li  Li41  1  0.66666667  0.33333333  0.62892536  1
  Li  Li42  1  0.66666667  0.33333333  0.87107464  1
  Li  Li43  1  0.33333333  0.66666667  0.37107464  1
  Li  Li44  1  0.50176845  0.30573132  0.52023156  1
  Li  Li45  1  0.69426868  0.19603713  0.52023156  1
  Li  Li46  1  0.80396287  0.49823155  0.52023156  1
  Li  Li47  1  0.49823155  0.69426868  0.02023156  1
  Li  Li48  1  0.30573132  0.80396287  0.02023156  1
  Li  Li49  1  0.19603713  0.50176845  0.02023156  1
  Li  Li50  1  0.49823155  0.69426868  0.47976844  1
  Li  Li51  1  0.30573132  0.80396287  0.47976844  1
  Li  Li52  1  0.19603713  0.50176845  0.47976844  1
  Li  Li53  1  0.50176845  0.30573132  0.97976844  1
  Li  Li54  1  0.69426868  0.19603713  0.97976844  1
  Li  Li55  1  0.80396287  0.49823155  0.97976844  1
