# generated using pymatgen
data_Li2As2P3Se
_symmetry_space_group_name_H-M   'P 1'
_cell_length_a   5.01583592
_cell_length_b   5.20087559
_cell_length_c   6.92354155
_cell_angle_alpha   93.72645057
_cell_angle_beta   98.37400626
_cell_angle_gamma   105.17831706
_symmetry_Int_Tables_number   1
_chemical_formula_structural   Li2As2P3Se
_chemical_formula_sum   'Li2 As2 P3 Se1'
_cell_volume   171.44489274
_cell_formula_units_Z   1
loop_
 _symmetry_equiv_pos_site_id
 _symmetry_equiv_pos_as_xyz
  1  'x, y, z'
loop_
 _atom_site_type_symbol
 _atom_site_label
 _atom_site_symmetry_multiplicity
 _atom_site_fract_x
 _atom_site_fract_y
 _atom_site_fract_z
 _atom_site_occupancy
  Se  Se0  1  0.00000000  0.00000000  0.00000000  1
  P  P1  1  0.50000000  0.50000000  0.50000000  1
  P  P2  1  0.25000000  0.25000000  0.25000000  1
  P  P3  1  0.75000000  0.25000000  0.00000000  1
  As  As4  1  0.25000000  0.75000000  0.50000000  1
  As  As5  1  0.89059115  0.72182385  0.26813372  1
  Li  Li6  1  0.71587450  0.39158761  0.54630467  1
  Li  Li7  1  0.63735977  0.44938621  0.38660206  1
