# generated using pymatgen
data_LiF
_symmetry_space_group_name_H-M   'P 1'
_cell_length_a   6.13991673
_cell_length_b   6.13991673
_cell_length_c   8.57174388
_cell_angle_alpha   90.00000000
_cell_angle_beta   90.00000000
_cell_angle_gamma   120.00000000
_symmetry_Int_Tables_number   1
_chemical_formula_structural   LiF
_chemical_formula_sum   'Li9 F9'
_cell_volume   279.84965823
_cell_formula_units_Z   9
loop_
 _symmetry_equiv_pos_site_id
 _symmetry_equiv_pos_as_xyz
  1  'x, y, z'
loop_
 _atom_site_type_symbol
 _atom_site_label
 _atom_site_symmetry_multiplicity
 _atom_site_fract_x
 _atom_site_fract_y
 _atom_site_fract_z
 _atom_site_occupancy
  F  F0  1  0.90145468  0.71966031  0.21535703  1
  F  F1  1  -0.71966031  0.18179436  0.21535703  1
  F  F2  1  -0.18179436  -0.90145468  0.21535703  1
  F  F3  1  -0.71966031  -0.90145468  -0.21535703  1
  F  F4  1  -0.18179436  0.71966031  -0.21535703  1
  F  F5  1  0.90145468  0.18179436  -0.21535703  1
  F  F6  1  0.90958042  0.09041958  0.00000000  1
  F  F7  1  0.90958042  0.81916085  0.00000000  1
  F  F8  1  0.18083915  0.09041958  0.00000000  1
  Li  Li9  1  0.81943551  0.18056449  0.00000000  1
  Li  Li10  1  0.81943551  0.63887102  0.00000000  1
  Li  Li11  1  0.36112898  0.18056449  0.00000000  1
  Li  Li12  1  0.66666667  0.33333333  0.00000000  1
  Li  Li13  1  0.33333333  0.66666667  0.74997731  1
  Li  Li14  1  0.33333333  0.66666667  0.25002269  1
  Li  Li15  1  0.66666667  0.33333333  0.50000000  1
  Li  Li16  1  0.33333333  0.66666667  0.50000000  1
  Li  Li17  1  0.00000000  0.00000000  0.00000000  1
