# generated using pymatgen
data_LiYAs2P
_symmetry_space_group_name_H-M   'P 1'
_cell_length_a   4.99170122
_cell_length_b   5.00711431
_cell_length_c   6.86421638
_cell_angle_alpha   94.71265743
_cell_angle_beta   100.26318814
_cell_angle_gamma   108.92887189
_symmetry_Int_Tables_number   1
_chemical_formula_structural   LiYAs2P
_chemical_formula_sum   'Li2 Y2 As4 P2'
_cell_volume   157.87432783
_cell_formula_units_Z   2
loop_
 _symmetry_equiv_pos_site_id
 _symmetry_equiv_pos_as_xyz
  1  'x, y, z'
loop_
 _atom_site_type_symbol
 _atom_site_label
 _atom_site_symmetry_multiplicity
 _atom_site_fract_x
 _atom_site_fract_y
 _atom_site_fract_z
 _atom_site_occupancy
  P  P0  1  0.00000000  0.00000000  0.00000000  1
  P  P1  1  0.50000000  0.50000000  0.50000000  1
  As  As2  1  0.50000000  0.50000000  0.00000000  1
  As  As3  1  0.50000000  0.00000000  0.50000000  1
  As  As4  1  0.00000000  0.50000000  0.50000000  1
  As  As5  1  0.81604293  0.82089587  0.73382677  1
  Li  Li6  1  0.74862584  0.37345094  0.88163130  1
  Li  Li7  1  0.90418137  0.07933788  0.70110775  1
  Y  Y8  1  0.85210106  0.31719845  0.34471207  1
  Y  Y9  1  0.36616837  0.38134221  0.46493194  1
