# generated using pymatgen
data_LiSb4O3F2
_symmetry_space_group_name_H-M   'P 1'
_cell_length_a   7.31097396
_cell_length_b   7.96693658
_cell_length_c   6.62227576
_cell_angle_alpha   89.98232815
_cell_angle_beta   90.00478391
_cell_angle_gamma   89.40084933
_symmetry_Int_Tables_number   1
_chemical_formula_structural   LiSb4O3F2
_chemical_formula_sum   'Li1 Sb4 O3 F2'
_cell_volume   385.70040086
_cell_formula_units_Z   1
loop_
 _symmetry_equiv_pos_site_id
 _symmetry_equiv_pos_as_xyz
  1  'x, y, z'
loop_
 _atom_site_type_symbol
 _atom_site_label
 _atom_site_symmetry_multiplicity
 _atom_site_fract_x
 _atom_site_fract_y
 _atom_site_fract_z
 _atom_site_occupancy
  F  F0  1  0.12500000  0.00000000  0.25000000  1
  F  F1  1  0.00000000  0.00000000  0.00000000  1
  O  O2  1  0.37500000  0.00000000  0.25000000  1
  O  O3  1  0.25000000  0.25000000  0.25000000  1
  O  O4  1  0.00000000  0.25000000  0.12500000  1
  Li  Li5  1  0.94037995  0.82770461  0.37839172  1
  Sb  Sb6  1  0.80696024  0.14698256  0.34149154  1
  Sb  Sb7  1  0.84044763  0.05814555  0.69288714  1
  Sb  Sb8  1  0.31213426  0.63800407  0.31232545  1
  Sb  Sb9  1  0.79239104  0.54727570  0.00470800  1
