# generated using pymatgen
data_Li4MgZr2Te6O
_symmetry_space_group_name_H-M   'P 1'
_cell_length_a   7.20112030
_cell_length_b   13.02061151
_cell_length_c   11.96894343
_cell_angle_alpha   90.00000000
_cell_angle_beta   90.00000000
_cell_angle_gamma   90.00000000
_symmetry_Int_Tables_number   1
_chemical_formula_structural   Li4MgZr2Te6O
_chemical_formula_sum   'Li16 Mg4 Zr8 Te24 O4'
_cell_volume   1122.24392184
_cell_formula_units_Z   4
loop_
 _symmetry_equiv_pos_site_id
 _symmetry_equiv_pos_as_xyz
  1  'x, y, z'
loop_
 _atom_site_type_symbol
 _atom_site_label
 _atom_site_symmetry_multiplicity
 _atom_site_fract_x
 _atom_site_fract_y
 _atom_site_fract_z
 _atom_site_occupancy
  Li  Li0  1  0.04864500  0.82208669  0.62785167  1
  Li  Li1  1  0.45135500  -0.82208669  1.12785167  1
  Li  Li2  1  -0.04864500  1.32208669  -0.62785167  1
  Li  Li3  1  0.54864500  -0.32208669  -0.12785167  1
  Li  Li4  1  -0.04864500  -0.82208669  -0.62785167  1
  Li  Li5  1  0.54864500  0.82208669  -0.12785167  1
  Li  Li6  1  0.04864500  -0.32208669  0.62785167  1
  Li  Li7  1  0.45135500  1.32208669  1.12785167  1
  Li  Li8  1  0.74134617  0.57299592  0.24311477  1
  Li  Li9  1  0.75865383  0.42700408  0.74311477  1
  Li  Li10  1  0.25865383  0.07299592  0.75688523  1
  Li  Li11  1  0.24134617  0.92700408  0.25688523  1
  Li  Li12  1  0.25865383  0.42700408  0.75688523  1
  Li  Li13  1  0.24134617  0.57299592  0.25688523  1
  Li  Li14  1  0.74134617  0.92700408  0.24311477  1
  Li  Li15  1  0.75865383  0.07299592  0.74311477  1
  Mg  Mg16  1  0.00000000  0.00000000  0.50000000  1
  Mg  Mg17  1  0.50000000  0.00000000  0.00000000  1
  Mg  Mg18  1  0.00000000  0.50000000  0.50000000  1
  Mg  Mg19  1  0.50000000  0.50000000  0.00000000  1
  O  O20  1  0.00000000  0.00000000  0.00000000  1
  O  O21  1  0.50000000  0.00000000  0.50000000  1
  O  O22  1  0.00000000  0.50000000  0.00000000  1
  O  O23  1  0.50000000  0.50000000  0.50000000  1
  Te  Te24  1  0.17799201  0.55675012  0.38867452  1
  Te  Te25  1  0.32200799  0.44324988  0.88867452  1
  Te  Te26  1  0.82200799  0.05675012  0.61132548  1
  Te  Te27  1  0.67799201  0.94324988  0.11132548  1
  Te  Te28  1  0.82200799  0.44324988  0.61132548  1
  Te  Te29  1  0.67799201  0.55675012  0.11132548  1
  Te  Te30  1  0.17799201  0.94324988  0.38867452  1
  Te  Te31  1  0.32200799  0.05675012  0.88867452  1
  Te  Te32  1  0.12314654  0.02708432  0.83554466  1
  Te  Te33  1  0.37685346  0.97291568  0.33554466  1
  Te  Te34  1  0.87685346  0.52708432  0.16445534  1
  Te  Te35  1  0.62314654  0.47291568  0.66445534  1
  Te  Te36  1  0.87685346  0.97291568  0.16445534  1
  Te  Te37  1  0.62314654  0.02708432  0.66445534  1
  Te  Te38  1  0.12314654  0.47291568  0.83554466  1
  Te  Te39  1  0.37685346  0.52708432  0.33554466  1
  Te  Te40  1  0.90175286  0.56199307  0.84641766  1
  Te  Te41  1  0.59824714  0.43800693  0.34641766  1
  Te  Te42  1  0.09824714  0.06199307  0.15358234  1
  Te  Te43  1  0.40175286  0.93800693  0.65358234  1
  Te  Te44  1  0.09824714  0.43800693  0.15358234  1
  Te  Te45  1  0.40175286  0.56199307  0.65358234  1
  Te  Te46  1  0.90175286  0.93800693  0.84641766  1
  Te  Te47  1  0.59824714  0.06199307  0.34641766  1
  Zr  Zr48  1  0.20181766  0.25000000  0.97532439  1
  Zr  Zr49  1  0.29818234  0.75000000  0.47532439  1
  Zr  Zr50  1  0.79818234  0.75000000  0.02467561  1
  Zr  Zr51  1  0.70181766  0.25000000  0.52467561  1
  Zr  Zr52  1  0.58255590  0.25000000  0.72772233  1
  Zr  Zr53  1  0.91744410  0.75000000  0.22772233  1
  Zr  Zr54  1  0.41744410  0.75000000  0.27227767  1
  Zr  Zr55  1  0.08255590  0.25000000  0.77227767  1
