# generated using pymatgen
data_LiF
_symmetry_space_group_name_H-M   'P 1'
_cell_length_a   5.12593077
_cell_length_b   8.57733316
_cell_length_c   8.28998521
_cell_angle_alpha   90.00000000
_cell_angle_beta   90.00000000
_cell_angle_gamma   90.00000000
_symmetry_Int_Tables_number   1
_chemical_formula_structural   LiF
_chemical_formula_sum   'Li14 F14'
_cell_volume   364.48425422
_cell_formula_units_Z   14
loop_
 _symmetry_equiv_pos_site_id
 _symmetry_equiv_pos_as_xyz
  1  'x, y, z'
loop_
 _atom_site_type_symbol
 _atom_site_label
 _atom_site_symmetry_multiplicity
 _atom_site_fract_x
 _atom_site_fract_y
 _atom_site_fract_z
 _atom_site_occupancy
  F  F0  1  0.50628955  0.63569272  0.20698808  1
  F  F1  1  -0.50628955  -0.63569272  0.20698808  1
  F  F2  1  -0.00628955  1.13569272  -0.20698808  1
  F  F3  1  1.00628955  -0.13569272  -0.20698808  1
  F  F4  1  -0.50628955  -0.63569272  -0.20698808  1
  F  F5  1  0.50628955  0.63569272  -0.20698808  1
  F  F6  1  1.00628955  -0.13569272  0.20698808  1
  F  F7  1  -0.00628955  1.13569272  0.20698808  1
  F  F8  1  0.00000000  0.00000000  0.00000000  1
  F  F9  1  0.50000000  0.50000000  0.00000000  1
  F  F10  1  0.02976011  0.27746900  0.00000000  1
  F  F11  1  0.97023989  0.72253100  0.00000000  1
  F  F12  1  0.47023989  0.77746900  0.00000000  1
  F  F13  1  0.52976011  0.22253100  0.00000000  1
  Li  Li14  1  0.31846199  0.20732201  0.13288081  1
  Li  Li15  1  0.68153801  0.79267799  0.13288081  1
  Li  Li16  1  0.18153801  0.70732201  0.86711919  1
  Li  Li17  1  0.81846199  0.29267799  0.86711919  1
  Li  Li18  1  0.68153801  0.79267799  0.86711919  1
  Li  Li19  1  0.31846199  0.20732201  0.86711919  1
  Li  Li20  1  0.81846199  0.29267799  0.13288081  1
  Li  Li21  1  0.18153801  0.70732201  0.13288081  1
  Li  Li22  1  0.12543243  0.28971974  0.50000000  1
  Li  Li23  1  0.87456757  0.71028026  0.50000000  1
  Li  Li24  1  0.37456757  0.78971974  0.50000000  1
  Li  Li25  1  0.62543243  0.21028026  0.50000000  1
  Li  Li26  1  0.00000000  0.50000000  0.00000000  1
  Li  Li27  1  0.50000000  -0.00000000  0.00000000  1
