# generated using pymatgen
data_LiY2Cu3(PSe)2
_symmetry_space_group_name_H-M   'P 1'
_cell_length_a   4.74262646
_cell_length_b   4.94846465
_cell_length_c   6.97264238
_cell_angle_alpha   95.18844334
_cell_angle_beta   101.05253613
_cell_angle_gamma   110.45284384
_symmetry_Int_Tables_number   1
_chemical_formula_structural   LiY2Cu3(PSe)2
_chemical_formula_sum   'Li1 Y2 Cu3 P2 Se2'
_cell_volume   148.25800137
_cell_formula_units_Z   1
loop_
 _symmetry_equiv_pos_site_id
 _symmetry_equiv_pos_as_xyz
  1  'x, y, z'
loop_
 _atom_site_type_symbol
 _atom_site_label
 _atom_site_symmetry_multiplicity
 _atom_site_fract_x
 _atom_site_fract_y
 _atom_site_fract_z
 _atom_site_occupancy
  Se  Se0  1  0.12500000  0.00000000  0.25000000  1
  Se  Se1  1  0.00000000  0.00000000  0.00000000  1
  Cu  Cu2  1  0.37500000  0.00000000  0.25000000  1
  Cu  Cu3  1  0.25000000  0.25000000  0.25000000  1
  Cu  Cu4  1  0.00000000  0.25000000  0.12500000  1
  Y  Y5  1  0.09376227  0.09838856  0.44020948  1
  Y  Y6  1  0.63116217  0.61367191  0.23878766  1
  P  P7  1  0.13368818  0.83751584  0.67941014  1
  P  P8  1  0.82064211  0.31721961  0.36128622  1
  Li  Li9  1  0.22510401  0.89930103  0.86439829  1
