# generated using pymatgen
data_LiF
_symmetry_space_group_name_H-M   'P 1'
_cell_length_a   6.24044301
_cell_length_b   6.24044301
_cell_length_c   9.19302785
_cell_angle_alpha   90.00000000
_cell_angle_beta   90.00000000
_cell_angle_gamma   120.00000000
_symmetry_Int_Tables_number   1
_chemical_formula_structural   LiF
_chemical_formula_sum   'Li14 F14'
_cell_volume   310.04165816
_cell_formula_units_Z   14
loop_
 _symmetry_equiv_pos_site_id
 _symmetry_equiv_pos_as_xyz
  1  'x, y, z'
loop_
 _atom_site_type_symbol
 _atom_site_label
 _atom_site_symmetry_multiplicity
 _atom_site_fract_x
 _atom_site_fract_y
 _atom_site_fract_z
 _atom_site_occupancy
  F  F0  1  0.00000000  0.00000000  0.11971367  1
  F  F1  1  0.00000000  0.00000000  0.88028633  1
  F  F2  1  0.96986294  0.90755515  0.03348429  1
  F  F3  1  0.09244485  0.06230779  0.03348429  1
  F  F4  1  0.93769221  0.03013706  0.03348429  1
  F  F5  1  0.09244485  0.03013706  0.96651571  1
  F  F6  1  0.93769221  0.90755515  0.96651571  1
  F  F7  1  0.96986294  0.06230779  0.96651571  1
  F  F8  1  0.94989143  0.31915924  0.05834214  1
  F  F9  1  0.68084076  0.63073219  0.05834214  1
  F  F10  1  0.36926781  0.05010857  0.05834214  1
  F  F11  1  0.68084076  0.05010857  0.94165786  1
  F  F12  1  0.36926781  0.31915924  0.94165786  1
  F  F13  1  0.94989143  0.63073219  0.94165786  1
  Li  Li14  1  0.77576537  0.57555147  0.70839133  1
  Li  Li15  1  -0.57555147  0.20021390  0.70839133  1
  Li  Li16  1  -0.20021390  -0.77576537  0.70839133  1
  Li  Li17  1  -0.57555147  -0.77576537  -0.70839133  1
  Li  Li18  1  -0.20021390  0.57555147  -0.70839133  1
  Li  Li19  1  0.77576537  0.20021390  -0.70839133  1
  Li  Li20  1  0.66666667  0.33333333  0.50000000  1
  Li  Li21  1  0.14410175  0.85589825  0.50000000  1
  Li  Li22  1  0.14410175  0.28820350  0.50000000  1
  Li  Li23  1  0.71179650  0.85589825  0.50000000  1
  Li  Li24  1  0.59812360  0.40187640  0.00000000  1
  Li  Li25  1  0.59812360  0.19624720  -0.00000000  1
  Li  Li26  1  0.80375280  0.40187640  0.00000000  1
  Li  Li27  1  0.00000000  0.00000000  0.50000000  1
