# generated using pymatgen
data_LiF
_symmetry_space_group_name_H-M   'P 1'
_cell_length_a   6.09281011
_cell_length_b   6.45150634
_cell_length_c   5.13943150
_cell_angle_alpha   90.00000000
_cell_angle_beta   90.00000000
_cell_angle_gamma   90.00000000
_symmetry_Int_Tables_number   1
_chemical_formula_structural   LiF
_chemical_formula_sum   'Li8 F8'
_cell_volume   202.01976129
_cell_formula_units_Z   8
loop_
 _symmetry_equiv_pos_site_id
 _symmetry_equiv_pos_as_xyz
  1  'x, y, z'
loop_
 _atom_site_type_symbol
 _atom_site_label
 _atom_site_symmetry_multiplicity
 _atom_site_fract_x
 _atom_site_fract_y
 _atom_site_fract_z
 _atom_site_occupancy
  F  F0  1  0.94339490  0.09766363  0.15985132  1
  F  F1  1  -0.94339490  -0.09766363  0.15985132  1
  F  F2  1  -0.44339490  0.59766363  -0.15985132  1
  F  F3  1  1.44339490  0.40233637  -0.15985132  1
  F  F4  1  -0.94339490  -0.09766363  -0.15985132  1
  F  F5  1  0.94339490  0.09766363  -0.15985132  1
  F  F6  1  1.44339490  0.40233637  0.15985132  1
  F  F7  1  -0.44339490  0.59766363  0.15985132  1
  Li  Li8  1  0.03158260  0.30175513  0.50000000  1
  Li  Li9  1  0.96841740  0.69824487  0.50000000  1
  Li  Li10  1  0.46841740  0.80175513  0.50000000  1
  Li  Li11  1  0.53158260  0.19824487  0.50000000  1
  Li  Li12  1  0.82549566  0.36357725  -0.00000000  1
  Li  Li13  1  0.17450434  0.63642275  0.00000000  1
  Li  Li14  1  0.67450434  0.86357725  0.00000000  1
  Li  Li15  1  0.32549566  0.13642275  -0.00000000  1
