# generated using pymatgen
data_Li2Y2Te4MoP3
_symmetry_space_group_name_H-M   'P 1'
_cell_length_a   4.92608348
_cell_length_b   5.23156238
_cell_length_c   7.04627300
_cell_angle_alpha   95.10016066
_cell_angle_beta   101.10708962
_cell_angle_gamma   110.48531837
_symmetry_Int_Tables_number   1
_chemical_formula_structural   Li2Y2Te4MoP3
_chemical_formula_sum   'Li2 Y2 Te4 Mo1 P3'
_cell_volume   164.48933891
_cell_formula_units_Z   1
loop_
 _symmetry_equiv_pos_site_id
 _symmetry_equiv_pos_as_xyz
  1  'x, y, z'
loop_
 _atom_site_type_symbol
 _atom_site_label
 _atom_site_symmetry_multiplicity
 _atom_site_fract_x
 _atom_site_fract_y
 _atom_site_fract_z
 _atom_site_occupancy
  Te  Te0  1  0.00000000  0.00000000  0.00000000  1
  Te  Te1  1  0.50000000  0.50000000  0.50000000  1
  Te  Te2  1  0.25000000  0.25000000  0.25000000  1
  Te  Te3  1  0.75000000  0.25000000  0.00000000  1
  P  P4  1  0.25000000  0.75000000  0.50000000  1
  P  P5  1  0.15426751  0.18225938  0.32286197  1
  P  P6  1  0.86729077  0.08569314  0.79236925  1
  Mo  Mo7  1  0.96913573  0.13775634  0.00240984  1
  Li  Li8  1  0.51748369  0.39209478  0.87622791  1
  Li  Li9  1  0.78459682  0.71255899  0.12502316  1
  Y  Y10  1  0.98711519  0.97921844  0.70140176  1
  Y  Y11  1  0.82546052  0.43091242  0.65509696  1
