# generated using pymatgen
data_LiF
_symmetry_space_group_name_H-M   'P 1'
_cell_length_a   9.53717328
_cell_length_b   9.53717328
_cell_length_c   9.57285662
_cell_angle_alpha   90.00000000
_cell_angle_beta   90.00000000
_cell_angle_gamma   90.00000000
_symmetry_Int_Tables_number   1
_chemical_formula_structural   LiF
_chemical_formula_sum   'Li64 F64'
_cell_volume   870.72477324
_cell_formula_units_Z   64
loop_
 _symmetry_equiv_pos_site_id
 _symmetry_equiv_pos_as_xyz
  1  'x, y, z'
loop_
 _atom_site_type_symbol
 _atom_site_label
 _atom_site_symmetry_multiplicity
 _atom_site_fract_x
 _atom_site_fract_y
 _atom_site_fract_z
 _atom_site_occupancy
  F  F0  1  0.00000000  0.25000000  0.98473255  1
  F  F1  1  0.00000000  0.75000000  0.23473255  1
  F  F2  1  0.50000000  0.25000000  0.01526745  1
  F  F3  1  0.50000000  0.75000000  0.76526745  1
  F  F4  1  0.00000000  0.75000000  0.01526745  1
  F  F5  1  0.00000000  0.25000000  0.76526745  1
  F  F6  1  0.50000000  0.75000000  0.98473255  1
  F  F7  1  0.50000000  0.25000000  0.23473255  1
  F  F8  1  0.50000000  0.75000000  0.48473255  1
  F  F9  1  0.50000000  0.25000000  0.73473255  1
  F  F10  1  0.00000000  0.75000000  0.51526745  1
  F  F11  1  0.00000000  0.25000000  0.26526745  1
  F  F12  1  0.50000000  0.25000000  0.51526745  1
  F  F13  1  0.50000000  0.75000000  0.26526745  1
  F  F14  1  0.00000000  0.25000000  0.48473255  1
  F  F15  1  0.00000000  0.75000000  0.73473255  1
  F  F16  1  0.48706045  0.80357745  0.33301679  1
  F  F17  1  0.01293955  0.19642255  0.83301679  1
  F  F18  1  0.44642255  0.23706045  0.58301679  1
  F  F19  1  0.05357745  0.76293955  0.08301679  1
  F  F20  1  0.01293955  0.80357745  0.66698321  1
  F  F21  1  0.48706045  0.19642255  0.16698321  1
  F  F22  1  0.05357745  0.23706045  0.41698321  1
  F  F23  1  0.44642255  0.76293955  0.91698321  1
  F  F24  1  0.51293955  0.19642255  0.66698321  1
  F  F25  1  0.98706045  0.80357745  0.16698321  1
  F  F26  1  0.55357745  0.76293955  0.41698321  1
  F  F27  1  0.94642255  0.23706045  0.91698321  1
  F  F28  1  0.98706045  0.19642255  0.33301679  1
  F  F29  1  0.51293955  0.80357745  0.83301679  1
  F  F30  1  0.94642255  0.76293955  0.58301679  1
  F  F31  1  0.55357745  0.23706045  0.08301679  1
  F  F32  1  0.98706045  0.30357745  0.83301679  1
  F  F33  1  0.51293955  0.69642255  0.33301679  1
  F  F34  1  0.94642255  0.73706045  0.08301679  1
  F  F35  1  0.55357745  0.26293955  0.58301679  1
  F  F36  1  0.51293955  0.30357745  0.16698321  1
  F  F37  1  0.98706045  0.69642255  0.66698321  1
  F  F38  1  0.55357745  0.73706045  0.91698321  1
  F  F39  1  0.94642255  0.26293955  0.41698321  1
  F  F40  1  0.01293955  0.69642255  0.16698321  1
  F  F41  1  0.48706045  0.30357745  0.66698321  1
  F  F42  1  0.05357745  0.26293955  0.91698321  1
  F  F43  1  0.44642255  0.73706045  0.41698321  1
  F  F44  1  0.48706045  0.69642255  0.83301679  1
  F  F45  1  0.01293955  0.30357745  0.33301679  1
  F  F46  1  0.44642255  0.26293955  0.08301679  1
  F  F47  1  0.05357745  0.73706045  0.58301679  1
  F  F48  1  0.81378143  0.00000000  0.25000000  1
  F  F49  1  0.68621857  0.00000000  0.75000000  1
  F  F50  1  0.25000000  0.56378143  0.50000000  1
  F  F51  1  0.25000000  0.43621857  0.00000000  1
  F  F52  1  0.18621857  0.00000000  0.75000000  1
  F  F53  1  0.31378143  0.00000000  0.25000000  1
  F  F54  1  0.75000000  0.43621857  0.50000000  1
  F  F55  1  0.75000000  0.56378143  -0.00000000  1
  F  F56  1  0.31378143  0.50000000  0.75000000  1
  F  F57  1  0.18621857  0.50000000  0.25000000  1
  F  F58  1  0.75000000  0.06378143  -0.00000000  1
  F  F59  1  0.75000000  0.93621857  0.50000000  1
  F  F60  1  0.68621857  0.50000000  0.25000000  1
  F  F61  1  0.81378143  0.50000000  0.75000000  1
  F  F62  1  0.25000000  0.93621857  -0.00000000  1
  F  F63  1  0.25000000  0.06378143  0.50000000  1
  Li  Li64  1  0.21388799  0.46388799  0.12500000  1
  Li  Li65  1  0.28611201  0.53611201  0.62500000  1
  Li  Li66  1  0.78611201  0.96388799  0.37500000  1
  Li  Li67  1  0.71388799  0.03611201  0.87500000  1
  Li  Li68  1  0.78611201  0.53611201  0.87500000  1
  Li  Li69  1  0.71388799  0.46388799  0.37500000  1
  Li  Li70  1  0.21388799  0.03611201  0.62500000  1
  Li  Li71  1  0.28611201  0.96388799  0.12500000  1
  Li  Li72  1  0.71388799  0.96388799  0.62500000  1
  Li  Li73  1  0.78611201  0.03611201  0.12500000  1
  Li  Li74  1  0.28611201  0.46388799  0.87500000  1
  Li  Li75  1  0.21388799  0.53611201  0.37500000  1
  Li  Li76  1  0.28611201  0.03611201  0.37500000  1
  Li  Li77  1  0.21388799  0.96388799  0.87500000  1
  Li  Li78  1  0.71388799  0.53611201  0.12500000  1
  Li  Li79  1  0.78611201  0.46388799  0.62500000  1
  Li  Li80  1  0.18470181  0.00000000  0.25000000  1
  Li  Li81  1  0.31529819  0.00000000  0.75000000  1
  Li  Li82  1  0.25000000  0.93470181  0.50000000  1
  Li  Li83  1  0.25000000  0.06529819  0.00000000  1
  Li  Li84  1  0.81529819  -0.00000000  0.75000000  1
  Li  Li85  1  0.68470181  0.00000000  0.25000000  1
  Li  Li86  1  0.75000000  0.06529819  0.50000000  1
  Li  Li87  1  0.75000000  0.93470181  -0.00000000  1
  Li  Li88  1  0.68470181  0.50000000  0.75000000  1
  Li  Li89  1  0.81529819  0.50000000  0.25000000  1
  Li  Li90  1  0.75000000  0.43470181  -0.00000000  1
  Li  Li91  1  0.75000000  0.56529819  0.50000000  1
  Li  Li92  1  0.31529819  0.50000000  0.25000000  1
  Li  Li93  1  0.18470181  0.50000000  0.75000000  1
  Li  Li94  1  0.25000000  0.56529819  0.00000000  1
  Li  Li95  1  0.25000000  0.43470181  0.50000000  1
  Li  Li96  1  0.50714625  0.07543167  0.09129183  1
  Li  Li97  1  -0.00714625  -0.07543167  0.59129183  1
  Li  Li98  1  0.17456833  1.25714625  0.34129183  1
  Li  Li99  1  0.32543167  -0.25714625  0.84129183  1
  Li  Li100  1  -0.00714625  0.07543167  -0.09129183  1
  Li  Li101  1  0.50714625  -0.07543167  0.40870817  1
  Li  Li102  1  0.32543167  1.25714625  0.65870817  1
  Li  Li103  1  0.17456833  -0.25714625  0.15870817  1
  Li  Li104  1  -0.50714625  -0.07543167  -0.09129183  1
  Li  Li105  1  1.00714625  0.07543167  0.40870817  1
  Li  Li106  1  0.82543167  -0.25714625  0.65870817  1
  Li  Li107  1  0.67456833  1.25714625  0.15870817  1
  Li  Li108  1  1.00714625  -0.07543167  0.09129183  1
  Li  Li109  1  -0.50714625  0.07543167  0.59129183  1
  Li  Li110  1  0.67456833  -0.25714625  0.34129183  1
  Li  Li111  1  0.82543167  1.25714625  0.84129183  1
  Li  Li112  1  1.00714625  0.57543167  0.59129183  1
  Li  Li113  1  0.49285375  0.42456833  1.09129183  1
  Li  Li114  1  0.67456833  1.75714625  0.84129183  1
  Li  Li115  1  0.82543167  0.24285375  1.34129183  1
  Li  Li116  1  0.49285375  0.57543167  0.40870817  1
  Li  Li117  1  1.00714625  0.42456833  0.90870817  1
  Li  Li118  1  0.82543167  1.75714625  1.15870817  1
  Li  Li119  1  0.67456833  0.24285375  0.65870817  1
  Li  Li120  1  -0.00714625  0.42456833  0.40870817  1
  Li  Li121  1  1.50714625  0.57543167  0.90870817  1
  Li  Li122  1  1.32543167  0.24285375  1.15870817  1
  Li  Li123  1  1.17456833  1.75714625  0.65870817  1
  Li  Li124  1  1.50714625  0.42456833  0.59129183  1
  Li  Li125  1  -0.00714625  0.57543167  1.09129183  1
  Li  Li126  1  1.17456833  0.24285375  0.84129183  1
  Li  Li127  1  1.32543167  1.75714625  1.34129183  1
