# generated using pymatgen
data_LiF
_symmetry_space_group_name_H-M   'P 1'
_cell_length_a   9.53923632
_cell_length_b   7.67670499
_cell_length_c   7.82538271
_cell_angle_alpha   90.00000000
_cell_angle_beta   90.00000000
_cell_angle_gamma   90.00000000
_symmetry_Int_Tables_number   1
_chemical_formula_structural   LiF
_chemical_formula_sum   'Li24 F24'
_cell_volume   573.05201750
_cell_formula_units_Z   24
loop_
 _symmetry_equiv_pos_site_id
 _symmetry_equiv_pos_as_xyz
  1  'x, y, z'
loop_
 _atom_site_type_symbol
 _atom_site_label
 _atom_site_symmetry_multiplicity
 _atom_site_fract_x
 _atom_site_fract_y
 _atom_site_fract_z
 _atom_site_occupancy
  F  F0  1  0.25163735  0.25000000  0.85513508  1
  F  F1  1  0.24836265  0.75000000  0.35513508  1
  F  F2  1  0.74836265  0.75000000  0.14486492  1
  F  F3  1  0.75163735  0.25000000  0.64486492  1
  F  F4  1  0.00000000  0.00000000  0.00000000  1
  F  F5  1  0.50000000  -0.00000000  0.50000000  1
  F  F6  1  0.00000000  0.50000000  0.00000000  1
  F  F7  1  0.50000000  0.50000000  0.50000000  1
  F  F8  1  0.03617285  0.25000000  0.56281802  1
  F  F9  1  0.46382715  0.75000000  0.06281802  1
  F  F10  1  0.96382715  0.75000000  0.43718198  1
  F  F11  1  0.53617285  0.25000000  0.93718198  1
  F  F12  1  0.51042024  0.25000000  0.67048632  1
  F  F13  1  0.98957976  0.75000000  0.17048632  1
  F  F14  1  0.48957976  0.75000000  0.32951368  1
  F  F15  1  0.01042024  0.25000000  0.82951368  1
  F  F16  1  0.20351495  0.69025669  0.72826486  1
  F  F17  1  0.29648505  0.30974331  0.22826486  1
  F  F18  1  0.79648505  0.19025669  0.27173514  1
  F  F19  1  0.70351495  0.80974331  0.77173514  1
  F  F20  1  0.79648505  0.30974331  0.27173514  1
  F  F21  1  0.70351495  0.69025669  0.77173514  1
  F  F22  1  0.20351495  0.80974331  0.72826486  1
  F  F23  1  0.29648505  0.19025669  0.22826486  1
  Li  Li24  1  0.22747883  0.62154438  0.03703742  1
  Li  Li25  1  0.27252117  -0.62154438  0.53703742  1
  Li  Li26  1  -0.22747883  1.12154438  -0.03703742  1
  Li  Li27  1  0.72747883  -0.12154438  0.46296258  1
  Li  Li28  1  -0.22747883  -0.62154438  -0.03703742  1
  Li  Li29  1  0.72747883  0.62154438  0.46296258  1
  Li  Li30  1  0.22747883  -0.12154438  0.03703742  1
  Li  Li31  1  0.27252117  1.12154438  0.53703742  1
  Li  Li32  1  0.84601399  0.25000000  0.47822196  1
  Li  Li33  1  0.65398601  0.75000000  0.97822196  1
  Li  Li34  1  0.15398601  0.75000000  0.52177804  1
  Li  Li35  1  0.34601399  0.25000000  0.02177804  1
  Li  Li36  1  0.00000000  0.00000000  0.50000000  1
  Li  Li37  1  0.50000000  -0.00000000  0.00000000  1
  Li  Li38  1  0.00000000  0.50000000  0.50000000  1
  Li  Li39  1  0.50000000  0.50000000  0.00000000  1
  Li  Li40  1  0.85223441  0.62070257  0.57367926  1
  Li  Li41  1  0.64776559  0.37929743  0.07367926  1
  Li  Li42  1  0.14776559  0.12070257  0.42632074  1
  Li  Li43  1  0.35223441  0.87929743  0.92632074  1
  Li  Li44  1  0.14776559  0.37929743  0.42632074  1
  Li  Li45  1  0.35223441  0.62070257  0.92632074  1
  Li  Li46  1  0.85223441  0.87929743  0.57367926  1
  Li  Li47  1  0.64776559  0.12070257  0.07367926  1
