# generated using pymatgen
data_NaLi2F3
_symmetry_space_group_name_H-M   'P 1'
_cell_length_a   8.66488749
_cell_length_b   8.66488749
_cell_length_c   14.07279066
_cell_angle_alpha   90.00000000
_cell_angle_beta   90.00000000
_cell_angle_gamma   120.00000000
_symmetry_Int_Tables_number   1
_chemical_formula_structural   NaLi2F3
_chemical_formula_sum   'Na12 Li24 F36'
_cell_volume   915.03291142
_cell_formula_units_Z   12
loop_
 _symmetry_equiv_pos_site_id
 _symmetry_equiv_pos_as_xyz
  1  'x, y, z'
loop_
 _atom_site_type_symbol
 _atom_site_label
 _atom_site_symmetry_multiplicity
 _atom_site_fract_x
 _atom_site_fract_y
 _atom_site_fract_z
 _atom_site_occupancy
  F  F0  1  0.40941808  0.81883615  0.05711048  1
  F  F1  1  -0.81883615  -0.40941808  0.05711048  1
  F  F2  1  0.40941808  -0.40941808  0.05711048  1
  F  F3  1  -0.40941808  -0.81883615  0.55711048  1
  F  F4  1  0.81883615  0.40941808  0.55711048  1
  F  F5  1  -0.40941808  0.40941808  0.55711048  1
  F  F6  1  0.81883615  0.40941808  -0.05711048  1
  F  F7  1  -0.40941808  -0.81883615  -0.05711048  1
  F  F8  1  -0.40941808  0.40941808  -0.05711048  1
  F  F9  1  -0.81883615  -0.40941808  0.44288952  1
  F  F10  1  0.40941808  0.81883615  0.44288952  1
  F  F11  1  0.40941808  -0.40941808  0.44288952  1
  F  F12  1  0.17798816  0.35597633  0.61854949  1
  F  F13  1  0.64402367  0.82201184  0.61854949  1
  F  F14  1  0.17798816  0.82201184  0.61854949  1
  F  F15  1  0.82201184  0.64402367  0.11854949  1
  F  F16  1  0.35597633  0.17798816  0.11854949  1
  F  F17  1  0.82201184  0.17798816  0.11854949  1
  F  F18  1  0.35597633  0.17798816  0.38145051  1
  F  F19  1  0.82201184  0.64402367  0.38145051  1
  F  F20  1  0.82201184  0.17798816  0.38145051  1
  F  F21  1  0.64402367  0.82201184  0.88145051  1
  F  F22  1  0.17798816  0.35597633  0.88145051  1
  F  F23  1  0.17798816  0.82201184  0.88145051  1
  F  F24  1  0.33333333  0.66666667  0.34210672  1
  F  F25  1  0.66666667  0.33333333  0.84210672  1
  F  F26  1  0.66666667  0.33333333  0.65789328  1
  F  F27  1  0.33333333  0.66666667  0.15789328  1
  F  F28  1  0.52495510  0.04991021  0.25000000  1
  F  F29  1  0.95008979  0.47504490  0.25000000  1
  F  F30  1  0.52495510  0.47504490  0.25000000  1
  F  F31  1  0.47504490  0.95008979  0.75000000  1
  F  F32  1  0.04991021  0.52495510  0.75000000  1
  F  F33  1  0.47504490  0.52495510  0.75000000  1
  F  F34  1  0.33333333  0.66666667  0.25000000  1
  F  F35  1  0.66666667  0.33333333  0.75000000  1
  Li  Li36  1  0.44247446  0.88494892  0.68196768  1
  Li  Li37  1  0.11505108  0.55752554  0.68196768  1
  Li  Li38  1  0.44247446  0.55752554  0.68196768  1
  Li  Li39  1  0.55752554  0.11505108  0.18196768  1
  Li  Li40  1  0.88494892  0.44247446  0.18196768  1
  Li  Li41  1  0.55752554  0.44247446  0.18196768  1
  Li  Li42  1  0.88494892  0.44247446  0.31803232  1
  Li  Li43  1  0.55752554  0.11505108  0.31803232  1
  Li  Li44  1  0.55752554  0.44247446  0.31803232  1
  Li  Li45  1  0.11505108  0.55752554  0.81803232  1
  Li  Li46  1  0.44247446  0.88494892  0.81803232  1
  Li  Li47  1  0.44247446  0.55752554  0.81803232  1
  Li  Li48  1  0.10575297  0.21150594  0.90537113  1
  Li  Li49  1  0.78849406  0.89424703  0.90537113  1
  Li  Li50  1  0.10575297  0.89424703  0.90537113  1
  Li  Li51  1  0.89424703  0.78849406  0.40537113  1
  Li  Li52  1  0.21150594  0.10575297  0.40537113  1
  Li  Li53  1  0.89424703  0.10575297  0.40537113  1
  Li  Li54  1  0.21150594  0.10575297  0.09462887  1
  Li  Li55  1  0.89424703  0.78849406  0.09462887  1
  Li  Li56  1  0.89424703  0.10575297  0.09462887  1
  Li  Li57  1  0.78849406  0.89424703  0.59462887  1
  Li  Li58  1  0.10575297  0.21150594  0.59462887  1
  Li  Li59  1  0.10575297  0.89424703  0.59462887  1
  Na  Na60  1  0.00000000  0.00000000  0.33069408  1
  Na  Na61  1  0.00000000  0.00000000  0.83069408  1
  Na  Na62  1  0.00000000  0.00000000  0.66930592  1
  Na  Na63  1  0.00000000  0.00000000  0.16930592  1
  Na  Na64  1  0.33333333  0.66666667  0.75000000  1
  Na  Na65  1  0.66666667  0.33333333  0.25000000  1
  Na  Na66  1  0.00000000  0.00000000  0.00000000  1
  Na  Na67  1  0.00000000  0.00000000  0.50000000  1
  Na  Na68  1  0.33333333  0.66666667  0.42248026  1
  Na  Na69  1  0.66666667  0.33333333  0.92248026  1
  Na  Na70  1  0.66666667  0.33333333  0.57751974  1
  Na  Na71  1  0.33333333  0.66666667  0.07751974  1
