# generated using pymatgen
data_LiF
_symmetry_space_group_name_H-M   'P 1'
_cell_length_a   6.51741729
_cell_length_b   8.31458388
_cell_length_c   6.99219465
_cell_angle_alpha   90.00000000
_cell_angle_beta   90.00000000
_cell_angle_gamma   90.00000000
_symmetry_Int_Tables_number   1
_chemical_formula_structural   LiF
_chemical_formula_sum   'Li28 F28'
_cell_volume   378.90432008
_cell_formula_units_Z   28
loop_
 _symmetry_equiv_pos_site_id
 _symmetry_equiv_pos_as_xyz
  1  'x, y, z'
loop_
 _atom_site_type_symbol
 _atom_site_label
 _atom_site_symmetry_multiplicity
 _atom_site_fract_x
 _atom_site_fract_y
 _atom_site_fract_z
 _atom_site_occupancy
  F  F0  1  0.00000000  0.00000000  0.50000000  1
  F  F1  1  0.50000000  0.50000000  0.50000000  1
  F  F2  1  0.92207650  0.55377442  0.57968884  1
  F  F3  1  -0.92207650  -0.55377442  0.57968884  1
  F  F4  1  -0.42207650  1.05377442  -0.57968884  1
  F  F5  1  1.42207650  -0.05377442  -0.57968884  1
  F  F6  1  -0.92207650  -0.55377442  -0.57968884  1
  F  F7  1  0.92207650  0.55377442  -0.57968884  1
  F  F8  1  1.42207650  -0.05377442  0.57968884  1
  F  F9  1  -0.42207650  1.05377442  0.57968884  1
  F  F10  1  0.00000000  0.00000000  0.00000000  1
  F  F11  1  0.50000000  0.50000000  -0.00000000  1
  F  F12  1  0.29302963  0.98409693  -0.00000000  1
  F  F13  1  0.70697037  0.01590307  -0.00000000  1
  F  F14  1  0.20697037  0.48409693  -0.00000000  1
  F  F15  1  0.79302963  0.51590307  0.00000000  1
  F  F16  1  0.00000000  0.50000000  0.00000000  1
  F  F17  1  0.50000000  0.00000000  0.00000000  1
  F  F18  1  0.76494425  0.96327289  0.00000000  1
  F  F19  1  0.23505575  0.03672711  -0.00000000  1
  F  F20  1  0.73505575  0.46327289  -0.00000000  1
  F  F21  1  0.26494425  0.53672711  -0.00000000  1
  F  F22  1  0.00000000  0.50000000  0.50000000  1
  F  F23  1  0.50000000  0.00000000  0.50000000  1
  F  F24  1  0.08726641  0.96299977  0.50000000  1
  F  F25  1  0.91273359  0.03700023  0.50000000  1
  F  F26  1  0.41273359  0.46299977  0.50000000  1
  F  F27  1  0.58726641  0.53700023  0.50000000  1
  Li  Li28  1  0.31685415  0.00814244  0.74684149  1
  Li  Li29  1  0.68314585  0.99185756  0.74684149  1
  Li  Li30  1  0.18314585  0.50814244  0.25315851  1
  Li  Li31  1  0.81685415  0.49185756  0.25315851  1
  Li  Li32  1  0.68314585  0.99185756  0.25315851  1
  Li  Li33  1  0.31685415  0.00814244  0.25315851  1
  Li  Li34  1  0.81685415  0.49185756  0.74684149  1
  Li  Li35  1  0.18314585  0.50814244  0.74684149  1
  Li  Li36  1  0.98886508  0.35128400  0.86245031  1
  Li  Li37  1  0.01113492  0.64871600  0.86245031  1
  Li  Li38  1  0.51113492  0.85128400  0.13754969  1
  Li  Li39  1  0.48886508  0.14871600  0.13754969  1
  Li  Li40  1  0.01113492  0.64871600  0.13754969  1
  Li  Li41  1  0.98886508  0.35128400  0.13754969  1
  Li  Li42  1  0.48886508  0.14871600  0.86245031  1
  Li  Li43  1  0.51113492  0.85128400  0.86245031  1
  Li  Li44  1  0.87561902  0.11645825  0.83602215  1
  Li  Li45  1  0.12438098  0.88354175  0.83602215  1
  Li  Li46  1  0.62438098  0.61645825  0.16397785  1
  Li  Li47  1  0.37561902  0.38354175  0.16397785  1
  Li  Li48  1  0.12438098  0.88354175  0.16397785  1
  Li  Li49  1  0.87561902  0.11645825  0.16397785  1
  Li  Li50  1  0.37561902  0.38354175  0.83602215  1
  Li  Li51  1  0.62438098  0.61645825  0.83602215  1
  Li  Li52  1  0.08776927  0.11059148  0.50000000  1
  Li  Li53  1  0.91223073  0.88940852  0.50000000  1
  Li  Li54  1  0.41223073  0.61059148  0.50000000  1
  Li  Li55  1  0.58776927  0.38940852  0.50000000  1
