# generated using pymatgen
data_LiF
_symmetry_space_group_name_H-M   'P 1'
_cell_length_a   7.42011715
_cell_length_b   13.75566716
_cell_length_c   7.98162889
_cell_angle_alpha   90.00000000
_cell_angle_beta   90.00000000
_cell_angle_gamma   90.00000000
_symmetry_Int_Tables_number   1
_chemical_formula_structural   LiF
_chemical_formula_sum   'Li28 F28'
_cell_volume   814.67418076
_cell_formula_units_Z   28
loop_
 _symmetry_equiv_pos_site_id
 _symmetry_equiv_pos_as_xyz
  1  'x, y, z'
loop_
 _atom_site_type_symbol
 _atom_site_label
 _atom_site_symmetry_multiplicity
 _atom_site_fract_x
 _atom_site_fract_y
 _atom_site_fract_z
 _atom_site_occupancy
  F  F0  1  0.15176035  0.25000000  0.98853850  1
  F  F1  1  0.34823965  0.75000000  0.48853850  1
  F  F2  1  0.84823965  0.75000000  0.01146150  1
  F  F3  1  0.65176035  0.25000000  0.51146150  1
  F  F4  1  0.11092049  0.70152397  0.17378600  1
  F  F5  1  0.38907951  0.29847603  0.67378600  1
  F  F6  1  0.88907951  0.20152397  0.82621400  1
  F  F7  1  0.61092049  0.79847603  0.32621400  1
  F  F8  1  0.88907951  0.29847603  0.82621400  1
  F  F9  1  0.61092049  0.70152397  0.32621400  1
  F  F10  1  0.11092049  0.79847603  0.17378600  1
  F  F11  1  0.38907951  0.20152397  0.67378600  1
  F  F12  1  0.67851676  0.99890169  0.99265172  1
  F  F13  1  0.82148324  0.00109831  0.49265172  1
  F  F14  1  0.32148324  0.49890169  0.00734828  1
  F  F15  1  0.17851676  0.50109831  0.50734828  1
  F  F16  1  0.32148324  0.00109831  0.00734828  1
  F  F17  1  0.17851676  0.99890169  0.50734828  1
  F  F18  1  0.67851676  0.50109831  0.99265172  1
  F  F19  1  0.82148324  0.49890169  0.49265172  1
  F  F20  1  0.68611478  0.44826203  0.47608410  1
  F  F21  1  0.81388522  0.55173797  0.97608410  1
  F  F22  1  0.31388522  0.94826203  0.52391590  1
  F  F23  1  0.18611478  0.05173797  0.02391590  1
  F  F24  1  0.31388522  0.55173797  0.52391590  1
  F  F25  1  0.18611478  0.44826203  0.02391590  1
  F  F26  1  0.68611478  0.05173797  0.47608410  1
  F  F27  1  0.81388522  0.94826203  0.97608410  1
  Li  Li28  1  0.85357010  0.12771178  0.93720238  1
  Li  Li29  1  -0.35357010  -0.12771178  1.43720238  1
  Li  Li30  1  -0.85357010  0.62771178  -0.93720238  1
  Li  Li31  1  1.35357010  0.37228822  -0.43720238  1
  Li  Li32  1  -0.85357010  -0.12771178  -0.93720238  1
  Li  Li33  1  1.35357010  0.12771178  -0.43720238  1
  Li  Li34  1  0.85357010  0.37228822  0.93720238  1
  Li  Li35  1  -0.35357010  0.62771178  1.43720238  1
  Li  Li36  1  0.00000000  0.00000000  0.00000000  1
  Li  Li37  1  0.50000000  0.00000000  0.50000000  1
  Li  Li38  1  0.00000000  0.50000000  0.00000000  1
  Li  Li39  1  0.50000000  0.50000000  0.50000000  1
  Li  Li40  1  0.95492555  0.25000000  0.07231115  1
  Li  Li41  1  0.54507445  0.75000000  0.57231115  1
  Li  Li42  1  0.04507445  0.75000000  0.92768885  1
  Li  Li43  1  0.45492555  0.25000000  0.42768885  1
  Li  Li44  1  0.22406177  0.06700212  0.26310813  1
  Li  Li45  1  0.27593823  0.93299788  0.76310813  1
  Li  Li46  1  0.77593823  0.56700212  0.73689187  1
  Li  Li47  1  0.72406177  0.43299788  0.23689187  1
  Li  Li48  1  0.77593823  0.93299788  0.73689187  1
  Li  Li49  1  0.72406177  0.06700212  0.23689187  1
  Li  Li50  1  0.22406177  0.43299788  0.26310813  1
  Li  Li51  1  0.27593823  0.56700212  0.76310813  1
  Li  Li52  1  0.00000000  0.00000000  0.50000000  1
  Li  Li53  1  0.50000000  0.00000000  0.00000000  1
  Li  Li54  1  0.00000000  0.50000000  0.50000000  1
  Li  Li55  1  0.50000000  0.50000000  0.00000000  1
