# generated using pymatgen
data_Li2Y2As4P2Se
_symmetry_space_group_name_H-M   'P 1'
_cell_length_a   5.35376738
_cell_length_b   5.58959990
_cell_length_c   6.76189081
_cell_angle_alpha   92.73502981
_cell_angle_beta   96.40773788
_cell_angle_gamma   101.43718388
_symmetry_Int_Tables_number   1
_chemical_formula_structural   Li2Y2As4P2Se
_chemical_formula_sum   'Li2 Y2 As4 P2 Se1'
_cell_volume   196.58778733
_cell_formula_units_Z   1
loop_
 _symmetry_equiv_pos_site_id
 _symmetry_equiv_pos_as_xyz
  1  'x, y, z'
loop_
 _atom_site_type_symbol
 _atom_site_label
 _atom_site_symmetry_multiplicity
 _atom_site_fract_x
 _atom_site_fract_y
 _atom_site_fract_z
 _atom_site_occupancy
  Y  Y0  1  0.00000000  0.00000000  0.00000000  1
  Y  Y1  1  0.50000000  0.50000000  0.50000000  1
  P  P2  1  0.50000000  0.50000000  0.00000000  1
  P  P3  1  0.50000000  0.00000000  0.50000000  1
  Se  Se4  1  0.00000000  0.50000000  0.50000000  1
  As  As5  1  0.42755532  0.03987439  0.52693494  1
  As  As6  1  0.66608618  0.35265047  0.05800344  1
  As  As7  1  0.49647391  0.15069442  0.69732483  1
  As  As8  1  0.03588931  0.00398358  0.54429822  1
  Li  Li9  1  0.51538942  0.55479613  0.24404743  1
  Li  Li10  1  0.93847465  0.74143187  0.16414677  1
