# generated using pymatgen
data_LiPO3
_symmetry_space_group_name_H-M   'P 1'
_cell_length_a   10.71938153
_cell_length_b   10.71938153
_cell_length_c   8.58508027
_cell_angle_alpha   90.00000000
_cell_angle_beta   90.00000000
_cell_angle_gamma   90.00000000
_symmetry_Int_Tables_number   1
_chemical_formula_structural   LiPO3
_chemical_formula_sum   'Li24 P24 O72'
_cell_volume   986.46985368
_cell_formula_units_Z   24
loop_
 _symmetry_equiv_pos_site_id
 _symmetry_equiv_pos_as_xyz
  1  'x, y, z'
loop_
 _atom_site_type_symbol
 _atom_site_label
 _atom_site_symmetry_multiplicity
 _atom_site_fract_x
 _atom_site_fract_y
 _atom_site_fract_z
 _atom_site_occupancy
  Li  Li0  1  0.00000000  0.62755765  0.70464926  1
  Li  Li1  1  0.50000000  0.37244235  0.20464926  1
  Li  Li2  1  0.62244235  0.75000000  0.95464926  1
  Li  Li3  1  0.87755765  0.25000000  0.45464926  1
  Li  Li4  1  0.50000000  0.62755765  0.79535074  1
  Li  Li5  1  0.00000000  0.37244235  0.29535074  1
  Li  Li6  1  0.87755765  0.75000000  0.54535074  1
  Li  Li7  1  0.62244235  0.25000000  0.04535074  1
  Li  Li8  1  0.50000000  0.12755765  0.20464926  1
  Li  Li9  1  0.00000000  0.87244235  0.70464926  1
  Li  Li10  1  0.12244235  0.25000000  0.45464926  1
  Li  Li11  1  0.37755765  0.75000000  0.95464926  1
  Li  Li12  1  0.00000000  0.12755765  0.29535074  1
  Li  Li13  1  0.50000000  0.87244235  0.79535074  1
  Li  Li14  1  0.37755765  0.25000000  0.04535074  1
  Li  Li15  1  0.12244235  0.75000000  0.54535074  1
  Li  Li16  1  0.00000000  0.25000000  0.08085243  1
  Li  Li17  1  0.00000000  0.75000000  0.33085243  1
  Li  Li18  1  0.50000000  0.25000000  0.41914757  1
  Li  Li19  1  0.50000000  0.75000000  0.16914757  1
  Li  Li20  1  0.50000000  0.75000000  0.58085243  1
  Li  Li21  1  0.50000000  0.25000000  0.83085243  1
  Li  Li22  1  0.00000000  0.75000000  0.91914757  1
  Li  Li23  1  0.00000000  0.25000000  0.66914757  1
  O  O24  1  0.00000000  0.90077057  0.59420408  1
  O  O25  1  0.50000000  0.09922943  0.09420408  1
  O  O26  1  0.34922943  0.75000000  0.84420408  1
  O  O27  1  0.15077057  0.25000000  0.34420408  1
  O  O28  1  0.50000000  0.90077057  0.90579592  1
  O  O29  1  0.00000000  0.09922943  0.40579592  1
  O  O30  1  0.15077057  0.75000000  0.65579592  1
  O  O31  1  0.34922943  0.25000000  0.15579592  1
  O  O32  1  0.50000000  0.40077057  0.09420408  1
  O  O33  1  0.00000000  0.59922943  0.59420408  1
  O  O34  1  0.84922943  0.25000000  0.34420408  1
  O  O35  1  0.65077057  0.75000000  0.84420408  1
  O  O36  1  0.00000000  0.40077057  0.40579592  1
  O  O37  1  0.50000000  0.59922943  0.90579592  1
  O  O38  1  0.65077057  0.25000000  0.15579592  1
  O  O39  1  0.84922943  0.75000000  0.65579592  1
  O  O40  1  0.14737303  0.00000000  0.00000000  1
  O  O41  1  0.35262697  0.00000000  0.50000000  1
  O  O42  1  0.25000000  0.89737303  0.25000000  1
  O  O43  1  0.25000000  0.10262697  0.75000000  1
  O  O44  1  0.85262697  0.00000000  -0.00000000  1
  O  O45  1  0.64737303  0.00000000  0.50000000  1
  O  O46  1  0.75000000  0.10262697  0.75000000  1
  O  O47  1  0.75000000  0.89737303  0.25000000  1
  O  O48  1  0.64737303  0.50000000  0.50000000  1
  O  O49  1  0.85262697  0.50000000  -0.00000000  1
  O  O50  1  0.75000000  0.39737303  0.75000000  1
  O  O51  1  0.75000000  0.60262697  0.25000000  1
  O  O52  1  0.35262697  0.50000000  0.50000000  1
  O  O53  1  0.14737303  0.50000000  -0.00000000  1
  O  O54  1  0.25000000  0.60262697  0.25000000  1
  O  O55  1  0.25000000  0.39737303  0.75000000  1
  O  O56  1  0.00000000  0.75000000  0.12500000  1
  O  O57  1  0.50000000  0.75000000  0.37500000  1
  O  O58  1  0.50000000  0.25000000  0.62500000  1
  O  O59  1  0.00000000  0.25000000  0.87500000  1
  O  O60  1  0.81138016  0.39773118  0.78727413  1
  O  O61  1  -0.31138016  -0.39773118  1.28727413  1
  O  O62  1  -0.14773118  1.56138016  1.03727413  1
  O  O63  1  0.64773118  -0.56138016  1.53727413  1
  O  O64  1  -0.31138016  0.39773118  -0.28727413  1
  O  O65  1  0.81138016  -0.39773118  -0.78727413  1
  O  O66  1  0.64773118  1.56138016  -0.53727413  1
  O  O67  1  -0.14773118  -0.56138016  -0.03727413  1
  O  O68  1  -0.81138016  -0.39773118  -0.78727413  1
  O  O69  1  1.31138016  0.39773118  -0.28727413  1
  O  O70  1  1.14773118  -0.56138016  -0.03727413  1
  O  O71  1  0.35226882  1.56138016  -0.53727413  1
  O  O72  1  1.31138016  -0.39773118  1.28727413  1
  O  O73  1  -0.81138016  0.39773118  0.78727413  1
  O  O74  1  0.35226882  -0.56138016  1.53727413  1
  O  O75  1  1.14773118  1.56138016  1.03727413  1
  O  O76  1  1.31138016  0.89773118  1.28727413  1
  O  O77  1  0.18861984  0.10226882  1.78727413  1
  O  O78  1  0.35226882  2.06138016  1.53727413  1
  O  O79  1  1.14773118  -0.06138016  2.03727413  1
  O  O80  1  0.18861984  0.89773118  0.21272587  1
  O  O81  1  1.31138016  0.10226882  -0.28727413  1
  O  O82  1  1.14773118  2.06138016  -0.03727413  1
  O  O83  1  0.35226882  -0.06138016  0.46272587  1
  O  O84  1  -0.31138016  0.10226882  -0.28727413  1
  O  O85  1  1.81138016  0.89773118  0.21272587  1
  O  O86  1  1.64773118  -0.06138016  0.46272587  1
  O  O87  1  0.85226882  2.06138016  -0.03727413  1
  O  O88  1  1.81138016  0.10226882  1.78727413  1
  O  O89  1  -0.31138016  0.89773118  1.28727413  1
  O  O90  1  0.85226882  -0.06138016  2.03727413  1
  O  O91  1  1.64773118  2.06138016  1.53727413  1
  O  O92  1  0.00000000  0.25000000  0.37500000  1
  O  O93  1  0.00000000  0.75000000  0.62500000  1
  O  O94  1  0.50000000  0.75000000  0.87500000  1
  O  O95  1  0.50000000  0.25000000  0.12500000  1
  P  P96  1  0.64567670  0.89567670  0.87500000  1
  P  P97  1  0.85432330  0.10432330  0.37500000  1
  P  P98  1  0.35432330  0.39567670  0.12500000  1
  P  P99  1  0.14567670  0.60432330  0.62500000  1
  P  P100  1  0.35432330  0.10432330  0.12500000  1
  P  P101  1  0.14567670  0.89567670  0.62500000  1
  P  P102  1  0.64567670  0.60432330  0.87500000  1
  P  P103  1  0.85432330  0.39567670  0.37500000  1
  P  P104  1  0.14567670  0.39567670  0.37500000  1
  P  P105  1  0.35432330  0.60432330  0.87500000  1
  P  P106  1  0.85432330  0.89567670  0.62500000  1
  P  P107  1  0.64567670  0.10432330  0.12500000  1
  P  P108  1  0.85432330  0.60432330  0.62500000  1
  P  P109  1  0.64567670  0.39567670  0.12500000  1
  P  P110  1  0.14567670  0.10432330  0.37500000  1
  P  P111  1  0.35432330  0.89567670  0.87500000  1
  P  P112  1  0.00000000  0.00000000  0.50000000  1
  P  P113  1  0.50000000  0.00000000  -0.00000000  1
  P  P114  1  0.25000000  0.75000000  0.75000000  1
  P  P115  1  0.25000000  0.25000000  0.25000000  1
  P  P116  1  0.50000000  0.50000000  -0.00000000  1
  P  P117  1  0.00000000  0.50000000  0.50000000  1
  P  P118  1  0.75000000  0.25000000  0.25000000  1
  P  P119  1  0.75000000  0.75000000  0.75000000  1
