# generated using pymatgen
data_LiF
_symmetry_space_group_name_H-M   'P 1'
_cell_length_a   8.64199290
_cell_length_b   15.72221094
_cell_length_c   14.74858615
_cell_angle_alpha   90.00000000
_cell_angle_beta   90.00000000
_cell_angle_gamma   90.00000000
_symmetry_Int_Tables_number   1
_chemical_formula_structural   LiF
_chemical_formula_sum   'Li76 F76'
_cell_volume   2003.90861843
_cell_formula_units_Z   76
loop_
 _symmetry_equiv_pos_site_id
 _symmetry_equiv_pos_as_xyz
  1  'x, y, z'
loop_
 _atom_site_type_symbol
 _atom_site_label
 _atom_site_symmetry_multiplicity
 _atom_site_fract_x
 _atom_site_fract_y
 _atom_site_fract_z
 _atom_site_occupancy
  F  F0  1  0.73292216  0.17474494  0.09067369  1
  F  F1  1  0.76707784  0.82525506  0.59067369  1
  F  F2  1  0.26707784  0.67474494  0.90932631  1
  F  F3  1  0.23292216  0.32525506  0.40932631  1
  F  F4  1  0.26707784  0.82525506  0.90932631  1
  F  F5  1  0.23292216  0.17474494  0.40932631  1
  F  F6  1  0.73292216  0.32525506  0.09067369  1
  F  F7  1  0.76707784  0.67474494  0.59067369  1
  F  F8  1  0.72520041  0.25000000  0.55900322  1
  F  F9  1  0.77479959  0.75000000  0.05900322  1
  F  F10  1  0.27479959  0.75000000  0.44099678  1
  F  F11  1  0.22520041  0.25000000  0.94099678  1
  F  F12  1  0.48261649  0.83896027  0.82424265  1
  F  F13  1  0.01738351  0.16103973  0.32424265  1
  F  F14  1  0.51738351  0.33896027  0.17575735  1
  F  F15  1  0.98261649  0.66103973  0.67575735  1
  F  F16  1  0.51738351  0.16103973  0.17575735  1
  F  F17  1  0.98261649  0.83896027  0.67575735  1
  F  F18  1  0.48261649  0.66103973  0.82424265  1
  F  F19  1  0.01738351  0.33896027  0.32424265  1
  F  F20  1  0.89538105  0.25000000  0.58787602  1
  F  F21  1  0.60461895  0.75000000  0.08787602  1
  F  F22  1  0.10461895  0.75000000  0.41212398  1
  F  F23  1  0.39538105  0.25000000  0.91212398  1
  F  F24  1  0.96924035  0.25000000  0.38838435  1
  F  F25  1  0.53075965  0.75000000  0.88838435  1
  F  F26  1  0.03075965  0.75000000  0.61161565  1
  F  F27  1  0.46924035  0.25000000  0.11161565  1
  F  F28  1  0.21580706  0.61481944  0.53163951  1
  F  F29  1  0.28419294  0.38518056  0.03163951  1
  F  F30  1  0.78419294  0.11481944  0.46836049  1
  F  F31  1  0.71580706  0.88518056  0.96836049  1
  F  F32  1  0.78419294  0.38518056  0.46836049  1
  F  F33  1  0.71580706  0.61481944  0.96836049  1
  F  F34  1  0.21580706  0.88518056  0.53163951  1
  F  F35  1  0.28419294  0.11481944  0.03163951  1
  F  F36  1  0.41055974  0.60520918  0.05945393  1
  F  F37  1  0.08944026  0.39479082  0.55945393  1
  F  F38  1  0.58944026  0.10520918  0.94054607  1
  F  F39  1  0.91055974  0.89479082  0.44054607  1
  F  F40  1  0.58944026  0.39479082  0.94054607  1
  F  F41  1  0.91055974  0.60520918  0.44054607  1
  F  F42  1  0.41055974  0.89479082  0.05945393  1
  F  F43  1  0.08944026  0.10520918  0.55945393  1
  F  F44  1  0.59881210  0.06989571  0.02135557  1
  F  F45  1  0.90118790  0.93010429  0.52135557  1
  F  F46  1  0.40118790  0.56989571  0.97864443  1
  F  F47  1  0.09881210  0.43010429  0.47864443  1
  F  F48  1  0.40118790  0.93010429  0.97864443  1
  F  F49  1  0.09881210  0.06989571  0.47864443  1
  F  F50  1  0.59881210  0.43010429  0.02135557  1
  F  F51  1  0.90118790  0.56989571  0.52135557  1
  F  F52  1  0.02799748  0.25000000  0.42173960  1
  F  F53  1  0.47200252  0.75000000  0.92173960  1
  F  F54  1  0.97200252  0.75000000  0.57826040  1
  F  F55  1  0.52799748  0.25000000  0.07826040  1
  F  F56  1  0.89279300  0.55348539  0.71157763  1
  F  F57  1  0.60720700  0.44651461  0.21157763  1
  F  F58  1  0.10720700  0.05348539  0.28842237  1
  F  F59  1  0.39279300  0.94651461  0.78842237  1
  F  F60  1  0.10720700  0.44651461  0.28842237  1
  F  F61  1  0.39279300  0.55348539  0.78842237  1
  F  F62  1  0.89279300  0.94651461  0.71157763  1
  F  F63  1  0.60720700  0.05348539  0.21157763  1
  F  F64  1  0.57645296  0.25000000  0.30494199  1
  F  F65  1  0.92354704  0.75000000  0.80494199  1
  F  F66  1  0.42354704  0.75000000  0.69505801  1
  F  F67  1  0.07645296  0.25000000  0.19505801  1
  F  F68  1  0.08010021  0.45400338  0.06422937  1
  F  F69  1  0.41989979  0.54599662  0.56422937  1
  F  F70  1  0.91989979  0.95400338  0.93577063  1
  F  F71  1  0.58010021  0.04599662  0.43577063  1
  F  F72  1  0.91989979  0.54599662  0.93577063  1
  F  F73  1  0.58010021  0.45400338  0.43577063  1
  F  F74  1  0.08010021  0.04599662  0.06422937  1
  F  F75  1  0.41989979  0.95400338  0.56422937  1
  Li  Li76  1  0.00000000  0.00000000  0.50000000  1
  Li  Li77  1  0.50000000  0.00000000  0.00000000  1
  Li  Li78  1  0.00000000  0.50000000  0.50000000  1
  Li  Li79  1  0.50000000  0.50000000  -0.00000000  1
  Li  Li80  1  0.08884672  0.15047097  0.15307707  1
  Li  Li81  1  0.41115328  -0.15047097  0.65307707  1
  Li  Li82  1  -0.08884672  0.65047097  -0.15307707  1
  Li  Li83  1  0.58884672  0.34952903  0.34692293  1
  Li  Li84  1  -0.08884672  -0.15047097  -0.15307707  1
  Li  Li85  1  0.58884672  0.15047097  0.34692293  1
  Li  Li86  1  0.08884672  0.34952903  0.15307707  1
  Li  Li87  1  0.41115328  0.65047097  0.65307707  1
  Li  Li88  1  0.72026031  0.25000000  0.64591697  1
  Li  Li89  1  0.77973969  0.75000000  0.14591697  1
  Li  Li90  1  0.27973969  0.75000000  0.35408303  1
  Li  Li91  1  0.22026031  0.25000000  0.85408303  1
  Li  Li92  1  0.00000000  0.00000000  0.00000000  1
  Li  Li93  1  0.50000000  0.00000000  0.50000000  1
  Li  Li94  1  0.00000000  0.50000000  0.00000000  1
  Li  Li95  1  0.50000000  0.50000000  0.50000000  1
  Li  Li96  1  0.10327223  0.39430426  0.40586057  1
  Li  Li97  1  0.39672777  0.60569574  0.90586057  1
  Li  Li98  1  0.89672777  0.89430426  0.59413943  1
  Li  Li99  1  0.60327223  0.10569574  0.09413943  1
  Li  Li100  1  0.89672777  0.60569574  0.59413943  1
  Li  Li101  1  0.60327223  0.39430426  0.09413943  1
  Li  Li102  1  0.10327223  0.10569574  0.40586057  1
  Li  Li103  1  0.39672777  0.89430426  0.90586057  1
  Li  Li104  1  0.59374310  0.30806446  0.88946300  1
  Li  Li105  1  0.90625690  0.69193554  0.38946300  1
  Li  Li106  1  0.40625690  0.80806446  0.11053700  1
  Li  Li107  1  0.09374310  0.19193554  0.61053700  1
  Li  Li108  1  0.40625690  0.69193554  0.11053700  1
  Li  Li109  1  0.09374310  0.30806446  0.61053700  1
  Li  Li110  1  0.59374310  0.19193554  0.88946300  1
  Li  Li111  1  0.90625690  0.80806446  0.38946300  1
  Li  Li112  1  0.13090449  0.04131506  0.82398694  1
  Li  Li113  1  0.36909551  0.95868494  0.32398694  1
  Li  Li114  1  0.86909551  0.54131506  0.17601306  1
  Li  Li115  1  0.63090449  0.45868494  0.67601306  1
  Li  Li116  1  0.86909551  0.95868494  0.17601306  1
  Li  Li117  1  0.63090449  0.04131506  0.67601306  1
  Li  Li118  1  0.13090449  0.45868494  0.82398694  1
  Li  Li119  1  0.36909551  0.54131506  0.32398694  1
  Li  Li120  1  0.04762105  0.64269869  0.72642158  1
  Li  Li121  1  0.45237895  0.35730131  0.22642158  1
  Li  Li122  1  0.95237895  0.14269869  0.27357842  1
  Li  Li123  1  0.54762105  0.85730131  0.77357842  1
  Li  Li124  1  0.95237895  0.35730131  0.27357842  1
  Li  Li125  1  0.54762105  0.64269869  0.77357842  1
  Li  Li126  1  0.04762105  0.85730131  0.72642158  1
  Li  Li127  1  0.45237895  0.14269869  0.22642158  1
  Li  Li128  1  0.84867995  0.18113781  0.76384368  1
  Li  Li129  1  0.65132005  0.81886219  0.26384368  1
  Li  Li130  1  0.15132005  0.68113781  0.23615632  1
  Li  Li131  1  0.34867995  0.31886219  0.73615632  1
  Li  Li132  1  0.15132005  0.81886219  0.23615632  1
  Li  Li133  1  0.34867995  0.18113781  0.73615632  1
  Li  Li134  1  0.84867995  0.31886219  0.76384368  1
  Li  Li135  1  0.65132005  0.68113781  0.26384368  1
  Li  Li136  1  0.19024584  0.89282786  0.61367577  1
  Li  Li137  1  0.30975416  0.10717214  0.11367577  1
  Li  Li138  1  0.80975416  0.39282786  0.38632423  1
  Li  Li139  1  0.69024584  0.60717214  0.88632423  1
  Li  Li140  1  0.80975416  0.10717214  0.38632423  1
  Li  Li141  1  0.69024584  0.89282786  0.88632423  1
  Li  Li142  1  0.19024584  0.60717214  0.61367577  1
  Li  Li143  1  0.30975416  0.39282786  0.11367577  1
  Li  Li144  1  0.40201961  0.85200290  0.45853232  1
  Li  Li145  1  0.09798039  0.14799710  0.95853232  1
  Li  Li146  1  0.59798039  0.35200290  0.54146768  1
  Li  Li147  1  0.90201961  0.64799710  0.04146768  1
  Li  Li148  1  0.59798039  0.14799710  0.54146768  1
  Li  Li149  1  0.90201961  0.85200290  0.04146768  1
  Li  Li150  1  0.40201961  0.64799710  0.45853232  1
  Li  Li151  1  0.09798039  0.35200290  0.95853232  1
