# generated using pymatgen
data_Li2Si4Te3F12
_symmetry_space_group_name_H-M   'P 1'
_cell_length_a   16.89328592
_cell_length_b   16.89328592
_cell_length_c   5.54382575
_cell_angle_alpha   90.00000000
_cell_angle_beta   90.00000000
_cell_angle_gamma   90.00000000
_symmetry_Int_Tables_number   1
_chemical_formula_structural   Li2Si4Te3F12
_chemical_formula_sum   'Li8 Si16 Te12 F48'
_cell_volume   1582.11423055
_cell_formula_units_Z   4
loop_
 _symmetry_equiv_pos_site_id
 _symmetry_equiv_pos_as_xyz
  1  'x, y, z'
loop_
 _atom_site_type_symbol
 _atom_site_label
 _atom_site_symmetry_multiplicity
 _atom_site_fract_x
 _atom_site_fract_y
 _atom_site_fract_z
 _atom_site_occupancy
  F  F0  1  0.14612225  0.39612225  0.87500000  1
  F  F1  1  0.35387775  0.60387775  0.37500000  1
  F  F2  1  0.85387775  0.89612225  0.12500000  1
  F  F3  1  0.64612225  0.10387775  0.62500000  1
  F  F4  1  0.85387775  0.60387775  0.12500000  1
  F  F5  1  0.64612225  0.39612225  0.62500000  1
  F  F6  1  0.14612225  0.10387775  0.87500000  1
  F  F7  1  0.35387775  0.89612225  0.37500000  1
  F  F8  1  0.64612225  0.89612225  0.37500000  1
  F  F9  1  0.85387775  0.10387775  0.87500000  1
  F  F10  1  0.35387775  0.39612225  0.62500000  1
  F  F11  1  0.14612225  0.60387775  0.12500000  1
  F  F12  1  0.35387775  0.10387775  0.62500000  1
  F  F13  1  0.14612225  0.89612225  0.12500000  1
  F  F14  1  0.64612225  0.60387775  0.37500000  1
  F  F15  1  0.85387775  0.39612225  0.87500000  1
  F  F16  1  0.46956673  0.57771147  0.52615870  1
  F  F17  1  0.03043327  -0.57771147  1.02615870  1
  F  F18  1  -0.32771147  1.21956673  0.77615870  1
  F  F19  1  0.82771147  -0.21956673  1.27615870  1
  F  F20  1  0.03043327  0.57771147  -0.02615870  1
  F  F21  1  0.46956673  -0.57771147  -0.52615870  1
  F  F22  1  0.82771147  1.21956673  -0.27615870  1
  F  F23  1  -0.32771147  -0.21956673  0.22384130  1
  F  F24  1  -0.46956673  -0.57771147  -0.52615870  1
  F  F25  1  0.96956673  0.57771147  -0.02615870  1
  F  F26  1  1.32771147  -0.21956673  0.22384130  1
  F  F27  1  0.17228853  1.21956673  -0.27615870  1
  F  F28  1  0.96956673  -0.57771147  1.02615870  1
  F  F29  1  -0.46956673  0.57771147  0.52615870  1
  F  F30  1  0.17228853  -0.21956673  1.27615870  1
  F  F31  1  1.32771147  1.21956673  0.77615870  1
  F  F32  1  0.96956673  1.07771147  1.02615870  1
  F  F33  1  0.53043327  -0.07771147  1.52615870  1
  F  F34  1  0.17228853  1.71956673  1.27615870  1
  F  F35  1  1.32771147  0.28043327  1.77615870  1
  F  F36  1  0.53043327  1.07771147  0.47384130  1
  F  F37  1  0.96956673  -0.07771147  -0.02615870  1
  F  F38  1  1.32771147  1.71956673  0.22384130  1
  F  F39  1  0.17228853  0.28043327  0.72384130  1
  F  F40  1  0.03043327  -0.07771147  -0.02615870  1
  F  F41  1  1.46956673  1.07771147  0.47384130  1
  F  F42  1  1.82771147  0.28043327  0.72384130  1
  F  F43  1  0.67228853  1.71956673  0.22384130  1
  F  F44  1  1.46956673  -0.07771147  1.52615870  1
  F  F45  1  0.03043327  1.07771147  1.02615870  1
  F  F46  1  0.67228853  0.28043327  1.77615870  1
  F  F47  1  1.82771147  1.71956673  1.27615870  1
  Li  Li48  1  0.00000000  0.00000000  0.00000000  1
  Li  Li49  1  0.50000000  0.00000000  0.50000000  1
  Li  Li50  1  0.25000000  0.75000000  0.25000000  1
  Li  Li51  1  0.25000000  0.25000000  0.75000000  1
  Li  Li52  1  0.50000000  0.50000000  0.50000000  1
  Li  Li53  1  0.00000000  0.50000000  -0.00000000  1
  Li  Li54  1  0.75000000  0.25000000  0.75000000  1
  Li  Li55  1  0.75000000  0.75000000  0.25000000  1
  Si  Si56  1  0.29135278  0.00000000  -0.00000000  1
  Si  Si57  1  0.20864722  0.00000000  0.50000000  1
  Si  Si58  1  0.25000000  0.04135278  0.25000000  1
  Si  Si59  1  0.25000000  0.95864722  0.75000000  1
  Si  Si60  1  0.70864722  -0.00000000  -0.00000000  1
  Si  Si61  1  0.79135278  0.00000000  0.50000000  1
  Si  Si62  1  0.75000000  0.95864722  0.75000000  1
  Si  Si63  1  0.75000000  0.04135278  0.25000000  1
  Si  Si64  1  0.79135278  0.50000000  0.50000000  1
  Si  Si65  1  0.70864722  0.50000000  -0.00000000  1
  Si  Si66  1  0.75000000  0.54135278  0.75000000  1
  Si  Si67  1  0.75000000  0.45864722  0.25000000  1
  Si  Si68  1  0.20864722  0.50000000  0.50000000  1
  Si  Si69  1  0.29135278  0.50000000  -0.00000000  1
  Si  Si70  1  0.25000000  0.45864722  0.25000000  1
  Si  Si71  1  0.25000000  0.54135278  0.75000000  1
  Te  Te72  1  0.00000000  0.00000000  0.50000000  1
  Te  Te73  1  0.50000000  0.00000000  -0.00000000  1
  Te  Te74  1  0.25000000  0.75000000  0.75000000  1
  Te  Te75  1  0.25000000  0.25000000  0.25000000  1
  Te  Te76  1  0.50000000  0.50000000  -0.00000000  1
  Te  Te77  1  0.00000000  0.50000000  0.50000000  1
  Te  Te78  1  0.75000000  0.25000000  0.25000000  1
  Te  Te79  1  0.75000000  0.75000000  0.75000000  1
  Te  Te80  1  0.00000000  0.25000000  0.37500000  1
  Te  Te81  1  0.00000000  0.75000000  0.62500000  1
  Te  Te82  1  0.50000000  0.75000000  0.87500000  1
  Te  Te83  1  0.50000000  0.25000000  0.12500000  1
