# generated using pymatgen
data_LiF
_symmetry_space_group_name_H-M   'P 1'
_cell_length_a   9.47205194
_cell_length_b   9.47205194
_cell_length_c   19.70625959
_cell_angle_alpha   90.00000000
_cell_angle_beta   90.00000000
_cell_angle_gamma   120.00000000
_symmetry_Int_Tables_number   1
_chemical_formula_structural   LiF
_chemical_formula_sum   'Li73 F73'
_cell_volume   1531.16845379
_cell_formula_units_Z   73
loop_
 _symmetry_equiv_pos_site_id
 _symmetry_equiv_pos_as_xyz
  1  'x, y, z'
loop_
 _atom_site_type_symbol
 _atom_site_label
 _atom_site_symmetry_multiplicity
 _atom_site_fract_x
 _atom_site_fract_y
 _atom_site_fract_z
 _atom_site_occupancy
  F  F0  1  0.85295443  0.25253126  0.54861093  1
  F  F1  1  0.74746874  0.60042317  0.54861093  1
  F  F2  1  0.39957683  0.14704557  0.54861093  1
  F  F3  1  0.74746874  0.14704557  0.45138907  1
  F  F4  1  0.39957683  0.25253126  0.45138907  1
  F  F5  1  0.85295443  0.60042317  0.45138907  1
  F  F6  1  0.33333333  0.66666667  0.16413051  1
  F  F7  1  0.33333333  0.66666667  0.83586949  1
  F  F8  1  0.85934412  0.89675330  0.95836340  1
  F  F9  1  0.10324670  0.96259082  0.95836340  1
  F  F10  1  0.03740918  0.14065588  0.95836340  1
  F  F11  1  0.10324670  0.14065588  0.04163660  1
  F  F12  1  0.03740918  0.89675330  0.04163660  1
  F  F13  1  0.85934412  0.96259082  0.04163660  1
  F  F14  1  0.55519225  0.38652738  0.21809302  1
  F  F15  1  0.61347262  0.16866488  0.21809302  1
  F  F16  1  0.83133512  0.44480775  0.21809302  1
  F  F17  1  0.61347262  0.44480775  0.78190698  1
  F  F18  1  0.83133512  0.38652738  0.78190698  1
  F  F19  1  0.55519225  0.16866488  0.78190698  1
  F  F20  1  0.08474545  0.52450524  0.01772937  1
  F  F21  1  0.47549476  0.56024021  0.01772937  1
  F  F22  1  0.43975979  0.91525455  0.01772937  1
  F  F23  1  0.47549476  0.91525455  0.98227063  1
  F  F24  1  0.43975979  0.52450524  0.98227063  1
  F  F25  1  0.08474545  0.56024021  0.98227063  1
  F  F26  1  0.66653339  0.63962194  0.06472932  1
  F  F27  1  0.36037806  0.02691145  0.06472932  1
  F  F28  1  0.97308855  0.33346661  0.06472932  1
  F  F29  1  0.36037806  0.33346661  0.93527068  1
  F  F30  1  0.97308855  0.63962194  0.93527068  1
  F  F31  1  0.66653339  0.02691145  0.93527068  1
  F  F32  1  0.66807340  0.40150474  0.37531939  1
  F  F33  1  0.59849526  0.26656866  0.37531939  1
  F  F34  1  0.73343134  0.33192660  0.37531939  1
  F  F35  1  0.59849526  0.33192660  0.62468061  1
  F  F36  1  0.73343134  0.40150474  0.62468061  1
  F  F37  1  0.66807340  0.26656866  0.62468061  1
  F  F38  1  0.19386487  0.06974671  0.36334567  1
  F  F39  1  0.93025329  0.12411816  0.36334567  1
  F  F40  1  0.87588184  0.80613513  0.36334567  1
  F  F41  1  0.93025329  0.80613513  0.63665433  1
  F  F42  1  0.87588184  0.06974671  0.63665433  1
  F  F43  1  0.19386487  0.12411816  0.63665433  1
  F  F44  1  0.00000000  0.00000000  0.50000000  1
  F  F45  1  0.22650893  0.46998462  0.39227470  1
  F  F46  1  0.53001538  0.75652431  0.39227470  1
  F  F47  1  0.24347569  0.77349107  0.39227470  1
  F  F48  1  0.53001538  0.77349107  0.60772530  1
  F  F49  1  0.24347569  0.46998462  0.60772530  1
  F  F50  1  0.22650893  0.75652431  0.60772530  1
  F  F51  1  0.93259325  0.97824799  0.73811506  1
  F  F52  1  0.02175201  0.95434526  0.73811506  1
  F  F53  1  0.04565474  0.06740675  0.73811506  1
  F  F54  1  0.02175201  0.06740675  0.26188494  1
  F  F55  1  0.04565474  0.97824799  0.26188494  1
  F  F56  1  0.93259325  0.95434526  0.26188494  1
  F  F57  1  0.33333333  0.66666667  0.56769218  1
  F  F58  1  0.33333333  0.66666667  0.43230782  1
  F  F59  1  0.43738206  0.11193197  0.80068902  1
  F  F60  1  0.88806803  0.32545008  0.80068902  1
  F  F61  1  0.67454992  0.56261794  0.80068902  1
  F  F62  1  0.88806803  0.56261794  0.19931098  1
  F  F63  1  0.67454992  0.11193197  0.19931098  1
  F  F64  1  0.43738206  0.32545008  0.19931098  1
  F  F65  1  0.45676256  0.46698257  0.44171307  1
  F  F66  1  0.53301743  0.98977999  0.44171307  1
  F  F67  1  0.01022001  0.54323744  0.44171307  1
  F  F68  1  0.53301743  0.54323744  0.55828693  1
  F  F69  1  0.01022001  0.46698257  0.55828693  1
  F  F70  1  0.45676256  0.98977999  0.55828693  1
  F  F71  1  0.33333333  0.66666667  0.60105198  1
  F  F72  1  0.33333333  0.66666667  0.39894802  1
  Li  Li73  1  0.87755366  0.12244634  0.50000000  1
  Li  Li74  1  0.87755366  0.75510732  0.50000000  1
  Li  Li75  1  0.24489268  0.12244634  0.50000000  1
  Li  Li76  1  0.00000000  0.00000000  0.56472452  1
  Li  Li77  1  0.00000000  0.00000000  0.43527548  1
  Li  Li78  1  0.78725270  0.21274730  0.50000000  1
  Li  Li79  1  0.78725270  0.57450540  0.50000000  1
  Li  Li80  1  0.42549460  0.21274730  0.50000000  1
  Li  Li81  1  0.64775494  0.16773076  0.72279404  1
  Li  Li82  1  -0.16773076  0.48002419  0.72279404  1
  Li  Li83  1  -0.48002419  -0.64775494  0.72279404  1
  Li  Li84  1  -0.16773076  -0.64775494  -0.72279404  1
  Li  Li85  1  -0.48002419  0.16773076  -0.72279404  1
  Li  Li86  1  0.64775494  0.48002419  -0.72279404  1
  Li  Li87  1  0.18598305  0.51182468  0.34199487  1
  Li  Li88  1  0.48817532  0.67415836  0.34199487  1
  Li  Li89  1  0.32584164  0.81401695  0.34199487  1
  Li  Li90  1  0.48817532  0.81401695  0.65800513  1
  Li  Li91  1  0.32584164  0.51182468  0.65800513  1
  Li  Li92  1  0.18598305  0.67415836  0.65800513  1
  Li  Li93  1  0.66666667  0.33333333  0.19581381  1
  Li  Li94  1  0.66666667  0.33333333  0.80418619  1
  Li  Li95  1  0.66666667  0.33333333  0.00000000  1
  Li  Li96  1  0.33333333  0.66666667  0.00000000  1
  Li  Li97  1  0.40427937  0.99815678  0.83499941  1
  Li  Li98  1  0.00184322  0.40612259  0.83499941  1
  Li  Li99  1  0.59387741  0.59572063  0.83499941  1
  Li  Li100  1  0.00184322  0.59572063  0.16500059  1
  Li  Li101  1  0.59387741  0.99815678  0.16500059  1
  Li  Li102  1  0.40427937  0.40612259  0.16500059  1
  Li  Li103  1  0.74856075  0.07940391  0.84312448  1
  Li  Li104  1  0.92059609  0.66915684  0.84312448  1
  Li  Li105  1  0.33084316  0.25143925  0.84312448  1
  Li  Li106  1  0.92059609  0.25143925  0.15687552  1
  Li  Li107  1  0.33084316  0.07940391  0.15687552  1
  Li  Li108  1  0.74856075  0.66915684  0.15687552  1
  Li  Li109  1  0.33333333  0.66666667  0.50000000  1
  Li  Li110  1  0.00000000  0.00000000  0.00000000  1
  Li  Li111  1  0.43217817  0.93409934  0.75764925  1
  Li  Li112  1  0.06590066  0.49807882  0.75764925  1
  Li  Li113  1  0.50192118  0.56782183  0.75764925  1
  Li  Li114  1  0.06590066  0.56782183  0.24235075  1
  Li  Li115  1  0.50192118  0.93409934  0.24235075  1
  Li  Li116  1  0.43217817  0.49807882  0.24235075  1
  Li  Li117  1  0.50086969  0.49913031  0.50000000  1
  Li  Li118  1  0.50086969  0.00173938  0.50000000  1
  Li  Li119  1  0.99826062  0.49913031  0.50000000  1
  Li  Li120  1  0.56370333  0.26373090  0.33076215  1
  Li  Li121  1  0.73626910  0.29997243  0.33076215  1
  Li  Li122  1  0.70002757  0.43629667  0.33076215  1
  Li  Li123  1  0.73626910  0.43629667  0.66923785  1
  Li  Li124  1  0.70002757  0.26373090  0.66923785  1
  Li  Li125  1  0.56370333  0.29997243  0.66923785  1
  Li  Li126  1  0.33328454  0.30577332  0.29437392  1
  Li  Li127  1  0.69422668  0.02751122  0.29437392  1
  Li  Li128  1  0.97248878  0.66671546  0.29437392  1
  Li  Li129  1  0.69422668  0.66671546  0.70562608  1
  Li  Li130  1  0.97248878  0.30577332  0.70562608  1
  Li  Li131  1  0.33328454  0.02751122  0.70562608  1
  Li  Li132  1  0.01516955  0.83859243  0.42017588  1
  Li  Li133  1  0.16140757  0.17657713  0.42017588  1
  Li  Li134  1  0.82342287  0.98483045  0.42017588  1
  Li  Li135  1  0.16140757  0.98483045  0.57982412  1
  Li  Li136  1  0.82342287  0.83859243  0.57982412  1
  Li  Li137  1  0.01516955  0.17657713  0.57982412  1
  Li  Li138  1  0.11554913  0.76699960  0.55237740  1
  Li  Li139  1  0.23300040  0.34854953  0.55237740  1
  Li  Li140  1  0.65145047  0.88445087  0.55237740  1
  Li  Li141  1  0.23300040  0.88445087  0.44762260  1
  Li  Li142  1  0.65145047  0.76699960  0.44762260  1
  Li  Li143  1  0.11554913  0.34854953  0.44762260  1
  Li  Li144  1  0.33333333  0.66666667  0.68704749  1
  Li  Li145  1  0.33333333  0.66666667  0.31295251  1
