# generated using pymatgen
data_Li4Ti3(PO)2
_symmetry_space_group_name_H-M   'P 1'
_cell_length_a   3.77715552
_cell_length_b   3.96147189
_cell_length_c   6.31938884
_cell_angle_alpha   98.70874655
_cell_angle_beta   106.16508592
_cell_angle_gamma   107.58231563
_symmetry_Int_Tables_number   1
_chemical_formula_structural   Li4Ti3(PO)2
_chemical_formula_sum   'Li4 Ti3 P2 O2'
_cell_volume   83.66332817
_cell_formula_units_Z   1
loop_
 _symmetry_equiv_pos_site_id
 _symmetry_equiv_pos_as_xyz
  1  'x, y, z'
loop_
 _atom_site_type_symbol
 _atom_site_label
 _atom_site_symmetry_multiplicity
 _atom_site_fract_x
 _atom_site_fract_y
 _atom_site_fract_z
 _atom_site_occupancy
  P  P0  1  0.00000000  0.00000000  0.00000000  1
  P  P1  1  0.33300000  0.66700000  0.25000000  1
  Ti  Ti2  1  0.66700000  0.33300000  0.50000000  1
  Ti  Ti3  1  0.00000000  0.00000000  0.75000000  1
  Ti  Ti4  1  0.76697563  0.30642989  0.24216342  1
  O  O5  1  0.00414906  0.25711595  0.91742729  1
  O  O6  1  0.97062597  0.11550651  0.51409373  1
  Li  Li7  1  0.31180280  0.80359933  0.70232515  1
  Li  Li8  1  0.70847783  0.07886267  0.67047138  1
  Li  Li9  1  0.52010812  0.79291601  0.39642190  1
  Li  Li10  1  0.36773756  0.33439707  0.46604191  1
