# generated using pymatgen
data_LiF
_symmetry_space_group_name_H-M   'P 1'
_cell_length_a   6.08352722
_cell_length_b   6.08352722
_cell_length_c   12.03874054
_cell_angle_alpha   90.00000000
_cell_angle_beta   90.00000000
_cell_angle_gamma   120.00000000
_symmetry_Int_Tables_number   1
_chemical_formula_structural   LiF
_chemical_formula_sum   'Li16 F16'
_cell_volume   385.85363658
_cell_formula_units_Z   16
loop_
 _symmetry_equiv_pos_site_id
 _symmetry_equiv_pos_as_xyz
  1  'x, y, z'
loop_
 _atom_site_type_symbol
 _atom_site_label
 _atom_site_symmetry_multiplicity
 _atom_site_fract_x
 _atom_site_fract_y
 _atom_site_fract_z
 _atom_site_occupancy
  F  F0  1  0.33333333  0.66666667  0.00000000  1
  F  F1  1  0.60366203  0.39633797  0.00000000  1
  F  F2  1  0.60366203  0.20732406  0.00000000  1
  F  F3  1  0.79267594  0.39633797  0.00000000  1
  F  F4  1  0.66050791  0.63047714  0.77015744  1
  F  F5  1  0.36952286  0.03003077  0.77015744  1
  F  F6  1  0.96996923  0.33949209  0.77015744  1
  F  F7  1  0.36952286  0.33949209  0.22984256  1
  F  F8  1  0.96996923  0.63047714  0.22984256  1
  F  F9  1  0.66050791  0.03003077  0.22984256  1
  F  F10  1  0.14276334  0.06292131  0.61042152  1
  F  F11  1  0.93707869  0.07984203  0.61042152  1
  F  F12  1  0.92015797  0.85723666  0.61042152  1
  F  F13  1  0.93707869  0.85723666  0.38957848  1
  F  F14  1  0.92015797  0.06292131  0.38957848  1
  F  F15  1  0.14276334  0.07984203  0.38957848  1
  Li  Li16  1  0.66666667  0.33333333  0.37586296  1
  Li  Li17  1  0.66666667  0.33333333  0.62413704  1
  Li  Li18  1  0.00000000  0.00000000  0.00000000  1
  Li  Li19  1  0.94328756  0.52724597  0.61656530  1
  Li  Li20  1  -0.52724597  0.41604159  0.61656530  1
  Li  Li21  1  -0.41604159  -0.94328756  0.61656530  1
  Li  Li22  1  -0.52724597  -0.94328756  -0.61656530  1
  Li  Li23  1  -0.41604159  0.52724597  -0.61656530  1
  Li  Li24  1  0.94328756  0.41604159  -0.61656530  1
  Li  Li25  1  0.31631527  0.32053448  0.13135892  1
  Li  Li26  1  0.67946552  0.99578079  0.13135892  1
  Li  Li27  1  0.00421921  0.68368473  0.13135892  1
  Li  Li28  1  0.67946552  0.68368473  0.86864108  1
  Li  Li29  1  0.00421921  0.32053448  0.86864108  1
  Li  Li30  1  0.31631527  0.99578079  0.86864108  1
  Li  Li31  1  0.33333333  0.66666667  0.50000000  1
