# generated using pymatgen
data_Li3Y2MoP3Se2
_symmetry_space_group_name_H-M   'P 1'
_cell_length_a   5.52894497
_cell_length_b   5.86703783
_cell_length_c   7.38630488
_cell_angle_alpha   93.79696764
_cell_angle_beta   98.26900614
_cell_angle_gamma   105.25090993
_symmetry_Int_Tables_number   1
_chemical_formula_structural   Li3Y2MoP3Se2
_chemical_formula_sum   'Li3 Y2 Mo1 P3 Se2'
_cell_volume   227.39704445
_cell_formula_units_Z   1
loop_
 _symmetry_equiv_pos_site_id
 _symmetry_equiv_pos_as_xyz
  1  'x, y, z'
loop_
 _atom_site_type_symbol
 _atom_site_label
 _atom_site_symmetry_multiplicity
 _atom_site_fract_x
 _atom_site_fract_y
 _atom_site_fract_z
 _atom_site_occupancy
  Se  Se0  1  0.12500000  0.00000000  0.25000000  1
  Se  Se1  1  0.00000000  0.00000000  0.00000000  1
  P  P2  1  0.37500000  0.00000000  0.25000000  1
  P  P3  1  0.25000000  0.25000000  0.25000000  1
  P  P4  1  0.00000000  0.25000000  0.12500000  1
  Mo  Mo5  1  0.26074402  0.75450166  0.18039485  1
  Li  Li6  1  0.21283190  0.95470110  0.19213813  1
  Li  Li7  1  0.50119053  0.57221765  0.07182410  1
  Li  Li8  1  0.00212651  0.86932368  0.46301932  1
  Y  Y9  1  0.52945772  0.22873019  0.78943699  1
  Y  Y10  1  0.09536601  0.28212658  0.14665290  1
