# generated using pymatgen
data_Li2Cu3As3P2Se
_symmetry_space_group_name_H-M   'P 1'
_cell_length_a   5.01166062
_cell_length_b   5.13855545
_cell_length_c   6.78353093
_cell_angle_alpha   94.09924502
_cell_angle_beta   98.24287729
_cell_angle_gamma   105.30645034
_symmetry_Int_Tables_number   1
_chemical_formula_structural   Li2Cu3As3P2Se
_chemical_formula_sum   'Li2 Cu3 As3 P2 Se1'
_cell_volume   165.65929853
_cell_formula_units_Z   1
loop_
 _symmetry_equiv_pos_site_id
 _symmetry_equiv_pos_as_xyz
  1  'x, y, z'
loop_
 _atom_site_type_symbol
 _atom_site_label
 _atom_site_symmetry_multiplicity
 _atom_site_fract_x
 _atom_site_fract_y
 _atom_site_fract_z
 _atom_site_occupancy
  Se  Se0  1  0.00000000  0.00000000  0.00000000  1
  Cu  Cu1  1  0.50000000  0.50000000  0.50000000  1
  Cu  Cu2  1  0.25000000  0.25000000  0.25000000  1
  Cu  Cu3  1  0.75000000  0.25000000  0.00000000  1
  P  P4  1  0.25000000  0.75000000  0.50000000  1
  P  P5  1  0.82276145  0.66161945  0.04152941  1
  As  As6  1  0.59030023  0.40777754  0.09384891  1
  As  As7  1  0.33630726  0.86103792  0.96615990  1
  As  As8  1  0.01379596  0.22400665  0.23603188  1
  Li  Li9  1  0.12666094  0.28055936  0.37209858  1
  Li  Li10  1  0.13467089  0.97804990  0.11506723  1
