# generated using pymatgen
data_Li2Y2Cu3P2Se
_symmetry_space_group_name_H-M   'P 1'
_cell_length_a   4.45306793
_cell_length_b   4.77811406
_cell_length_c   6.60413423
_cell_angle_alpha   95.63662568
_cell_angle_beta   100.85285651
_cell_angle_gamma   109.21584545
_symmetry_Int_Tables_number   1
_chemical_formula_structural   Li2Y2Cu3P2Se
_chemical_formula_sum   'Li2 Y2 Cu3 P2 Se1'
_cell_volume   128.35697867
_cell_formula_units_Z   1
loop_
 _symmetry_equiv_pos_site_id
 _symmetry_equiv_pos_as_xyz
  1  'x, y, z'
loop_
 _atom_site_type_symbol
 _atom_site_label
 _atom_site_symmetry_multiplicity
 _atom_site_fract_x
 _atom_site_fract_y
 _atom_site_fract_z
 _atom_site_occupancy
  Se  Se0  1  0.12500000  0.00000000  0.25000000  1
  Cu  Cu1  1  0.00000000  0.00000000  0.00000000  1
  Cu  Cu2  1  0.37500000  0.00000000  0.25000000  1
  Cu  Cu3  1  0.25000000  0.25000000  0.25000000  1
  P  P4  1  0.00000000  0.25000000  0.12500000  1
  P  P5  1  0.54120932  0.42809694  0.25713470  1
  Li  Li6  1  0.54074517  0.36902634  0.86033284  1
  Li  Li7  1  0.76833390  0.54740342  0.22712143  1
  Y  Y8  1  0.39951334  0.39850348  0.52255200  1
  Y  Y9  1  0.87981135  0.83413130  0.78664162  1
