# generated using pymatgen
data_LiF
_symmetry_space_group_name_H-M   'P 1'
_cell_length_a   11.70511209
_cell_length_b   21.21017974
_cell_length_c   10.89211582
_cell_angle_alpha   90.00000000
_cell_angle_beta   90.00000000
_cell_angle_gamma   90.00000000
_symmetry_Int_Tables_number   1
_chemical_formula_structural   LiF
_chemical_formula_sum   'Li108 F108'
_cell_volume   2704.15870486
_cell_formula_units_Z   108
loop_
 _symmetry_equiv_pos_site_id
 _symmetry_equiv_pos_as_xyz
  1  'x, y, z'
loop_
 _atom_site_type_symbol
 _atom_site_label
 _atom_site_symmetry_multiplicity
 _atom_site_fract_x
 _atom_site_fract_y
 _atom_site_fract_z
 _atom_site_occupancy
  F  F0  1  0.00000000  0.50000000  0.50000000  1
  F  F1  1  0.50000000  0.00000000  0.50000000  1
  F  F2  1  0.83922780  0.59949540  0.50000000  1
  F  F3  1  0.16077220  0.40050460  0.50000000  1
  F  F4  1  0.66077220  0.09949540  0.50000000  1
  F  F5  1  0.33922780  0.90050460  0.50000000  1
  F  F6  1  0.30046522  0.98522730  0.74845818  1
  F  F7  1  -0.30046522  -0.98522730  0.74845818  1
  F  F8  1  0.19953478  1.48522730  -0.74845818  1
  F  F9  1  0.80046522  -0.48522730  -0.74845818  1
  F  F10  1  -0.30046522  -0.98522730  -0.74845818  1
  F  F11  1  0.30046522  0.98522730  -0.74845818  1
  F  F12  1  0.80046522  -0.48522730  0.74845818  1
  F  F13  1  0.19953478  1.48522730  0.74845818  1
  F  F14  1  0.55866715  0.38404469  0.04513202  1
  F  F15  1  0.44133285  0.61595531  0.04513202  1
  F  F16  1  0.94133285  0.88404469  0.95486798  1
  F  F17  1  0.05866715  0.11595531  0.95486798  1
  F  F18  1  0.44133285  0.61595531  0.95486798  1
  F  F19  1  0.55866715  0.38404469  0.95486798  1
  F  F20  1  0.05866715  0.11595531  0.04513202  1
  F  F21  1  0.94133285  0.88404469  0.04513202  1
  F  F22  1  0.73661665  0.29772388  0.56762969  1
  F  F23  1  0.26338335  0.70227612  0.56762969  1
  F  F24  1  0.76338335  0.79772388  0.43237031  1
  F  F25  1  0.23661665  0.20227612  0.43237031  1
  F  F26  1  0.26338335  0.70227612  0.43237031  1
  F  F27  1  0.73661665  0.29772388  0.43237031  1
  F  F28  1  0.23661665  0.20227612  0.56762969  1
  F  F29  1  0.76338335  0.79772388  0.56762969  1
  F  F30  1  0.75736895  0.60176268  0.31957216  1
  F  F31  1  0.24263105  0.39823732  0.31957216  1
  F  F32  1  0.74263105  0.10176268  0.68042784  1
  F  F33  1  0.25736895  0.89823732  0.68042784  1
  F  F34  1  0.24263105  0.39823732  0.68042784  1
  F  F35  1  0.75736895  0.60176268  0.68042784  1
  F  F36  1  0.25736895  0.89823732  0.31957216  1
  F  F37  1  0.74263105  0.10176268  0.31957216  1
  F  F38  1  0.70773642  0.79959116  0.34220901  1
  F  F39  1  0.29226358  0.20040884  0.34220901  1
  F  F40  1  0.79226358  0.29959116  0.65779099  1
  F  F41  1  0.20773642  0.70040884  0.65779099  1
  F  F42  1  0.29226358  0.20040884  0.65779099  1
  F  F43  1  0.70773642  0.79959116  0.65779099  1
  F  F44  1  0.20773642  0.70040884  0.34220901  1
  F  F45  1  0.79226358  0.29959116  0.34220901  1
  F  F46  1  0.00000000  0.00000000  0.50000000  1
  F  F47  1  0.50000000  0.50000000  0.50000000  1
  F  F48  1  0.98911257  0.72000156  0.29734111  1
  F  F49  1  0.01088743  0.27999844  0.29734111  1
  F  F50  1  0.51088743  0.22000156  0.70265889  1
  F  F51  1  0.48911257  0.77999844  0.70265889  1
  F  F52  1  0.01088743  0.27999844  0.70265889  1
  F  F53  1  0.98911257  0.72000156  0.70265889  1
  F  F54  1  0.48911257  0.77999844  0.29734111  1
  F  F55  1  0.51088743  0.22000156  0.29734111  1
  F  F56  1  0.00000000  0.00000000  0.10464872  1
  F  F57  1  0.50000000  0.50000000  0.89535128  1
  F  F58  1  0.00000000  0.00000000  0.89535128  1
  F  F59  1  0.50000000  0.50000000  0.10464872  1
  F  F60  1  0.94964450  0.96013674  0.43681830  1
  F  F61  1  0.05035550  0.03986326  0.43681830  1
  F  F62  1  0.55035550  0.46013674  0.56318170  1
  F  F63  1  0.44964450  0.53986326  0.56318170  1
  F  F64  1  0.05035550  0.03986326  0.56318170  1
  F  F65  1  0.94964450  0.96013674  0.56318170  1
  F  F66  1  0.44964450  0.53986326  0.43681830  1
  F  F67  1  0.55035550  0.46013674  0.43681830  1
  F  F68  1  0.31319988  0.32389117  0.16845018  1
  F  F69  1  0.68680012  0.67610883  0.16845018  1
  F  F70  1  0.18680012  0.82389117  0.83154982  1
  F  F71  1  0.81319988  0.17610883  0.83154982  1
  F  F72  1  0.68680012  0.67610883  0.83154982  1
  F  F73  1  0.31319988  0.32389117  0.83154982  1
  F  F74  1  0.81319988  0.17610883  0.16845018  1
  F  F75  1  0.18680012  0.82389117  0.16845018  1
  F  F76  1  0.46822236  0.66647524  0.60070181  1
  F  F77  1  0.53177764  0.33352476  0.60070181  1
  F  F78  1  0.03177764  0.16647524  0.39929819  1
  F  F79  1  0.96822236  0.83352476  0.39929819  1
  F  F80  1  0.53177764  0.33352476  0.39929819  1
  F  F81  1  0.46822236  0.66647524  0.39929819  1
  F  F82  1  0.96822236  0.83352476  0.60070181  1
  F  F83  1  0.03177764  0.16647524  0.60070181  1
  F  F84  1  0.06652061  0.16528380  0.89054092  1
  F  F85  1  0.93347939  0.83471620  0.89054092  1
  F  F86  1  0.43347939  0.66528380  0.10945908  1
  F  F87  1  0.56652061  0.33471620  0.10945908  1
  F  F88  1  0.93347939  0.83471620  0.10945908  1
  F  F89  1  0.06652061  0.16528380  0.10945908  1
  F  F90  1  0.56652061  0.33471620  0.89054092  1
  F  F91  1  0.43347939  0.66528380  0.89054092  1
  F  F92  1  0.73039095  0.59373117  0.00000000  1
  F  F93  1  0.26960905  0.40626883  -0.00000000  1
  F  F94  1  0.76960905  0.09373117  -0.00000000  1
  F  F95  1  0.23039095  0.90626883  0.00000000  1
  F  F96  1  0.98038943  0.15690981  0.73543412  1
  F  F97  1  0.01961057  0.84309019  0.73543412  1
  F  F98  1  0.51961057  0.65690981  0.26456588  1
  F  F99  1  0.48038943  0.34309019  0.26456588  1
  F  F100  1  0.01961057  0.84309019  0.26456588  1
  F  F101  1  0.98038943  0.15690981  0.26456588  1
  F  F102  1  0.48038943  0.34309019  0.73543412  1
  F  F103  1  0.51961057  0.65690981  0.73543412  1
  F  F104  1  0.88165737  0.06168406  -0.00000000  1
  F  F105  1  0.11834263  0.93831594  0.00000000  1
  F  F106  1  0.61834263  0.56168406  -0.00000000  1
  F  F107  1  0.38165737  0.43831594  0.00000000  1
  Li  Li108  1  0.21759558  0.67463322  0.72854583  1
  Li  Li109  1  0.78240442  0.32536678  0.72854583  1
  Li  Li110  1  0.28240442  0.17463322  0.27145417  1
  Li  Li111  1  0.71759558  0.82536678  0.27145417  1
  Li  Li112  1  0.78240442  0.32536678  0.27145417  1
  Li  Li113  1  0.21759558  0.67463322  0.27145417  1
  Li  Li114  1  0.71759558  0.82536678  0.72854583  1
  Li  Li115  1  0.28240442  0.17463322  0.72854583  1
  Li  Li116  1  0.54532984  0.05887998  0.50000000  1
  Li  Li117  1  0.45467016  0.94112002  0.50000000  1
  Li  Li118  1  0.95467016  0.55887998  0.50000000  1
  Li  Li119  1  0.04532984  0.44112002  0.50000000  1
  Li  Li120  1  0.47220461  0.94396262  0.30314255  1
  Li  Li121  1  0.52779539  0.05603738  0.30314255  1
  Li  Li122  1  0.02779539  0.44396262  0.69685745  1
  Li  Li123  1  0.97220461  0.55603738  0.69685745  1
  Li  Li124  1  0.52779539  0.05603738  0.69685745  1
  Li  Li125  1  0.47220461  0.94396262  0.69685745  1
  Li  Li126  1  0.97220461  0.55603738  0.30314255  1
  Li  Li127  1  0.02779539  0.44396262  0.30314255  1
  Li  Li128  1  0.13237850  0.83372613  -0.00000000  1
  Li  Li129  1  0.86762150  0.16627387  -0.00000000  1
  Li  Li130  1  0.36762150  0.33372613  -0.00000000  1
  Li  Li131  1  0.63237850  0.66627387  0.00000000  1
  Li  Li132  1  0.16694221  0.45626655  0.08863781  1
  Li  Li133  1  0.83305779  0.54373345  0.08863781  1
  Li  Li134  1  0.33305779  0.95626655  0.91136219  1
  Li  Li135  1  0.66694221  0.04373345  0.91136219  1
  Li  Li136  1  0.83305779  0.54373345  0.91136219  1
  Li  Li137  1  0.16694221  0.45626655  0.91136219  1
  Li  Li138  1  0.66694221  0.04373345  0.08863781  1
  Li  Li139  1  0.33305779  0.95626655  0.08863781  1
  Li  Li140  1  0.00000000  0.50000000  0.00000000  1
  Li  Li141  1  0.50000000  0.00000000  0.00000000  1
  Li  Li142  1  0.41182499  0.06370580  0.78899612  1
  Li  Li143  1  0.58817501  0.93629420  0.78899612  1
  Li  Li144  1  0.08817501  0.56370580  0.21100388  1
  Li  Li145  1  0.91182499  0.43629420  0.21100388  1
  Li  Li146  1  0.58817501  0.93629420  0.21100388  1
  Li  Li147  1  0.41182499  0.06370580  0.21100388  1
  Li  Li148  1  0.91182499  0.43629420  0.78899612  1
  Li  Li149  1  0.08817501  0.56370580  0.78899612  1
  Li  Li150  1  0.83303566  0.78706866  0.12707661  1
  Li  Li151  1  0.16696434  0.21293134  0.12707661  1
  Li  Li152  1  0.66696434  0.28706866  0.87292339  1
  Li  Li153  1  0.33303566  0.71293134  0.87292339  1
  Li  Li154  1  0.16696434  0.21293134  0.87292339  1
  Li  Li155  1  0.83303566  0.78706866  0.87292339  1
  Li  Li156  1  0.33303566  0.71293134  0.12707661  1
  Li  Li157  1  0.66696434  0.28706866  0.12707661  1
  Li  Li158  1  0.42760169  0.26358845  -0.00000000  1
  Li  Li159  1  0.57239831  0.73641155  -0.00000000  1
  Li  Li160  1  0.07239831  0.76358845  -0.00000000  1
  Li  Li161  1  0.92760169  0.23641155  -0.00000000  1
  Li  Li162  1  0.80720104  0.43205456  0.12866829  1
  Li  Li163  1  0.19279896  0.56794544  0.12866829  1
  Li  Li164  1  0.69279896  0.93205456  0.87133171  1
  Li  Li165  1  0.30720104  0.06794544  0.87133171  1
  Li  Li166  1  0.19279896  0.56794544  0.87133171  1
  Li  Li167  1  0.80720104  0.43205456  0.87133171  1
  Li  Li168  1  0.30720104  0.06794544  0.12866829  1
  Li  Li169  1  0.69279896  0.93205456  0.12866829  1
  Li  Li170  1  0.23195337  0.50417828  0.06908040  1
  Li  Li171  1  0.76804663  0.49582172  0.06908040  1
  Li  Li172  1  0.26804663  0.00417828  0.93091960  1
  Li  Li173  1  0.73195337  0.99582172  0.93091960  1
  Li  Li174  1  0.76804663  0.49582172  0.93091960  1
  Li  Li175  1  0.23195337  0.50417828  0.93091960  1
  Li  Li176  1  0.73195337  0.99582172  0.06908040  1
  Li  Li177  1  0.26804663  0.00417828  0.06908040  1
  Li  Li178  1  0.54465779  0.83545501  0.21459221  1
  Li  Li179  1  0.45534221  0.16454499  0.21459221  1
  Li  Li180  1  0.95534221  0.33545501  0.78540779  1
  Li  Li181  1  0.04465779  0.66454499  0.78540779  1
  Li  Li182  1  0.45534221  0.16454499  0.78540779  1
  Li  Li183  1  0.54465779  0.83545501  0.78540779  1
  Li  Li184  1  0.04465779  0.66454499  0.21459221  1
  Li  Li185  1  0.95534221  0.33545501  0.21459221  1
  Li  Li186  1  0.17537886  0.32819763  0.91385666  1
  Li  Li187  1  0.82462114  0.67180237  0.91385666  1
  Li  Li188  1  0.32462114  0.82819763  0.08614334  1
  Li  Li189  1  0.67537886  0.17180237  0.08614334  1
  Li  Li190  1  0.82462114  0.67180237  0.08614334  1
  Li  Li191  1  0.17537886  0.32819763  0.08614334  1
  Li  Li192  1  0.67537886  0.17180237  0.91385666  1
  Li  Li193  1  0.32462114  0.82819763  0.91385666  1
  Li  Li194  1  0.91356361  0.07070614  0.90832253  1
  Li  Li195  1  0.08643639  0.92929386  0.90832253  1
  Li  Li196  1  0.58643639  0.57070614  0.09167747  1
  Li  Li197  1  0.41356361  0.42929386  0.09167747  1
  Li  Li198  1  0.08643639  0.92929386  0.09167747  1
  Li  Li199  1  0.91356361  0.07070614  0.09167747  1
  Li  Li200  1  0.41356361  0.42929386  0.90832253  1
  Li  Li201  1  0.58643639  0.57070614  0.90832253  1
  Li  Li202  1  0.82774796  0.09352142  0.50000000  1
  Li  Li203  1  0.17225204  0.90647858  0.50000000  1
  Li  Li204  1  0.67225204  0.59352142  0.50000000  1
  Li  Li205  1  0.32774796  0.40647858  0.50000000  1
  Li  Li206  1  0.15598593  0.35574175  0.36574166  1
  Li  Li207  1  0.84401407  0.64425825  0.36574166  1
  Li  Li208  1  0.34401407  0.85574175  0.63425834  1
  Li  Li209  1  0.65598593  0.14425825  0.63425834  1
  Li  Li210  1  0.84401407  0.64425825  0.63425834  1
  Li  Li211  1  0.15598593  0.35574175  0.63425834  1
  Li  Li212  1  0.65598593  0.14425825  0.36574166  1
  Li  Li213  1  0.34401407  0.85574175  0.36574166  1
  Li  Li214  1  0.00000000  0.00000000  0.00000000  1
  Li  Li215  1  0.50000000  0.50000000  -0.00000000  1
