# generated using pymatgen
data_LiF
_symmetry_space_group_name_H-M   'P 1'
_cell_length_a   7.37166977
_cell_length_b   7.83441368
_cell_length_c   5.46137278
_cell_angle_alpha   90.00000000
_cell_angle_beta   90.00000000
_cell_angle_gamma   90.00000000
_symmetry_Int_Tables_number   1
_chemical_formula_structural   LiF
_chemical_formula_sum   'Li14 F14'
_cell_volume   315.40908135
_cell_formula_units_Z   14
loop_
 _symmetry_equiv_pos_site_id
 _symmetry_equiv_pos_as_xyz
  1  'x, y, z'
loop_
 _atom_site_type_symbol
 _atom_site_label
 _atom_site_symmetry_multiplicity
 _atom_site_fract_x
 _atom_site_fract_y
 _atom_site_fract_z
 _atom_site_occupancy
  F  F0  1  0.00000000  0.50000000  0.83928331  1
  F  F1  1  0.50000000  -0.00000000  0.66071669  1
  F  F2  1  0.00000000  0.50000000  0.16071669  1
  F  F3  1  0.50000000  -0.00000000  0.33928331  1
  F  F4  1  0.16820144  0.73261298  0.26982602  1
  F  F5  1  -0.16820144  -0.73261298  0.26982602  1
  F  F6  1  0.33179856  1.23261298  0.23017398  1
  F  F7  1  0.66820144  -0.23261298  0.23017398  1
  F  F8  1  -0.16820144  -0.73261298  -0.26982602  1
  F  F9  1  0.16820144  0.73261298  -0.26982602  1
  F  F10  1  0.66820144  -0.23261298  0.76982602  1
  F  F11  1  0.33179856  1.23261298  0.76982602  1
  F  F12  1  0.00000000  0.50000000  0.50000000  1
  F  F13  1  0.50000000  -0.00000000  -0.00000000  1
  Li  Li14  1  0.07136816  0.79636917  -0.00000000  1
  Li  Li15  1  0.92863184  0.20363083  0.00000000  1
  Li  Li16  1  0.42863184  0.29636917  0.50000000  1
  Li  Li17  1  0.57136816  0.70363083  0.50000000  1
  Li  Li18  1  0.00000000  0.00000000  0.50000000  1
  Li  Li19  1  0.50000000  0.50000000  0.00000000  1
  Li  Li20  1  0.35436539  0.56480676  0.75326826  1
  Li  Li21  1  0.64563461  0.43519324  0.75326826  1
  Li  Li22  1  0.14563461  0.06480676  0.74673174  1
  Li  Li23  1  0.85436539  0.93519324  0.74673174  1
  Li  Li24  1  0.64563461  0.43519324  0.24673174  1
  Li  Li25  1  0.35436539  0.56480676  0.24673174  1
  Li  Li26  1  0.85436539  0.93519324  0.25326826  1
  Li  Li27  1  0.14563461  0.06480676  0.25326826  1
