# generated using pymatgen
data_LiF
_symmetry_space_group_name_H-M   'P 1'
_cell_length_a   9.80577385
_cell_length_b   9.80577385
_cell_length_c   6.15932556
_cell_angle_alpha   90.00000000
_cell_angle_beta   90.00000000
_cell_angle_gamma   120.00000000
_symmetry_Int_Tables_number   1
_chemical_formula_structural   LiF
_chemical_formula_sum   'Li24 F24'
_cell_volume   512.89390388
_cell_formula_units_Z   24
loop_
 _symmetry_equiv_pos_site_id
 _symmetry_equiv_pos_as_xyz
  1  'x, y, z'
loop_
 _atom_site_type_symbol
 _atom_site_label
 _atom_site_symmetry_multiplicity
 _atom_site_fract_x
 _atom_site_fract_y
 _atom_site_fract_z
 _atom_site_occupancy
  F  F0  1  0.66666667  0.33333333  0.00000000  1
  F  F1  1  0.46921393  0.53078607  0.50000000  1
  F  F2  1  0.46921393  0.93842787  0.50000000  1
  F  F3  1  0.06157213  0.53078607  0.50000000  1
  F  F4  1  0.32011454  0.44961563  0.04100868  1
  F  F5  1  0.55038437  0.87049892  0.04100868  1
  F  F6  1  0.12950108  0.67988546  0.04100868  1
  F  F7  1  0.55038437  0.67988546  0.95899132  1
  F  F8  1  0.12950108  0.44961563  0.95899132  1
  F  F9  1  0.32011454  0.87049892  0.95899132  1
  F  F10  1  0.18479978  0.52325229  0.76858760  1
  F  F11  1  0.47674771  0.66154749  0.76858760  1
  F  F12  1  0.33845251  0.81520022  0.76858760  1
  F  F13  1  0.47674771  0.81520022  0.23141240  1
  F  F14  1  0.33845251  0.52325229  0.23141240  1
  F  F15  1  0.18479978  0.66154749  0.23141240  1
  F  F16  1  0.66666667  0.33333333  0.50000000  1
  F  F17  1  0.89943820  0.61408797  0.77111042  1
  F  F18  1  0.38591203  0.28535023  0.77111042  1
  F  F19  1  0.71464977  0.10056180  0.77111042  1
  F  F20  1  0.38591203  0.10056180  0.22888958  1
  F  F21  1  0.71464977  0.61408797  0.22888958  1
  F  F22  1  0.89943820  0.28535023  0.22888958  1
  F  F23  1  0.00000000  0.00000000  0.50000000  1
  Li  Li24  1  0.38129028  0.61870972  0.50000000  1
  Li  Li25  1  0.38129028  0.76258055  0.50000000  1
  Li  Li26  1  0.23741945  0.61870972  0.50000000  1
  Li  Li27  1  0.86871224  0.90418926  0.87045544  1
  Li  Li28  1  -0.90418926  -0.03547702  0.87045544  1
  Li  Li29  1  0.03547702  -0.86871224  0.87045544  1
  Li  Li30  1  -0.90418926  -0.86871224  -0.87045544  1
  Li  Li31  1  0.03547702  0.90418926  -0.87045544  1
  Li  Li32  1  0.86871224  -0.03547702  -0.87045544  1
  Li  Li33  1  0.48901084  0.51098916  -0.00000000  1
  Li  Li34  1  0.48901084  0.97802168  0.00000000  1
  Li  Li35  1  0.02197832  0.51098916  -0.00000000  1
  Li  Li36  1  0.37184419  0.29282570  0.06839356  1
  Li  Li37  1  0.70717430  0.07901849  0.06839356  1
  Li  Li38  1  0.92098151  0.62815581  0.06839356  1
  Li  Li39  1  0.70717430  0.62815581  0.93160644  1
  Li  Li40  1  0.92098151  0.29282570  0.93160644  1
  Li  Li41  1  0.37184419  0.07901849  0.93160644  1
  Li  Li42  1  0.48729373  0.12933616  0.53522334  1
  Li  Li43  1  0.87066384  0.35795757  0.53522334  1
  Li  Li44  1  0.64204243  0.51270627  0.53522334  1
  Li  Li45  1  0.87066384  0.51270627  0.46477666  1
  Li  Li46  1  0.64204243  0.12933616  0.46477666  1
  Li  Li47  1  0.48729373  0.35795757  0.46477666  1
