# generated using pymatgen
data_LiF
_symmetry_space_group_name_H-M   'P 1'
_cell_length_a   8.84661961
_cell_length_b   12.06750726
_cell_length_c   14.71864175
_cell_angle_alpha   90.00000000
_cell_angle_beta   90.00000000
_cell_angle_gamma   90.00000000
_symmetry_Int_Tables_number   1
_chemical_formula_structural   LiF
_chemical_formula_sum   'Li56 F56'
_cell_volume   1571.31283165
_cell_formula_units_Z   56
loop_
 _symmetry_equiv_pos_site_id
 _symmetry_equiv_pos_as_xyz
  1  'x, y, z'
loop_
 _atom_site_type_symbol
 _atom_site_label
 _atom_site_symmetry_multiplicity
 _atom_site_fract_x
 _atom_site_fract_y
 _atom_site_fract_z
 _atom_site_occupancy
  F  F0  1  0.03153049  0.32848528  0.47711270  1
  F  F1  1  0.46846951  0.67151472  0.97711270  1
  F  F2  1  0.96846951  0.82848528  0.52288730  1
  F  F3  1  0.53153049  0.17151472  0.02288730  1
  F  F4  1  0.96846951  0.67151472  0.52288730  1
  F  F5  1  0.53153049  0.32848528  0.02288730  1
  F  F6  1  0.03153049  0.17151472  0.47711270  1
  F  F7  1  0.46846951  0.82848528  0.97711270  1
  F  F8  1  0.66090027  0.54949332  0.93152868  1
  F  F9  1  0.83909973  0.45050668  0.43152868  1
  F  F10  1  0.33909973  0.04949332  0.06847132  1
  F  F11  1  0.16090027  0.95050668  0.56847132  1
  F  F12  1  0.33909973  0.45050668  0.06847132  1
  F  F13  1  0.16090027  0.54949332  0.56847132  1
  F  F14  1  0.66090027  0.95050668  0.93152868  1
  F  F15  1  0.83909973  0.04949332  0.43152868  1
  F  F16  1  0.24594636  0.97208282  0.97845372  1
  F  F17  1  0.25405364  0.02791718  0.47845372  1
  F  F18  1  0.75405364  0.47208282  0.02154628  1
  F  F19  1  0.74594636  0.52791718  0.52154628  1
  F  F20  1  0.75405364  0.02791718  0.02154628  1
  F  F21  1  0.74594636  0.97208282  0.52154628  1
  F  F22  1  0.24594636  0.52791718  0.97845372  1
  F  F23  1  0.25405364  0.47208282  0.47845372  1
  F  F24  1  0.94763293  0.63024295  0.81284407  1
  F  F25  1  0.55236707  0.36975705  0.31284407  1
  F  F26  1  0.05236707  0.13024295  0.18715593  1
  F  F27  1  0.44763293  0.86975705  0.68715593  1
  F  F28  1  0.05236707  0.36975705  0.18715593  1
  F  F29  1  0.44763293  0.63024295  0.68715593  1
  F  F30  1  0.94763293  0.86975705  0.81284407  1
  F  F31  1  0.55236707  0.13024295  0.31284407  1
  F  F32  1  0.21480603  0.25000000  0.16255807  1
  F  F33  1  0.28519397  0.75000000  0.66255807  1
  F  F34  1  0.78519397  0.75000000  0.83744193  1
  F  F35  1  0.71480603  0.25000000  0.33744193  1
  F  F36  1  0.71179654  0.25000000  0.12752101  1
  F  F37  1  0.78820346  0.75000000  0.62752101  1
  F  F38  1  0.28820346  0.75000000  0.87247899  1
  F  F39  1  0.21179654  0.25000000  0.37247899  1
  F  F40  1  0.85630248  0.90854677  0.28012448  1
  F  F41  1  0.64369752  0.09145323  0.78012448  1
  F  F42  1  0.14369752  0.40854677  0.71987552  1
  F  F43  1  0.35630248  0.59145323  0.21987552  1
  F  F44  1  0.14369752  0.09145323  0.71987552  1
  F  F45  1  0.35630248  0.90854677  0.21987552  1
  F  F46  1  0.85630248  0.59145323  0.28012448  1
  F  F47  1  0.64369752  0.40854677  0.78012448  1
  F  F48  1  0.81401087  0.25000000  0.19081406  1
  F  F49  1  0.68598913  0.75000000  0.69081406  1
  F  F50  1  0.18598913  0.75000000  0.80918594  1
  F  F51  1  0.31401087  0.25000000  0.30918594  1
  F  F52  1  0.66296301  0.25000000  0.67770995  1
  F  F53  1  0.83703699  0.75000000  0.17770995  1
  F  F54  1  0.33703699  0.75000000  0.32229005  1
  F  F55  1  0.16296301  0.25000000  0.82229005  1
  Li  Li56  1  0.50717893  0.45192456  0.63908193  1
  Li  Li57  1  -0.00717893  -0.45192456  1.13908193  1
  Li  Li58  1  -0.50717893  0.95192456  -0.63908193  1
  Li  Li59  1  1.00717893  0.04807544  -0.13908193  1
  Li  Li60  1  -0.50717893  -0.45192456  -0.63908193  1
  Li  Li61  1  1.00717893  0.45192456  -0.13908193  1
  Li  Li62  1  0.50717893  0.04807544  0.63908193  1
  Li  Li63  1  -0.00717893  0.95192456  1.13908193  1
  Li  Li64  1  0.81363304  0.58977158  0.83122961  1
  Li  Li65  1  0.68636696  0.41022842  0.33122961  1
  Li  Li66  1  0.18636696  0.08977158  0.16877039  1
  Li  Li67  1  0.31363304  0.91022842  0.66877039  1
  Li  Li68  1  0.18636696  0.41022842  0.16877039  1
  Li  Li69  1  0.31363304  0.58977158  0.66877039  1
  Li  Li70  1  0.81363304  0.91022842  0.83122961  1
  Li  Li71  1  0.68636696  0.08977158  0.33122961  1
  Li  Li72  1  0.00000000  0.00000000  0.50000000  1
  Li  Li73  1  0.50000000  0.00000000  0.00000000  1
  Li  Li74  1  0.00000000  0.50000000  0.50000000  1
  Li  Li75  1  0.50000000  0.50000000  0.00000000  1
  Li  Li76  1  0.58094112  0.95433742  0.53129810  1
  Li  Li77  1  0.91905888  0.04566258  0.03129810  1
  Li  Li78  1  0.41905888  0.45433742  0.46870190  1
  Li  Li79  1  0.08094112  0.54566258  0.96870190  1
  Li  Li80  1  0.41905888  0.04566258  0.46870190  1
  Li  Li81  1  0.08094112  0.95433742  0.96870190  1
  Li  Li82  1  0.58094112  0.54566258  0.53129810  1
  Li  Li83  1  0.91905888  0.45433742  0.03129810  1
  Li  Li84  1  0.33305489  0.62630151  0.47703074  1
  Li  Li85  1  0.16694511  0.37369849  0.97703074  1
  Li  Li86  1  0.66694511  0.12630151  0.52296926  1
  Li  Li87  1  0.83305489  0.87369849  0.02296926  1
  Li  Li88  1  0.66694511  0.37369849  0.52296926  1
  Li  Li89  1  0.83305489  0.62630151  0.02296926  1
  Li  Li90  1  0.33305489  0.87369849  0.47703074  1
  Li  Li91  1  0.16694511  0.12630151  0.97703074  1
  Li  Li92  1  0.04591452  0.33125854  0.67397089  1
  Li  Li93  1  0.45408548  0.66874146  0.17397089  1
  Li  Li94  1  0.95408548  0.83125854  0.32602911  1
  Li  Li95  1  0.54591452  0.16874146  0.82602911  1
  Li  Li96  1  0.95408548  0.66874146  0.32602911  1
  Li  Li97  1  0.54591452  0.33125854  0.82602911  1
  Li  Li98  1  0.04591452  0.16874146  0.67397089  1
  Li  Li99  1  0.45408548  0.83125854  0.17397089  1
  Li  Li100  1  0.32345409  0.39025583  0.35933923  1
  Li  Li101  1  0.17654591  0.60974417  0.85933923  1
  Li  Li102  1  0.67654591  0.89025583  0.64066077  1
  Li  Li103  1  0.82345409  0.10974417  0.14066077  1
  Li  Li104  1  0.67654591  0.60974417  0.64066077  1
  Li  Li105  1  0.82345409  0.39025583  0.14066077  1
  Li  Li106  1  0.32345409  0.10974417  0.35933923  1
  Li  Li107  1  0.17654591  0.89025583  0.85933923  1
  Li  Li108  1  0.68629642  0.25000000  0.27497665  1
  Li  Li109  1  0.81370358  0.75000000  0.77497665  1
  Li  Li110  1  0.31370358  0.75000000  0.72502335  1
  Li  Li111  1  0.18629642  0.25000000  0.22502335  1
