# generated using pymatgen
data_Li2Si4Te3F12
_symmetry_space_group_name_H-M   'P 1'
_cell_length_a   10.59930818
_cell_length_b   10.59930818
_cell_length_c   10.81982228
_cell_angle_alpha   90.00000000
_cell_angle_beta   90.00000000
_cell_angle_gamma   90.00000000
_symmetry_Int_Tables_number   1
_chemical_formula_structural   Li2Si4Te3F12
_chemical_formula_sum   'Li8 Si16 Te12 F48'
_cell_volume   1215.55654591
_cell_formula_units_Z   4
loop_
 _symmetry_equiv_pos_site_id
 _symmetry_equiv_pos_as_xyz
  1  'x, y, z'
loop_
 _atom_site_type_symbol
 _atom_site_label
 _atom_site_symmetry_multiplicity
 _atom_site_fract_x
 _atom_site_fract_y
 _atom_site_fract_z
 _atom_site_occupancy
  F  F0  1  0.61314474  0.45331562  0.41641736  1
  F  F1  1  -0.11314474  -0.45331562  0.91641736  1
  F  F2  1  -0.20331562  1.36314474  0.66641736  1
  F  F3  1  0.70331562  -0.36314474  1.16641736  1
  F  F4  1  -0.11314474  0.45331562  0.08358264  1
  F  F5  1  0.61314474  -0.45331562  -0.41641736  1
  F  F6  1  0.70331562  1.36314474  -0.16641736  1
  F  F7  1  -0.20331562  -0.36314474  0.33358264  1
  F  F8  1  -0.61314474  -0.45331562  -0.41641736  1
  F  F9  1  1.11314474  0.45331562  0.08358264  1
  F  F10  1  1.20331562  -0.36314474  0.33358264  1
  F  F11  1  0.29668438  1.36314474  -0.16641736  1
  F  F12  1  1.11314474  -0.45331562  0.91641736  1
  F  F13  1  -0.61314474  0.45331562  0.41641736  1
  F  F14  1  0.29668438  -0.36314474  1.16641736  1
  F  F15  1  1.20331562  1.36314474  0.66641736  1
  F  F16  1  1.11314474  0.95331562  0.91641736  1
  F  F17  1  0.38685526  0.04668438  1.41641736  1
  F  F18  1  0.29668438  1.86314474  1.16641736  1
  F  F19  1  1.20331562  0.13685526  1.66641736  1
  F  F20  1  0.38685526  0.95331562  0.58358264  1
  F  F21  1  1.11314474  0.04668438  0.08358264  1
  F  F22  1  1.20331562  1.86314474  0.33358264  1
  F  F23  1  0.29668438  0.13685526  0.83358264  1
  F  F24  1  -0.11314474  0.04668438  0.08358264  1
  F  F25  1  1.61314474  0.95331562  0.58358264  1
  F  F26  1  1.70331562  0.13685526  0.83358264  1
  F  F27  1  0.79668438  1.86314474  0.33358264  1
  F  F28  1  1.61314474  0.04668438  1.41641736  1
  F  F29  1  -0.11314474  0.95331562  0.91641736  1
  F  F30  1  0.79668438  0.13685526  1.66641736  1
  F  F31  1  1.70331562  1.86314474  1.16641736  1
  F  F32  1  0.57506977  0.00000000  0.00000000  1
  F  F33  1  0.92493023  0.00000000  0.50000000  1
  F  F34  1  0.25000000  0.32506977  0.25000000  1
  F  F35  1  0.25000000  0.67493023  0.75000000  1
  F  F36  1  0.42493023  -0.00000000  -0.00000000  1
  F  F37  1  0.07506977  -0.00000000  0.50000000  1
  F  F38  1  0.75000000  0.67493023  0.75000000  1
  F  F39  1  0.75000000  0.32506977  0.25000000  1
  F  F40  1  0.07506977  0.50000000  0.50000000  1
  F  F41  1  0.42493023  0.50000000  0.00000000  1
  F  F42  1  0.75000000  0.82506977  0.75000000  1
  F  F43  1  0.75000000  0.17493023  0.25000000  1
  F  F44  1  0.92493023  0.50000000  0.50000000  1
  F  F45  1  0.57506977  0.50000000  0.00000000  1
  F  F46  1  0.25000000  0.17493023  0.25000000  1
  F  F47  1  0.25000000  0.82506977  0.75000000  1
  Li  Li48  1  0.00000000  0.00000000  0.00000000  1
  Li  Li49  1  0.50000000  -0.00000000  0.50000000  1
  Li  Li50  1  0.25000000  0.75000000  0.25000000  1
  Li  Li51  1  0.25000000  0.25000000  0.75000000  1
  Li  Li52  1  0.50000000  0.50000000  0.50000000  1
  Li  Li53  1  0.00000000  0.50000000  0.00000000  1
  Li  Li54  1  0.75000000  0.25000000  0.75000000  1
  Li  Li55  1  0.75000000  0.75000000  0.25000000  1
  Si  Si56  1  0.39121102  0.64121102  0.87500000  1
  Si  Si57  1  0.10878898  0.35878898  0.37500000  1
  Si  Si58  1  0.60878898  0.14121102  0.12500000  1
  Si  Si59  1  0.89121102  0.85878898  0.62500000  1
  Si  Si60  1  0.60878898  0.35878898  0.12500000  1
  Si  Si61  1  0.89121102  0.64121102  0.62500000  1
  Si  Si62  1  0.39121102  0.85878898  0.87500000  1
  Si  Si63  1  0.10878898  0.14121102  0.37500000  1
  Si  Si64  1  0.89121102  0.14121102  0.37500000  1
  Si  Si65  1  0.60878898  0.85878898  0.87500000  1
  Si  Si66  1  0.10878898  0.64121102  0.62500000  1
  Si  Si67  1  0.39121102  0.35878898  0.12500000  1
  Si  Si68  1  0.10878898  0.85878898  0.62500000  1
  Si  Si69  1  0.39121102  0.14121102  0.12500000  1
  Si  Si70  1  0.89121102  0.35878898  0.37500000  1
  Si  Si71  1  0.60878898  0.64121102  0.87500000  1
  Te  Te72  1  0.00000000  0.75000000  0.12500000  1
  Te  Te73  1  0.50000000  0.75000000  0.37500000  1
  Te  Te74  1  0.50000000  0.25000000  0.62500000  1
  Te  Te75  1  0.00000000  0.25000000  0.87500000  1
  Te  Te76  1  0.00000000  0.25000000  0.52344683  1
  Te  Te77  1  0.00000000  0.75000000  0.77344683  1
  Te  Te78  1  0.50000000  0.25000000  0.97655317  1
  Te  Te79  1  0.50000000  0.75000000  0.72655317  1
  Te  Te80  1  0.50000000  0.75000000  0.02344683  1
  Te  Te81  1  0.50000000  0.25000000  0.27344683  1
  Te  Te82  1  0.00000000  0.75000000  0.47655317  1
  Te  Te83  1  0.00000000  0.25000000  0.22655317  1
