# generated using pymatgen
data_LiF
_symmetry_space_group_name_H-M   'P 1'
_cell_length_a   12.04602684
_cell_length_b   12.04602684
_cell_length_c   6.42109253
_cell_angle_alpha   90.00000000
_cell_angle_beta   90.00000000
_cell_angle_gamma   120.00000000
_symmetry_Int_Tables_number   1
_chemical_formula_structural   LiF
_chemical_formula_sum   'Li25 F25'
_cell_volume   806.91393128
_cell_formula_units_Z   25
loop_
 _symmetry_equiv_pos_site_id
 _symmetry_equiv_pos_as_xyz
  1  'x, y, z'
loop_
 _atom_site_type_symbol
 _atom_site_label
 _atom_site_symmetry_multiplicity
 _atom_site_fract_x
 _atom_site_fract_y
 _atom_site_fract_z
 _atom_site_occupancy
  F  F0  1  0.87229564  0.57203330  0.71278048  1
  F  F1  1  0.42796670  0.30026234  0.71278048  1
  F  F2  1  0.69973766  0.12770436  0.71278048  1
  F  F3  1  0.42796670  0.12770436  0.28721952  1
  F  F4  1  0.69973766  0.57203330  0.28721952  1
  F  F5  1  0.87229564  0.30026234  0.28721952  1
  F  F6  1  0.66666667  0.33333333  -0.00000000  1
  F  F7  1  0.66666667  0.33333333  0.87508055  1
  F  F8  1  0.66666667  0.33333333  0.12491945  1
  F  F9  1  0.00000000  0.00000000  0.50000000  1
  F  F10  1  0.00649206  0.50100149  0.68482586  1
  F  F11  1  0.49899851  0.50549057  0.68482586  1
  F  F12  1  0.49450943  0.99350794  0.68482586  1
  F  F13  1  0.49899851  0.99350794  0.31517414  1
  F  F14  1  0.49450943  0.50100149  0.31517414  1
  F  F15  1  0.00649206  0.50549057  0.31517414  1
  F  F16  1  0.57340005  0.90288390  0.53192781  1
  F  F17  1  0.09711610  0.67051615  0.53192781  1
  F  F18  1  0.32948385  0.42659995  0.53192781  1
  F  F19  1  0.09711610  0.42659995  0.46807219  1
  F  F20  1  0.32948385  0.90288390  0.46807219  1
  F  F21  1  0.57340005  0.67051615  0.46807219  1
  F  F22  1  0.80019643  0.19980357  0.50000000  1
  F  F23  1  0.80019643  0.60039286  0.50000000  1
  F  F24  1  0.39960714  0.19980357  0.50000000  1
  Li  Li25  1  0.33539539  0.98860166  0.67955399  1
  Li  Li26  1  -0.98860166  -0.65320627  0.67955399  1
  Li  Li27  1  0.65320627  -0.33539539  0.67955399  1
  Li  Li28  1  -0.98860166  -0.33539539  -0.67955399  1
  Li  Li29  1  0.65320627  0.98860166  -0.67955399  1
  Li  Li30  1  0.33539539  -0.65320627  -0.67955399  1
  Li  Li31  1  0.78789019  0.81234182  0.18046353  1
  Li  Li32  1  0.18765818  0.97554837  0.18046353  1
  Li  Li33  1  0.02445163  0.21210981  0.18046353  1
  Li  Li34  1  0.18765818  0.21210981  0.81953647  1
  Li  Li35  1  0.02445163  0.81234182  0.81953647  1
  Li  Li36  1  0.78789019  0.97554837  0.81953647  1
  Li  Li37  1  0.12701565  0.62141941  0.93146688  1
  Li  Li38  1  0.37858059  0.50559625  0.93146688  1
  Li  Li39  1  0.49440375  0.87298435  0.93146688  1
  Li  Li40  1  0.37858059  0.87298435  0.06853312  1
  Li  Li41  1  0.49440375  0.62141941  0.06853312  1
  Li  Li42  1  0.12701565  0.50559625  0.06853312  1
  Li  Li43  1  0.66666667  0.33333333  0.50000000  1
  Li  Li44  1  0.73107870  0.63974556  0.09797393  1
  Li  Li45  1  0.36025444  0.09133314  0.09797393  1
  Li  Li46  1  0.90866686  0.26892130  0.09797393  1
  Li  Li47  1  0.36025444  0.26892130  0.90202607  1
  Li  Li48  1  0.90866686  0.63974556  0.90202607  1
  Li  Li49  1  0.73107870  0.09133314  0.90202607  1
