# generated using pymatgen
data_Li2TiP4(NF)4
_symmetry_space_group_name_H-M   'P 1'
_cell_length_a   5.79700607
_cell_length_b   5.27303452
_cell_length_c   7.76031555
_cell_angle_alpha   94.11281369
_cell_angle_beta   98.95685317
_cell_angle_gamma   106.51953798
_symmetry_Int_Tables_number   1
_chemical_formula_structural   Li2TiP4(NF)4
_chemical_formula_sum   'Li2 Ti1 P4 N4 F4'
_cell_volume   222.95970555
_cell_formula_units_Z   1
loop_
 _symmetry_equiv_pos_site_id
 _symmetry_equiv_pos_as_xyz
  1  'x, y, z'
loop_
 _atom_site_type_symbol
 _atom_site_label
 _atom_site_symmetry_multiplicity
 _atom_site_fract_x
 _atom_site_fract_y
 _atom_site_fract_z
 _atom_site_occupancy
  F  F0  1  0.12500000  0.00000000  0.25000000  1
  F  F1  1  0.00000000  0.00000000  0.00000000  1
  F  F2  1  0.37500000  0.00000000  0.25000000  1
  F  F3  1  0.25000000  0.25000000  0.25000000  1
  N  N4  1  0.00000000  0.25000000  0.12500000  1
  N  N5  1  0.92654492  0.09162415  0.85486713  1
  N  N6  1  0.00237399  0.58034651  0.70924495  1
  N  N7  1  0.51974449  0.59681581  0.66385923  1
  P  P8  1  0.10113108  0.91035358  0.24629112  1
  P  P9  1  0.79854646  0.55122743  0.02945088  1
  P  P10  1  0.29625887  0.75291261  0.37347469  1
  P  P11  1  0.74013888  0.83349746  0.76359384  1
  Ti  Ti12  1  0.99770183  0.65225562  0.97075001  1
  Li  Li13  1  0.19868191  0.03967715  0.05238756  1
  Li  Li14  1  0.09682881  0.80222655  0.75435924  1
