# generated using pymatgen
data_LiSb2MoPSe
_symmetry_space_group_name_H-M   'P 1'
_cell_length_a   5.10293476
_cell_length_b   5.24013817
_cell_length_c   6.00811950
_cell_angle_alpha   93.35465148
_cell_angle_beta   93.92304985
_cell_angle_gamma   98.09268819
_symmetry_Int_Tables_number   1
_chemical_formula_structural   LiSb2MoPSe
_chemical_formula_sum   'Li1 Sb2 Mo1 P1 Se1'
_cell_volume   158.30688644
_cell_formula_units_Z   1
loop_
 _symmetry_equiv_pos_site_id
 _symmetry_equiv_pos_as_xyz
  1  'x, y, z'
loop_
 _atom_site_type_symbol
 _atom_site_label
 _atom_site_symmetry_multiplicity
 _atom_site_fract_x
 _atom_site_fract_y
 _atom_site_fract_z
 _atom_site_occupancy
  Se  Se0  1  0.12500000  0.00000000  0.25000000  1
  P  P1  1  0.00000000  0.00000000  0.00000000  1
  Mo  Mo2  1  0.37500000  0.00000000  0.25000000  1
  Li  Li3  1  0.25000000  0.25000000  0.25000000  1
  Sb  Sb4  1  0.00000000  0.25000000  0.12500000  1
  Sb  Sb5  1  0.26232525  0.57229959  0.30978198  1
