# generated using pymatgen
data_Li2Te4MoP3Se
_symmetry_space_group_name_H-M   'P 1'
_cell_length_a   5.49225948
_cell_length_b   5.84235807
_cell_length_c   7.16204753
_cell_angle_alpha   93.38454642
_cell_angle_beta   97.69745669
_cell_angle_gamma   103.98875064
_symmetry_Int_Tables_number   1
_chemical_formula_structural   Li2Te4MoP3Se
_chemical_formula_sum   'Li2 Te4 Mo1 P3 Se1'
_cell_volume   219.98815448
_cell_formula_units_Z   1
loop_
 _symmetry_equiv_pos_site_id
 _symmetry_equiv_pos_as_xyz
  1  'x, y, z'
loop_
 _atom_site_type_symbol
 _atom_site_label
 _atom_site_symmetry_multiplicity
 _atom_site_fract_x
 _atom_site_fract_y
 _atom_site_fract_z
 _atom_site_occupancy
  Se  Se0  1  0.12500000  0.00000000  0.25000000  1
  Te  Te1  1  0.00000000  0.00000000  0.00000000  1
  Te  Te2  1  0.37500000  0.00000000  0.25000000  1
  Te  Te3  1  0.25000000  0.25000000  0.25000000  1
  Te  Te4  1  0.00000000  0.25000000  0.12500000  1
  P  P5  1  0.51495713  0.85664424  0.23242812  1
  P  P6  1  0.73366349  0.68430143  0.92428571  1
  P  P7  1  0.42942968  0.28176679  0.65868987  1
  Mo  Mo8  1  0.38910033  0.94592810  0.15953275  1
  Li  Li9  1  0.86926664  0.79206159  0.71232602  1
  Li  Li10  1  0.57841681  0.52230833  0.87006904  1
