# generated using pymatgen
data_Li2Ca3F8
_symmetry_space_group_name_H-M   'P 1'
_cell_length_a   19.03467938
_cell_length_b   19.03467938
_cell_length_c   4.56407334
_cell_angle_alpha   90.00000000
_cell_angle_beta   90.00000000
_cell_angle_gamma   90.00000000
_symmetry_Int_Tables_number   1
_chemical_formula_structural   Li2Ca3F8
_chemical_formula_sum   'Li16 Ca24 F64'
_cell_volume   1653.65057604
_cell_formula_units_Z   8
loop_
 _symmetry_equiv_pos_site_id
 _symmetry_equiv_pos_as_xyz
  1  'x, y, z'
loop_
 _atom_site_type_symbol
 _atom_site_label
 _atom_site_symmetry_multiplicity
 _atom_site_fract_x
 _atom_site_fract_y
 _atom_site_fract_z
 _atom_site_occupancy
  Ca  Ca0  1  0.19840906  0.44840906  0.12500000  1
  Ca  Ca1  1  0.30159094  0.55159094  0.62500000  1
  Ca  Ca2  1  0.80159094  0.94840906  0.37500000  1
  Ca  Ca3  1  0.69840906  0.05159094  0.87500000  1
  Ca  Ca4  1  0.80159094  0.55159094  0.87500000  1
  Ca  Ca5  1  0.69840906  0.44840906  0.37500000  1
  Ca  Ca6  1  0.19840906  0.05159094  0.62500000  1
  Ca  Ca7  1  0.30159094  0.94840906  0.12500000  1
  Ca  Ca8  1  0.69840906  0.94840906  0.62500000  1
  Ca  Ca9  1  0.80159094  0.05159094  0.12500000  1
  Ca  Ca10  1  0.30159094  0.44840906  0.87500000  1
  Ca  Ca11  1  0.19840906  0.55159094  0.37500000  1
  Ca  Ca12  1  0.30159094  0.05159094  0.37500000  1
  Ca  Ca13  1  0.19840906  0.94840906  0.87500000  1
  Ca  Ca14  1  0.69840906  0.55159094  0.12500000  1
  Ca  Ca15  1  0.80159094  0.44840906  0.62500000  1
  Ca  Ca16  1  0.00000000  0.25000000  0.12500000  1
  Ca  Ca17  1  0.00000000  0.75000000  0.37500000  1
  Ca  Ca18  1  0.00000000  0.75000000  0.87500000  1
  Ca  Ca19  1  0.00000000  0.25000000  0.62500000  1
  Ca  Ca20  1  0.50000000  0.75000000  0.62500000  1
  Ca  Ca21  1  0.50000000  0.25000000  0.87500000  1
  Ca  Ca22  1  0.50000000  0.25000000  0.37500000  1
  Ca  Ca23  1  0.50000000  0.75000000  0.12500000  1
  F  F24  1  0.96390676  0.20494020  0.86240617  1
  F  F25  1  -0.46390676  -0.20494020  1.36240617  1
  F  F26  1  0.04505980  1.71390676  1.11240617  1
  F  F27  1  0.45494020  -0.71390676  1.61240617  1
  F  F28  1  -0.46390676  0.20494020  -0.86240617  1
  F  F29  1  0.96390676  -0.20494020  -0.36240617  1
  F  F30  1  0.45494020  1.71390676  -0.11240617  1
  F  F31  1  0.04505980  -0.71390676  -0.61240617  1
  F  F32  1  -0.96390676  -0.20494020  -0.86240617  1
  F  F33  1  1.46390676  0.20494020  -0.36240617  1
  F  F34  1  0.95494020  -0.71390676  -0.11240617  1
  F  F35  1  0.54505980  1.71390676  -0.61240617  1
  F  F36  1  1.46390676  -0.20494020  0.86240617  1
  F  F37  1  -0.96390676  0.20494020  1.36240617  1
  F  F38  1  0.54505980  -0.71390676  1.11240617  1
  F  F39  1  0.95494020  1.71390676  1.61240617  1
  F  F40  1  1.46390676  0.70494020  1.36240617  1
  F  F41  1  0.03609324  0.29505980  1.86240617  1
  F  F42  1  0.54505980  2.21390676  1.61240617  1
  F  F43  1  0.95494020  -0.21390676  2.11240617  1
  F  F44  1  0.03609324  0.70494020  -0.36240617  1
  F  F45  1  1.46390676  0.29505980  0.13759383  1
  F  F46  1  0.95494020  2.21390676  0.38759383  1
  F  F47  1  0.54505980  -0.21390676  -0.11240617  1
  F  F48  1  -0.46390676  0.29505980  -0.36240617  1
  F  F49  1  1.96390676  0.70494020  0.13759383  1
  F  F50  1  1.45494020  -0.21390676  0.38759383  1
  F  F51  1  1.04505980  2.21390676  -0.11240617  1
  F  F52  1  1.96390676  0.29505980  1.36240617  1
  F  F53  1  -0.46390676  0.70494020  1.86240617  1
  F  F54  1  1.04505980  -0.21390676  1.61240617  1
  F  F55  1  1.45494020  2.21390676  2.11240617  1
  F  F56  1  0.05950446  0.55039805  0.90098532  1
  F  F57  1  0.44049554  0.44960195  0.40098532  1
  F  F58  1  0.69960195  0.80950446  0.15098532  1
  F  F59  1  0.80039805  0.19049554  0.65098532  1
  F  F60  1  0.44049554  0.55039805  0.09901468  1
  F  F61  1  0.05950446  0.44960195  0.59901468  1
  F  F62  1  0.80039805  0.80950446  0.84901468  1
  F  F63  1  0.69960195  0.19049554  0.34901468  1
  F  F64  1  0.94049554  0.44960195  0.09901468  1
  F  F65  1  0.55950446  0.55039805  0.59901468  1
  F  F66  1  0.30039805  0.19049554  0.84901468  1
  F  F67  1  0.19960195  0.80950446  0.34901468  1
  F  F68  1  0.55950446  0.44960195  0.90098532  1
  F  F69  1  0.94049554  0.55039805  0.40098532  1
  F  F70  1  0.19960195  0.19049554  0.15098532  1
  F  F71  1  0.30039805  0.80950446  0.65098532  1
  F  F72  1  0.55950446  0.05039805  0.40098532  1
  F  F73  1  0.94049554  0.94960195  0.90098532  1
  F  F74  1  0.19960195  0.30950446  0.65098532  1
  F  F75  1  0.30039805  0.69049554  0.15098532  1
  F  F76  1  0.94049554  0.05039805  0.59901468  1
  F  F77  1  0.55950446  0.94960195  0.09901468  1
  F  F78  1  0.30039805  0.30950446  0.34901468  1
  F  F79  1  0.19960195  0.69049554  0.84901468  1
  F  F80  1  0.44049554  0.94960195  0.59901468  1
  F  F81  1  0.05950446  0.05039805  0.09901468  1
  F  F82  1  0.80039805  0.69049554  0.34901468  1
  F  F83  1  0.69960195  0.30950446  0.84901468  1
  F  F84  1  0.05950446  0.94960195  0.40098532  1
  F  F85  1  0.44049554  0.05039805  0.90098532  1
  F  F86  1  0.69960195  0.69049554  0.65098532  1
  F  F87  1  0.80039805  0.30950446  0.15098532  1
  Li  Li88  1  0.00321432  0.00000000  0.25000000  1
  Li  Li89  1  0.49678568  0.00000000  0.75000000  1
  Li  Li90  1  0.25000000  0.75321432  0.50000000  1
  Li  Li91  1  0.25000000  0.24678568  0.00000000  1
  Li  Li92  1  0.99678568  -0.00000000  0.75000000  1
  Li  Li93  1  0.50321432  0.00000000  0.25000000  1
  Li  Li94  1  0.75000000  0.24678568  0.50000000  1
  Li  Li95  1  0.75000000  0.75321432  -0.00000000  1
  Li  Li96  1  0.50321432  0.50000000  0.75000000  1
  Li  Li97  1  0.99678568  0.50000000  0.25000000  1
  Li  Li98  1  0.75000000  0.25321432  0.00000000  1
  Li  Li99  1  0.75000000  0.74678568  0.50000000  1
  Li  Li100  1  0.49678568  0.50000000  0.25000000  1
  Li  Li101  1  0.00321432  0.50000000  0.75000000  1
  Li  Li102  1  0.25000000  0.74678568  0.00000000  1
  Li  Li103  1  0.25000000  0.25321432  0.50000000  1
