# generated using pymatgen
data_Li2Ca3F8
_symmetry_space_group_name_H-M   'P 1'
_cell_length_a   8.79060262
_cell_length_b   8.79060262
_cell_length_c   24.17547445
_cell_angle_alpha   90.00000000
_cell_angle_beta   90.00000000
_cell_angle_gamma   120.00000000
_symmetry_Int_Tables_number   1
_chemical_formula_structural   Li2Ca3F8
_chemical_formula_sum   'Li16 Ca24 F64'
_cell_volume   1617.86743643
_cell_formula_units_Z   8
loop_
 _symmetry_equiv_pos_site_id
 _symmetry_equiv_pos_as_xyz
  1  'x, y, z'
loop_
 _atom_site_type_symbol
 _atom_site_label
 _atom_site_symmetry_multiplicity
 _atom_site_fract_x
 _atom_site_fract_y
 _atom_site_fract_z
 _atom_site_occupancy
  Ca  Ca0  1  0.93658631  0.35707396  0.96089310  1
  Ca  Ca1  1  0.64292604  0.57951236  0.96089310  1
  Ca  Ca2  1  0.42048764  0.06341369  0.96089310  1
  Ca  Ca3  1  0.64292604  0.06341369  0.03910690  1
  Ca  Ca4  1  0.42048764  0.35707396  0.03910690  1
  Ca  Ca5  1  0.93658631  0.57951236  0.03910690  1
  Ca  Ca6  1  0.98526306  0.16194150  0.53256308  1
  Ca  Ca7  1  0.83805850  0.82332156  0.53256308  1
  Ca  Ca8  1  0.17667844  0.01473694  0.53256308  1
  Ca  Ca9  1  0.83805850  0.01473694  0.46743692  1
  Ca  Ca10  1  0.17667844  0.16194150  0.46743692  1
  Ca  Ca11  1  0.98526306  0.82332156  0.46743692  1
  Ca  Ca12  1  0.75011397  0.21102999  0.62318683  1
  Ca  Ca13  1  0.78897001  0.53908398  0.62318683  1
  Ca  Ca14  1  0.46091602  0.24988603  0.62318683  1
  Ca  Ca15  1  0.78897001  0.24988603  0.37681317  1
  Ca  Ca16  1  0.46091602  0.21102999  0.37681317  1
  Ca  Ca17  1  0.75011397  0.53908398  0.37681317  1
  Ca  Ca18  1  0.36373822  0.52429115  0.06547394  1
  Ca  Ca19  1  0.47570885  0.83944707  0.06547394  1
  Ca  Ca20  1  0.16055293  0.63626178  0.06547394  1
  Ca  Ca21  1  0.47570885  0.63626178  0.93452606  1
  Ca  Ca22  1  0.16055293  0.52429115  0.93452606  1
  Ca  Ca23  1  0.36373822  0.83944707  0.93452606  1
  F  F24  1  0.00000000  0.00000000  0.74489155  1
  F  F25  1  0.00000000  0.00000000  0.25510845  1
  F  F26  1  0.65345214  0.68048804  0.34003825  1
  F  F27  1  -0.68048804  -0.02703590  0.34003825  1
  F  F28  1  0.02703590  -0.65345214  0.34003825  1
  F  F29  1  -0.68048804  -0.65345214  -0.34003825  1
  F  F30  1  0.02703590  0.68048804  -0.34003825  1
  F  F31  1  0.65345214  -0.02703590  -0.34003825  1
  F  F32  1  0.33333333  0.66666667  0.50000000  1
  F  F33  1  0.00000000  0.00000000  0.63304958  1
  F  F34  1  0.00000000  0.00000000  0.36695042  1
  F  F35  1  0.25161008  0.91629893  0.05395406  1
  F  F36  1  0.08370107  0.33531115  0.05395406  1
  F  F37  1  0.66468885  0.74838992  0.05395406  1
  F  F38  1  0.08370107  0.74838992  0.94604594  1
  F  F39  1  0.66468885  0.91629893  0.94604594  1
  F  F40  1  0.25161008  0.33531115  0.94604594  1
  F  F41  1  0.00000000  0.00000000  0.00000000  1
  F  F42  1  0.84873009  0.83225532  0.12440830  1
  F  F43  1  0.16774468  0.01647477  0.12440830  1
  F  F44  1  0.98352523  0.15126991  0.12440830  1
  F  F45  1  0.16774468  0.15126991  0.87559170  1
  F  F46  1  0.98352523  0.83225532  0.87559170  1
  F  F47  1  0.84873009  0.01647477  0.87559170  1
  F  F48  1  0.85393983  0.12222097  0.42075628  1
  F  F49  1  0.87777903  0.73171886  0.42075628  1
  F  F50  1  0.26828114  0.14606017  0.42075628  1
  F  F51  1  0.87777903  0.14606017  0.57924372  1
  F  F52  1  0.26828114  0.12222097  0.57924372  1
  F  F53  1  0.85393983  0.73171886  0.57924372  1
  F  F54  1  0.97958052  0.04790084  0.17305543  1
  F  F55  1  0.95209916  0.93167968  0.17305543  1
  F  F56  1  0.06832032  0.02041948  0.17305543  1
  F  F57  1  0.95209916  0.02041948  0.82694457  1
  F  F58  1  0.06832032  0.04790084  0.82694457  1
  F  F59  1  0.97958052  0.93167968  0.82694457  1
  F  F60  1  0.33033606  0.97394221  0.89671441  1
  F  F61  1  0.02605779  0.35639386  0.89671441  1
  F  F62  1  0.64360614  0.66966394  0.89671441  1
  F  F63  1  0.02605779  0.66966394  0.10328559  1
  F  F64  1  0.64360614  0.97394221  0.10328559  1
  F  F65  1  0.33033606  0.35639386  0.10328559  1
  F  F66  1  0.92850575  0.60681058  0.96930161  1
  F  F67  1  0.39318942  0.32169517  0.96930161  1
  F  F68  1  0.67830483  0.07149425  0.96930161  1
  F  F69  1  0.39318942  0.07149425  0.03069839  1
  F  F70  1  0.67830483  0.60681058  0.03069839  1
  F  F71  1  0.92850575  0.32169517  0.03069839  1
  F  F72  1  0.73282574  0.25479669  0.53104513  1
  F  F73  1  0.74520331  0.47802905  0.53104513  1
  F  F74  1  0.52197095  0.26717426  0.53104513  1
  F  F75  1  0.74520331  0.26717426  0.46895487  1
  F  F76  1  0.52197095  0.25479669  0.46895487  1
  F  F77  1  0.73282574  0.47802905  0.46895487  1
  F  F78  1  0.66666667  0.33333333  0.50000000  1
  F  F79  1  0.22087615  0.87104067  0.69319010  1
  F  F80  1  0.12895933  0.34983549  0.69319010  1
  F  F81  1  0.65016451  0.77912385  0.69319010  1
  F  F82  1  0.12895933  0.77912385  0.30680990  1
  F  F83  1  0.65016451  0.87104067  0.30680990  1
  F  F84  1  0.22087615  0.34983549  0.30680990  1
  F  F85  1  0.00000000  0.00000000  0.50000000  1
  F  F86  1  0.66666667  0.33333333  0.60543779  1
  F  F87  1  0.66666667  0.33333333  0.39456221  1
  Li  Li88  1  0.73412127  0.26587873  -0.00000000  1
  Li  Li89  1  0.73412127  0.46824254  -0.00000000  1
  Li  Li90  1  0.53175746  0.26587873  -0.00000000  1
  Li  Li91  1  0.26629871  0.92305160  0.62839882  1
  Li  Li92  1  0.07694840  0.34324711  0.62839882  1
  Li  Li93  1  0.65675289  0.73370129  0.62839882  1
  Li  Li94  1  0.07694840  0.73370129  0.37160118  1
  Li  Li95  1  0.65675289  0.92305160  0.37160118  1
  Li  Li96  1  0.26629871  0.34324711  0.37160118  1
  Li  Li97  1  0.80042653  0.54749539  0.18805012  1
  Li  Li98  1  0.45250461  0.25293114  0.18805012  1
  Li  Li99  1  0.74706886  0.19957347  0.18805012  1
  Li  Li100  1  0.45250461  0.19957347  0.81194988  1
  Li  Li101  1  0.74706886  0.54749539  0.81194988  1
  Li  Li102  1  0.80042653  0.25293114  0.81194988  1
  Li  Li103  1  0.33333333  0.66666667  0.00000000  1
