# generated using pymatgen
data_LiF
_symmetry_space_group_name_H-M   'P 1'
_cell_length_a   13.32404787
_cell_length_b   13.32404787
_cell_length_c   7.06798666
_cell_angle_alpha   90.00000000
_cell_angle_beta   90.00000000
_cell_angle_gamma   90.00000000
_symmetry_Int_Tables_number   1
_chemical_formula_structural   LiF
_chemical_formula_sum   'Li31 F31'
_cell_volume   1254.78145040
_cell_formula_units_Z   31
loop_
 _symmetry_equiv_pos_site_id
 _symmetry_equiv_pos_as_xyz
  1  'x, y, z'
loop_
 _atom_site_type_symbol
 _atom_site_label
 _atom_site_symmetry_multiplicity
 _atom_site_fract_x
 _atom_site_fract_y
 _atom_site_fract_z
 _atom_site_occupancy
  F  F0  1  0.00000000  0.00000000  0.33091251  1
  F  F1  1  0.00000000  0.00000000  0.66908749  1
  F  F2  1  0.68194365  0.02229305  0.21172420  1
  F  F3  1  0.31805635  0.97770695  0.21172420  1
  F  F4  1  0.97770695  0.68194365  0.21172420  1
  F  F5  1  0.02229305  0.31805635  0.21172420  1
  F  F6  1  0.31805635  0.02229305  0.78827580  1
  F  F7  1  0.68194365  0.97770695  0.78827580  1
  F  F8  1  0.02229305  0.68194365  0.78827580  1
  F  F9  1  0.97770695  0.31805635  0.78827580  1
  F  F10  1  0.31805635  0.97770695  0.78827580  1
  F  F11  1  0.68194365  0.02229305  0.78827580  1
  F  F12  1  0.02229305  0.31805635  0.78827580  1
  F  F13  1  0.97770695  0.68194365  0.78827580  1
  F  F14  1  0.68194365  0.97770695  0.21172420  1
  F  F15  1  0.31805635  0.02229305  0.21172420  1
  F  F16  1  0.97770695  0.31805635  0.21172420  1
  F  F17  1  0.02229305  0.68194365  0.21172420  1
  F  F18  1  0.50000000  0.50000000  0.50000000  1
  F  F19  1  0.37349028  0.00000000  0.80517933  1
  F  F20  1  0.62650972  0.00000000  0.80517933  1
  F  F21  1  0.00000000  0.37349028  0.80517933  1
  F  F22  1  0.00000000  0.62650972  0.80517933  1
  F  F23  1  0.62650972  0.00000000  0.19482067  1
  F  F24  1  0.37349028  0.00000000  0.19482067  1
  F  F25  1  0.00000000  0.37349028  0.19482067  1
  F  F26  1  0.00000000  0.62650972  0.19482067  1
  F  F27  1  0.19117110  0.50000000  0.00000000  1
  F  F28  1  0.80882890  0.50000000  -0.00000000  1
  F  F29  1  0.50000000  0.19117110  0.00000000  1
  F  F30  1  0.50000000  0.80882890  -0.00000000  1
  Li  Li31  1  0.91134808  0.79315416  0.37752765  1
  Li  Li32  1  -0.91134808  -0.79315416  0.37752765  1
  Li  Li33  1  -0.79315416  0.91134808  0.37752765  1
  Li  Li34  1  0.79315416  -0.91134808  0.37752765  1
  Li  Li35  1  -0.91134808  0.79315416  -0.37752765  1
  Li  Li36  1  0.91134808  -0.79315416  -0.37752765  1
  Li  Li37  1  0.79315416  0.91134808  -0.37752765  1
  Li  Li38  1  -0.79315416  -0.91134808  -0.37752765  1
  Li  Li39  1  -0.91134808  -0.79315416  -0.37752765  1
  Li  Li40  1  0.91134808  0.79315416  -0.37752765  1
  Li  Li41  1  0.79315416  -0.91134808  -0.37752765  1
  Li  Li42  1  -0.79315416  0.91134808  -0.37752765  1
  Li  Li43  1  0.91134808  -0.79315416  0.37752765  1
  Li  Li44  1  -0.91134808  0.79315416  0.37752765  1
  Li  Li45  1  -0.79315416  -0.91134808  0.37752765  1
  Li  Li46  1  0.79315416  0.91134808  0.37752765  1
  Li  Li47  1  0.00000000  0.00000000  0.00000000  1
  Li  Li48  1  0.91426728  0.50000000  0.00000000  1
  Li  Li49  1  0.08573272  0.50000000  0.00000000  1
  Li  Li50  1  0.50000000  0.91426728  0.00000000  1
  Li  Li51  1  0.50000000  0.08573272  0.00000000  1
  Li  Li52  1  0.76843729  0.50000000  0.17607867  1
  Li  Li53  1  0.23156271  0.50000000  0.17607867  1
  Li  Li54  1  0.50000000  0.76843729  0.17607867  1
  Li  Li55  1  0.50000000  0.23156271  0.17607867  1
  Li  Li56  1  0.23156271  0.50000000  0.82392133  1
  Li  Li57  1  0.76843729  0.50000000  0.82392133  1
  Li  Li58  1  0.50000000  0.76843729  0.82392133  1
  Li  Li59  1  0.50000000  0.23156271  0.82392133  1
  Li  Li60  1  0.00000000  0.00000000  0.50000000  1
  Li  Li61  1  0.50000000  0.50000000  0.00000000  1
