# generated using pymatgen
data_LiCaF3
_symmetry_space_group_name_H-M   'P 1'
_cell_length_a   9.96187416
_cell_length_b   9.96187416
_cell_length_c   20.42628932
_cell_angle_alpha   90.00000000
_cell_angle_beta   90.00000000
_cell_angle_gamma   120.00000000
_symmetry_Int_Tables_number   1
_chemical_formula_structural   LiCaF3
_chemical_formula_sum   'Li18 Ca18 F54'
_cell_volume   1755.50557559
_cell_formula_units_Z   18
loop_
 _symmetry_equiv_pos_site_id
 _symmetry_equiv_pos_as_xyz
  1  'x, y, z'
loop_
 _atom_site_type_symbol
 _atom_site_label
 _atom_site_symmetry_multiplicity
 _atom_site_fract_x
 _atom_site_fract_y
 _atom_site_fract_z
 _atom_site_occupancy
  Ca  Ca0  1  0.61466536  0.77543599  0.27734198  1
  Ca  Ca1  1  -0.77543599  -0.16077063  0.27734198  1
  Ca  Ca2  1  0.16077063  -0.61466536  0.27734198  1
  Ca  Ca3  1  0.61466536  0.77543599  -0.27734198  1
  Ca  Ca4  1  -0.77543599  -0.16077063  -0.27734198  1
  Ca  Ca5  1  0.16077063  -0.61466536  -0.27734198  1
  Ca  Ca6  1  0.77543599  0.61466536  -0.27734198  1
  Ca  Ca7  1  -0.16077063  -0.77543599  -0.27734198  1
  Ca  Ca8  1  -0.61466536  0.16077063  -0.27734198  1
  Ca  Ca9  1  0.77543599  0.61466536  0.27734198  1
  Ca  Ca10  1  -0.16077063  -0.77543599  0.27734198  1
  Ca  Ca11  1  -0.61466536  0.16077063  0.27734198  1
  Ca  Ca12  1  0.00000000  0.00000000  0.13694877  1
  Ca  Ca13  1  0.00000000  0.00000000  0.86305123  1
  Ca  Ca14  1  0.33333333  0.66666667  0.41934226  1
  Ca  Ca15  1  0.33333333  0.66666667  0.58065774  1
  Ca  Ca16  1  0.66666667  0.33333333  0.58065774  1
  Ca  Ca17  1  0.66666667  0.33333333  0.41934226  1
  F  F18  1  0.78490422  0.93288023  0.66112277  1
  F  F19  1  0.06711977  0.85202398  0.66112277  1
  F  F20  1  0.14797602  0.21509578  0.66112277  1
  F  F21  1  0.78490422  0.93288023  0.33887723  1
  F  F22  1  0.06711977  0.85202398  0.33887723  1
  F  F23  1  0.14797602  0.21509578  0.33887723  1
  F  F24  1  0.93288023  0.78490422  0.33887723  1
  F  F25  1  0.85202398  0.06711977  0.33887723  1
  F  F26  1  0.21509578  0.14797602  0.33887723  1
  F  F27  1  0.93288023  0.78490422  0.66112277  1
  F  F28  1  0.85202398  0.06711977  0.66112277  1
  F  F29  1  0.21509578  0.14797602  0.66112277  1
  F  F30  1  0.23380524  0.43352259  0.61966586  1
  F  F31  1  0.56647741  0.80028265  0.61966586  1
  F  F32  1  0.19971735  0.76619476  0.61966586  1
  F  F33  1  0.23380524  0.43352259  0.38033414  1
  F  F34  1  0.56647741  0.80028265  0.38033414  1
  F  F35  1  0.19971735  0.76619476  0.38033414  1
  F  F36  1  0.43352259  0.23380524  0.38033414  1
  F  F37  1  0.80028265  0.56647741  0.38033414  1
  F  F38  1  0.76619476  0.19971735  0.38033414  1
  F  F39  1  0.43352259  0.23380524  0.61966586  1
  F  F40  1  0.80028265  0.56647741  0.61966586  1
  F  F41  1  0.76619476  0.19971735  0.61966586  1
  F  F42  1  0.67529713  0.58216201  0.50000000  1
  F  F43  1  0.41783799  0.09313511  0.50000000  1
  F  F44  1  0.90686489  0.32470287  0.50000000  1
  F  F45  1  0.58216201  0.67529713  0.50000000  1
  F  F46  1  0.09313511  0.41783799  0.50000000  1
  F  F47  1  0.32470287  0.90686489  0.50000000  1
  F  F48  1  0.46199743  0.22955774  0.55725378  1
  F  F49  1  0.77044226  0.23243969  0.55725378  1
  F  F50  1  0.76756031  0.53800257  0.55725378  1
  F  F51  1  0.46199743  0.22955774  0.44274622  1
  F  F52  1  0.77044226  0.23243969  0.44274622  1
  F  F53  1  0.76756031  0.53800257  0.44274622  1
  F  F54  1  0.22955774  0.46199743  0.44274622  1
  F  F55  1  0.23243969  0.77044226  0.44274622  1
  F  F56  1  0.53800257  0.76756031  0.44274622  1
  F  F57  1  0.22955774  0.46199743  0.55725378  1
  F  F58  1  0.23243969  0.77044226  0.55725378  1
  F  F59  1  0.53800257  0.76756031  0.55725378  1
  F  F60  1  0.95237290  0.88603737  0.43770385  1
  F  F61  1  0.11396263  0.06633553  0.43770385  1
  F  F62  1  0.93366447  0.04762710  0.43770385  1
  F  F63  1  0.95237290  0.88603737  0.56229615  1
  F  F64  1  0.11396263  0.06633553  0.56229615  1
  F  F65  1  0.93366447  0.04762710  0.56229615  1
  F  F66  1  0.88603737  0.95237290  0.56229615  1
  F  F67  1  0.06633553  0.11396263  0.56229615  1
  F  F68  1  0.04762710  0.93366447  0.56229615  1
  F  F69  1  0.88603737  0.95237290  0.43770385  1
  F  F70  1  0.06633553  0.11396263  0.43770385  1
  F  F71  1  0.04762710  0.93366447  0.43770385  1
  Li  Li72  1  0.00000000  0.00000000  0.00000000  1
  Li  Li73  1  0.51519156  0.32348120  0.50000000  1
  Li  Li74  1  0.67651880  0.19171036  0.50000000  1
  Li  Li75  1  0.80828964  0.48480844  0.50000000  1
  Li  Li76  1  0.32348120  0.51519156  0.50000000  1
  Li  Li77  1  0.19171036  0.67651880  0.50000000  1
  Li  Li78  1  0.48480844  0.80828964  0.50000000  1
  Li  Li79  1  0.49441703  -0.00000000  0.75473811  1
  Li  Li80  1  0.00000000  0.49441703  0.75473811  1
  Li  Li81  1  0.50558297  0.50558297  0.75473811  1
  Li  Li82  1  0.49441703  -0.00000000  0.24526189  1
  Li  Li83  1  0.00000000  0.49441703  0.24526189  1
  Li  Li84  1  0.50558297  0.50558297  0.24526189  1
  Li  Li85  1  0.33333333  0.66666667  0.23724308  1
  Li  Li86  1  0.33333333  0.66666667  0.76275692  1
  Li  Li87  1  0.66666667  0.33333333  0.76275692  1
  Li  Li88  1  0.66666667  0.33333333  0.23724308  1
  Li  Li89  1  0.00000000  0.00000000  0.50000000  1
