# generated using pymatgen
data_Li2Si4Te3F12
_symmetry_space_group_name_H-M   'P 1'
_cell_length_a   7.36453377
_cell_length_b   15.29292336
_cell_length_c   9.02362257
_cell_angle_alpha   90.00000000
_cell_angle_beta   90.00000000
_cell_angle_gamma   90.00000000
_symmetry_Int_Tables_number   1
_chemical_formula_structural   Li2Si4Te3F12
_chemical_formula_sum   'Li8 Si16 Te12 F48'
_cell_volume   1016.28775295
_cell_formula_units_Z   4
loop_
 _symmetry_equiv_pos_site_id
 _symmetry_equiv_pos_as_xyz
  1  'x, y, z'
loop_
 _atom_site_type_symbol
 _atom_site_label
 _atom_site_symmetry_multiplicity
 _atom_site_fract_x
 _atom_site_fract_y
 _atom_site_fract_z
 _atom_site_occupancy
  F  F0  1  0.75010945  0.41043097  0.68868240  1
  F  F1  1  0.24989055  0.58956903  0.68868240  1
  F  F2  1  0.74989055  0.91043097  0.31131760  1
  F  F3  1  0.25010945  0.08956903  0.31131760  1
  F  F4  1  0.24989055  0.58956903  0.31131760  1
  F  F5  1  0.75010945  0.41043097  0.31131760  1
  F  F6  1  0.25010945  0.08956903  0.68868240  1
  F  F7  1  0.74989055  0.91043097  0.68868240  1
  F  F8  1  0.30434714  0.53570557  0.30225120  1
  F  F9  1  0.69565286  0.46429443  0.30225120  1
  F  F10  1  0.19565286  0.03570557  0.69774880  1
  F  F11  1  0.80434714  0.96429443  0.69774880  1
  F  F12  1  0.69565286  0.46429443  0.69774880  1
  F  F13  1  0.30434714  0.53570557  0.69774880  1
  F  F14  1  0.80434714  0.96429443  0.30225120  1
  F  F15  1  0.19565286  0.03570557  0.30225120  1
  F  F16  1  0.16608558  0.80668666  0.59311937  1
  F  F17  1  0.83391442  0.19331334  0.59311937  1
  F  F18  1  0.33391442  0.30668666  0.40688063  1
  F  F19  1  0.66608558  0.69331334  0.40688063  1
  F  F20  1  0.83391442  0.19331334  0.40688063  1
  F  F21  1  0.16608558  0.80668666  0.40688063  1
  F  F22  1  0.66608558  0.69331334  0.59311937  1
  F  F23  1  0.33391442  0.30668666  0.59311937  1
  F  F24  1  0.17650984  0.97287379  0.80124139  1
  F  F25  1  0.82349016  0.02712621  0.80124139  1
  F  F26  1  0.32349016  0.47287379  0.19875861  1
  F  F27  1  0.67650984  0.52712621  0.19875861  1
  F  F28  1  0.82349016  0.02712621  0.19875861  1
  F  F29  1  0.17650984  0.97287379  0.19875861  1
  F  F30  1  0.67650984  0.52712621  0.80124139  1
  F  F31  1  0.32349016  0.47287379  0.80124139  1
  F  F32  1  0.54214991  0.80065010  0.29750859  1
  F  F33  1  0.45785009  0.19934990  0.29750859  1
  F  F34  1  0.95785009  0.30065010  0.70249141  1
  F  F35  1  0.04214991  0.69934990  0.70249141  1
  F  F36  1  0.45785009  0.19934990  0.70249141  1
  F  F37  1  0.54214991  0.80065010  0.70249141  1
  F  F38  1  0.04214991  0.69934990  0.29750859  1
  F  F39  1  0.95785009  0.30065010  0.29750859  1
  F  F40  1  0.79628365  0.54419589  0.94212330  1
  F  F41  1  0.20371635  0.45580411  0.94212330  1
  F  F42  1  0.70371635  0.04419589  0.05787670  1
  F  F43  1  0.29628365  0.95580411  0.05787670  1
  F  F44  1  0.20371635  0.45580411  0.05787670  1
  F  F45  1  0.79628365  0.54419589  0.05787670  1
  F  F46  1  0.29628365  0.95580411  0.94212330  1
  F  F47  1  0.70371635  0.04419589  0.94212330  1
  Li  Li48  1  0.53407220  0.09056035  0.32889713  1
  Li  Li49  1  0.46592780  0.90943965  0.32889713  1
  Li  Li50  1  0.96592780  0.59056035  0.67110287  1
  Li  Li51  1  0.03407220  0.40943965  0.67110287  1
  Li  Li52  1  0.46592780  0.90943965  0.67110287  1
  Li  Li53  1  0.53407220  0.09056035  0.67110287  1
  Li  Li54  1  0.03407220  0.40943965  0.32889713  1
  Li  Li55  1  0.96592780  0.59056035  0.32889713  1
  Si  Si56  1  0.00000000  0.50000000  -0.00000000  1
  Si  Si57  1  0.50000000  0.00000000  0.00000000  1
  Si  Si58  1  0.79058890  0.13695979  0.74251553  1
  Si  Si59  1  -0.79058890  -0.13695979  0.74251553  1
  Si  Si60  1  -0.29058890  0.63695979  -0.74251553  1
  Si  Si61  1  1.29058890  0.36304021  -0.74251553  1
  Si  Si62  1  -0.79058890  -0.13695979  -0.74251553  1
  Si  Si63  1  0.79058890  0.13695979  -0.74251553  1
  Si  Si64  1  1.29058890  0.36304021  0.74251553  1
  Si  Si65  1  -0.29058890  0.63695979  0.74251553  1
  Si  Si66  1  0.00000000  0.00000000  0.50000000  1
  Si  Si67  1  0.50000000  0.50000000  0.50000000  1
  Si  Si68  1  0.00000000  0.00000000  0.83382337  1
  Si  Si69  1  0.50000000  0.50000000  0.16617663  1
  Si  Si70  1  0.00000000  0.00000000  0.16617663  1
  Si  Si71  1  0.50000000  0.50000000  0.83382337  1
  Te  Te72  1  0.12232414  0.55329351  0.50000000  1
  Te  Te73  1  0.87767586  0.44670649  0.50000000  1
  Te  Te74  1  0.37767586  0.05329351  0.50000000  1
  Te  Te75  1  0.62232414  0.94670649  0.50000000  1
  Te  Te76  1  0.00000000  0.50000000  0.21681917  1
  Te  Te77  1  0.50000000  0.00000000  0.78318083  1
  Te  Te78  1  0.00000000  0.50000000  0.78318083  1
  Te  Te79  1  0.50000000  0.00000000  0.21681917  1
  Te  Te80  1  0.11465860  0.39263455  -0.00000000  1
  Te  Te81  1  0.88534140  0.60736545  -0.00000000  1
  Te  Te82  1  0.38534140  0.89263455  0.00000000  1
  Te  Te83  1  0.61465860  0.10736545  0.00000000  1
