# generated using pymatgen
data_LiF
_symmetry_space_group_name_H-M   'P 1'
_cell_length_a   8.59329212
_cell_length_b   8.59329212
_cell_length_c   8.23628036
_cell_angle_alpha   90.00000000
_cell_angle_beta   90.00000000
_cell_angle_gamma   120.00000000
_symmetry_Int_Tables_number   1
_chemical_formula_structural   LiF
_chemical_formula_sum   'Li17 F17'
_cell_volume   526.72132712
_cell_formula_units_Z   17
loop_
 _symmetry_equiv_pos_site_id
 _symmetry_equiv_pos_as_xyz
  1  'x, y, z'
loop_
 _atom_site_type_symbol
 _atom_site_label
 _atom_site_symmetry_multiplicity
 _atom_site_fract_x
 _atom_site_fract_y
 _atom_site_fract_z
 _atom_site_occupancy
  F  F0  1  0.16859347  0.45320861  0.21567873  1
  F  F1  1  0.54679139  0.71538486  0.21567873  1
  F  F2  1  0.28461514  0.83140653  0.21567873  1
  F  F3  1  0.54679139  0.83140653  0.78432127  1
  F  F4  1  0.28461514  0.45320861  0.78432127  1
  F  F5  1  0.16859347  0.71538486  0.78432127  1
  F  F6  1  0.04151592  0.95848408  -0.00000000  1
  F  F7  1  0.04151592  0.08303184  0.00000000  1
  F  F8  1  0.91696816  0.95848408  0.00000000  1
  F  F9  1  0.33333333  0.66666667  0.00000000  1
  F  F10  1  0.00000000  0.00000000  0.00000000  1
  F  F11  1  0.15278758  0.27208761  0.23569950  1
  F  F12  1  0.72791239  0.88069998  0.23569950  1
  F  F13  1  0.11930002  0.84721242  0.23569950  1
  F  F14  1  0.72791239  0.84721242  0.76430050  1
  F  F15  1  0.11930002  0.27208761  0.76430050  1
  F  F16  1  0.15278758  0.88069998  0.76430050  1
  Li  Li17  1  0.18785728  0.52863575  0.58874568  1
  Li  Li18  1  -0.52863575  -0.34077847  0.58874568  1
  Li  Li19  1  0.34077847  -0.18785728  0.58874568  1
  Li  Li20  1  -0.52863575  -0.18785728  -0.58874568  1
  Li  Li21  1  0.34077847  0.52863575  -0.58874568  1
  Li  Li22  1  0.18785728  -0.34077847  -0.58874568  1
  Li  Li23  1  0.66666667  0.33333333  0.81593162  1
  Li  Li24  1  0.66666667  0.33333333  0.18406838  1
  Li  Li25  1  0.68519490  0.95560537  0.53952180  1
  Li  Li26  1  0.04439463  0.72958953  0.53952180  1
  Li  Li27  1  0.27041047  0.31480510  0.53952180  1
  Li  Li28  1  0.04439463  0.31480510  0.46047820  1
  Li  Li29  1  0.27041047  0.95560537  0.46047820  1
  Li  Li30  1  0.68519490  0.72958953  0.46047820  1
  Li  Li31  1  0.66666667  0.33333333  0.50000000  1
  Li  Li32  1  0.00000000  0.00000000  0.27903307  1
  Li  Li33  1  0.00000000  0.00000000  0.72096693  1
