# generated using pymatgen
data_LiF
_symmetry_space_group_name_H-M   'P 1'
_cell_length_a   13.64956516
_cell_length_b   6.97490007
_cell_length_c   14.57429655
_cell_angle_alpha   90.00000000
_cell_angle_beta   90.00000000
_cell_angle_gamma   90.00000000
_symmetry_Int_Tables_number   1
_chemical_formula_structural   LiF
_chemical_formula_sum   'Li48 F48'
_cell_volume   1387.53647388
_cell_formula_units_Z   48
loop_
 _symmetry_equiv_pos_site_id
 _symmetry_equiv_pos_as_xyz
  1  'x, y, z'
loop_
 _atom_site_type_symbol
 _atom_site_label
 _atom_site_symmetry_multiplicity
 _atom_site_fract_x
 _atom_site_fract_y
 _atom_site_fract_z
 _atom_site_occupancy
  F  F0  1  0.44246154  0.21958057  0.40971045  1
  F  F1  1  0.55753846  0.78041943  0.40971045  1
  F  F2  1  0.05753846  0.71958057  0.59028955  1
  F  F3  1  0.94246154  0.28041943  0.59028955  1
  F  F4  1  0.55753846  0.78041943  0.59028955  1
  F  F5  1  0.44246154  0.21958057  0.59028955  1
  F  F6  1  0.94246154  0.28041943  0.40971045  1
  F  F7  1  0.05753846  0.71958057  0.40971045  1
  F  F8  1  0.47267005  0.62573031  0.72935023  1
  F  F9  1  0.52732995  0.37426969  0.72935023  1
  F  F10  1  0.02732995  0.12573031  0.27064977  1
  F  F11  1  0.97267005  0.87426969  0.27064977  1
  F  F12  1  0.52732995  0.37426969  0.27064977  1
  F  F13  1  0.47267005  0.62573031  0.27064977  1
  F  F14  1  0.97267005  0.87426969  0.72935023  1
  F  F15  1  0.02732995  0.12573031  0.72935023  1
  F  F16  1  0.70152007  0.77740585  -0.00000000  1
  F  F17  1  0.29847993  0.22259415  -0.00000000  1
  F  F18  1  0.79847993  0.27740585  -0.00000000  1
  F  F19  1  0.20152007  0.72259415  0.00000000  1
  F  F20  1  0.14574682  0.40740853  0.79310513  1
  F  F21  1  0.85425318  0.59259147  0.79310513  1
  F  F22  1  0.35425318  0.90740853  0.20689487  1
  F  F23  1  0.64574682  0.09259147  0.20689487  1
  F  F24  1  0.85425318  0.59259147  0.20689487  1
  F  F25  1  0.14574682  0.40740853  0.20689487  1
  F  F26  1  0.64574682  0.09259147  0.79310513  1
  F  F27  1  0.35425318  0.90740853  0.79310513  1
  F  F28  1  0.78373194  0.01361432  0.64048106  1
  F  F29  1  0.21626806  0.98638568  0.64048106  1
  F  F30  1  0.71626806  0.51361432  0.35951894  1
  F  F31  1  0.28373194  0.48638568  0.35951894  1
  F  F32  1  0.21626806  0.98638568  0.35951894  1
  F  F33  1  0.78373194  0.01361432  0.35951894  1
  F  F34  1  0.28373194  0.48638568  0.64048106  1
  F  F35  1  0.71626806  0.51361432  0.64048106  1
  F  F36  1  0.68634852  0.65285599  0.13372848  1
  F  F37  1  0.31365148  0.34714401  0.13372848  1
  F  F38  1  0.81365148  0.15285599  0.86627152  1
  F  F39  1  0.18634852  0.84714401  0.86627152  1
  F  F40  1  0.31365148  0.34714401  0.86627152  1
  F  F41  1  0.68634852  0.65285599  0.86627152  1
  F  F42  1  0.18634852  0.84714401  0.13372848  1
  F  F43  1  0.81365148  0.15285599  0.13372848  1
  F  F44  1  0.31194397  0.12432804  0.50000000  1
  F  F45  1  0.68805603  0.87567196  0.50000000  1
  F  F46  1  0.18805603  0.62432804  0.50000000  1
  F  F47  1  0.81194397  0.37567196  0.50000000  1
  Li  Li48  1  0.15654360  0.34240997  0.00000000  1
  Li  Li49  1  0.84345640  0.65759003  0.00000000  1
  Li  Li50  1  0.34345640  0.84240997  -0.00000000  1
  Li  Li51  1  0.65654360  0.15759003  -0.00000000  1
  Li  Li52  1  0.13415388  0.94316458  0.50000000  1
  Li  Li53  1  0.86584612  0.05683542  0.50000000  1
  Li  Li54  1  0.36584612  0.44316458  0.50000000  1
  Li  Li55  1  0.63415388  0.55683542  0.50000000  1
  Li  Li56  1  0.45133711  0.03599937  0.68474834  1
  Li  Li57  1  -0.45133711  -0.03599937  0.68474834  1
  Li  Li58  1  0.04866289  0.53599937  -0.68474834  1
  Li  Li59  1  0.95133711  0.46400063  -0.68474834  1
  Li  Li60  1  -0.45133711  -0.03599937  -0.68474834  1
  Li  Li61  1  0.45133711  0.03599937  -0.68474834  1
  Li  Li62  1  0.95133711  0.46400063  0.68474834  1
  Li  Li63  1  0.04866289  0.53599937  0.68474834  1
  Li  Li64  1  0.89471961  0.13218398  0.36020195  1
  Li  Li65  1  0.10528039  0.86781602  0.36020195  1
  Li  Li66  1  0.60528039  0.63218398  0.63979805  1
  Li  Li67  1  0.39471961  0.36781602  0.63979805  1
  Li  Li68  1  0.10528039  0.86781602  0.63979805  1
  Li  Li69  1  0.89471961  0.13218398  0.63979805  1
  Li  Li70  1  0.39471961  0.36781602  0.36020195  1
  Li  Li71  1  0.60528039  0.63218398  0.36020195  1
  Li  Li72  1  0.92506865  0.78091004  0.00000000  1
  Li  Li73  1  0.07493135  0.21908996  0.00000000  1
  Li  Li74  1  0.57493135  0.28091004  0.00000000  1
  Li  Li75  1  0.42506865  0.71908996  0.00000000  1
  Li  Li76  1  0.24637977  0.92548948  0.43233313  1
  Li  Li77  1  0.75362023  0.07451052  0.43233313  1
  Li  Li78  1  0.25362023  0.42548948  0.56766687  1
  Li  Li79  1  0.74637977  0.57451052  0.56766687  1
  Li  Li80  1  0.75362023  0.07451052  0.56766687  1
  Li  Li81  1  0.24637977  0.92548948  0.56766687  1
  Li  Li82  1  0.74637977  0.57451052  0.43233313  1
  Li  Li83  1  0.25362023  0.42548948  0.43233313  1
  Li  Li84  1  0.38457849  0.55103232  0.87278893  1
  Li  Li85  1  0.61542151  0.44896768  0.87278893  1
  Li  Li86  1  0.11542151  0.05103232  0.12721107  1
  Li  Li87  1  0.88457849  0.94896768  0.12721107  1
  Li  Li88  1  0.61542151  0.44896768  0.12721107  1
  Li  Li89  1  0.38457849  0.55103232  0.12721107  1
  Li  Li90  1  0.88457849  0.94896768  0.87278893  1
  Li  Li91  1  0.11542151  0.05103232  0.87278893  1
  Li  Li92  1  0.00000000  0.50000000  0.00000000  1
  Li  Li93  1  0.50000000  0.00000000  0.00000000  1
  Li  Li94  1  0.00000000  0.00000000  0.00000000  1
  Li  Li95  1  0.50000000  0.50000000  0.00000000  1
