# generated using pymatgen
data_LiYP2
_symmetry_space_group_name_H-M   'P 1'
_cell_length_a   3.55186792
_cell_length_b   3.81882479
_cell_length_c   6.61489091
_cell_angle_alpha   97.31029627
_cell_angle_beta   105.92030548
_cell_angle_gamma   119.36255467
_symmetry_Int_Tables_number   1
_chemical_formula_structural   LiYP2
_chemical_formula_sum   'Li2 Y2 P4'
_cell_volume   71.43714200
_cell_formula_units_Z   2
loop_
 _symmetry_equiv_pos_site_id
 _symmetry_equiv_pos_as_xyz
  1  'x, y, z'
loop_
 _atom_site_type_symbol
 _atom_site_label
 _atom_site_symmetry_multiplicity
 _atom_site_fract_x
 _atom_site_fract_y
 _atom_site_fract_z
 _atom_site_occupancy
  P  P0  1  0.00000000  0.00000000  0.00000000  1
  P  P1  1  0.50000000  0.50000000  0.50000000  1
  P  P2  1  0.50000000  0.50000000  0.00000000  1
  P  P3  1  0.50000000  0.00000000  0.50000000  1
  Li  Li4  1  0.00000000  0.50000000  0.50000000  1
  Li  Li5  1  0.17671444  0.76562538  0.22934115  1
  Y  Y6  1  0.97396266  0.80905852  0.52633960  1
  Y  Y7  1  0.82308038  0.54587550  0.93094585  1
