# generated using pymatgen
data_LiF
_symmetry_space_group_name_H-M   'P 1'
_cell_length_a   11.39280188
_cell_length_b   11.39280188
_cell_length_c   2.99325475
_cell_angle_alpha   90.00000000
_cell_angle_beta   90.00000000
_cell_angle_gamma   120.00000000
_symmetry_Int_Tables_number   1
_chemical_formula_structural   LiF
_chemical_formula_sum   'Li12 F12'
_cell_volume   336.46151961
_cell_formula_units_Z   12
loop_
 _symmetry_equiv_pos_site_id
 _symmetry_equiv_pos_as_xyz
  1  'x, y, z'
loop_
 _atom_site_type_symbol
 _atom_site_label
 _atom_site_symmetry_multiplicity
 _atom_site_fract_x
 _atom_site_fract_y
 _atom_site_fract_z
 _atom_site_occupancy
  F  F0  1  0.03565295  0.57108875  0.35982571  1
  F  F1  1  0.42891125  0.46456421  0.35982571  1
  F  F2  1  0.53543579  0.96434705  0.35982571  1
  F  F3  1  0.42891125  0.96434705  0.64017429  1
  F  F4  1  0.53543579  0.57108875  0.64017429  1
  F  F5  1  0.03565295  0.46456421  0.64017429  1
  F  F6  1  0.90403637  0.89300286  0.07472405  1
  F  F7  1  0.10699714  0.01103351  0.07472405  1
  F  F8  1  0.98896649  0.09596363  0.07472405  1
  F  F9  1  0.10699714  0.09596363  0.92527595  1
  F  F10  1  0.98896649  0.89300286  0.92527595  1
  F  F11  1  0.90403637  0.01103351  0.92527595  1
  Li  Li12  1  0.60254555  0.07198768  0.96123076  1
  Li  Li13  1  -0.07198768  0.53055787  0.96123076  1
  Li  Li14  1  -0.53055787  -0.60254555  0.96123076  1
  Li  Li15  1  -0.07198768  -0.60254555  -0.96123076  1
  Li  Li16  1  -0.53055787  0.07198768  -0.96123076  1
  Li  Li17  1  0.60254555  0.53055787  -0.96123076  1
  Li  Li18  1  0.66666667  0.33333333  0.50000000  1
  Li  Li19  1  0.66666667  0.33333333  0.00000000  1
  Li  Li20  1  0.39353830  0.60646170  0.00000000  1
  Li  Li21  1  0.39353830  0.78707660  0.00000000  1
  Li  Li22  1  0.21292340  0.60646170  0.00000000  1
  Li  Li23  1  0.00000000  0.00000000  0.50000000  1
