# generated using pymatgen
data_LiF
_symmetry_space_group_name_H-M   'P 1'
_cell_length_a   7.59724765
_cell_length_b   6.37806108
_cell_length_c   17.96179957
_cell_angle_alpha   90.00000000
_cell_angle_beta   90.00000000
_cell_angle_gamma   90.00000000
_symmetry_Int_Tables_number   1
_chemical_formula_structural   LiF
_chemical_formula_sum   'Li28 F28'
_cell_volume   870.35174234
_cell_formula_units_Z   28
loop_
 _symmetry_equiv_pos_site_id
 _symmetry_equiv_pos_as_xyz
  1  'x, y, z'
loop_
 _atom_site_type_symbol
 _atom_site_label
 _atom_site_symmetry_multiplicity
 _atom_site_fract_x
 _atom_site_fract_y
 _atom_site_fract_z
 _atom_site_occupancy
  F  F0  1  0.79640729  0.85469482  0.05511694  1
  F  F1  1  0.70359271  0.14530518  0.55511694  1
  F  F2  1  0.20359271  0.35469482  0.94488306  1
  F  F3  1  0.29640729  0.64530518  0.44488306  1
  F  F4  1  0.20359271  0.14530518  0.94488306  1
  F  F5  1  0.29640729  0.85469482  0.44488306  1
  F  F6  1  0.79640729  0.64530518  0.05511694  1
  F  F7  1  0.70359271  0.35469482  0.55511694  1
  F  F8  1  0.76692602  0.12394484  0.06877088  1
  F  F9  1  0.73307398  0.87605516  0.56877088  1
  F  F10  1  0.23307398  0.62394484  0.93122912  1
  F  F11  1  0.26692602  0.37605516  0.43122912  1
  F  F12  1  0.23307398  0.87605516  0.93122912  1
  F  F13  1  0.26692602  0.12394484  0.43122912  1
  F  F14  1  0.76692602  0.37605516  0.06877088  1
  F  F15  1  0.73307398  0.62394484  0.56877088  1
  F  F16  1  0.43588934  0.46741295  0.61698434  1
  F  F17  1  0.06411066  0.53258705  0.11698434  1
  F  F18  1  0.56411066  0.96741295  0.38301566  1
  F  F19  1  0.93588934  0.03258705  0.88301566  1
  F  F20  1  0.56411066  0.53258705  0.38301566  1
  F  F21  1  0.93588934  0.46741295  0.88301566  1
  F  F22  1  0.43588934  0.03258705  0.61698434  1
  F  F23  1  0.06411066  0.96741295  0.11698434  1
  F  F24  1  0.90936060  0.25000000  0.50931550  1
  F  F25  1  0.59063940  0.75000000  0.00931550  1
  F  F26  1  0.09063940  0.75000000  0.49068450  1
  F  F27  1  0.40936060  0.25000000  0.99068450  1
  Li  Li28  1  0.25679597  0.54495528  0.80244922  1
  Li  Li29  1  0.24320403  -0.54495528  1.30244922  1
  Li  Li30  1  -0.25679597  1.04495528  -0.80244922  1
  Li  Li31  1  0.75679597  -0.04495528  -0.30244922  1
  Li  Li32  1  -0.25679597  -0.54495528  -0.80244922  1
  Li  Li33  1  0.75679597  0.54495528  -0.30244922  1
  Li  Li34  1  0.25679597  -0.04495528  0.80244922  1
  Li  Li35  1  0.24320403  1.04495528  1.30244922  1
  Li  Li36  1  0.00000000  0.00000000  0.00000000  1
  Li  Li37  1  0.50000000  0.00000000  0.50000000  1
  Li  Li38  1  0.00000000  0.50000000  0.00000000  1
  Li  Li39  1  0.50000000  0.50000000  0.50000000  1
  Li  Li40  1  0.22084030  0.25000000  0.04467593  1
  Li  Li41  1  0.27915970  0.75000000  0.54467593  1
  Li  Li42  1  0.77915970  0.75000000  0.95532407  1
  Li  Li43  1  0.72084030  0.25000000  0.45532407  1
  Li  Li44  1  0.00000000  0.00000000  0.50000000  1
  Li  Li45  1  0.50000000  0.00000000  0.00000000  1
  Li  Li46  1  0.00000000  0.50000000  0.50000000  1
  Li  Li47  1  0.50000000  0.50000000  0.00000000  1
  Li  Li48  1  0.54291696  0.25000000  0.15730329  1
  Li  Li49  1  0.95708304  0.75000000  0.65730329  1
  Li  Li50  1  0.45708304  0.75000000  0.84269671  1
  Li  Li51  1  0.04291696  0.25000000  0.34269671  1
  Li  Li52  1  0.23566846  0.25000000  0.45556776  1
  Li  Li53  1  0.26433154  0.75000000  0.95556776  1
  Li  Li54  1  0.76433154  0.75000000  0.54443224  1
  Li  Li55  1  0.73566846  0.25000000  0.04443224  1
