# generated using pymatgen
data_Li2Y2MoP3Se2
_symmetry_space_group_name_H-M   'P 1'
_cell_length_a   4.30433241
_cell_length_b   4.62707031
_cell_length_c   6.79560491
_cell_angle_alpha   96.00864505
_cell_angle_beta   102.59319168
_cell_angle_gamma   111.74149265
_symmetry_Int_Tables_number   1
_chemical_formula_structural   Li2Y2MoP3Se2
_chemical_formula_sum   'Li2 Y2 Mo1 P3 Se2'
_cell_volume   120.09761676
_cell_formula_units_Z   1
loop_
 _symmetry_equiv_pos_site_id
 _symmetry_equiv_pos_as_xyz
  1  'x, y, z'
loop_
 _atom_site_type_symbol
 _atom_site_label
 _atom_site_symmetry_multiplicity
 _atom_site_fract_x
 _atom_site_fract_y
 _atom_site_fract_z
 _atom_site_occupancy
  Se  Se0  1  0.12500000  0.00000000  0.25000000  1
  Se  Se1  1  0.00000000  0.00000000  0.00000000  1
  Y  Y2  1  0.37500000  0.00000000  0.25000000  1
  Y  Y3  1  0.25000000  0.25000000  0.25000000  1
  P  P4  1  0.00000000  0.25000000  0.12500000  1
  P  P5  1  0.39845997  0.51396869  0.08039816  1
  P  P6  1  0.69370021  0.22610771  0.21917317  1
  Mo  Mo7  1  0.57488360  0.45615468  0.64387510  1
  Li  Li8  1  0.82707321  0.32456594  0.24044309  1
  Li  Li9  1  0.81911272  0.08361246  0.39597706  1
