# generated using pymatgen
data_LiF
_symmetry_space_group_name_H-M   'P 1'
_cell_length_a   8.77921739
_cell_length_b   11.70094024
_cell_length_c   10.86516874
_cell_angle_alpha   90.00000000
_cell_angle_beta   90.00000000
_cell_angle_gamma   90.00000000
_symmetry_Int_Tables_number   1
_chemical_formula_structural   LiF
_chemical_formula_sum   'Li68 F68'
_cell_volume   1116.12552324
_cell_formula_units_Z   68
loop_
 _symmetry_equiv_pos_site_id
 _symmetry_equiv_pos_as_xyz
  1  'x, y, z'
loop_
 _atom_site_type_symbol
 _atom_site_label
 _atom_site_symmetry_multiplicity
 _atom_site_fract_x
 _atom_site_fract_y
 _atom_site_fract_z
 _atom_site_occupancy
  F  F0  1  0.58262426  0.78687490  0.97785901  1
  F  F1  1  0.91737574  0.21312510  0.47785901  1
  F  F2  1  0.41737574  0.28687490  0.02214099  1
  F  F3  1  0.08262426  0.71312510  0.52214099  1
  F  F4  1  0.41737574  0.21312510  0.02214099  1
  F  F5  1  0.08262426  0.78687490  0.52214099  1
  F  F6  1  0.58262426  0.71312510  0.97785901  1
  F  F7  1  0.91737574  0.28687490  0.47785901  1
  F  F8  1  0.06110436  0.84373566  0.60770459  1
  F  F9  1  0.43889564  0.15626434  0.10770459  1
  F  F10  1  0.93889564  0.34373566  0.39229541  1
  F  F11  1  0.56110436  0.65626434  0.89229541  1
  F  F12  1  0.93889564  0.15626434  0.39229541  1
  F  F13  1  0.56110436  0.84373566  0.89229541  1
  F  F14  1  0.06110436  0.65626434  0.60770459  1
  F  F15  1  0.43889564  0.34373566  0.10770459  1
  F  F16  1  0.78615829  0.19779293  0.63865496  1
  F  F17  1  0.71384171  0.80220707  0.13865496  1
  F  F18  1  0.21384171  0.69779293  0.36134504  1
  F  F19  1  0.28615829  0.30220707  0.86134504  1
  F  F20  1  0.21384171  0.80220707  0.36134504  1
  F  F21  1  0.28615829  0.19779293  0.86134504  1
  F  F22  1  0.78615829  0.30220707  0.63865496  1
  F  F23  1  0.71384171  0.69779293  0.13865496  1
  F  F24  1  0.62017363  0.30110270  0.96648440  1
  F  F25  1  0.87982637  0.69889730  0.46648440  1
  F  F26  1  0.37982637  0.80110270  0.03351560  1
  F  F27  1  0.12017363  0.19889730  0.53351560  1
  F  F28  1  0.37982637  0.69889730  0.03351560  1
  F  F29  1  0.12017363  0.30110270  0.53351560  1
  F  F30  1  0.62017363  0.19889730  0.96648440  1
  F  F31  1  0.87982637  0.80110270  0.46648440  1
  F  F32  1  0.70219816  0.25000000  0.18529344  1
  F  F33  1  0.79780184  0.75000000  0.68529344  1
  F  F34  1  0.29780184  0.75000000  0.81470656  1
  F  F35  1  0.20219816  0.25000000  0.31470656  1
  F  F36  1  0.09864196  0.62334890  0.43496692  1
  F  F37  1  0.40135804  0.37665110  0.93496692  1
  F  F38  1  0.90135804  0.12334890  0.56503308  1
  F  F39  1  0.59864196  0.87665110  0.06503308  1
  F  F40  1  0.90135804  0.37665110  0.56503308  1
  F  F41  1  0.59864196  0.62334890  0.06503308  1
  F  F42  1  0.09864196  0.87665110  0.43496692  1
  F  F43  1  0.40135804  0.12334890  0.93496692  1
  F  F44  1  0.84539650  0.45178014  0.89425849  1
  F  F45  1  0.65460350  0.54821986  0.39425849  1
  F  F46  1  0.15460350  0.95178014  0.10574151  1
  F  F47  1  0.34539650  0.04821986  0.60574151  1
  F  F48  1  0.15460350  0.54821986  0.10574151  1
  F  F49  1  0.34539650  0.45178014  0.60574151  1
  F  F50  1  0.84539650  0.04821986  0.89425849  1
  F  F51  1  0.65460350  0.95178014  0.39425849  1
  F  F52  1  0.84800402  0.38905333  0.76275818  1
  F  F53  1  0.65199598  0.61094667  0.26275818  1
  F  F54  1  0.15199598  0.88905333  0.23724182  1
  F  F55  1  0.34800402  0.11094667  0.73724182  1
  F  F56  1  0.15199598  0.61094667  0.23724182  1
  F  F57  1  0.34800402  0.38905333  0.73724182  1
  F  F58  1  0.84800402  0.11094667  0.76275818  1
  F  F59  1  0.65199598  0.88905333  0.26275818  1
  F  F60  1  0.96360381  0.05470003  0.38723043  1
  F  F61  1  0.53639619  0.94529997  0.88723043  1
  F  F62  1  0.03639619  0.55470003  0.61276957  1
  F  F63  1  0.46360381  0.44529997  0.11276957  1
  F  F64  1  0.03639619  0.94529997  0.61276957  1
  F  F65  1  0.46360381  0.05470003  0.11276957  1
  F  F66  1  0.96360381  0.44529997  0.38723043  1
  F  F67  1  0.53639619  0.55470003  0.88723043  1
  Li  Li68  1  0.88992975  0.48261503  0.28401654  1
  Li  Li69  1  -0.38992975  -0.48261503  0.78401654  1
  Li  Li70  1  -0.88992975  0.98261503  -0.28401654  1
  Li  Li71  1  1.38992975  0.01738497  0.21598346  1
  Li  Li72  1  -0.88992975  -0.48261503  -0.28401654  1
  Li  Li73  1  1.38992975  0.48261503  0.21598346  1
  Li  Li74  1  0.88992975  0.01738497  0.28401654  1
  Li  Li75  1  -0.38992975  0.98261503  0.78401654  1
  Li  Li76  1  0.00000000  0.00000000  0.00000000  1
  Li  Li77  1  0.50000000  0.00000000  0.50000000  1
  Li  Li78  1  0.00000000  0.50000000  0.00000000  1
  Li  Li79  1  0.50000000  0.50000000  0.50000000  1
  Li  Li80  1  0.93825155  0.25000000  0.31243603  1
  Li  Li81  1  0.56174845  0.75000000  0.81243603  1
  Li  Li82  1  0.06174845  0.75000000  0.68756397  1
  Li  Li83  1  0.43825155  0.25000000  0.18756397  1
  Li  Li84  1  0.62439855  0.25000000  0.74376496  1
  Li  Li85  1  0.87560145  0.75000000  0.24376496  1
  Li  Li86  1  0.37560145  0.75000000  0.25623504  1
  Li  Li87  1  0.12439855  0.25000000  0.75623504  1
  Li  Li88  1  0.50839544  0.42730672  0.62661170  1
  Li  Li89  1  0.99160456  0.57269328  0.12661170  1
  Li  Li90  1  0.49160456  0.92730672  0.37338830  1
  Li  Li91  1  0.00839544  0.07269328  0.87338830  1
  Li  Li92  1  0.49160456  0.57269328  0.37338830  1
  Li  Li93  1  0.00839544  0.42730672  0.87338830  1
  Li  Li94  1  0.50839544  0.07269328  0.62661170  1
  Li  Li95  1  0.99160456  0.92730672  0.12661170  1
  Li  Li96  1  0.73665360  0.87730556  0.64033391  1
  Li  Li97  1  0.76334640  0.12269444  0.14033391  1
  Li  Li98  1  0.26334640  0.37730556  0.35966609  1
  Li  Li99  1  0.23665360  0.62269444  0.85966609  1
  Li  Li100  1  0.26334640  0.12269444  0.35966609  1
  Li  Li101  1  0.23665360  0.87730556  0.85966609  1
  Li  Li102  1  0.73665360  0.62269444  0.64033391  1
  Li  Li103  1  0.76334640  0.37730556  0.14033391  1
  Li  Li104  1  0.00000000  0.00000000  0.50000000  1
  Li  Li105  1  0.50000000  0.00000000  0.00000000  1
  Li  Li106  1  0.00000000  0.50000000  0.50000000  1
  Li  Li107  1  0.50000000  0.50000000  0.00000000  1
  Li  Li108  1  0.25371564  0.35936871  0.48621019  1
  Li  Li109  1  0.24628436  0.64063129  0.98621019  1
  Li  Li110  1  0.74628436  0.85936871  0.51378981  1
  Li  Li111  1  0.75371564  0.14063129  0.01378981  1
  Li  Li112  1  0.74628436  0.64063129  0.51378981  1
  Li  Li113  1  0.75371564  0.35936871  0.01378981  1
  Li  Li114  1  0.25371564  0.14063129  0.48621019  1
  Li  Li115  1  0.24628436  0.85936871  0.98621019  1
  Li  Li116  1  0.28399509  0.51775136  0.10780929  1
  Li  Li117  1  0.21600491  0.48224864  0.60780929  1
  Li  Li118  1  0.71600491  0.01775136  0.89219071  1
  Li  Li119  1  0.78399509  0.98224864  0.39219071  1
  Li  Li120  1  0.71600491  0.48224864  0.89219071  1
  Li  Li121  1  0.78399509  0.51775136  0.39219071  1
  Li  Li122  1  0.28399509  0.98224864  0.10780929  1
  Li  Li123  1  0.21600491  0.01775136  0.60780929  1
  Li  Li124  1  0.26255981  0.59722538  0.53681722  1
  Li  Li125  1  0.23744019  0.40277462  0.03681722  1
  Li  Li126  1  0.73744019  0.09722538  0.46318278  1
  Li  Li127  1  0.76255981  0.90277462  0.96318278  1
  Li  Li128  1  0.73744019  0.40277462  0.46318278  1
  Li  Li129  1  0.76255981  0.59722538  0.96318278  1
  Li  Li130  1  0.26255981  0.90277462  0.53681722  1
  Li  Li131  1  0.23744019  0.09722538  0.03681722  1
  Li  Li132  1  0.64011244  0.25000000  0.28494248  1
  Li  Li133  1  0.85988756  0.75000000  0.78494248  1
  Li  Li134  1  0.35988756  0.75000000  0.71505752  1
  Li  Li135  1  0.14011244  0.25000000  0.21505752  1
