# generated using pymatgen
data_LiF
_symmetry_space_group_name_H-M   'P 1'
_cell_length_a   7.16398622
_cell_length_b   6.48331633
_cell_length_c   7.51090085
_cell_angle_alpha   90.00000000
_cell_angle_beta   90.00000000
_cell_angle_gamma   90.00000000
_symmetry_Int_Tables_number   1
_chemical_formula_structural   LiF
_chemical_formula_sum   'Li24 F24'
_cell_volume   348.85422147
_cell_formula_units_Z   24
loop_
 _symmetry_equiv_pos_site_id
 _symmetry_equiv_pos_as_xyz
  1  'x, y, z'
loop_
 _atom_site_type_symbol
 _atom_site_label
 _atom_site_symmetry_multiplicity
 _atom_site_fract_x
 _atom_site_fract_y
 _atom_site_fract_z
 _atom_site_occupancy
  F  F0  1  0.00000000  0.00000000  0.00000000  1
  F  F1  1  0.50000000  0.00000000  0.50000000  1
  F  F2  1  0.00000000  0.50000000  0.00000000  1
  F  F3  1  0.50000000  0.50000000  0.50000000  1
  F  F4  1  0.56806817  0.12762987  0.49766632  1
  F  F5  1  -0.06806817  -0.12762987  0.99766632  1
  F  F6  1  -0.56806817  0.62762987  -0.49766632  1
  F  F7  1  1.06806817  0.37237013  0.00233368  1
  F  F8  1  -0.56806817  -0.12762987  -0.49766632  1
  F  F9  1  1.06806817  0.12762987  0.00233368  1
  F  F10  1  0.56806817  0.37237013  0.49766632  1
  F  F11  1  -0.06806817  0.62762987  0.99766632  1
  F  F12  1  0.66674769  0.08878526  0.43084069  1
  F  F13  1  0.83325231  0.91121474  0.93084069  1
  F  F14  1  0.33325231  0.58878526  0.56915931  1
  F  F15  1  0.16674769  0.41121474  0.06915931  1
  F  F16  1  0.33325231  0.91121474  0.56915931  1
  F  F17  1  0.16674769  0.08878526  0.06915931  1
  F  F18  1  0.66674769  0.41121474  0.43084069  1
  F  F19  1  0.83325231  0.58878526  0.93084069  1
  F  F20  1  0.41787114  0.25000000  0.44505465  1
  F  F21  1  0.08212886  0.75000000  0.94505465  1
  F  F22  1  0.58212886  0.75000000  0.55494535  1
  F  F23  1  0.91787114  0.25000000  0.05494535  1
  Li  Li24  1  0.18262807  0.25000000  0.57311447  1
  Li  Li25  1  0.31737193  0.75000000  0.07311447  1
  Li  Li26  1  0.81737193  0.75000000  0.42688553  1
  Li  Li27  1  0.68262807  0.25000000  0.92688553  1
  Li  Li28  1  0.41487265  0.48783518  0.75686322  1
  Li  Li29  1  0.08512735  0.51216482  0.25686322  1
  Li  Li30  1  0.58512735  0.98783518  0.24313678  1
  Li  Li31  1  0.91487265  0.01216482  0.74313678  1
  Li  Li32  1  0.58512735  0.51216482  0.24313678  1
  Li  Li33  1  0.91487265  0.48783518  0.74313678  1
  Li  Li34  1  0.41487265  0.01216482  0.75686322  1
  Li  Li35  1  0.08512735  0.98783518  0.25686322  1
  Li  Li36  1  0.56394204  0.25000000  0.06962193  1
  Li  Li37  1  0.93605796  0.75000000  0.56962193  1
  Li  Li38  1  0.43605796  0.75000000  0.93037807  1
  Li  Li39  1  0.06394204  0.25000000  0.43037807  1
  Li  Li40  1  0.83247063  0.04697671  0.19352510  1
  Li  Li41  1  0.66752937  0.95302329  0.69352510  1
  Li  Li42  1  0.16752937  0.54697671  0.80647490  1
  Li  Li43  1  0.33247063  0.45302329  0.30647490  1
  Li  Li44  1  0.16752937  0.95302329  0.80647490  1
  Li  Li45  1  0.33247063  0.04697671  0.30647490  1
  Li  Li46  1  0.83247063  0.45302329  0.19352510  1
  Li  Li47  1  0.66752937  0.54697671  0.69352510  1
