# generated using pymatgen
data_LiF
_symmetry_space_group_name_H-M   'P 1'
_cell_length_a   8.78386112
_cell_length_b   8.78386112
_cell_length_c   15.49929916
_cell_angle_alpha   90.00000000
_cell_angle_beta   90.00000000
_cell_angle_gamma   120.00000000
_symmetry_Int_Tables_number   1
_chemical_formula_structural   LiF
_chemical_formula_sum   'Li45 F45'
_cell_volume   1035.65144132
_cell_formula_units_Z   45
loop_
 _symmetry_equiv_pos_site_id
 _symmetry_equiv_pos_as_xyz
  1  'x, y, z'
loop_
 _atom_site_type_symbol
 _atom_site_label
 _atom_site_symmetry_multiplicity
 _atom_site_fract_x
 _atom_site_fract_y
 _atom_site_fract_z
 _atom_site_occupancy
  F  F0  1  0.79433637  0.64494784  0.92434806  1
  F  F1  1  0.35505216  0.14938853  0.92434806  1
  F  F2  1  0.85061147  0.20566363  0.92434806  1
  F  F3  1  0.35505216  0.20566363  0.07565194  1
  F  F4  1  0.85061147  0.64494784  0.07565194  1
  F  F5  1  0.79433637  0.14938853  0.07565194  1
  F  F6  1  0.36492594  0.13395864  0.02244899  1
  F  F7  1  0.86604136  0.23096730  0.02244899  1
  F  F8  1  0.76903270  0.63507406  0.02244899  1
  F  F9  1  0.86604136  0.63507406  0.97755101  1
  F  F10  1  0.76903270  0.13395864  0.97755101  1
  F  F11  1  0.36492594  0.23096730  0.97755101  1
  F  F12  1  0.00000000  0.00000000  0.14852562  1
  F  F13  1  0.00000000  0.00000000  0.85147438  1
  F  F14  1  0.12948111  0.16542308  0.75834663  1
  F  F15  1  0.83457692  0.96405803  0.75834663  1
  F  F16  1  0.03594197  0.87051889  0.75834663  1
  F  F17  1  0.83457692  0.87051889  0.24165337  1
  F  F18  1  0.03594197  0.16542308  0.24165337  1
  F  F19  1  0.12948111  0.96405803  0.24165337  1
  F  F20  1  0.00714066  0.44552354  0.49321078  1
  F  F21  1  0.55447646  0.56161712  0.49321078  1
  F  F22  1  0.43838288  0.99285934  0.49321078  1
  F  F23  1  0.55447646  0.99285934  0.50678922  1
  F  F24  1  0.43838288  0.44552354  0.50678922  1
  F  F25  1  0.00714066  0.56161712  0.50678922  1
  F  F26  1  0.68771499  0.59275491  0.68249302  1
  F  F27  1  0.40724509  0.09496009  0.68249302  1
  F  F28  1  0.90503991  0.31228501  0.68249302  1
  F  F29  1  0.40724509  0.31228501  0.31750698  1
  F  F30  1  0.90503991  0.59275491  0.31750698  1
  F  F31  1  0.68771499  0.09496009  0.31750698  1
  F  F32  1  0.66666667  0.33333333  0.83400779  1
  F  F33  1  0.66666667  0.33333333  0.16599221  1
  F  F34  1  0.14253192  0.58381714  0.61179359  1
  F  F35  1  0.41618286  0.55871479  0.61179359  1
  F  F36  1  0.44128521  0.85746808  0.61179359  1
  F  F37  1  0.41618286  0.85746808  0.38820641  1
  F  F38  1  0.44128521  0.58381714  0.38820641  1
  F  F39  1  0.14253192  0.55871479  0.38820641  1
  F  F40  1  0.51937538  0.48062462  0.50000000  1
  F  F41  1  0.51937538  0.03875076  0.50000000  1
  F  F42  1  0.96124924  0.48062462  0.50000000  1
  F  F43  1  0.66666667  0.33333333  0.05546496  1
  F  F44  1  0.66666667  0.33333333  0.94453504  1
  Li  Li45  1  0.66666667  0.33333333  0.50000000  1
  Li  Li46  1  0.33333333  0.66666667  -0.00000000  1
  Li  Li47  1  0.92750343  0.02982838  0.54452135  1
  Li  Li48  1  -0.02982838  0.89767504  0.54452135  1
  Li  Li49  1  -0.89767504  -0.92750343  0.54452135  1
  Li  Li50  1  -0.02982838  -0.92750343  -0.54452135  1
  Li  Li51  1  -0.89767504  0.02982838  -0.54452135  1
  Li  Li52  1  0.92750343  0.89767504  -0.54452135  1
  Li  Li53  1  0.00000000  0.00000000  0.00000000  1
  Li  Li54  1  0.66697950  0.51886671  0.10343360  1
  Li  Li55  1  0.48113329  0.14811280  0.10343360  1
  Li  Li56  1  0.85188720  0.33302050  0.10343360  1
  Li  Li57  1  0.48113329  0.33302050  0.89656640  1
  Li  Li58  1  0.85188720  0.51886671  0.89656640  1
  Li  Li59  1  0.66697950  0.14811280  0.89656640  1
  Li  Li60  1  0.82192225  0.73809004  0.88733665  1
  Li  Li61  1  0.26190996  0.08383221  0.88733665  1
  Li  Li62  1  0.91616779  0.17807775  0.88733665  1
  Li  Li63  1  0.26190996  0.17807775  0.11266335  1
  Li  Li64  1  0.91616779  0.73809004  0.11266335  1
  Li  Li65  1  0.82192225  0.08383221  0.11266335  1
  Li  Li66  1  0.35270660  0.90351543  0.89873239  1
  Li  Li67  1  0.09648457  0.44919117  0.89873239  1
  Li  Li68  1  0.55080883  0.64729340  0.89873239  1
  Li  Li69  1  0.09648457  0.64729340  0.10126761  1
  Li  Li70  1  0.55080883  0.90351543  0.10126761  1
  Li  Li71  1  0.35270660  0.44919117  0.10126761  1
  Li  Li72  1  0.25573224  0.78243548  0.75662272  1
  Li  Li73  1  0.21756452  0.47329676  0.75662272  1
  Li  Li74  1  0.52670324  0.74426776  0.75662272  1
  Li  Li75  1  0.21756452  0.74426776  0.24337728  1
  Li  Li76  1  0.52670324  0.78243548  0.24337728  1
  Li  Li77  1  0.25573224  0.47329676  0.24337728  1
  Li  Li78  1  0.58741146  0.16925880  0.71310771  1
  Li  Li79  1  0.83074120  0.41815265  0.71310771  1
  Li  Li80  1  0.58184735  0.41258854  0.71310771  1
  Li  Li81  1  0.83074120  0.41258854  0.28689229  1
  Li  Li82  1  0.58184735  0.16925880  0.28689229  1
  Li  Li83  1  0.58741146  0.41815265  0.28689229  1
  Li  Li84  1  0.25125257  0.39764682  0.42567895  1
  Li  Li85  1  0.60235318  0.85360575  0.42567895  1
  Li  Li86  1  0.14639425  0.74874743  0.42567895  1
  Li  Li87  1  0.60235318  0.74874743  0.57432105  1
  Li  Li88  1  0.14639425  0.39764682  0.57432105  1
  Li  Li89  1  0.25125257  0.85360575  0.57432105  1
