# generated using pymatgen
data_Li2Y2As2P3Se
_symmetry_space_group_name_H-M   'P 1'
_cell_length_a   5.47745853
_cell_length_b   5.46303181
_cell_length_c   7.35370971
_cell_angle_alpha   93.93070827
_cell_angle_beta   98.56026542
_cell_angle_gamma   105.78809287
_symmetry_Int_Tables_number   1
_chemical_formula_structural   Li2Y2As2P3Se
_chemical_formula_sum   'Li2 Y2 As2 P3 Se1'
_cell_volume   208.00907663
_cell_formula_units_Z   1
loop_
 _symmetry_equiv_pos_site_id
 _symmetry_equiv_pos_as_xyz
  1  'x, y, z'
loop_
 _atom_site_type_symbol
 _atom_site_label
 _atom_site_symmetry_multiplicity
 _atom_site_fract_x
 _atom_site_fract_y
 _atom_site_fract_z
 _atom_site_occupancy
  Se  Se0  1  0.00000000  0.00000000  0.00000000  1
  Y  Y1  1  0.50000000  0.50000000  0.50000000  1
  Y  Y2  1  0.50000000  0.50000000  0.00000000  1
  P  P3  1  0.50000000  0.00000000  0.50000000  1
  P  P4  1  0.00000000  0.50000000  0.50000000  1
  P  P5  1  0.92077593  0.21878921  0.33014747  1
  As  As6  1  0.57783091  0.36219319  0.38157607  1
  As  As7  1  0.80892574  0.67525338  0.20977943  1
  Li  Li8  1  0.72634046  0.81433536  0.47926619  1
  Li  Li9  1  0.33163882  0.93770591  0.62721467  1
