# generated using pymatgen
data_Li2Sb2Te4P3Se
_symmetry_space_group_name_H-M   'P 1'
_cell_length_a   4.66843323
_cell_length_b   4.90978385
_cell_length_c   6.93705911
_cell_angle_alpha   95.12267400
_cell_angle_beta   101.28827991
_cell_angle_gamma   110.73532225
_symmetry_Int_Tables_number   1
_chemical_formula_structural   Li2Sb2Te4P3Se
_chemical_formula_sum   'Li2 Sb2 Te4 P3 Se1'
_cell_volume   143.63140172
_cell_formula_units_Z   1
loop_
 _symmetry_equiv_pos_site_id
 _symmetry_equiv_pos_as_xyz
  1  'x, y, z'
loop_
 _atom_site_type_symbol
 _atom_site_label
 _atom_site_symmetry_multiplicity
 _atom_site_fract_x
 _atom_site_fract_y
 _atom_site_fract_z
 _atom_site_occupancy
  Se  Se0  1  0.00000000  0.00000000  0.00000000  1
  Te  Te1  1  0.50000000  0.50000000  0.50000000  1
  Te  Te2  1  0.25000000  0.25000000  0.25000000  1
  Te  Te3  1  0.75000000  0.25000000  0.00000000  1
  Te  Te4  1  0.25000000  0.75000000  0.50000000  1
  P  P5  1  0.98536751  0.18750332  0.78244735  1
  P  P6  1  0.99609846  0.84595673  0.23142926  1
  P  P7  1  0.52914040  0.73790752  0.03798086  1
  Li  Li8  1  0.68082695  0.49842768  0.32772478  1
  Li  Li9  1  0.07402978  0.74385192  0.30620029  1
  Sb  Sb10  1  0.00302283  0.49147727  0.16910141  1
  Sb  Sb11  1  0.91654862  0.97064429  0.31023724  1
