# generated using pymatgen
data_Li2S
_symmetry_space_group_name_H-M   'P 1'
_cell_length_a   9.61598737
_cell_length_b   9.61598737
_cell_length_c   6.68503925
_cell_angle_alpha   90.00000000
_cell_angle_beta   90.00000000
_cell_angle_gamma   120.00000000
_symmetry_Int_Tables_number   1
_chemical_formula_structural   Li2S
_chemical_formula_sum   'Li24 S12'
_cell_volume   535.33096083
_cell_formula_units_Z   12
loop_
 _symmetry_equiv_pos_site_id
 _symmetry_equiv_pos_as_xyz
  1  'x, y, z'
loop_
 _atom_site_type_symbol
 _atom_site_label
 _atom_site_symmetry_multiplicity
 _atom_site_fract_x
 _atom_site_fract_y
 _atom_site_fract_z
 _atom_site_occupancy
  Li  Li0  1  0.64432702  0.00000000  0.00000000  1
  Li  Li1  1  0.00000000  0.64432702  -0.00000000  1
  Li  Li2  1  -0.64432702  -0.64432702  0.00000000  1
  Li  Li3  1  -0.64432702  0.00000000  -0.00000000  1
  Li  Li4  1  0.00000000  -0.64432702  0.00000000  1
  Li  Li5  1  0.64432702  0.64432702  0.00000000  1
  Li  Li6  1  1.31099369  0.33333333  0.33333333  1
  Li  Li7  1  0.66666667  0.97766035  0.33333333  1
  Li  Li8  1  0.02233965  -0.31099369  0.33333333  1
  Li  Li9  1  0.02233965  0.33333333  0.33333333  1
  Li  Li10  1  0.66666667  -0.31099369  0.33333333  1
  Li  Li11  1  1.31099369  0.97766035  0.33333333  1
  Li  Li12  1  0.97766035  0.66666667  0.66666667  1
  Li  Li13  1  0.33333333  1.31099369  0.66666667  1
  Li  Li14  1  -0.31099369  0.02233965  0.66666667  1
  Li  Li15  1  -0.31099369  0.66666667  0.66666667  1
  Li  Li16  1  0.33333333  0.02233965  0.66666667  1
  Li  Li17  1  0.97766035  1.31099369  0.66666667  1
  Li  Li18  1  0.00000000  0.00000000  0.69516879  1
  Li  Li19  1  0.00000000  0.00000000  0.30483121  1
  Li  Li20  1  0.66666667  0.33333333  0.02850212  1
  Li  Li21  1  0.66666667  0.33333333  0.63816454  1
  Li  Li22  1  0.33333333  0.66666667  0.36183546  1
  Li  Li23  1  0.33333333  0.66666667  0.97149788  1
  S  S24  1  0.00000000  0.00000000  0.00000000  1
  S  S25  1  0.66666667  0.33333333  0.33333333  1
  S  S26  1  0.33333333  0.66666667  0.66666667  1
  S  S27  1  0.50000000  -0.00000000  0.50000000  1
  S  S28  1  0.00000000  0.50000000  0.50000000  1
  S  S29  1  0.50000000  0.50000000  0.50000000  1
  S  S30  1  0.16666667  0.33333333  0.83333333  1
  S  S31  1  0.66666667  0.83333333  0.83333333  1
  S  S32  1  0.16666667  0.83333333  0.83333333  1
  S  S33  1  0.83333333  0.66666667  0.16666667  1
  S  S34  1  0.33333333  0.16666667  0.16666667  1
  S  S35  1  0.83333333  0.16666667  0.16666667  1
