# generated using pymatgen
data_LiF
_symmetry_space_group_name_H-M   'P 1'
_cell_length_a   11.42110785
_cell_length_b   9.50168230
_cell_length_c   4.65307503
_cell_angle_alpha   90.00000000
_cell_angle_beta   90.00000000
_cell_angle_gamma   90.00000000
_symmetry_Int_Tables_number   1
_chemical_formula_structural   LiF
_chemical_formula_sum   'Li28 F28'
_cell_volume   504.95048432
_cell_formula_units_Z   28
loop_
 _symmetry_equiv_pos_site_id
 _symmetry_equiv_pos_as_xyz
  1  'x, y, z'
loop_
 _atom_site_type_symbol
 _atom_site_label
 _atom_site_symmetry_multiplicity
 _atom_site_fract_x
 _atom_site_fract_y
 _atom_site_fract_z
 _atom_site_occupancy
  F  F0  1  0.07870396  0.92038301  0.92358523  1
  F  F1  1  0.42129604  0.07961699  0.42358523  1
  F  F2  1  0.92129604  0.42038301  0.07641477  1
  F  F3  1  0.57870396  0.57961699  0.57641477  1
  F  F4  1  0.92129604  0.07961699  0.07641477  1
  F  F5  1  0.57870396  0.92038301  0.57641477  1
  F  F6  1  0.07870396  0.57961699  0.92358523  1
  F  F7  1  0.42129604  0.42038301  0.42358523  1
  F  F8  1  0.25523914  0.87911298  0.76909510  1
  F  F9  1  0.24476086  0.12088702  0.26909510  1
  F  F10  1  0.74476086  0.37911298  0.23090490  1
  F  F11  1  0.75523914  0.62088702  0.73090490  1
  F  F12  1  0.74476086  0.12088702  0.23090490  1
  F  F13  1  0.75523914  0.87911298  0.73090490  1
  F  F14  1  0.25523914  0.62088702  0.76909510  1
  F  F15  1  0.24476086  0.37911298  0.26909510  1
  F  F16  1  0.61059847  0.87306729  0.03086816  1
  F  F17  1  0.88940153  0.12693271  0.53086816  1
  F  F18  1  0.38940153  0.37306729  0.96913184  1
  F  F19  1  0.11059847  0.62693271  0.46913184  1
  F  F20  1  0.38940153  0.12693271  0.96913184  1
  F  F21  1  0.11059847  0.87306729  0.46913184  1
  F  F22  1  0.61059847  0.62693271  0.03086816  1
  F  F23  1  0.88940153  0.37306729  0.53086816  1
  F  F24  1  0.11541254  0.25000000  0.32759318  1
  F  F25  1  0.38458746  0.75000000  0.82759318  1
  F  F26  1  0.88458746  0.75000000  0.67240682  1
  F  F27  1  0.61541254  0.25000000  0.17240682  1
  Li  Li28  1  0.00000000  0.00000000  0.00000000  1
  Li  Li29  1  0.50000000  0.00000000  0.50000000  1
  Li  Li30  1  0.00000000  0.50000000  0.00000000  1
  Li  Li31  1  0.50000000  0.50000000  0.50000000  1
  Li  Li32  1  0.00000000  0.00000000  0.50000000  1
  Li  Li33  1  0.50000000  0.00000000  0.00000000  1
  Li  Li34  1  0.00000000  0.50000000  0.50000000  1
  Li  Li35  1  0.50000000  0.50000000  0.00000000  1
  Li  Li36  1  0.17477333  0.25000000  0.89665321  1
  Li  Li37  1  0.32522667  0.75000000  0.39665321  1
  Li  Li38  1  0.82522667  0.75000000  0.10334679  1
  Li  Li39  1  0.67477333  0.25000000  0.60334679  1
  Li  Li40  1  0.68835908  0.43842943  0.07005967  1
  Li  Li41  1  -0.18835908  -0.43842943  0.57005967  1
  Li  Li42  1  -0.68835908  0.93842943  -0.07005967  1
  Li  Li43  1  1.18835908  0.06157057  0.42994033  1
  Li  Li44  1  -0.68835908  -0.43842943  -0.07005967  1
  Li  Li45  1  1.18835908  0.43842943  0.42994033  1
  Li  Li46  1  0.68835908  0.06157057  0.07005967  1
  Li  Li47  1  -0.18835908  0.93842943  0.57005967  1
  Li  Li48  1  0.77989877  0.32185250  0.64084598  1
  Li  Li49  1  0.72010123  0.67814750  0.14084598  1
  Li  Li50  1  0.22010123  0.82185250  0.35915402  1
  Li  Li51  1  0.27989877  0.17814750  0.85915402  1
  Li  Li52  1  0.22010123  0.67814750  0.35915402  1
  Li  Li53  1  0.27989877  0.32185250  0.85915402  1
  Li  Li54  1  0.77989877  0.17814750  0.64084598  1
  Li  Li55  1  0.72010123  0.82185250  0.14084598  1
