# generated using pymatgen
data_LiF
_symmetry_space_group_name_H-M   'P 1'
_cell_length_a   12.02394993
_cell_length_b   12.02394993
_cell_length_c   11.70861151
_cell_angle_alpha   90.00000000
_cell_angle_beta   90.00000000
_cell_angle_gamma   120.00000000
_symmetry_Int_Tables_number   1
_chemical_formula_structural   LiF
_chemical_formula_sum   'Li48 F48'
_cell_volume   1465.98776729
_cell_formula_units_Z   48
loop_
 _symmetry_equiv_pos_site_id
 _symmetry_equiv_pos_as_xyz
  1  'x, y, z'
loop_
 _atom_site_type_symbol
 _atom_site_label
 _atom_site_symmetry_multiplicity
 _atom_site_fract_x
 _atom_site_fract_y
 _atom_site_fract_z
 _atom_site_occupancy
  F  F0  1  0.06326662  0.92772704  0.64079906  1
  F  F1  1  0.07227296  0.13553958  0.64079906  1
  F  F2  1  0.86446042  0.93673338  0.64079906  1
  F  F3  1  0.07227296  0.93673338  0.35920094  1
  F  F4  1  0.86446042  0.92772704  0.35920094  1
  F  F5  1  0.06326662  0.13553958  0.35920094  1
  F  F6  1  0.75592890  0.24407110  0.00000000  1
  F  F7  1  0.75592890  0.51185780  0.00000000  1
  F  F8  1  0.48814220  0.24407110  0.00000000  1
  F  F9  1  0.29707581  0.20118015  0.32103294  1
  F  F10  1  0.79881985  0.09589566  0.32103294  1
  F  F11  1  0.90410434  0.70292419  0.32103294  1
  F  F12  1  0.79881985  0.70292419  0.67896706  1
  F  F13  1  0.90410434  0.20118015  0.67896706  1
  F  F14  1  0.29707581  0.09589566  0.67896706  1
  F  F15  1  0.23127657  0.76908869  0.63246258  1
  F  F16  1  0.23091131  0.46218788  0.63246258  1
  F  F17  1  0.53781212  0.76872343  0.63246258  1
  F  F18  1  0.23091131  0.76872343  0.36753742  1
  F  F19  1  0.53781212  0.76908869  0.36753742  1
  F  F20  1  0.23127657  0.46218788  0.36753742  1
  F  F21  1  0.66666667  0.33333333  0.00000000  1
  F  F22  1  0.16937596  0.84034741  0.37245493  1
  F  F23  1  0.15965259  0.32902855  0.37245493  1
  F  F24  1  0.67097145  0.83062404  0.37245493  1
  F  F25  1  0.15965259  0.83062404  0.62754507  1
  F  F26  1  0.67097145  0.84034741  0.62754507  1
  F  F27  1  0.16937596  0.32902855  0.62754507  1
  F  F28  1  0.66666667  0.33333333  0.50000000  1
  F  F29  1  0.37289514  0.62710486  0.50000000  1
  F  F30  1  0.37289514  0.74579028  0.50000000  1
  F  F31  1  0.25420972  0.62710486  0.50000000  1
  F  F32  1  0.00000000  0.00000000  0.12080447  1
  F  F33  1  0.00000000  0.00000000  0.87919553  1
  F  F34  1  0.84433491  0.01440395  0.44965489  1
  F  F35  1  0.98559605  0.82993097  0.44965489  1
  F  F36  1  0.17006903  0.15566509  0.44965489  1
  F  F37  1  0.98559605  0.15566509  0.55034511  1
  F  F38  1  0.17006903  0.01440395  0.55034511  1
  F  F39  1  0.84433491  0.82993097  0.55034511  1
  F  F40  1  0.36078792  0.64441724  0.63735532  1
  F  F41  1  0.35558276  0.71637068  0.63735532  1
  F  F42  1  0.28362932  0.63921208  0.63735532  1
  F  F43  1  0.35558276  0.63921208  0.36264468  1
  F  F44  1  0.28362932  0.64441724  0.36264468  1
  F  F45  1  0.36078792  0.71637068  0.36264468  1
  F  F46  1  0.33333333  0.66666667  0.08239821  1
  F  F47  1  0.33333333  0.66666667  0.91760179  1
  Li  Li48  1  0.50881872  0.12326105  0.05583490  1
  Li  Li49  1  -0.12326105  0.38555767  0.05583490  1
  Li  Li50  1  -0.38555767  -0.50881872  0.05583490  1
  Li  Li51  1  -0.12326105  -0.50881872  -0.05583490  1
  Li  Li52  1  -0.38555767  0.12326105  -0.05583490  1
  Li  Li53  1  0.50881872  0.38555767  -0.05583490  1
  Li  Li54  1  0.24816898  0.90861902  0.71010416  1
  Li  Li55  1  0.09138098  0.33954996  0.71010416  1
  Li  Li56  1  0.66045004  0.75183102  0.71010416  1
  Li  Li57  1  0.09138098  0.75183102  0.28989584  1
  Li  Li58  1  0.66045004  0.90861902  0.28989584  1
  Li  Li59  1  0.24816898  0.33954996  0.28989584  1
  Li  Li60  1  0.71154428  0.46645454  0.80994226  1
  Li  Li61  1  0.53354546  0.24508974  0.80994226  1
  Li  Li62  1  0.75491026  0.28845572  0.80994226  1
  Li  Li63  1  0.53354546  0.28845572  0.19005774  1
  Li  Li64  1  0.75491026  0.46645454  0.19005774  1
  Li  Li65  1  0.71154428  0.24508974  0.19005774  1
  Li  Li66  1  0.99189045  0.07737881  0.08322788  1
  Li  Li67  1  0.92262119  0.91451164  0.08322788  1
  Li  Li68  1  0.08548836  0.00810955  0.08322788  1
  Li  Li69  1  0.92262119  0.00810955  0.91677212  1
  Li  Li70  1  0.08548836  0.07737881  0.91677212  1
  Li  Li71  1  0.99189045  0.91451164  0.91677212  1
  Li  Li72  1  0.66666667  0.33333333  0.11862426  1
  Li  Li73  1  0.66666667  0.33333333  0.88137574  1
  Li  Li74  1  0.19335305  0.80664695  0.50000000  1
  Li  Li75  1  0.19335305  0.38670610  0.50000000  1
  Li  Li76  1  0.61329390  0.80664695  0.50000000  1
  Li  Li77  1  0.24108360  0.84421020  0.08950982  1
  Li  Li78  1  0.15578980  0.39687340  0.08950982  1
  Li  Li79  1  0.60312660  0.75891640  0.08950982  1
  Li  Li80  1  0.15578980  0.75891640  0.91049018  1
  Li  Li81  1  0.60312660  0.84421020  0.91049018  1
  Li  Li82  1  0.24108360  0.39687340  0.91049018  1
  Li  Li83  1  0.32981106  0.47612926  0.14681392  1
  Li  Li84  1  0.52387074  0.85368180  0.14681392  1
  Li  Li85  1  0.14631820  0.67018894  0.14681392  1
  Li  Li86  1  0.52387074  0.67018894  0.85318608  1
  Li  Li87  1  0.14631820  0.47612926  0.85318608  1
  Li  Li88  1  0.32981106  0.85368180  0.85318608  1
  Li  Li89  1  0.00000000  0.00000000  0.00000000  1
  Li  Li90  1  0.00000000  0.00000000  0.50000000  1
  Li  Li91  1  0.44503742  0.55496258  0.50000000  1
  Li  Li92  1  0.44503742  0.89007484  0.50000000  1
  Li  Li93  1  0.10992516  0.55496258  0.50000000  1
  Li  Li94  1  0.33333333  0.66666667  0.27752922  1
  Li  Li95  1  0.33333333  0.66666667  0.72247078  1
