# generated using pymatgen
data_Li2La2Sb6O
_symmetry_space_group_name_H-M   'P 1'
_cell_length_a   6.80937445
_cell_length_b   7.02692822
_cell_length_c   7.47010303
_cell_angle_alpha   101.71536117
_cell_angle_beta   102.35422541
_cell_angle_gamma   100.57294599
_symmetry_Int_Tables_number   1
_chemical_formula_structural   Li2La2Sb6O
_chemical_formula_sum   'Li2 La2 Sb6 O1'
_cell_volume   332.12477964
_cell_formula_units_Z   1
loop_
 _symmetry_equiv_pos_site_id
 _symmetry_equiv_pos_as_xyz
  1  'x, y, z'
loop_
 _atom_site_type_symbol
 _atom_site_label
 _atom_site_symmetry_multiplicity
 _atom_site_fract_x
 _atom_site_fract_y
 _atom_site_fract_z
 _atom_site_occupancy
  La  La0  1  0.12500000  0.00000000  0.25000000  1
  La  La1  1  0.00000000  0.00000000  0.00000000  1
  O  O2  1  0.37500000  0.00000000  0.25000000  1
  Li  Li3  1  0.25000000  0.25000000  0.25000000  1
  Li  Li4  1  0.00000000  0.25000000  0.12500000  1
  Sb  Sb5  1  0.79103808  0.87344680  0.78156139  1
  Sb  Sb6  1  0.95475918  0.69315163  0.80827072  1
  Sb  Sb7  1  0.14444661  0.75105942  0.35843023  1
  Sb  Sb8  1  0.76555502  0.77846684  0.71701071  1
  Sb  Sb9  1  0.79473819  0.13911754  0.51867758  1
  Sb  Sb10  1  0.15431191  0.27933181  0.48035450  1
