# generated using pymatgen
data_Li2Y2As4P3
_symmetry_space_group_name_H-M   'P 1'
_cell_length_a   4.02961205
_cell_length_b   4.23988221
_cell_length_c   6.72613672
_cell_angle_alpha   96.44949394
_cell_angle_beta   104.04565697
_cell_angle_gamma   115.90505383
_symmetry_Int_Tables_number   1
_chemical_formula_structural   Li2Y2As4P3
_chemical_formula_sum   'Li2 Y2 As4 P3'
_cell_volume   97.08899023
_cell_formula_units_Z   1
loop_
 _symmetry_equiv_pos_site_id
 _symmetry_equiv_pos_as_xyz
  1  'x, y, z'
loop_
 _atom_site_type_symbol
 _atom_site_label
 _atom_site_symmetry_multiplicity
 _atom_site_fract_x
 _atom_site_fract_y
 _atom_site_fract_z
 _atom_site_occupancy
  P  P0  1  0.00000000  0.00000000  0.00000000  1
  P  P1  1  0.50000000  0.50000000  0.50000000  1
  P  P2  1  0.50000000  0.50000000  0.00000000  1
  As  As3  1  0.50000000  0.00000000  0.50000000  1
  As  As4  1  0.00000000  0.50000000  0.50000000  1
  As  As5  1  0.05759741  0.27245045  0.66690664  1
  As  As6  1  0.40288429  0.99457307  0.63530927  1
  Li  Li7  1  0.59944310  0.68069816  0.73264919  1
  Li  Li8  1  0.27601243  0.04222362  0.45557853  1
  Y  Y9  1  0.32269074  0.55683874  0.77573929  1
  Y  Y10  1  0.00028397  0.85045356  0.35615332  1
