# generated using pymatgen
data_LiF
_symmetry_space_group_name_H-M   'P 1'
_cell_length_a   9.99111123
_cell_length_b   10.06380266
_cell_length_c   6.37380230
_cell_angle_alpha   90.00000000
_cell_angle_beta   90.00000000
_cell_angle_gamma   90.00000000
_symmetry_Int_Tables_number   1
_chemical_formula_structural   LiF
_chemical_formula_sum   'Li24 F24'
_cell_volume   640.87671743
_cell_formula_units_Z   24
loop_
 _symmetry_equiv_pos_site_id
 _symmetry_equiv_pos_as_xyz
  1  'x, y, z'
loop_
 _atom_site_type_symbol
 _atom_site_label
 _atom_site_symmetry_multiplicity
 _atom_site_fract_x
 _atom_site_fract_y
 _atom_site_fract_z
 _atom_site_occupancy
  F  F0  1  0.00906296  0.08807383  0.17200102  1
  F  F1  1  0.49093704  0.91192617  0.67200102  1
  F  F2  1  0.99093704  0.58807383  0.82799898  1
  F  F3  1  0.50906296  0.41192617  0.32799898  1
  F  F4  1  0.99093704  0.91192617  0.82799898  1
  F  F5  1  0.50906296  0.08807383  0.32799898  1
  F  F6  1  0.00906296  0.41192617  0.17200102  1
  F  F7  1  0.49093704  0.58807383  0.67200102  1
  F  F8  1  0.31403810  0.68109612  0.23849903  1
  F  F9  1  0.18596190  0.31890388  0.73849903  1
  F  F10  1  0.68596190  0.18109612  0.76150097  1
  F  F11  1  0.81403810  0.81890388  0.26150097  1
  F  F12  1  0.68596190  0.31890388  0.76150097  1
  F  F13  1  0.81403810  0.68109612  0.26150097  1
  F  F14  1  0.31403810  0.81890388  0.23849903  1
  F  F15  1  0.18596190  0.18109612  0.73849903  1
  F  F16  1  0.87840036  0.10275822  0.29824313  1
  F  F17  1  0.62159964  0.89724178  0.79824313  1
  F  F18  1  0.12159964  0.60275822  0.70175687  1
  F  F19  1  0.37840036  0.39724178  0.20175687  1
  F  F20  1  0.12159964  0.89724178  0.70175687  1
  F  F21  1  0.37840036  0.10275822  0.20175687  1
  F  F22  1  0.87840036  0.39724178  0.29824313  1
  F  F23  1  0.62159964  0.60275822  0.79824313  1
  Li  Li24  1  0.55483031  0.57389319  0.97251290  1
  Li  Li25  1  -0.05483031  -0.57389319  1.47251290  1
  Li  Li26  1  -0.55483031  1.07389319  -0.97251290  1
  Li  Li27  1  1.05483031  -0.07389319  -0.47251290  1
  Li  Li28  1  -0.55483031  -0.57389319  -0.97251290  1
  Li  Li29  1  1.05483031  0.57389319  -0.47251290  1
  Li  Li30  1  0.55483031  -0.07389319  0.97251290  1
  Li  Li31  1  -0.05483031  1.07389319  1.47251290  1
  Li  Li32  1  0.07644798  0.86062214  0.18986010  1
  Li  Li33  1  0.42355202  0.13937786  0.68986010  1
  Li  Li34  1  0.92355202  0.36062214  0.81013990  1
  Li  Li35  1  0.57644798  0.63937786  0.31013990  1
  Li  Li36  1  0.92355202  0.13937786  0.81013990  1
  Li  Li37  1  0.57644798  0.86062214  0.31013990  1
  Li  Li38  1  0.07644798  0.63937786  0.18986010  1
  Li  Li39  1  0.42355202  0.36062214  0.68986010  1
  Li  Li40  1  0.17418144  0.25000000  0.62996915  1
  Li  Li41  1  0.32581856  0.75000000  0.12996915  1
  Li  Li42  1  0.82581856  0.75000000  0.37003085  1
  Li  Li43  1  0.67418144  0.25000000  0.87003085  1
  Li  Li44  1  0.00000000  0.00000000  0.00000000  1
  Li  Li45  1  0.50000000  0.00000000  0.50000000  1
  Li  Li46  1  0.00000000  0.50000000  0.00000000  1
  Li  Li47  1  0.50000000  0.50000000  0.50000000  1
