# generated using pymatgen
data_LiF
_symmetry_space_group_name_H-M   'P 1'
_cell_length_a   5.39378948
_cell_length_b   5.39378948
_cell_length_c   17.64673168
_cell_angle_alpha   90.00000000
_cell_angle_beta   90.00000000
_cell_angle_gamma   120.00000000
_symmetry_Int_Tables_number   1
_chemical_formula_structural   LiF
_chemical_formula_sum   'Li22 F22'
_cell_volume   444.61375848
_cell_formula_units_Z   22
loop_
 _symmetry_equiv_pos_site_id
 _symmetry_equiv_pos_as_xyz
  1  'x, y, z'
loop_
 _atom_site_type_symbol
 _atom_site_label
 _atom_site_symmetry_multiplicity
 _atom_site_fract_x
 _atom_site_fract_y
 _atom_site_fract_z
 _atom_site_occupancy
  F  F0  1  0.06795098  0.27624866  0.63387042  1
  F  F1  1  -0.27624866  -0.20829768  0.63387042  1
  F  F2  1  0.20829768  -0.06795098  0.63387042  1
  F  F3  1  -0.06795098  -0.27624866  1.13387042  1
  F  F4  1  0.27624866  0.20829768  1.13387042  1
  F  F5  1  -0.20829768  0.06795098  1.13387042  1
  F  F6  1  -0.06795098  -0.27624866  -0.63387042  1
  F  F7  1  0.27624866  0.20829768  -0.63387042  1
  F  F8  1  -0.20829768  0.06795098  -0.63387042  1
  F  F9  1  0.06795098  0.27624866  -0.13387042  1
  F  F10  1  -0.27624866  -0.20829768  -0.13387042  1
  F  F11  1  0.20829768  -0.06795098  -0.13387042  1
  F  F12  1  0.33333333  0.66666667  0.15843245  1
  F  F13  1  0.66666667  0.33333333  0.65843245  1
  F  F14  1  0.66666667  0.33333333  0.84156755  1
  F  F15  1  0.33333333  0.66666667  0.34156755  1
  F  F16  1  0.33333333  0.66666667  0.46736178  1
  F  F17  1  0.66666667  0.33333333  0.96736178  1
  F  F18  1  0.66666667  0.33333333  0.53263822  1
  F  F19  1  0.33333333  0.66666667  0.03263822  1
  F  F20  1  0.00000000  0.00000000  0.25000000  1
  F  F21  1  0.00000000  0.00000000  0.75000000  1
  Li  Li22  1  0.09145408  0.72453426  0.25000000  1
  Li  Li23  1  0.27546574  0.36691983  0.25000000  1
  Li  Li24  1  0.63308017  0.90854592  0.25000000  1
  Li  Li25  1  0.90854592  0.27546574  0.75000000  1
  Li  Li26  1  0.72453426  0.63308017  0.75000000  1
  Li  Li27  1  0.36691983  0.09145408  0.75000000  1
  Li  Li28  1  0.88366464  0.57752218  0.50925692  1
  Li  Li29  1  0.42247782  0.30614246  0.50925692  1
  Li  Li30  1  0.69385754  0.11633536  0.50925692  1
  Li  Li31  1  0.11633536  0.42247782  0.00925692  1
  Li  Li32  1  0.57752218  0.69385754  0.00925692  1
  Li  Li33  1  0.30614246  0.88366464  0.00925692  1
  Li  Li34  1  0.11633536  0.42247782  0.49074308  1
  Li  Li35  1  0.57752218  0.69385754  0.49074308  1
  Li  Li36  1  0.30614246  0.88366464  0.49074308  1
  Li  Li37  1  0.88366464  0.57752218  0.99074308  1
  Li  Li38  1  0.42247782  0.30614246  0.99074308  1
  Li  Li39  1  0.69385754  0.11633536  0.99074308  1
  Li  Li40  1  0.00000000  0.00000000  0.00000000  1
  Li  Li41  1  0.00000000  0.00000000  0.50000000  1
  Li  Li42  1  0.66666667  0.33333333  0.25000000  1
  Li  Li43  1  0.33333333  0.66666667  0.75000000  1
