# generated using pymatgen
data_LiTi2As4P2O
_symmetry_space_group_name_H-M   'P 1'
_cell_length_a   6.95513920
_cell_length_b   6.76655024
_cell_length_c   7.52066445
_cell_angle_alpha   92.50569495
_cell_angle_beta   95.45688267
_cell_angle_gamma   100.06438074
_symmetry_Int_Tables_number   1
_chemical_formula_structural   LiTi2As4P2O
_chemical_formula_sum   'Li1 Ti2 As4 P2 O1'
_cell_volume   346.25603356
_cell_formula_units_Z   1
loop_
 _symmetry_equiv_pos_site_id
 _symmetry_equiv_pos_as_xyz
  1  'x, y, z'
loop_
 _atom_site_type_symbol
 _atom_site_label
 _atom_site_symmetry_multiplicity
 _atom_site_fract_x
 _atom_site_fract_y
 _atom_site_fract_z
 _atom_site_occupancy
  P  P0  1  0.12500000  0.00000000  0.25000000  1
  P  P1  1  0.00000000  0.00000000  0.00000000  1
  Ti  Ti2  1  0.37500000  0.00000000  0.25000000  1
  Ti  Ti3  1  0.25000000  0.25000000  0.25000000  1
  O  O4  1  0.00000000  0.25000000  0.12500000  1
  Li  Li5  1  0.14776566  0.14526361  0.96262508  1
  As  As6  1  0.55358150  0.54786468  0.53420129  1
  As  As7  1  0.51819955  0.05921040  0.08999510  1
  As  As8  1  0.46488073  0.47913655  0.82055756  1
  As  As9  1  0.96845872  0.83782673  0.51180221  1
