# generated using pymatgen
data_LiF
_symmetry_space_group_name_H-M   'P 1'
_cell_length_a   8.73553575
_cell_length_b   8.73553575
_cell_length_c   12.80607120
_cell_angle_alpha   90.00000000
_cell_angle_beta   90.00000000
_cell_angle_gamma   120.00000000
_symmetry_Int_Tables_number   1
_chemical_formula_structural   LiF
_chemical_formula_sum   'Li36 F36'
_cell_volume   846.30252169
_cell_formula_units_Z   36
loop_
 _symmetry_equiv_pos_site_id
 _symmetry_equiv_pos_as_xyz
  1  'x, y, z'
loop_
 _atom_site_type_symbol
 _atom_site_label
 _atom_site_symmetry_multiplicity
 _atom_site_fract_x
 _atom_site_fract_y
 _atom_site_fract_z
 _atom_site_occupancy
  F  F0  1  0.50000000  0.00000000  0.00000000  1
  F  F1  1  0.00000000  0.50000000  0.00000000  1
  F  F2  1  0.50000000  0.50000000  0.00000000  1
  F  F3  1  0.50000000  0.00000000  0.50000000  1
  F  F4  1  0.00000000  0.50000000  0.50000000  1
  F  F5  1  0.50000000  0.50000000  0.50000000  1
  F  F6  1  0.84091511  0.30167952  0.87644765  1
  F  F7  1  -0.30167952  0.53923559  0.87644765  1
  F  F8  1  -0.53923559  -0.84091511  0.87644765  1
  F  F9  1  -0.84091511  -0.30167952  1.37644765  1
  F  F10  1  0.30167952  -0.53923559  1.37644765  1
  F  F11  1  0.53923559  0.84091511  1.37644765  1
  F  F12  1  -0.84091511  -0.30167952  -0.87644765  1
  F  F13  1  0.30167952  -0.53923559  -0.87644765  1
  F  F14  1  0.53923559  0.84091511  -0.87644765  1
  F  F15  1  0.84091511  0.30167952  -0.37644765  1
  F  F16  1  -0.30167952  0.53923559  -0.37644765  1
  F  F17  1  -0.53923559  -0.84091511  -0.37644765  1
  F  F18  1  0.67724810  0.04803872  0.92000492  1
  F  F19  1  0.95196128  0.62920938  0.92000492  1
  F  F20  1  0.37079062  0.32275190  0.92000492  1
  F  F21  1  0.32275190  0.95196128  0.42000492  1
  F  F22  1  0.04803872  0.37079062  0.42000492  1
  F  F23  1  0.62920938  0.67724810  0.42000492  1
  F  F24  1  0.32275190  0.95196128  0.07999508  1
  F  F25  1  0.04803872  0.37079062  0.07999508  1
  F  F26  1  0.62920938  0.67724810  0.07999508  1
  F  F27  1  0.67724810  0.04803872  0.57999508  1
  F  F28  1  0.95196128  0.62920938  0.57999508  1
  F  F29  1  0.37079062  0.32275190  0.57999508  1
  F  F30  1  0.00000000  0.00000000  0.45221118  1
  F  F31  1  0.00000000  0.00000000  0.95221118  1
  F  F32  1  0.00000000  0.00000000  0.54778882  1
  F  F33  1  0.00000000  0.00000000  0.04778882  1
  F  F34  1  0.66666667  0.33333333  0.25000000  1
  F  F35  1  0.33333333  0.66666667  0.75000000  1
  Li  Li36  1  0.56548903  0.70444259  0.67182334  1
  Li  Li37  1  0.29555741  0.86104644  0.67182334  1
  Li  Li38  1  0.13895356  0.43451097  0.67182334  1
  Li  Li39  1  0.43451097  0.29555741  0.17182334  1
  Li  Li40  1  0.70444259  0.13895356  0.17182334  1
  Li  Li41  1  0.86104644  0.56548903  0.17182334  1
  Li  Li42  1  0.43451097  0.29555741  0.32817666  1
  Li  Li43  1  0.70444259  0.13895356  0.32817666  1
  Li  Li44  1  0.86104644  0.56548903  0.32817666  1
  Li  Li45  1  0.56548903  0.70444259  0.82817666  1
  Li  Li46  1  0.29555741  0.86104644  0.82817666  1
  Li  Li47  1  0.13895356  0.43451097  0.82817666  1
  Li  Li48  1  0.01094402  0.41829926  0.32676868  1
  Li  Li49  1  0.58170074  0.59264476  0.32676868  1
  Li  Li50  1  0.40735524  0.98905598  0.32676868  1
  Li  Li51  1  0.98905598  0.58170074  0.82676868  1
  Li  Li52  1  0.41829926  0.40735524  0.82676868  1
  Li  Li53  1  0.59264476  0.01094402  0.82676868  1
  Li  Li54  1  0.98905598  0.58170074  0.67323132  1
  Li  Li55  1  0.41829926  0.40735524  0.67323132  1
  Li  Li56  1  0.59264476  0.01094402  0.67323132  1
  Li  Li57  1  0.01094402  0.41829926  0.17323132  1
  Li  Li58  1  0.58170074  0.59264476  0.17323132  1
  Li  Li59  1  0.40735524  0.98905598  0.17323132  1
  Li  Li60  1  0.99484773  0.89567430  0.36013412  1
  Li  Li61  1  0.10432570  0.09917343  0.36013412  1
  Li  Li62  1  0.90082657  0.00515227  0.36013412  1
  Li  Li63  1  0.00515227  0.10432570  0.86013412  1
  Li  Li64  1  0.89567430  0.90082657  0.86013412  1
  Li  Li65  1  0.09917343  0.99484773  0.86013412  1
  Li  Li66  1  0.00515227  0.10432570  0.63986588  1
  Li  Li67  1  0.89567430  0.90082657  0.63986588  1
  Li  Li68  1  0.09917343  0.99484773  0.63986588  1
  Li  Li69  1  0.99484773  0.89567430  0.13986588  1
  Li  Li70  1  0.10432570  0.09917343  0.13986588  1
  Li  Li71  1  0.90082657  0.00515227  0.13986588  1
