# generated using pymatgen
data_LiF
_symmetry_space_group_name_H-M   'P 1'
_cell_length_a   9.37708802
_cell_length_b   12.79655396
_cell_length_c   3.94913809
_cell_angle_alpha   90.00000000
_cell_angle_beta   90.00000000
_cell_angle_gamma   90.00000000
_symmetry_Int_Tables_number   1
_chemical_formula_structural   LiF
_chemical_formula_sum   'Li22 F22'
_cell_volume   473.87450692
_cell_formula_units_Z   22
loop_
 _symmetry_equiv_pos_site_id
 _symmetry_equiv_pos_as_xyz
  1  'x, y, z'
loop_
 _atom_site_type_symbol
 _atom_site_label
 _atom_site_symmetry_multiplicity
 _atom_site_fract_x
 _atom_site_fract_y
 _atom_site_fract_z
 _atom_site_occupancy
  F  F0  1  0.00000000  0.50000000  0.77017348  1
  F  F1  1  0.50000000  -0.00000000  0.72982652  1
  F  F2  1  0.00000000  0.50000000  0.22982652  1
  F  F3  1  0.50000000  -0.00000000  0.27017348  1
  F  F4  1  0.02761675  0.63209911  0.87187767  1
  F  F5  1  -0.02761675  -0.63209911  0.87187767  1
  F  F6  1  0.47238325  1.13209911  -0.37187767  1
  F  F7  1  0.52761675  -0.13209911  -0.37187767  1
  F  F8  1  -0.02761675  -0.63209911  -0.87187767  1
  F  F9  1  0.02761675  0.63209911  -0.87187767  1
  F  F10  1  0.52761675  -0.13209911  1.37187767  1
  F  F11  1  0.47238325  1.13209911  1.37187767  1
  F  F12  1  0.07495470  0.16161228  0.30146387  1
  F  F13  1  0.92504530  0.83838772  0.30146387  1
  F  F14  1  0.42504530  0.66161228  0.19853613  1
  F  F15  1  0.57495470  0.33838772  0.19853613  1
  F  F16  1  0.92504530  0.83838772  0.69853613  1
  F  F17  1  0.07495470  0.16161228  0.69853613  1
  F  F18  1  0.57495470  0.33838772  0.80146387  1
  F  F19  1  0.42504530  0.66161228  0.80146387  1
  F  F20  1  0.00000000  0.50000000  0.50000000  1
  F  F21  1  0.50000000  -0.00000000  -0.00000000  1
  Li  Li22  1  0.00000000  0.00000000  0.00000000  1
  Li  Li23  1  0.50000000  0.50000000  0.50000000  1
  Li  Li24  1  0.17024498  0.09599025  -0.00000000  1
  Li  Li25  1  0.82975502  0.90400975  -0.00000000  1
  Li  Li26  1  0.32975502  0.59599025  0.50000000  1
  Li  Li27  1  0.67024498  0.40400975  0.50000000  1
  Li  Li28  1  0.77294292  0.75854674  0.00000000  1
  Li  Li29  1  0.22705708  0.24145326  0.00000000  1
  Li  Li30  1  0.72705708  0.25854674  0.50000000  1
  Li  Li31  1  0.27294292  0.74145326  0.50000000  1
  Li  Li32  1  0.20946314  0.94633658  0.00000000  1
  Li  Li33  1  0.79053686  0.05366342  -0.00000000  1
  Li  Li34  1  0.29053686  0.44633658  0.50000000  1
  Li  Li35  1  0.70946314  0.55366342  0.50000000  1
  Li  Li36  1  0.99704590  0.24095490  0.23024095  1
  Li  Li37  1  0.00295410  0.75904510  0.23024095  1
  Li  Li38  1  0.50295410  0.74095490  0.26975905  1
  Li  Li39  1  0.49704590  0.25904510  0.26975905  1
  Li  Li40  1  0.00295410  0.75904510  0.76975905  1
  Li  Li41  1  0.99704590  0.24095490  0.76975905  1
  Li  Li42  1  0.49704590  0.25904510  0.73024095  1
  Li  Li43  1  0.50295410  0.74095490  0.73024095  1
