# generated using pymatgen
data_Li2Si4Te3F12
_symmetry_space_group_name_H-M   'P 1'
_cell_length_a   9.73949186
_cell_length_b   14.10904737
_cell_length_c   6.57105389
_cell_angle_alpha   90.00000000
_cell_angle_beta   90.00000000
_cell_angle_gamma   90.00000000
_symmetry_Int_Tables_number   1
_chemical_formula_structural   Li2Si4Te3F12
_chemical_formula_sum   'Li8 Si16 Te12 F48'
_cell_volume   902.96105384
_cell_formula_units_Z   4
loop_
 _symmetry_equiv_pos_site_id
 _symmetry_equiv_pos_as_xyz
  1  'x, y, z'
loop_
 _atom_site_type_symbol
 _atom_site_label
 _atom_site_symmetry_multiplicity
 _atom_site_fract_x
 _atom_site_fract_y
 _atom_site_fract_z
 _atom_site_occupancy
  F  F0  1  0.05030717  0.36610074  0.14400383  1
  F  F1  1  0.94969283  0.63389926  0.14400383  1
  F  F2  1  0.44969283  0.86610074  0.85599617  1
  F  F3  1  0.55030717  0.13389926  0.85599617  1
  F  F4  1  0.94969283  0.63389926  0.85599617  1
  F  F5  1  0.05030717  0.36610074  0.85599617  1
  F  F6  1  0.55030717  0.13389926  0.14400383  1
  F  F7  1  0.44969283  0.86610074  0.14400383  1
  F  F8  1  0.41632044  0.58377321  0.06150595  1
  F  F9  1  0.58367956  0.41622679  0.06150595  1
  F  F10  1  0.08367956  0.08377321  0.93849405  1
  F  F11  1  0.91632044  0.91622679  0.93849405  1
  F  F12  1  0.58367956  0.41622679  0.93849405  1
  F  F13  1  0.41632044  0.58377321  0.93849405  1
  F  F14  1  0.91632044  0.91622679  0.06150595  1
  F  F15  1  0.08367956  0.08377321  0.06150595  1
  F  F16  1  0.03425754  0.77526777  0.38527520  1
  F  F17  1  0.96574246  0.22473223  0.38527520  1
  F  F18  1  0.46574246  0.27526777  0.61472480  1
  F  F19  1  0.53425754  0.72473223  0.61472480  1
  F  F20  1  0.96574246  0.22473223  0.61472480  1
  F  F21  1  0.03425754  0.77526777  0.61472480  1
  F  F22  1  0.53425754  0.72473223  0.38527520  1
  F  F23  1  0.46574246  0.27526777  0.38527520  1
  F  F24  1  0.11657992  0.03644497  0.05595381  1
  F  F25  1  0.88342008  0.96355503  0.05595381  1
  F  F26  1  0.38342008  0.53644497  0.94404619  1
  F  F27  1  0.61657992  0.46355503  0.94404619  1
  F  F28  1  0.88342008  0.96355503  0.94404619  1
  F  F29  1  0.11657992  0.03644497  0.94404619  1
  F  F30  1  0.61657992  0.46355503  0.05595381  1
  F  F31  1  0.38342008  0.53644497  0.05595381  1
  F  F32  1  0.80854285  0.82626552  0.71787007  1
  F  F33  1  0.19145715  0.17373448  0.71787007  1
  F  F34  1  0.69145715  0.32626552  0.28212993  1
  F  F35  1  0.30854285  0.67373448  0.28212993  1
  F  F36  1  0.19145715  0.17373448  0.28212993  1
  F  F37  1  0.80854285  0.82626552  0.28212993  1
  F  F38  1  0.30854285  0.67373448  0.71787007  1
  F  F39  1  0.69145715  0.32626552  0.71787007  1
  F  F40  1  0.54131261  0.62895268  0.68786583  1
  F  F41  1  0.45868739  0.37104732  0.68786583  1
  F  F42  1  0.95868739  0.12895268  0.31213417  1
  F  F43  1  0.04131261  0.87104732  0.31213417  1
  F  F44  1  0.45868739  0.37104732  0.31213417  1
  F  F45  1  0.54131261  0.62895268  0.31213417  1
  F  F46  1  0.04131261  0.87104732  0.68786583  1
  F  F47  1  0.95868739  0.12895268  0.68786583  1
  Li  Li48  1  0.00000000  0.00000000  0.50000000  1
  Li  Li49  1  0.50000000  0.50000000  0.50000000  1
  Li  Li50  1  0.88105533  0.27507786  0.00000000  1
  Li  Li51  1  0.11894467  0.72492214  0.00000000  1
  Li  Li52  1  0.61894467  0.77507786  -0.00000000  1
  Li  Li53  1  0.38105533  0.22492214  -0.00000000  1
  Li  Li54  1  0.00000000  0.50000000  0.50000000  1
  Li  Li55  1  0.50000000  0.00000000  0.50000000  1
  Si  Si56  1  0.22013651  0.22940561  0.74384407  1
  Si  Si57  1  0.77986349  0.77059439  0.74384407  1
  Si  Si58  1  0.27986349  0.72940561  0.25615593  1
  Si  Si59  1  0.72013651  0.27059439  0.25615593  1
  Si  Si60  1  0.77986349  0.77059439  0.25615593  1
  Si  Si61  1  0.22013651  0.22940561  0.25615593  1
  Si  Si62  1  0.72013651  0.27059439  0.74384407  1
  Si  Si63  1  0.27986349  0.72940561  0.74384407  1
  Si  Si64  1  0.55975734  0.34019898  0.28002186  1
  Si  Si65  1  0.44024266  0.65980102  0.28002186  1
  Si  Si66  1  0.94024266  0.84019898  0.71997814  1
  Si  Si67  1  0.05975734  0.15980102  0.71997814  1
  Si  Si68  1  0.44024266  0.65980102  0.71997814  1
  Si  Si69  1  0.55975734  0.34019898  0.71997814  1
  Si  Si70  1  0.05975734  0.15980102  0.28002186  1
  Si  Si71  1  0.94024266  0.84019898  0.28002186  1
  Te  Te72  1  0.00000000  0.00000000  0.87302351  1
  Te  Te73  1  0.50000000  0.50000000  0.12697649  1
  Te  Te74  1  0.00000000  0.00000000  0.12697649  1
  Te  Te75  1  0.50000000  0.50000000  0.87302351  1
  Te  Te76  1  0.24372893  0.59532956  0.63302930  1
  Te  Te77  1  -0.24372893  -0.59532956  0.63302930  1
  Te  Te78  1  0.25627107  1.09532956  -0.63302930  1
  Te  Te79  1  0.74372893  -0.09532956  -0.63302930  1
  Te  Te80  1  -0.24372893  -0.59532956  -0.63302930  1
  Te  Te81  1  0.24372893  0.59532956  -0.63302930  1
  Te  Te82  1  0.74372893  -0.09532956  0.63302930  1
  Te  Te83  1  0.25627107  1.09532956  0.63302930  1
