# generated using pymatgen
data_LiF
_symmetry_space_group_name_H-M   'P 1'
_cell_length_a   8.67054913
_cell_length_b   8.67054913
_cell_length_c   18.10872167
_cell_angle_alpha   90.00000000
_cell_angle_beta   90.00000000
_cell_angle_gamma   120.00000000
_symmetry_Int_Tables_number   1
_chemical_formula_structural   LiF
_chemical_formula_sum   'Li30 F30'
_cell_volume   1178.99410228
_cell_formula_units_Z   30
loop_
 _symmetry_equiv_pos_site_id
 _symmetry_equiv_pos_as_xyz
  1  'x, y, z'
loop_
 _atom_site_type_symbol
 _atom_site_label
 _atom_site_symmetry_multiplicity
 _atom_site_fract_x
 _atom_site_fract_y
 _atom_site_fract_z
 _atom_site_occupancy
  F  F0  1  0.77107707  0.08016171  0.47817142  1
  F  F1  1  0.91983829  0.69091536  0.47817142  1
  F  F2  1  0.30908464  0.22892293  0.47817142  1
  F  F3  1  0.91983829  0.22892293  0.52182858  1
  F  F4  1  0.30908464  0.08016171  0.52182858  1
  F  F5  1  0.77107707  0.69091536  0.52182858  1
  F  F6  1  0.15979667  0.41564225  0.18407424  1
  F  F7  1  0.58435775  0.74415441  0.18407424  1
  F  F8  1  0.25584559  0.84020333  0.18407424  1
  F  F9  1  0.58435775  0.84020333  0.81592576  1
  F  F10  1  0.25584559  0.41564225  0.81592576  1
  F  F11  1  0.15979667  0.74415441  0.81592576  1
  F  F12  1  0.50606028  0.05968055  0.11767658  1
  F  F13  1  0.94031945  0.44637973  0.11767658  1
  F  F14  1  0.55362027  0.49393972  0.11767658  1
  F  F15  1  0.94031945  0.49393972  0.88232342  1
  F  F16  1  0.55362027  0.05968055  0.88232342  1
  F  F17  1  0.50606028  0.44637973  0.88232342  1
  F  F18  1  0.99646600  0.58113502  0.00654046  1
  F  F19  1  0.41886498  0.41533097  0.00654046  1
  F  F20  1  0.58466903  0.00353400  0.00654046  1
  F  F21  1  0.41886498  0.00353400  0.99345954  1
  F  F22  1  0.58466903  0.58113502  0.99345954  1
  F  F23  1  0.99646600  0.41533097  0.99345954  1
  F  F24  1  0.71995436  0.95263979  0.71678122  1
  F  F25  1  0.04736021  0.76731457  0.71678122  1
  F  F26  1  0.23268543  0.28004564  0.71678122  1
  F  F27  1  0.04736021  0.28004564  0.28321878  1
  F  F28  1  0.23268543  0.95263979  0.28321878  1
  F  F29  1  0.71995436  0.76731457  0.28321878  1
  Li  Li30  1  0.00000000  0.00000000  0.00000000  1
  Li  Li31  1  0.10241350  0.89758650  0.00000000  1
  Li  Li32  1  0.10241350  0.20482699  0.00000000  1
  Li  Li33  1  0.79517301  0.89758650  0.00000000  1
  Li  Li34  1  0.26568519  0.73431481  0.50000000  1
  Li  Li35  1  0.26568519  0.53137038  0.50000000  1
  Li  Li36  1  0.46862962  0.73431481  0.50000000  1
  Li  Li37  1  0.33333333  0.66666667  0.00000000  1
  Li  Li38  1  0.57110522  0.87384054  0.36020654  1
  Li  Li39  1  -0.87384054  -0.30273532  0.36020654  1
  Li  Li40  1  0.30273532  -0.57110522  0.36020654  1
  Li  Li41  1  -0.87384054  -0.57110522  -0.36020654  1
  Li  Li42  1  0.30273532  0.87384054  -0.36020654  1
  Li  Li43  1  0.57110522  -0.30273532  -0.36020654  1
  Li  Li44  1  0.66666667  0.33333333  0.78145163  1
  Li  Li45  1  0.66666667  0.33333333  0.21854837  1
  Li  Li46  1  0.42500509  0.13439029  0.42115152  1
  Li  Li47  1  0.86560971  0.29061480  0.42115152  1
  Li  Li48  1  0.70938520  0.57499491  0.42115152  1
  Li  Li49  1  0.86560971  0.57499491  0.57884848  1
  Li  Li50  1  0.70938520  0.13439029  0.57884848  1
  Li  Li51  1  0.42500509  0.29061480  0.57884848  1
  Li  Li52  1  0.66666667  0.33333333  0.50000000  1
  Li  Li53  1  0.01560842  0.70738595  0.41393330  1
  Li  Li54  1  0.29261405  0.30822247  0.41393330  1
  Li  Li55  1  0.69177753  0.98439158  0.41393330  1
  Li  Li56  1  0.29261405  0.98439158  0.58606670  1
  Li  Li57  1  0.69177753  0.70738595  0.58606670  1
  Li  Li58  1  0.01560842  0.30822247  0.58606670  1
  Li  Li59  1  0.00000000  0.00000000  0.50000000  1
