# generated using pymatgen
data_Li3Y(P2Se)2
_symmetry_space_group_name_H-M   'P 1'
_cell_length_a   5.57037360
_cell_length_b   5.77926823
_cell_length_c   7.45967902
_cell_angle_alpha   94.43740311
_cell_angle_beta   99.20824754
_cell_angle_gamma   105.60973184
_symmetry_Int_Tables_number   1
_chemical_formula_structural   Li3Y(P2Se)2
_chemical_formula_sum   'Li3 Y1 P4 Se2'
_cell_volume   226.46997180
_cell_formula_units_Z   1
loop_
 _symmetry_equiv_pos_site_id
 _symmetry_equiv_pos_as_xyz
  1  'x, y, z'
loop_
 _atom_site_type_symbol
 _atom_site_label
 _atom_site_symmetry_multiplicity
 _atom_site_fract_x
 _atom_site_fract_y
 _atom_site_fract_z
 _atom_site_occupancy
  Se  Se0  1  0.00000000  0.00000000  0.00000000  1
  Se  Se1  1  0.50000000  0.50000000  0.50000000  1
  Y  Y2  1  0.25000000  0.25000000  0.25000000  1
  P  P3  1  0.75000000  0.25000000  0.00000000  1
  P  P4  1  0.25000000  0.75000000  0.50000000  1
  P  P5  1  0.54215723  0.17122388  0.14854685  1
  P  P6  1  0.51935909  0.36471908  0.77324157  1
  Li  Li7  1  0.85738979  0.99557644  0.07803827  1
  Li  Li8  1  0.42993762  0.11289695  0.37008180  1
  Li  Li9  1  0.25646621  0.43029501  0.01429800  1
