# generated using pymatgen
data_LiCu3PSe
_symmetry_space_group_name_H-M   'P 1'
_cell_length_a   3.69901469
_cell_length_b   4.01590189
_cell_length_c   5.67339687
_cell_angle_alpha   96.15281492
_cell_angle_beta   99.70660183
_cell_angle_gamma   108.92188930
_symmetry_Int_Tables_number   1
_chemical_formula_structural   LiCu3PSe
_chemical_formula_sum   'Li1 Cu3 P1 Se1'
_cell_volume   77.38910293
_cell_formula_units_Z   1
loop_
 _symmetry_equiv_pos_site_id
 _symmetry_equiv_pos_as_xyz
  1  'x, y, z'
loop_
 _atom_site_type_symbol
 _atom_site_label
 _atom_site_symmetry_multiplicity
 _atom_site_fract_x
 _atom_site_fract_y
 _atom_site_fract_z
 _atom_site_occupancy
  P  P0  1  0.00000000  0.00000000  0.00000000  1
  Se  Se1  1  0.50000000  0.50000000  0.50000000  1
  Li  Li2  1  0.25000000  0.25000000  0.25000000  1
  Cu  Cu3  1  0.75000000  0.25000000  0.00000000  1
  Cu  Cu4  1  0.25000000  0.75000000  0.50000000  1
  Cu  Cu5  1  0.16772991  0.23390425  0.63695619  1
