# generated using pymatgen
data_Li2Si4Te3F12
_symmetry_space_group_name_H-M   'P 1'
_cell_length_a   12.82185572
_cell_length_b   12.82185572
_cell_length_c   6.78506415
_cell_angle_alpha   90.00000000
_cell_angle_beta   90.00000000
_cell_angle_gamma   90.00000000
_symmetry_Int_Tables_number   1
_chemical_formula_structural   Li2Si4Te3F12
_chemical_formula_sum   'Li8 Si16 Te12 F48'
_cell_volume   1115.46443804
_cell_formula_units_Z   4
loop_
 _symmetry_equiv_pos_site_id
 _symmetry_equiv_pos_as_xyz
  1  'x, y, z'
loop_
 _atom_site_type_symbol
 _atom_site_label
 _atom_site_symmetry_multiplicity
 _atom_site_fract_x
 _atom_site_fract_y
 _atom_site_fract_z
 _atom_site_occupancy
  F  F0  1  0.70756266  0.78287908  0.04716591  1
  F  F1  1  -0.20756266  -0.78287908  0.54716591  1
  F  F2  1  -0.53287908  1.45756266  0.29716591  1
  F  F3  1  1.03287908  -0.45756266  0.79716591  1
  F  F4  1  -0.20756266  0.78287908  0.45283409  1
  F  F5  1  0.70756266  -0.78287908  -0.04716591  1
  F  F6  1  1.03287908  1.45756266  0.20283409  1
  F  F7  1  -0.53287908  -0.45756266  0.70283409  1
  F  F8  1  -0.70756266  -0.78287908  -0.04716591  1
  F  F9  1  1.20756266  0.78287908  0.45283409  1
  F  F10  1  1.53287908  -0.45756266  0.70283409  1
  F  F11  1  -0.03287908  1.45756266  0.20283409  1
  F  F12  1  1.20756266  -0.78287908  0.54716591  1
  F  F13  1  -0.70756266  0.78287908  0.04716591  1
  F  F14  1  -0.03287908  -0.45756266  0.79716591  1
  F  F15  1  1.53287908  1.45756266  0.29716591  1
  F  F16  1  1.20756266  1.28287908  0.54716591  1
  F  F17  1  0.29243734  -0.28287908  1.04716591  1
  F  F18  1  -0.03287908  1.95756266  0.79716591  1
  F  F19  1  1.53287908  0.04243734  1.29716591  1
  F  F20  1  0.29243734  1.28287908  0.95283409  1
  F  F21  1  1.20756266  -0.28287908  0.45283409  1
  F  F22  1  1.53287908  1.95756266  0.70283409  1
  F  F23  1  -0.03287908  0.04243734  1.20283409  1
  F  F24  1  -0.20756266  -0.28287908  0.45283409  1
  F  F25  1  1.70756266  1.28287908  0.95283409  1
  F  F26  1  2.03287908  0.04243734  1.20283409  1
  F  F27  1  0.46712092  1.95756266  0.70283409  1
  F  F28  1  1.70756266  -0.28287908  1.04716591  1
  F  F29  1  -0.20756266  1.28287908  0.54716591  1
  F  F30  1  0.46712092  0.04243734  1.29716591  1
  F  F31  1  2.03287908  1.95756266  0.79716591  1
  F  F32  1  0.00000000  0.82975375  0.78331891  1
  F  F33  1  0.50000000  0.17024625  0.28331891  1
  F  F34  1  0.42024625  0.75000000  0.03331891  1
  F  F35  1  0.07975375  0.25000000  0.53331891  1
  F  F36  1  0.50000000  0.82975375  0.71668109  1
  F  F37  1  0.00000000  0.17024625  0.21668109  1
  F  F38  1  0.07975375  0.75000000  0.46668109  1
  F  F39  1  0.42024625  0.25000000  0.96668109  1
  F  F40  1  0.50000000  0.32975375  0.28331891  1
  F  F41  1  0.00000000  0.67024625  0.78331891  1
  F  F42  1  0.92024625  0.25000000  0.53331891  1
  F  F43  1  0.57975375  0.75000000  0.03331891  1
  F  F44  1  0.00000000  0.32975375  0.21668109  1
  F  F45  1  0.50000000  0.67024625  0.71668109  1
  F  F46  1  0.57975375  0.25000000  0.96668109  1
  F  F47  1  0.92024625  0.75000000  0.46668109  1
  Li  Li48  1  0.00000000  0.25000000  0.01484495  1
  Li  Li49  1  0.00000000  0.75000000  0.26484495  1
  Li  Li50  1  0.50000000  0.25000000  0.48515505  1
  Li  Li51  1  0.50000000  0.75000000  0.23515505  1
  Li  Li52  1  0.50000000  0.75000000  0.51484495  1
  Li  Li53  1  0.50000000  0.25000000  0.76484495  1
  Li  Li54  1  0.00000000  0.75000000  0.98515505  1
  Li  Li55  1  0.00000000  0.25000000  0.73515505  1
  Si  Si56  1  0.00000000  0.41969590  0.40436047  1
  Si  Si57  1  0.50000000  0.58030410  0.90436047  1
  Si  Si58  1  0.83030410  0.75000000  0.65436047  1
  Si  Si59  1  0.66969590  0.25000000  0.15436047  1
  Si  Si60  1  0.50000000  0.41969590  0.09563953  1
  Si  Si61  1  0.00000000  0.58030410  0.59563953  1
  Si  Si62  1  0.66969590  0.75000000  0.84563953  1
  Si  Si63  1  0.83030410  0.25000000  0.34563953  1
  Si  Si64  1  0.50000000  0.91969590  0.90436047  1
  Si  Si65  1  0.00000000  0.08030410  0.40436047  1
  Si  Si66  1  0.33030410  0.25000000  0.15436047  1
  Si  Si67  1  0.16969590  0.75000000  0.65436047  1
  Si  Si68  1  0.00000000  0.91969590  0.59563953  1
  Si  Si69  1  0.50000000  0.08030410  0.09563953  1
  Si  Si70  1  0.16969590  0.25000000  0.34563953  1
  Si  Si71  1  0.33030410  0.75000000  0.84563953  1
  Te  Te72  1  0.00000000  0.25000000  0.37500000  1
  Te  Te73  1  0.00000000  0.75000000  0.62500000  1
  Te  Te74  1  0.50000000  0.75000000  0.87500000  1
  Te  Te75  1  0.50000000  0.25000000  0.12500000  1
  Te  Te76  1  0.00000000  0.00000000  0.00000000  1
  Te  Te77  1  0.50000000  0.00000000  0.50000000  1
  Te  Te78  1  0.25000000  0.75000000  0.25000000  1
  Te  Te79  1  0.25000000  0.25000000  0.75000000  1
  Te  Te80  1  0.50000000  0.50000000  0.50000000  1
  Te  Te81  1  0.00000000  0.50000000  0.00000000  1
  Te  Te82  1  0.75000000  0.25000000  0.75000000  1
  Te  Te83  1  0.75000000  0.75000000  0.25000000  1
