# generated using pymatgen
data_LiF
_symmetry_space_group_name_H-M   'P 1'
_cell_length_a   13.64728022
_cell_length_b   10.46375568
_cell_length_c   5.70285487
_cell_angle_alpha   90.00000000
_cell_angle_beta   90.00000000
_cell_angle_gamma   90.00000000
_symmetry_Int_Tables_number   1
_chemical_formula_structural   LiF
_chemical_formula_sum   'Li24 F24'
_cell_volume   814.37797484
_cell_formula_units_Z   24
loop_
 _symmetry_equiv_pos_site_id
 _symmetry_equiv_pos_as_xyz
  1  'x, y, z'
loop_
 _atom_site_type_symbol
 _atom_site_label
 _atom_site_symmetry_multiplicity
 _atom_site_fract_x
 _atom_site_fract_y
 _atom_site_fract_z
 _atom_site_occupancy
  F  F0  1  0.59173451  0.69151899  0.79815516  1
  F  F1  1  0.90826549  0.30848101  0.29815516  1
  F  F2  1  0.40826549  0.19151899  0.20184484  1
  F  F3  1  0.09173451  0.80848101  0.70184484  1
  F  F4  1  0.40826549  0.30848101  0.20184484  1
  F  F5  1  0.09173451  0.69151899  0.70184484  1
  F  F6  1  0.59173451  0.80848101  0.79815516  1
  F  F7  1  0.90826549  0.19151899  0.29815516  1
  F  F8  1  0.65539319  0.89001536  0.83703233  1
  F  F9  1  0.84460681  0.10998464  0.33703233  1
  F  F10  1  0.34460681  0.39001536  0.16296767  1
  F  F11  1  0.15539319  0.60998464  0.66296767  1
  F  F12  1  0.34460681  0.10998464  0.16296767  1
  F  F13  1  0.15539319  0.89001536  0.66296767  1
  F  F14  1  0.65539319  0.60998464  0.83703233  1
  F  F15  1  0.84460681  0.39001536  0.33703233  1
  F  F16  1  0.97649780  0.18156645  0.09747683  1
  F  F17  1  0.52350220  0.81843355  0.59747683  1
  F  F18  1  0.02350220  0.68156645  0.90252317  1
  F  F19  1  0.47649780  0.31843355  0.40252317  1
  F  F20  1  0.02350220  0.81843355  0.90252317  1
  F  F21  1  0.47649780  0.18156645  0.40252317  1
  F  F22  1  0.97649780  0.31843355  0.09747683  1
  F  F23  1  0.52350220  0.68156645  0.59747683  1
  Li  Li24  1  0.98790647  0.58233875  0.10873220  1
  Li  Li25  1  -0.48790647  -0.58233875  0.60873220  1
  Li  Li26  1  -0.98790647  1.08233875  -0.10873220  1
  Li  Li27  1  1.48790647  -0.08233875  0.39126780  1
  Li  Li28  1  -0.98790647  -0.58233875  -0.10873220  1
  Li  Li29  1  1.48790647  0.58233875  0.39126780  1
  Li  Li30  1  0.98790647  -0.08233875  0.10873220  1
  Li  Li31  1  -0.48790647  1.08233875  0.60873220  1
  Li  Li32  1  0.05546690  0.02020360  0.20626690  1
  Li  Li33  1  0.44453310  0.97979640  0.70626690  1
  Li  Li34  1  0.94453310  0.52020360  0.79373310  1
  Li  Li35  1  0.55546690  0.47979640  0.29373310  1
  Li  Li36  1  0.94453310  0.97979640  0.79373310  1
  Li  Li37  1  0.55546690  0.02020360  0.29373310  1
  Li  Li38  1  0.05546690  0.47979640  0.20626690  1
  Li  Li39  1  0.44453310  0.52020360  0.70626690  1
  Li  Li40  1  0.71775923  0.25000000  0.28339411  1
  Li  Li41  1  0.78224077  0.75000000  0.78339411  1
  Li  Li42  1  0.28224077  0.75000000  0.71660589  1
  Li  Li43  1  0.21775923  0.25000000  0.21660589  1
  Li  Li44  1  0.00000000  0.00000000  0.50000000  1
  Li  Li45  1  0.50000000  0.00000000  0.00000000  1
  Li  Li46  1  0.00000000  0.50000000  0.50000000  1
  Li  Li47  1  0.50000000  0.50000000  0.00000000  1
