# generated using pymatgen
data_LiF
_symmetry_space_group_name_H-M   'P 1'
_cell_length_a   9.65601570
_cell_length_b   9.65601570
_cell_length_c   13.98553768
_cell_angle_alpha   90.00000000
_cell_angle_beta   90.00000000
_cell_angle_gamma   90.00000000
_symmetry_Int_Tables_number   1
_chemical_formula_structural   LiF
_chemical_formula_sum   'Li34 F34'
_cell_volume   1303.99250173
_cell_formula_units_Z   34
loop_
 _symmetry_equiv_pos_site_id
 _symmetry_equiv_pos_as_xyz
  1  'x, y, z'
loop_
 _atom_site_type_symbol
 _atom_site_label
 _atom_site_symmetry_multiplicity
 _atom_site_fract_x
 _atom_site_fract_y
 _atom_site_fract_z
 _atom_site_occupancy
  F  F0  1  0.54524096  0.77451632  0.59107289  1
  F  F1  1  0.45475904  0.22548368  0.59107289  1
  F  F2  1  0.22548368  0.54524096  0.59107289  1
  F  F3  1  0.77451632  0.45475904  0.59107289  1
  F  F4  1  0.45475904  0.77451632  0.40892711  1
  F  F5  1  0.54524096  0.22548368  0.40892711  1
  F  F6  1  0.77451632  0.54524096  0.40892711  1
  F  F7  1  0.22548368  0.45475904  0.40892711  1
  F  F8  1  0.45475904  0.22548368  0.40892711  1
  F  F9  1  0.54524096  0.77451632  0.40892711  1
  F  F10  1  0.77451632  0.45475904  0.40892711  1
  F  F11  1  0.22548368  0.54524096  0.40892711  1
  F  F12  1  0.54524096  0.22548368  0.59107289  1
  F  F13  1  0.45475904  0.77451632  0.59107289  1
  F  F14  1  0.22548368  0.45475904  0.59107289  1
  F  F15  1  0.77451632  0.54524096  0.59107289  1
  F  F16  1  0.54015055  0.54015055  0.65024213  1
  F  F17  1  0.45984945  0.45984945  0.65024213  1
  F  F18  1  0.45984945  0.54015055  0.65024213  1
  F  F19  1  0.54015055  0.45984945  0.65024213  1
  F  F20  1  0.45984945  0.54015055  0.34975787  1
  F  F21  1  0.54015055  0.45984945  0.34975787  1
  F  F22  1  0.54015055  0.54015055  0.34975787  1
  F  F23  1  0.45984945  0.45984945  0.34975787  1
  F  F24  1  0.43866813  0.87667050  0.00000000  1
  F  F25  1  0.56133187  0.12332950  0.00000000  1
  F  F26  1  0.12332950  0.43866813  0.00000000  1
  F  F27  1  0.87667050  0.56133187  0.00000000  1
  F  F28  1  0.56133187  0.87667050  0.00000000  1
  F  F29  1  0.43866813  0.12332950  0.00000000  1
  F  F30  1  0.87667050  0.43866813  0.00000000  1
  F  F31  1  0.12332950  0.56133187  0.00000000  1
  F  F32  1  0.50000000  0.50000000  0.00000000  1
  F  F33  1  0.00000000  0.00000000  0.00000000  1
  Li  Li34  1  0.50000000  0.50000000  0.50000000  1
  Li  Li35  1  0.10335497  -0.00000000  0.85169969  1
  Li  Li36  1  0.89664503  0.00000000  0.85169969  1
  Li  Li37  1  0.00000000  0.10335497  0.85169969  1
  Li  Li38  1  0.00000000  0.89664503  0.85169969  1
  Li  Li39  1  0.89664503  0.00000000  0.14830031  1
  Li  Li40  1  0.10335497  -0.00000000  0.14830031  1
  Li  Li41  1  0.00000000  0.10335497  0.14830031  1
  Li  Li42  1  0.00000000  0.89664503  0.14830031  1
  Li  Li43  1  0.73868502  0.35696875  0.76986978  1
  Li  Li44  1  -0.73868502  -0.35696875  0.76986978  1
  Li  Li45  1  -0.35696875  0.73868502  0.76986978  1
  Li  Li46  1  0.35696875  -0.73868502  0.76986978  1
  Li  Li47  1  -0.73868502  0.35696875  -0.76986978  1
  Li  Li48  1  0.73868502  -0.35696875  -0.76986978  1
  Li  Li49  1  0.35696875  0.73868502  -0.76986978  1
  Li  Li50  1  -0.35696875  -0.73868502  -0.76986978  1
  Li  Li51  1  -0.73868502  -0.35696875  -0.76986978  1
  Li  Li52  1  0.73868502  0.35696875  -0.76986978  1
  Li  Li53  1  0.35696875  -0.73868502  -0.76986978  1
  Li  Li54  1  -0.35696875  0.73868502  -0.76986978  1
  Li  Li55  1  0.73868502  -0.35696875  0.76986978  1
  Li  Li56  1  -0.73868502  0.35696875  0.76986978  1
  Li  Li57  1  -0.35696875  -0.73868502  0.76986978  1
  Li  Li58  1  0.35696875  0.73868502  0.76986978  1
  Li  Li59  1  0.64366719  0.25255435  0.00000000  1
  Li  Li60  1  0.35633281  0.74744565  0.00000000  1
  Li  Li61  1  0.74744565  0.64366719  0.00000000  1
  Li  Li62  1  0.25255435  0.35633281  0.00000000  1
  Li  Li63  1  0.35633281  0.25255435  0.00000000  1
  Li  Li64  1  0.64366719  0.74744565  0.00000000  1
  Li  Li65  1  0.25255435  0.64366719  0.00000000  1
  Li  Li66  1  0.74744565  0.35633281  0.00000000  1
  Li  Li67  1  0.00000000  0.00000000  0.50000000  1
