# generated using pymatgen
data_LiF
_symmetry_space_group_name_H-M   'P 1'
_cell_length_a   5.16177179
_cell_length_b   4.21367475
_cell_length_c   15.64511217
_cell_angle_alpha   90.00000000
_cell_angle_beta   90.00000000
_cell_angle_gamma   90.00000000
_symmetry_Int_Tables_number   1
_chemical_formula_structural   LiF
_chemical_formula_sum   'Li16 F16'
_cell_volume   340.28161902
_cell_formula_units_Z   16
loop_
 _symmetry_equiv_pos_site_id
 _symmetry_equiv_pos_as_xyz
  1  'x, y, z'
loop_
 _atom_site_type_symbol
 _atom_site_label
 _atom_site_symmetry_multiplicity
 _atom_site_fract_x
 _atom_site_fract_y
 _atom_site_fract_z
 _atom_site_occupancy
  F  F0  1  0.15125344  0.62258677  0.85991091  1
  F  F1  1  0.34874656  0.37741323  0.35991091  1
  F  F2  1  0.84874656  0.12258677  0.14008909  1
  F  F3  1  0.65125344  0.87741323  0.64008909  1
  F  F4  1  0.84874656  0.37741323  0.14008909  1
  F  F5  1  0.65125344  0.62258677  0.64008909  1
  F  F6  1  0.15125344  0.87741323  0.85991091  1
  F  F7  1  0.34874656  0.12258677  0.35991091  1
  F  F8  1  0.27623851  0.25000000  0.64454638  1
  F  F9  1  0.22376149  0.75000000  0.14454638  1
  F  F10  1  0.72376149  0.75000000  0.35545362  1
  F  F11  1  0.77623851  0.25000000  0.85545362  1
  F  F12  1  0.00000000  0.00000000  0.50000000  1
  F  F13  1  0.50000000  0.00000000  0.00000000  1
  F  F14  1  0.00000000  0.50000000  0.50000000  1
  F  F15  1  0.50000000  0.50000000  -0.00000000  1
  Li  Li16  1  0.97758856  0.25000000  0.08550857  1
  Li  Li17  1  0.52241144  0.75000000  0.58550857  1
  Li  Li18  1  0.02241144  0.75000000  0.91449143  1
  Li  Li19  1  0.47758856  0.25000000  0.41449143  1
  Li  Li20  1  0.16424793  0.25000000  0.30588374  1
  Li  Li21  1  0.33575207  0.75000000  0.80588374  1
  Li  Li22  1  0.83575207  0.75000000  0.69411626  1
  Li  Li23  1  0.66424793  0.25000000  0.19411626  1
  Li  Li24  1  0.85928918  0.01068586  0.61683040  1
  Li  Li25  1  -0.35928918  -0.01068586  1.11683040  1
  Li  Li26  1  -0.85928918  0.51068586  -0.61683040  1
  Li  Li27  1  1.35928918  0.48931414  -0.11683040  1
  Li  Li28  1  -0.85928918  -0.01068586  -0.61683040  1
  Li  Li29  1  1.35928918  0.01068586  -0.11683040  1
  Li  Li30  1  0.85928918  0.48931414  0.61683040  1
  Li  Li31  1  -0.35928918  0.51068586  1.11683040  1
