# generated using pymatgen
data_Li2YAs2P3Pb2
_symmetry_space_group_name_H-M   'P 1'
_cell_length_a   5.44732417
_cell_length_b   5.42610478
_cell_length_c   7.21572918
_cell_angle_alpha   94.83793366
_cell_angle_beta   99.96676492
_cell_angle_gamma   106.66569199
_symmetry_Int_Tables_number   1
_chemical_formula_structural   Li2YAs2P3Pb2
_chemical_formula_sum   'Li2 Y1 As2 P3 Pb2'
_cell_volume   199.19922779
_cell_formula_units_Z   1
loop_
 _symmetry_equiv_pos_site_id
 _symmetry_equiv_pos_as_xyz
  1  'x, y, z'
loop_
 _atom_site_type_symbol
 _atom_site_label
 _atom_site_symmetry_multiplicity
 _atom_site_fract_x
 _atom_site_fract_y
 _atom_site_fract_z
 _atom_site_occupancy
  Pb  Pb0  1  0.00000000  0.00000000  0.00000000  1
  Pb  Pb1  1  0.50000000  0.50000000  0.50000000  1
  P  P2  1  0.25000000  0.25000000  0.25000000  1
  P  P3  1  0.75000000  0.25000000  0.00000000  1
  P  P4  1  0.25000000  0.75000000  0.50000000  1
  As  As5  1  0.60506292  0.71682534  0.87874631  1
  As  As6  1  0.41911630  0.60341027  0.97518210  1
  Li  Li7  1  0.89784994  0.46408245  0.19079997  1
  Li  Li8  1  0.08674893  0.08417818  0.66451364  1
  Y  Y9  1  0.90340716  0.10652107  0.64078889  1
