# generated using pymatgen
data_Li3Y2P3Se2
_symmetry_space_group_name_H-M   'P 1'
_cell_length_a   5.10325251
_cell_length_b   5.42459069
_cell_length_c   7.20640946
_cell_angle_alpha   94.58396744
_cell_angle_beta   99.98292810
_cell_angle_gamma   108.41197535
_symmetry_Int_Tables_number   1
_chemical_formula_structural   Li3Y2P3Se2
_chemical_formula_sum   'Li3 Y2 P3 Se2'
_cell_volume   184.47121558
_cell_formula_units_Z   1
loop_
 _symmetry_equiv_pos_site_id
 _symmetry_equiv_pos_as_xyz
  1  'x, y, z'
loop_
 _atom_site_type_symbol
 _atom_site_label
 _atom_site_symmetry_multiplicity
 _atom_site_fract_x
 _atom_site_fract_y
 _atom_site_fract_z
 _atom_site_occupancy
  Se  Se0  1  0.00000000  0.00000000  0.00000000  1
  Se  Se1  1  0.33300000  0.66700000  0.25000000  1
  P  P2  1  0.66700000  0.33300000  0.50000000  1
  P  P3  1  0.00000000  0.00000000  0.75000000  1
  P  P4  1  0.44780099  0.38473392  0.62082913  1
  Li  Li5  1  0.33072075  0.61037281  0.70771056  1
  Li  Li6  1  0.87775810  0.04047741  0.63244840  1
  Li  Li7  1  0.43620038  0.92094668  0.70681715  1
  Y  Y8  1  0.61000632  0.71646683  0.28196226  1
  Y  Y9  1  0.60287127  0.95584710  0.01664398  1
