# generated using pymatgen
data_LiF
_symmetry_space_group_name_H-M   'P 1'
_cell_length_a   8.79677387
_cell_length_b   8.79677387
_cell_length_c   13.27160075
_cell_angle_alpha   90.00000000
_cell_angle_beta   90.00000000
_cell_angle_gamma   120.00000000
_symmetry_Int_Tables_number   1
_chemical_formula_structural   LiF
_chemical_formula_sum   'Li33 F33'
_cell_volume   889.40751899
_cell_formula_units_Z   33
loop_
 _symmetry_equiv_pos_site_id
 _symmetry_equiv_pos_as_xyz
  1  'x, y, z'
loop_
 _atom_site_type_symbol
 _atom_site_label
 _atom_site_symmetry_multiplicity
 _atom_site_fract_x
 _atom_site_fract_y
 _atom_site_fract_z
 _atom_site_occupancy
  F  F0  1  0.64705457  0.63466320  0.70638094  1
  F  F1  1  0.36533680  0.01239137  0.70638094  1
  F  F2  1  0.98760863  0.35294543  0.70638094  1
  F  F3  1  0.36533680  0.35294543  0.29361906  1
  F  F4  1  0.98760863  0.63466320  0.29361906  1
  F  F5  1  0.64705457  0.01239137  0.29361906  1
  F  F6  1  0.03886833  0.16837462  0.31252414  1
  F  F7  1  0.83162538  0.87049372  0.31252414  1
  F  F8  1  0.12950628  0.96113167  0.31252414  1
  F  F9  1  0.83162538  0.96113167  0.68747586  1
  F  F10  1  0.12950628  0.16837462  0.68747586  1
  F  F11  1  0.03886833  0.87049372  0.68747586  1
  F  F12  1  0.32100126  0.48927880  0.78568852  1
  F  F13  1  0.51072120  0.83172246  0.78568852  1
  F  F14  1  0.16827754  0.67899874  0.78568852  1
  F  F15  1  0.51072120  0.67899874  0.21431148  1
  F  F16  1  0.16827754  0.48927880  0.21431148  1
  F  F17  1  0.32100126  0.83172246  0.21431148  1
  F  F18  1  0.89625516  0.05242225  0.61320336  1
  F  F19  1  0.94757775  0.84383291  0.61320336  1
  F  F20  1  0.15616709  0.10374484  0.61320336  1
  F  F21  1  0.94757775  0.10374484  0.38679664  1
  F  F22  1  0.15616709  0.05242225  0.38679664  1
  F  F23  1  0.89625516  0.84383291  0.38679664  1
  F  F24  1  0.57579893  0.29692210  0.56848967  1
  F  F25  1  0.70307790  0.27887683  0.56848967  1
  F  F26  1  0.72112317  0.42420107  0.56848967  1
  F  F27  1  0.70307790  0.42420107  0.43151033  1
  F  F28  1  0.72112317  0.29692210  0.43151033  1
  F  F29  1  0.57579893  0.27887683  0.43151033  1
  F  F30  1  0.66666667  0.33333333  0.50000000  1
  F  F31  1  0.33333333  0.66666667  0.83136608  1
  F  F32  1  0.33333333  0.66666667  0.16863392  1
  Li  Li33  1  0.70258050  0.85643637  0.58743886  1
  Li  Li34  1  -0.85643637  -0.15385586  0.58743886  1
  Li  Li35  1  0.15385586  -0.70258050  0.58743886  1
  Li  Li36  1  -0.85643637  -0.70258050  -0.58743886  1
  Li  Li37  1  0.15385586  0.85643637  -0.58743886  1
  Li  Li38  1  0.70258050  -0.15385586  -0.58743886  1
  Li  Li39  1  0.39817683  0.18102207  0.05065059  1
  Li  Li40  1  0.81897793  0.21715476  0.05065059  1
  Li  Li41  1  0.78284524  0.60182317  0.05065059  1
  Li  Li42  1  0.81897793  0.60182317  0.94934941  1
  Li  Li43  1  0.78284524  0.18102207  0.94934941  1
  Li  Li44  1  0.39817683  0.21715476  0.94934941  1
  Li  Li45  1  0.93120103  0.06879897  0.00000000  1
  Li  Li46  1  0.93120103  0.86240206  0.00000000  1
  Li  Li47  1  0.13759794  0.06879897  -0.00000000  1
  Li  Li48  1  0.94472081  0.05527919  0.50000000  1
  Li  Li49  1  0.94472081  0.88944162  0.50000000  1
  Li  Li50  1  0.11055838  0.05527919  0.50000000  1
  Li  Li51  1  0.57511798  0.42488202  0.50000000  1
  Li  Li52  1  0.57511798  0.15023595  0.50000000  1
  Li  Li53  1  0.84976405  0.42488202  0.50000000  1
  Li  Li54  1  0.96055366  0.26231601  0.13039425  1
  Li  Li55  1  0.73768399  0.69823765  0.13039425  1
  Li  Li56  1  0.30176235  0.03944634  0.13039425  1
  Li  Li57  1  0.73768399  0.03944634  0.86960575  1
  Li  Li58  1  0.30176235  0.26231601  0.86960575  1
  Li  Li59  1  0.96055366  0.69823765  0.86960575  1
  Li  Li60  1  0.12835597  0.87164403  0.00000000  1
  Li  Li61  1  0.12835597  0.25671194  0.00000000  1
  Li  Li62  1  0.74328806  0.87164403  0.00000000  1
  Li  Li63  1  0.42347269  0.57652731  0.00000000  1
  Li  Li64  1  0.42347269  0.84694538  -0.00000000  1
  Li  Li65  1  0.15305462  0.57652731  0.00000000  1
