# generated using pymatgen
data_Li2Y2MoP3
_symmetry_space_group_name_H-M   'P 1'
_cell_length_a   4.44291474
_cell_length_b   4.74134001
_cell_length_c   6.95688005
_cell_angle_alpha   95.73944184
_cell_angle_beta   102.49931112
_cell_angle_gamma   113.05305678
_symmetry_Int_Tables_number   1
_chemical_formula_structural   Li2Y2MoP3
_chemical_formula_sum   'Li2 Y2 Mo1 P3'
_cell_volume   128.83586003
_cell_formula_units_Z   1
loop_
 _symmetry_equiv_pos_site_id
 _symmetry_equiv_pos_as_xyz
  1  'x, y, z'
loop_
 _atom_site_type_symbol
 _atom_site_label
 _atom_site_symmetry_multiplicity
 _atom_site_fract_x
 _atom_site_fract_y
 _atom_site_fract_z
 _atom_site_occupancy
  Y  Y0  1  0.12500000  0.12500000  0.12500000  1
  Y  Y1  1  0.50000000  0.50000000  0.50000000  1
  P  P2  1  0.25000000  0.25000000  0.25000000  1
  P  P3  1  0.75000000  0.75000000  0.75000000  1
  P  P4  1  0.42350705  0.27474416  0.98186812  1
  Mo  Mo5  1  0.70180774  0.00362596  0.38654186  1
  Li  Li6  1  0.01555332  0.78235182  0.71513340  1
  Li  Li7  1  0.30046863  0.91971286  0.72740305  1
