# generated using pymatgen
data_Li2Y2As2P3Se
_symmetry_space_group_name_H-M   'P 1'
_cell_length_a   3.88391635
_cell_length_b   4.15255156
_cell_length_c   6.53854965
_cell_angle_alpha   96.47999048
_cell_angle_beta   103.64714449
_cell_angle_gamma   114.54418823
_symmetry_Int_Tables_number   1
_chemical_formula_structural   Li2Y2As2P3Se
_chemical_formula_sum   'Li2 Y2 As2 P3 Se1'
_cell_volume   90.52667037
_cell_formula_units_Z   1
loop_
 _symmetry_equiv_pos_site_id
 _symmetry_equiv_pos_as_xyz
  1  'x, y, z'
loop_
 _atom_site_type_symbol
 _atom_site_label
 _atom_site_symmetry_multiplicity
 _atom_site_fract_x
 _atom_site_fract_y
 _atom_site_fract_z
 _atom_site_occupancy
  Y  Y0  1  0.12500000  0.00000000  0.25000000  1
  Y  Y1  1  0.00000000  0.00000000  0.00000000  1
  P  P2  1  0.37500000  0.00000000  0.25000000  1
  P  P3  1  0.25000000  0.25000000  0.25000000  1
  P  P4  1  0.00000000  0.25000000  0.12500000  1
  Se  Se5  1  0.31966186  0.26424105  0.10585260  1
  As  As6  1  0.37608168  0.96216030  0.72545317  1
  As  As7  1  0.76865358  0.88630714  0.42133580  1
  Li  Li8  1  0.35452201  0.97519663  0.73520528  1
  Li  Li9  1  0.62840049  0.02565590  0.21965999  1
