# generated using pymatgen
data_LiF
_symmetry_space_group_name_H-M   'P 1'
_cell_length_a   9.88214928
_cell_length_b   9.88214928
_cell_length_c   7.40825111
_cell_angle_alpha   90.00000000
_cell_angle_beta   90.00000000
_cell_angle_gamma   120.00000000
_symmetry_Int_Tables_number   1
_chemical_formula_structural   LiF
_chemical_formula_sum   'Li17 F17'
_cell_volume   626.54049615
_cell_formula_units_Z   17
loop_
 _symmetry_equiv_pos_site_id
 _symmetry_equiv_pos_as_xyz
  1  'x, y, z'
loop_
 _atom_site_type_symbol
 _atom_site_label
 _atom_site_symmetry_multiplicity
 _atom_site_fract_x
 _atom_site_fract_y
 _atom_site_fract_z
 _atom_site_occupancy
  F  F0  1  0.37073098  0.49543772  0.64486827  1
  F  F1  1  0.50456228  0.87529327  0.64486827  1
  F  F2  1  0.12470673  0.62926902  0.64486827  1
  F  F3  1  0.50456228  0.62926902  0.35513173  1
  F  F4  1  0.12470673  0.49543772  0.35513173  1
  F  F5  1  0.37073098  0.87529327  0.35513173  1
  F  F6  1  0.94871747  0.47464552  0.59570485  1
  F  F7  1  0.52535448  0.47407195  0.59570485  1
  F  F8  1  0.52592805  0.05128253  0.59570485  1
  F  F9  1  0.52535448  0.05128253  0.40429515  1
  F  F10  1  0.52592805  0.47464552  0.40429515  1
  F  F11  1  0.94871747  0.47407195  0.40429515  1
  F  F12  1  0.07158967  0.92841033  0.50000000  1
  F  F13  1  0.07158967  0.14317935  0.50000000  1
  F  F14  1  0.85682065  0.92841033  0.50000000  1
  F  F15  1  0.33333333  0.66666667  0.08210295  1
  F  F16  1  0.33333333  0.66666667  0.91789705  1
  Li  Li17  1  0.80504919  0.00572117  0.98617618  1
  Li  Li18  1  -0.00572117  0.79932802  0.98617618  1
  Li  Li19  1  -0.79932802  -0.80504919  0.98617618  1
  Li  Li20  1  -0.00572117  -0.80504919  -0.98617618  1
  Li  Li21  1  -0.79932802  0.00572117  -0.98617618  1
  Li  Li22  1  0.80504919  0.79932802  -0.98617618  1
  Li  Li23  1  0.66666667  0.33333333  0.00000000  1
  Li  Li24  1  0.89833249  0.56736229  0.04037092  1
  Li  Li25  1  0.43263771  0.33097020  0.04037092  1
  Li  Li26  1  0.66902980  0.10166751  0.04037092  1
  Li  Li27  1  0.43263771  0.10166751  0.95962908  1
  Li  Li28  1  0.66902980  0.56736229  0.95962908  1
  Li  Li29  1  0.89833249  0.33097020  0.95962908  1
  Li  Li30  1  0.33333333  0.66666667  0.50000000  1
  Li  Li31  1  0.00000000  0.00000000  0.50000000  1
  Li  Li32  1  0.00000000  0.00000000  0.88846700  1
  Li  Li33  1  0.00000000  0.00000000  0.11153300  1
