# generated using pymatgen
data_Li4TeF2
_symmetry_space_group_name_H-M   'P 1'
_cell_length_a   15.10758825
_cell_length_b   15.10758825
_cell_length_c   15.10758825
_cell_angle_alpha   90.00000000
_cell_angle_beta   90.00000000
_cell_angle_gamma   90.00000000
_symmetry_Int_Tables_number   1
_chemical_formula_structural   Li4TeF2
_chemical_formula_sum   'Li96 Te24 F48'
_cell_volume   3448.14419884
_cell_formula_units_Z   24
loop_
 _symmetry_equiv_pos_site_id
 _symmetry_equiv_pos_as_xyz
  1  'x, y, z'
loop_
 _atom_site_type_symbol
 _atom_site_label
 _atom_site_symmetry_multiplicity
 _atom_site_fract_x
 _atom_site_fract_y
 _atom_site_fract_z
 _atom_site_occupancy
  F  F0  1  0.53590112  0.53590112  0.53590112  1
  F  F1  1  0.96409888  0.46409888  0.03590112  1
  F  F2  1  0.46409888  0.03590112  0.96409888  1
  F  F3  1  0.03590112  0.96409888  0.46409888  1
  F  F4  1  0.28590112  0.78590112  0.71409888  1
  F  F5  1  0.21409888  0.21409888  0.21409888  1
  F  F6  1  0.78590112  0.71409888  0.28590112  1
  F  F7  1  0.71409888  0.28590112  0.78590112  1
  F  F8  1  0.03590112  0.03590112  0.03590112  1
  F  F9  1  0.46409888  0.96409888  0.53590112  1
  F  F10  1  0.96409888  0.53590112  0.46409888  1
  F  F11  1  0.53590112  0.46409888  0.96409888  1
  F  F12  1  0.78590112  0.28590112  0.21409888  1
  F  F13  1  0.71409888  0.71409888  0.71409888  1
  F  F14  1  0.28590112  0.21409888  0.78590112  1
  F  F15  1  0.21409888  0.78590112  0.28590112  1
  F  F16  1  0.12500000  0.90953204  0.34046796  1
  F  F17  1  0.37500000  0.09046796  0.84046796  1
  F  F18  1  0.87500000  0.40953204  0.15953204  1
  F  F19  1  0.62500000  0.59046796  0.65953204  1
  F  F20  1  0.34046796  0.12500000  0.90953204  1
  F  F21  1  0.84046796  0.37500000  0.09046796  1
  F  F22  1  0.15953204  0.87500000  0.40953204  1
  F  F23  1  0.65953204  0.62500000  0.59046796  1
  F  F24  1  0.90953204  0.34046796  0.12500000  1
  F  F25  1  0.09046796  0.84046796  0.37500000  1
  F  F26  1  0.40953204  0.15953204  0.87500000  1
  F  F27  1  0.59046796  0.65953204  0.62500000  1
  F  F28  1  0.62500000  0.40953204  0.84046796  1
  F  F29  1  0.87500000  0.59046796  0.34046796  1
  F  F30  1  0.37500000  0.90953204  0.65953204  1
  F  F31  1  0.12500000  0.09046796  0.15953204  1
  F  F32  1  0.84046796  0.62500000  0.40953204  1
  F  F33  1  0.34046796  0.87500000  0.59046796  1
  F  F34  1  0.65953204  0.37500000  0.90953204  1
  F  F35  1  0.15953204  0.12500000  0.09046796  1
  F  F36  1  0.40953204  0.84046796  0.62500000  1
  F  F37  1  0.59046796  0.34046796  0.87500000  1
  F  F38  1  0.90953204  0.65953204  0.37500000  1
  F  F39  1  0.09046796  0.15953204  0.12500000  1
  F  F40  1  0.12500000  0.12500000  0.12500000  1
  F  F41  1  0.37500000  0.87500000  0.62500000  1
  F  F42  1  0.87500000  0.62500000  0.37500000  1
  F  F43  1  0.62500000  0.37500000  0.87500000  1
  F  F44  1  0.62500000  0.62500000  0.62500000  1
  F  F45  1  0.87500000  0.37500000  0.12500000  1
  F  F46  1  0.37500000  0.12500000  0.87500000  1
  F  F47  1  0.12500000  0.87500000  0.37500000  1
  Li  Li48  1  0.53840818  0.15129250  0.79426487  1
  Li  Li49  1  -0.03840818  -0.15129250  1.29426487  1
  Li  Li50  1  -0.53840818  0.65129250  -0.29426487  1
  Li  Li51  1  1.03840818  0.34870750  -0.79426487  1
  Li  Li52  1  0.79426487  0.53840818  0.15129250  1
  Li  Li53  1  1.29426487  -0.03840818  -0.15129250  1
  Li  Li54  1  -0.29426487  -0.53840818  0.65129250  1
  Li  Li55  1  -0.79426487  1.03840818  0.34870750  1
  Li  Li56  1  0.15129250  0.79426487  0.53840818  1
  Li  Li57  1  -0.15129250  1.29426487  -0.03840818  1
  Li  Li58  1  0.65129250  -0.29426487  -0.53840818  1
  Li  Li59  1  0.34870750  -0.79426487  1.03840818  1
  Li  Li60  1  0.90129250  0.78840818  -0.54426487  1
  Li  Li61  1  0.59870750  0.21159182  -0.04426487  1
  Li  Li62  1  0.40129250  -0.28840818  1.54426487  1
  Li  Li63  1  0.09870750  1.28840818  1.04426487  1
  Li  Li64  1  1.28840818  1.04426487  0.09870750  1
  Li  Li65  1  -0.28840818  1.54426487  0.40129250  1
  Li  Li66  1  0.21159182  -0.04426487  0.59870750  1
  Li  Li67  1  0.78840818  -0.54426487  0.90129250  1
  Li  Li68  1  1.54426487  0.40129250  -0.28840818  1
  Li  Li69  1  1.04426487  0.09870750  1.28840818  1
  Li  Li70  1  -0.54426487  0.90129250  0.78840818  1
  Li  Li71  1  -0.04426487  0.59870750  0.21159182  1
  Li  Li72  1  1.03840818  0.65129250  1.29426487  1
  Li  Li73  1  0.46159182  0.34870750  1.79426487  1
  Li  Li74  1  -0.03840818  1.15129250  0.20573513  1
  Li  Li75  1  1.53840818  0.84870750  -0.29426487  1
  Li  Li76  1  1.29426487  1.03840818  0.65129250  1
  Li  Li77  1  1.79426487  0.46159182  0.34870750  1
  Li  Li78  1  0.20573513  -0.03840818  1.15129250  1
  Li  Li79  1  -0.29426487  1.53840818  0.84870750  1
  Li  Li80  1  0.65129250  1.29426487  1.03840818  1
  Li  Li81  1  0.34870750  1.79426487  0.46159182  1
  Li  Li82  1  1.15129250  0.20573513  -0.03840818  1
  Li  Li83  1  0.84870750  -0.29426487  1.53840818  1
  Li  Li84  1  1.40129250  1.28840818  -0.04426487  1
  Li  Li85  1  1.09870750  0.71159182  0.45573513  1
  Li  Li86  1  0.90129250  0.21159182  2.04426487  1
  Li  Li87  1  0.59870750  1.78840818  1.54426487  1
  Li  Li88  1  1.78840818  1.54426487  0.59870750  1
  Li  Li89  1  0.21159182  2.04426487  0.90129250  1
  Li  Li90  1  0.71159182  0.45573513  1.09870750  1
  Li  Li91  1  1.28840818  -0.04426487  1.40129250  1
  Li  Li92  1  2.04426487  0.90129250  0.21159182  1
  Li  Li93  1  1.54426487  0.59870750  1.78840818  1
  Li  Li94  1  -0.04426487  1.40129250  1.28840818  1
  Li  Li95  1  0.45573513  1.09870750  0.71159182  1
  Li  Li96  1  0.12500000  0.31384100  0.56384100  1
  Li  Li97  1  0.37500000  0.68615900  0.06384100  1
  Li  Li98  1  0.87500000  0.81384100  0.93615900  1
  Li  Li99  1  0.62500000  0.18615900  0.43615900  1
  Li  Li100  1  0.56384100  0.12500000  0.31384100  1
  Li  Li101  1  0.06384100  0.37500000  0.68615900  1
  Li  Li102  1  0.93615900  0.87500000  0.81384100  1
  Li  Li103  1  0.43615900  0.62500000  0.18615900  1
  Li  Li104  1  0.31384100  0.56384100  0.12500000  1
  Li  Li105  1  0.68615900  0.06384100  0.37500000  1
  Li  Li106  1  0.81384100  0.93615900  0.87500000  1
  Li  Li107  1  0.18615900  0.43615900  0.62500000  1
  Li  Li108  1  0.62500000  0.81384100  0.06384100  1
  Li  Li109  1  0.87500000  0.18615900  0.56384100  1
  Li  Li110  1  0.37500000  0.31384100  0.43615900  1
  Li  Li111  1  0.12500000  0.68615900  0.93615900  1
  Li  Li112  1  0.06384100  0.62500000  0.81384100  1
  Li  Li113  1  0.56384100  0.87500000  0.18615900  1
  Li  Li114  1  0.43615900  0.37500000  0.31384100  1
  Li  Li115  1  0.93615900  0.12500000  0.68615900  1
  Li  Li116  1  0.81384100  0.06384100  0.62500000  1
  Li  Li117  1  0.18615900  0.56384100  0.87500000  1
  Li  Li118  1  0.31384100  0.43615900  0.37500000  1
  Li  Li119  1  0.68615900  0.93615900  0.12500000  1
  Li  Li120  1  0.12500000  0.19131798  0.05868202  1
  Li  Li121  1  0.37500000  0.80868202  0.55868202  1
  Li  Li122  1  0.87500000  0.69131798  0.44131798  1
  Li  Li123  1  0.62500000  0.30868202  0.94131798  1
  Li  Li124  1  0.05868202  0.12500000  0.19131798  1
  Li  Li125  1  0.55868202  0.37500000  0.80868202  1
  Li  Li126  1  0.44131798  0.87500000  0.69131798  1
  Li  Li127  1  0.94131798  0.62500000  0.30868202  1
  Li  Li128  1  0.19131798  0.05868202  0.12500000  1
  Li  Li129  1  0.80868202  0.55868202  0.37500000  1
  Li  Li130  1  0.69131798  0.44131798  0.87500000  1
  Li  Li131  1  0.30868202  0.94131798  0.62500000  1
  Li  Li132  1  0.62500000  0.69131798  0.55868202  1
  Li  Li133  1  0.87500000  0.30868202  0.05868202  1
  Li  Li134  1  0.37500000  0.19131798  0.94131798  1
  Li  Li135  1  0.12500000  0.80868202  0.44131798  1
  Li  Li136  1  0.55868202  0.62500000  0.69131798  1
  Li  Li137  1  0.05868202  0.87500000  0.30868202  1
  Li  Li138  1  0.94131798  0.37500000  0.19131798  1
  Li  Li139  1  0.44131798  0.12500000  0.80868202  1
  Li  Li140  1  0.69131798  0.55868202  0.62500000  1
  Li  Li141  1  0.30868202  0.05868202  0.87500000  1
  Li  Li142  1  0.19131798  0.94131798  0.37500000  1
  Li  Li143  1  0.80868202  0.44131798  0.12500000  1
  Te  Te144  1  0.38839060  0.00000000  0.25000000  1
  Te  Te145  1  0.11160940  0.00000000  0.75000000  1
  Te  Te146  1  0.25000000  0.38839060  0.00000000  1
  Te  Te147  1  0.75000000  0.11160940  0.00000000  1
  Te  Te148  1  0.00000000  0.25000000  0.38839060  1
  Te  Te149  1  0.00000000  0.75000000  0.11160940  1
  Te  Te150  1  0.75000000  0.63839060  0.00000000  1
  Te  Te151  1  0.75000000  0.36160940  0.50000000  1
  Te  Te152  1  0.13839060  0.50000000  0.25000000  1
  Te  Te153  1  0.86160940  0.00000000  0.25000000  1
  Te  Te154  1  0.00000000  0.25000000  0.86160940  1
  Te  Te155  1  0.50000000  0.25000000  0.13839060  1
  Te  Te156  1  0.88839060  0.50000000  0.75000000  1
  Te  Te157  1  0.61160940  0.50000000  0.25000000  1
  Te  Te158  1  0.75000000  0.88839060  0.50000000  1
  Te  Te159  1  0.25000000  0.61160940  0.50000000  1
  Te  Te160  1  0.50000000  0.75000000  0.88839060  1
  Te  Te161  1  0.50000000  0.25000000  0.61160940  1
  Te  Te162  1  0.25000000  0.13839060  0.50000000  1
  Te  Te163  1  0.25000000  0.86160940  -0.00000000  1
  Te  Te164  1  0.63839060  0.00000000  0.75000000  1
  Te  Te165  1  0.36160940  0.50000000  0.75000000  1
  Te  Te166  1  0.50000000  0.75000000  0.36160940  1
  Te  Te167  1  0.00000000  0.75000000  0.63839060  1
