# generated using pymatgen
data_Li2YP3Pb2Se
_symmetry_space_group_name_H-M   'P 1'
_cell_length_a   5.77390022
_cell_length_b   5.87729599
_cell_length_c   7.19468508
_cell_angle_alpha   93.95046435
_cell_angle_beta   96.89759260
_cell_angle_gamma   101.36853639
_symmetry_Int_Tables_number   1
_chemical_formula_structural   Li2YP3Pb2Se
_chemical_formula_sum   'Li2 Y1 P3 Pb2 Se1'
_cell_volume   236.55114058
_cell_formula_units_Z   1
loop_
 _symmetry_equiv_pos_site_id
 _symmetry_equiv_pos_as_xyz
  1  'x, y, z'
loop_
 _atom_site_type_symbol
 _atom_site_label
 _atom_site_symmetry_multiplicity
 _atom_site_fract_x
 _atom_site_fract_y
 _atom_site_fract_z
 _atom_site_occupancy
  Se  Se0  1  0.00000000  0.00000000  0.00000000  1
  Pb  Pb1  1  0.50000000  0.50000000  0.50000000  1
  Pb  Pb2  1  0.50000000  0.50000000  0.00000000  1
  P  P3  1  0.50000000  0.00000000  0.50000000  1
  P  P4  1  0.00000000  0.50000000  0.50000000  1
  P  P5  1  0.80524751  0.49043849  0.34296439  1
  Li  Li6  1  0.20984943  0.69570019  0.38375523  1
  Li  Li7  1  0.59235872  0.68471194  0.69175400  1
  Y  Y8  1  0.17188446  0.35751439  0.52463486  1
