# generated using pymatgen
data_LiF
_symmetry_space_group_name_H-M   'P 1'
_cell_length_a   13.98417584
_cell_length_b   5.96146504
_cell_length_c   6.85416031
_cell_angle_alpha   90.00000000
_cell_angle_beta   90.00000000
_cell_angle_gamma   90.00000000
_symmetry_Int_Tables_number   1
_chemical_formula_structural   LiF
_chemical_formula_sum   'Li24 F24'
_cell_volume   571.40513109
_cell_formula_units_Z   24
loop_
 _symmetry_equiv_pos_site_id
 _symmetry_equiv_pos_as_xyz
  1  'x, y, z'
loop_
 _atom_site_type_symbol
 _atom_site_label
 _atom_site_symmetry_multiplicity
 _atom_site_fract_x
 _atom_site_fract_y
 _atom_site_fract_z
 _atom_site_occupancy
  F  F0  1  0.06774003  0.01409203  0.37073715  1
  F  F1  1  0.43225997  0.98590797  0.87073715  1
  F  F2  1  0.93225997  0.51409203  0.62926285  1
  F  F3  1  0.56774003  0.48590797  0.12926285  1
  F  F4  1  0.93225997  0.98590797  0.62926285  1
  F  F5  1  0.56774003  0.01409203  0.12926285  1
  F  F6  1  0.06774003  0.48590797  0.37073715  1
  F  F7  1  0.43225997  0.51409203  0.87073715  1
  F  F8  1  0.46921562  0.81745093  0.28102313  1
  F  F9  1  0.03078438  0.18254907  0.78102313  1
  F  F10  1  0.53078438  0.31745093  0.71897687  1
  F  F11  1  0.96921562  0.68254907  0.21897687  1
  F  F12  1  0.53078438  0.18254907  0.71897687  1
  F  F13  1  0.96921562  0.81745093  0.21897687  1
  F  F14  1  0.46921562  0.68254907  0.28102313  1
  F  F15  1  0.03078438  0.31745093  0.78102313  1
  F  F16  1  0.71735969  0.80177859  0.39378241  1
  F  F17  1  0.78264031  0.19822141  0.89378241  1
  F  F18  1  0.28264031  0.30177859  0.60621759  1
  F  F19  1  0.21735969  0.69822141  0.10621759  1
  F  F20  1  0.28264031  0.19822141  0.60621759  1
  F  F21  1  0.21735969  0.80177859  0.10621759  1
  F  F22  1  0.71735969  0.69822141  0.39378241  1
  F  F23  1  0.78264031  0.30177859  0.89378241  1
  Li  Li24  1  0.72967730  0.90249572  0.50258832  1
  Li  Li25  1  -0.22967730  -0.90249572  1.00258832  1
  Li  Li26  1  -0.72967730  1.40249572  -0.50258832  1
  Li  Li27  1  1.22967730  -0.40249572  -0.00258832  1
  Li  Li28  1  -0.72967730  -0.90249572  -0.50258832  1
  Li  Li29  1  1.22967730  0.90249572  -0.00258832  1
  Li  Li30  1  0.72967730  -0.40249572  0.50258832  1
  Li  Li31  1  -0.22967730  1.40249572  1.00258832  1
  Li  Li32  1  0.00000000  0.00000000  0.50000000  1
  Li  Li33  1  0.50000000  0.00000000  0.00000000  1
  Li  Li34  1  0.00000000  0.50000000  0.50000000  1
  Li  Li35  1  0.50000000  0.50000000  0.00000000  1
  Li  Li36  1  0.56362520  0.25000000  0.42284192  1
  Li  Li37  1  0.93637480  0.75000000  0.92284192  1
  Li  Li38  1  0.43637480  0.75000000  0.57715808  1
  Li  Li39  1  0.06362520  0.25000000  0.07715808  1
  Li  Li40  1  0.00000000  0.00000000  0.00000000  1
  Li  Li41  1  0.50000000  0.00000000  0.50000000  1
  Li  Li42  1  0.00000000  0.50000000  -0.00000000  1
  Li  Li43  1  0.50000000  0.50000000  0.50000000  1
  Li  Li44  1  0.10754259  0.25000000  0.42788229  1
  Li  Li45  1  0.39245741  0.75000000  0.92788229  1
  Li  Li46  1  0.89245741  0.75000000  0.57211771  1
  Li  Li47  1  0.60754259  0.25000000  0.07211771  1
