# generated using pymatgen
data_LiYPSe
_symmetry_space_group_name_H-M   'P 1'
_cell_length_a   4.44624105
_cell_length_b   4.67931329
_cell_length_c   6.88845834
_cell_angle_alpha   95.73079419
_cell_angle_beta   102.48047834
_cell_angle_gamma   113.01832261
_symmetry_Int_Tables_number   1
_chemical_formula_structural   LiYPSe
_chemical_formula_sum   'Li2 Y2 P2 Se2'
_cell_volume   126.04955449
_cell_formula_units_Z   2
loop_
 _symmetry_equiv_pos_site_id
 _symmetry_equiv_pos_as_xyz
  1  'x, y, z'
loop_
 _atom_site_type_symbol
 _atom_site_label
 _atom_site_symmetry_multiplicity
 _atom_site_fract_x
 _atom_site_fract_y
 _atom_site_fract_z
 _atom_site_occupancy
  Y  Y0  1  0.12500000  0.00000000  0.25000000  1
  Y  Y1  1  0.00000000  0.00000000  0.00000000  1
  P  P2  1  0.37500000  0.00000000  0.25000000  1
  P  P3  1  0.25000000  0.25000000  0.25000000  1
  Se  Se4  1  0.00000000  0.25000000  0.12500000  1
  Se  Se5  1  0.63668633  0.36784410  0.90353937  1
  Li  Li6  1  0.31275348  0.33434742  0.70645382  1
  Li  Li7  1  0.00245453  0.03445934  0.13481141  1
