# generated using pymatgen
data_Li2Ca3F8
_symmetry_space_group_name_H-M   'P 1'
_cell_length_a   15.14168493
_cell_length_b   11.11990268
_cell_length_c   9.66725551
_cell_angle_alpha   90.00000000
_cell_angle_beta   90.00000000
_cell_angle_gamma   90.00000000
_symmetry_Int_Tables_number   1
_chemical_formula_structural   Li2Ca3F8
_chemical_formula_sum   'Li16 Ca24 F64'
_cell_volume   1627.71508737
_cell_formula_units_Z   8
loop_
 _symmetry_equiv_pos_site_id
 _symmetry_equiv_pos_as_xyz
  1  'x, y, z'
loop_
 _atom_site_type_symbol
 _atom_site_label
 _atom_site_symmetry_multiplicity
 _atom_site_fract_x
 _atom_site_fract_y
 _atom_site_fract_z
 _atom_site_occupancy
  Ca  Ca0  1  0.75637877  0.74041389  0.61225647  1
  Ca  Ca1  1  0.24362123  0.25958611  0.61225647  1
  Ca  Ca2  1  0.74362123  0.24041389  0.38774353  1
  Ca  Ca3  1  0.25637877  0.75958611  0.38774353  1
  Ca  Ca4  1  0.24362123  0.25958611  0.38774353  1
  Ca  Ca5  1  0.75637877  0.74041389  0.38774353  1
  Ca  Ca6  1  0.25637877  0.75958611  0.61225647  1
  Ca  Ca7  1  0.74362123  0.24041389  0.61225647  1
  Ca  Ca8  1  0.56641462  0.36353406  0.15595209  1
  Ca  Ca9  1  0.43358538  0.63646594  0.15595209  1
  Ca  Ca10  1  0.93358538  0.86353406  0.84404791  1
  Ca  Ca11  1  0.06641462  0.13646594  0.84404791  1
  Ca  Ca12  1  0.43358538  0.63646594  0.84404791  1
  Ca  Ca13  1  0.56641462  0.36353406  0.84404791  1
  Ca  Ca14  1  0.06641462  0.13646594  0.15595209  1
  Ca  Ca15  1  0.93358538  0.86353406  0.15595209  1
  Ca  Ca16  1  0.25131836  0.94508687  0.50000000  1
  Ca  Ca17  1  0.74868164  0.05491313  0.50000000  1
  Ca  Ca18  1  0.24868164  0.44508687  0.50000000  1
  Ca  Ca19  1  0.75131836  0.55491313  0.50000000  1
  Ca  Ca20  1  0.34581860  0.44052830  0.00000000  1
  Ca  Ca21  1  0.65418140  0.55947170  0.00000000  1
  Ca  Ca22  1  0.15418140  0.94052830  0.00000000  1
  Ca  Ca23  1  0.84581860  0.05947170  0.00000000  1
  F  F24  1  0.00000000  0.50000000  0.00000000  1
  F  F25  1  0.50000000  0.00000000  0.00000000  1
  F  F26  1  0.64575354  0.04215848  0.96701204  1
  F  F27  1  -0.64575354  -0.04215848  0.96701204  1
  F  F28  1  -0.14575354  0.54215848  -0.96701204  1
  F  F29  1  1.14575354  0.45784152  -0.96701204  1
  F  F30  1  -0.64575354  -0.04215848  -0.96701204  1
  F  F31  1  0.64575354  0.04215848  -0.96701204  1
  F  F32  1  1.14575354  0.45784152  0.96701204  1
  F  F33  1  -0.14575354  0.54215848  0.96701204  1
  F  F34  1  0.99183949  0.15456492  0.95315973  1
  F  F35  1  0.00816051  0.84543508  0.95315973  1
  F  F36  1  0.50816051  0.65456492  0.04684027  1
  F  F37  1  0.49183949  0.34543508  0.04684027  1
  F  F38  1  0.00816051  0.84543508  0.04684027  1
  F  F39  1  0.99183949  0.15456492  0.04684027  1
  F  F40  1  0.49183949  0.34543508  0.95315973  1
  F  F41  1  0.50816051  0.65456492  0.95315973  1
  F  F42  1  0.73714057  0.43200924  0.03628213  1
  F  F43  1  0.26285943  0.56799076  0.03628213  1
  F  F44  1  0.76285943  0.93200924  0.96371787  1
  F  F45  1  0.23714057  0.06799076  0.96371787  1
  F  F46  1  0.26285943  0.56799076  0.96371787  1
  F  F47  1  0.73714057  0.43200924  0.96371787  1
  F  F48  1  0.23714057  0.06799076  0.03628213  1
  F  F49  1  0.76285943  0.93200924  0.03628213  1
  F  F50  1  0.00000000  0.00000000  0.50000000  1
  F  F51  1  0.50000000  0.50000000  0.50000000  1
  F  F52  1  0.46111754  0.29509604  0.29164816  1
  F  F53  1  0.53888246  0.70490396  0.29164816  1
  F  F54  1  0.03888246  0.79509604  0.70835184  1
  F  F55  1  0.96111754  0.20490396  0.70835184  1
  F  F56  1  0.53888246  0.70490396  0.70835184  1
  F  F57  1  0.46111754  0.29509604  0.70835184  1
  F  F58  1  0.96111754  0.20490396  0.29164816  1
  F  F59  1  0.03888246  0.79509604  0.29164816  1
  F  F60  1  0.40039808  0.21586098  0.11229123  1
  F  F61  1  0.59960192  0.78413902  0.11229123  1
  F  F62  1  0.09960192  0.71586098  0.88770877  1
  F  F63  1  0.90039808  0.28413902  0.88770877  1
  F  F64  1  0.59960192  0.78413902  0.88770877  1
  F  F65  1  0.40039808  0.21586098  0.88770877  1
  F  F66  1  0.90039808  0.28413902  0.11229123  1
  F  F67  1  0.09960192  0.71586098  0.11229123  1
  F  F68  1  0.38595007  0.43620220  0.50000000  1
  F  F69  1  0.61404993  0.56379780  0.50000000  1
  F  F70  1  0.11404993  0.93620220  0.50000000  1
  F  F71  1  0.88595007  0.06379780  0.50000000  1
  F  F72  1  0.00000000  0.50000000  0.54905363  1
  F  F73  1  0.50000000  0.00000000  0.45094637  1
  F  F74  1  0.00000000  0.50000000  0.45094637  1
  F  F75  1  0.50000000  0.00000000  0.54905363  1
  F  F76  1  0.00000000  0.50000000  0.16839374  1
  F  F77  1  0.50000000  0.00000000  0.83160626  1
  F  F78  1  0.00000000  0.50000000  0.83160626  1
  F  F79  1  0.50000000  0.00000000  0.16839374  1
  F  F80  1  0.26840670  0.30443826  0.82048821  1
  F  F81  1  0.73159330  0.69556174  0.82048821  1
  F  F82  1  0.23159330  0.80443826  0.17951179  1
  F  F83  1  0.76840670  0.19556174  0.17951179  1
  F  F84  1  0.73159330  0.69556174  0.17951179  1
  F  F85  1  0.26840670  0.30443826  0.17951179  1
  F  F86  1  0.76840670  0.19556174  0.82048821  1
  F  F87  1  0.23159330  0.80443826  0.82048821  1
  Li  Li88  1  0.68823192  0.15687121  0.00000000  1
  Li  Li89  1  0.31176808  0.84312879  0.00000000  1
  Li  Li90  1  0.81176808  0.65687121  0.00000000  1
  Li  Li91  1  0.18823192  0.34312879  0.00000000  1
  Li  Li92  1  0.78631653  0.97916560  0.33397817  1
  Li  Li93  1  0.21368347  0.02083440  0.33397817  1
  Li  Li94  1  0.71368347  0.47916560  0.66602183  1
  Li  Li95  1  0.28631653  0.52083440  0.66602183  1
  Li  Li96  1  0.21368347  0.02083440  0.66602183  1
  Li  Li97  1  0.78631653  0.97916560  0.66602183  1
  Li  Li98  1  0.28631653  0.52083440  0.33397817  1
  Li  Li99  1  0.71368347  0.47916560  0.33397817  1
  Li  Li100  1  0.01051653  0.41586577  -0.00000000  1
  Li  Li101  1  0.98948347  0.58413423  -0.00000000  1
  Li  Li102  1  0.48948347  0.91586577  0.00000000  1
  Li  Li103  1  0.51051653  0.08413423  0.00000000  1
