# generated using pymatgen
data_LiF
_symmetry_space_group_name_H-M   'P 1'
_cell_length_a   8.04347262
_cell_length_b   8.04347262
_cell_length_c   13.52206144
_cell_angle_alpha   90.00000000
_cell_angle_beta   90.00000000
_cell_angle_gamma   120.00000000
_symmetry_Int_Tables_number   1
_chemical_formula_structural   LiF
_chemical_formula_sum   'Li30 F30'
_cell_volume   757.63619210
_cell_formula_units_Z   30
loop_
 _symmetry_equiv_pos_site_id
 _symmetry_equiv_pos_as_xyz
  1  'x, y, z'
loop_
 _atom_site_type_symbol
 _atom_site_label
 _atom_site_symmetry_multiplicity
 _atom_site_fract_x
 _atom_site_fract_y
 _atom_site_fract_z
 _atom_site_occupancy
  F  F0  1  0.11947176  0.12491846  0.43400435  1
  F  F1  1  0.87508154  0.99455330  0.43400435  1
  F  F2  1  0.00544670  0.88052824  0.43400435  1
  F  F3  1  0.87508154  0.88052824  0.56599565  1
  F  F4  1  0.00544670  0.12491846  0.56599565  1
  F  F5  1  0.11947176  0.99455330  0.56599565  1
  F  F6  1  0.00000000  0.00000000  0.00000000  1
  F  F7  1  0.85725242  0.29987787  0.02276146  1
  F  F8  1  0.70012213  0.55737455  0.02276146  1
  F  F9  1  0.44262545  0.14274758  0.02276146  1
  F  F10  1  0.70012213  0.14274758  0.97723854  1
  F  F11  1  0.44262545  0.29987787  0.97723854  1
  F  F12  1  0.85725242  0.55737455  0.97723854  1
  F  F13  1  0.89717300  0.09428602  0.88904727  1
  F  F14  1  0.90571398  0.80288699  0.88904727  1
  F  F15  1  0.19711301  0.10282700  0.88904727  1
  F  F16  1  0.90571398  0.10282700  0.11095273  1
  F  F17  1  0.19711301  0.09428602  0.11095273  1
  F  F18  1  0.89717300  0.80288699  0.11095273  1
  F  F19  1  0.63105999  0.99760186  0.37217324  1
  F  F20  1  0.00239814  0.63345813  0.37217324  1
  F  F21  1  0.36654187  0.36894001  0.37217324  1
  F  F22  1  0.00239814  0.36894001  0.62782676  1
  F  F23  1  0.36654187  0.99760186  0.62782676  1
  F  F24  1  0.63105999  0.63345813  0.62782676  1
  F  F25  1  0.33333333  0.66666667  0.50000000  1
  F  F26  1  0.53479323  0.46520677  0.50000000  1
  F  F27  1  0.53479323  0.06958645  0.50000000  1
  F  F28  1  0.93041355  0.46520677  0.50000000  1
  F  F29  1  0.33333333  0.66666667  0.00000000  1
  Li  Li30  1  0.54124749  0.73930914  0.25402637  1
  Li  Li31  1  -0.73930914  -0.19806165  0.25402637  1
  Li  Li32  1  0.19806165  -0.54124749  0.25402637  1
  Li  Li33  1  -0.73930914  -0.54124749  -0.25402637  1
  Li  Li34  1  0.19806165  0.73930914  -0.25402637  1
  Li  Li35  1  0.54124749  -0.19806165  -0.25402637  1
  Li  Li36  1  0.46274462  0.53725538  -0.00000000  1
  Li  Li37  1  0.46274462  0.92548925  0.00000000  1
  Li  Li38  1  0.07451075  0.53725538  0.00000000  1
  Li  Li39  1  0.31909060  0.30713760  0.71962536  1
  Li  Li40  1  0.69286240  0.01195301  0.71962536  1
  Li  Li41  1  0.98804699  0.68090940  0.71962536  1
  Li  Li42  1  0.69286240  0.68090940  0.28037464  1
  Li  Li43  1  0.98804699  0.30713760  0.28037464  1
  Li  Li44  1  0.31909060  0.01195301  0.28037464  1
  Li  Li45  1  0.98494912  0.32596698  0.44276902  1
  Li  Li46  1  0.67403302  0.65898214  0.44276902  1
  Li  Li47  1  0.34101786  0.01505088  0.44276902  1
  Li  Li48  1  0.67403302  0.01505088  0.55723098  1
  Li  Li49  1  0.34101786  0.32596698  0.55723098  1
  Li  Li50  1  0.98494912  0.65898214  0.55723098  1
  Li  Li51  1  0.66666667  0.33333333  0.50000000  1
  Li  Li52  1  0.00000000  0.00000000  0.59853989  1
  Li  Li53  1  0.00000000  0.00000000  0.40146011  1
  Li  Li54  1  0.92601761  0.36230303  0.86934021  1
  Li  Li55  1  0.63769697  0.56371457  0.86934021  1
  Li  Li56  1  0.43628543  0.07398239  0.86934021  1
  Li  Li57  1  0.63769697  0.07398239  0.13065979  1
  Li  Li58  1  0.43628543  0.36230303  0.13065979  1
  Li  Li59  1  0.92601761  0.56371457  0.13065979  1
