# generated using pymatgen
data_LiF
_symmetry_space_group_name_H-M   'P 1'
_cell_length_a   9.39958493
_cell_length_b   7.08441104
_cell_length_c   9.38983185
_cell_angle_alpha   90.00000000
_cell_angle_beta   90.00000000
_cell_angle_gamma   90.00000000
_symmetry_Int_Tables_number   1
_chemical_formula_structural   LiF
_chemical_formula_sum   'Li24 F24'
_cell_volume   625.27381611
_cell_formula_units_Z   24
loop_
 _symmetry_equiv_pos_site_id
 _symmetry_equiv_pos_as_xyz
  1  'x, y, z'
loop_
 _atom_site_type_symbol
 _atom_site_label
 _atom_site_symmetry_multiplicity
 _atom_site_fract_x
 _atom_site_fract_y
 _atom_site_fract_z
 _atom_site_occupancy
  F  F0  1  0.32646597  0.14272249  0.99044699  1
  F  F1  1  0.17353403  0.85727751  0.49044699  1
  F  F2  1  0.67353403  0.64272249  0.00955301  1
  F  F3  1  0.82646597  0.35727751  0.50955301  1
  F  F4  1  0.67353403  0.85727751  0.00955301  1
  F  F5  1  0.82646597  0.14272249  0.50955301  1
  F  F6  1  0.32646597  0.35727751  0.99044699  1
  F  F7  1  0.17353403  0.64272249  0.49044699  1
  F  F8  1  0.11252674  0.62080245  0.32205559  1
  F  F9  1  0.38747326  0.37919755  0.82205559  1
  F  F10  1  0.88747326  0.12080245  0.67794441  1
  F  F11  1  0.61252674  0.87919755  0.17794441  1
  F  F12  1  0.88747326  0.37919755  0.67794441  1
  F  F13  1  0.61252674  0.62080245  0.17794441  1
  F  F14  1  0.11252674  0.87919755  0.32205559  1
  F  F15  1  0.38747326  0.12080245  0.82205559  1
  F  F16  1  0.32087118  0.05857320  0.67724824  1
  F  F17  1  0.17912882  0.94142680  0.17724824  1
  F  F18  1  0.67912882  0.55857320  0.32275176  1
  F  F19  1  0.82087118  0.44142680  0.82275176  1
  F  F20  1  0.67912882  0.94142680  0.32275176  1
  F  F21  1  0.82087118  0.05857320  0.82275176  1
  F  F22  1  0.32087118  0.44142680  0.67724824  1
  F  F23  1  0.17912882  0.55857320  0.17724824  1
  Li  Li24  1  0.39387723  0.25000000  0.72728025  1
  Li  Li25  1  0.10612277  0.75000000  0.22728025  1
  Li  Li26  1  0.60612277  0.75000000  0.27271975  1
  Li  Li27  1  0.89387723  0.25000000  0.77271975  1
  Li  Li28  1  0.00000000  0.00000000  0.00000000  1
  Li  Li29  1  0.50000000  0.00000000  0.50000000  1
  Li  Li30  1  0.00000000  0.50000000  0.00000000  1
  Li  Li31  1  0.50000000  0.50000000  0.50000000  1
  Li  Li32  1  0.00000000  0.00000000  0.50000000  1
  Li  Li33  1  0.50000000  0.00000000  0.00000000  1
  Li  Li34  1  0.00000000  0.50000000  0.50000000  1
  Li  Li35  1  0.50000000  0.50000000  0.00000000  1
  Li  Li36  1  0.71600806  0.25000000  0.51395541  1
  Li  Li37  1  0.78399194  0.75000000  0.01395541  1
  Li  Li38  1  0.28399194  0.75000000  0.48604459  1
  Li  Li39  1  0.21600806  0.25000000  0.98604459  1
  Li  Li40  1  0.18909703  0.61350156  0.93073932  1
  Li  Li41  1  0.31090297  -0.61350156  1.43073932  1
  Li  Li42  1  -0.18909703  1.11350156  -0.93073932  1
  Li  Li43  1  0.68909703  -0.11350156  -0.43073932  1
  Li  Li44  1  -0.18909703  -0.61350156  -0.93073932  1
  Li  Li45  1  0.68909703  0.61350156  -0.43073932  1
  Li  Li46  1  0.18909703  -0.11350156  0.93073932  1
  Li  Li47  1  0.31090297  1.11350156  1.43073932  1
