# generated using pymatgen
data_LiF
_symmetry_space_group_name_H-M   'P 1'
_cell_length_a   10.30833249
_cell_length_b   8.73120123
_cell_length_c   6.15998882
_cell_angle_alpha   90.00000000
_cell_angle_beta   90.00000000
_cell_angle_gamma   90.00000000
_symmetry_Int_Tables_number   1
_chemical_formula_structural   LiF
_chemical_formula_sum   'Li24 F24'
_cell_volume   554.42440573
_cell_formula_units_Z   24
loop_
 _symmetry_equiv_pos_site_id
 _symmetry_equiv_pos_as_xyz
  1  'x, y, z'
loop_
 _atom_site_type_symbol
 _atom_site_label
 _atom_site_symmetry_multiplicity
 _atom_site_fract_x
 _atom_site_fract_y
 _atom_site_fract_z
 _atom_site_occupancy
  F  F0  1  0.16246964  0.44744615  0.08393759  1
  F  F1  1  0.33753036  0.55255385  0.58393759  1
  F  F2  1  0.83753036  0.94744615  0.91606241  1
  F  F3  1  0.66246964  0.05255385  0.41606241  1
  F  F4  1  0.83753036  0.55255385  0.91606241  1
  F  F5  1  0.66246964  0.44744615  0.41606241  1
  F  F6  1  0.16246964  0.05255385  0.08393759  1
  F  F7  1  0.33753036  0.94744615  0.58393759  1
  F  F8  1  0.41358863  0.12245776  0.79963120  1
  F  F9  1  0.08641137  0.87754224  0.29963120  1
  F  F10  1  0.58641137  0.62245776  0.20036880  1
  F  F11  1  0.91358863  0.37754224  0.70036880  1
  F  F12  1  0.58641137  0.87754224  0.20036880  1
  F  F13  1  0.91358863  0.12245776  0.70036880  1
  F  F14  1  0.41358863  0.37754224  0.79963120  1
  F  F15  1  0.08641137  0.62245776  0.29963120  1
  F  F16  1  0.93779100  0.25000000  0.13036968  1
  F  F17  1  0.56220900  0.75000000  0.63036968  1
  F  F18  1  0.06220900  0.75000000  0.86963032  1
  F  F19  1  0.43779100  0.25000000  0.36963032  1
  F  F20  1  0.06845919  0.25000000  0.21624356  1
  F  F21  1  0.43154081  0.75000000  0.71624356  1
  F  F22  1  0.93154081  0.75000000  0.78375644  1
  F  F23  1  0.56845919  0.25000000  0.28375644  1
  Li  Li24  1  0.90189132  0.25000000  0.39682337  1
  Li  Li25  1  0.59810868  0.75000000  0.89682337  1
  Li  Li26  1  0.09810868  0.75000000  0.60317663  1
  Li  Li27  1  0.40189132  0.25000000  0.10317663  1
  Li  Li28  1  0.60650036  0.42139816  0.24628144  1
  Li  Li29  1  -0.10650036  -0.42139816  0.74628144  1
  Li  Li30  1  -0.60650036  0.92139816  -0.24628144  1
  Li  Li31  1  1.10650036  0.07860184  0.25371856  1
  Li  Li32  1  -0.60650036  -0.42139816  -0.24628144  1
  Li  Li33  1  1.10650036  0.42139816  0.25371856  1
  Li  Li34  1  0.60650036  0.07860184  0.24628144  1
  Li  Li35  1  -0.10650036  0.92139816  0.74628144  1
  Li  Li36  1  0.00000000  0.00000000  0.00000000  1
  Li  Li37  1  0.50000000  0.00000000  0.50000000  1
  Li  Li38  1  0.00000000  0.50000000  0.00000000  1
  Li  Li39  1  0.50000000  0.50000000  0.50000000  1
  Li  Li40  1  0.08972456  0.25000000  0.56467988  1
  Li  Li41  1  0.41027544  0.75000000  0.06467988  1
  Li  Li42  1  0.91027544  0.75000000  0.43532012  1
  Li  Li43  1  0.58972456  0.25000000  0.93532012  1
  Li  Li44  1  0.74831198  0.25000000  0.70189527  1
  Li  Li45  1  0.75168802  0.75000000  0.20189527  1
  Li  Li46  1  0.25168802  0.75000000  0.29810473  1
  Li  Li47  1  0.24831198  0.25000000  0.79810473  1
