# generated using pymatgen
data_Li3BO3
_symmetry_space_group_name_H-M   'P 1'
_cell_length_a   12.70030176
_cell_length_b   12.70030176
_cell_length_c   20.51866543
_cell_angle_alpha   90.00000000
_cell_angle_beta   90.00000000
_cell_angle_gamma   120.00000000
_symmetry_Int_Tables_number   1
_chemical_formula_structural   Li3BO3
_chemical_formula_sum   'Li108 B36 O108'
_cell_volume   2866.20877595
_cell_formula_units_Z   36
loop_
 _symmetry_equiv_pos_site_id
 _symmetry_equiv_pos_as_xyz
  1  'x, y, z'
loop_
 _atom_site_type_symbol
 _atom_site_label
 _atom_site_symmetry_multiplicity
 _atom_site_fract_x
 _atom_site_fract_y
 _atom_site_fract_z
 _atom_site_occupancy
  B  B0  1  0.71517523  0.07445259  0.34145682  1
  B  B1  1  -0.07445259  0.64072264  0.34145682  1
  B  B2  1  -0.64072264  -0.71517523  0.34145682  1
  B  B3  1  0.07445259  0.71517523  0.15854318  1
  B  B4  1  0.64072264  -0.07445259  0.15854318  1
  B  B5  1  -0.71517523  -0.64072264  0.15854318  1
  B  B6  1  -0.71517523  -0.07445259  -0.34145682  1
  B  B7  1  0.07445259  -0.64072264  -0.34145682  1
  B  B8  1  0.64072264  0.71517523  -0.34145682  1
  B  B9  1  -0.07445259  -0.71517523  0.84145682  1
  B  B10  1  -0.64072264  0.07445259  0.84145682  1
  B  B11  1  0.71517523  0.64072264  0.84145682  1
  B  B12  1  1.38184190  0.40778593  0.67479016  1
  B  B13  1  0.59221407  0.97405597  0.67479016  1
  B  B14  1  0.02594403  -0.38184190  0.67479016  1
  B  B15  1  0.74111926  1.04850856  0.49187651  1
  B  B16  1  1.30738930  0.25888074  0.49187651  1
  B  B17  1  -0.04850856  -0.30738930  0.49187651  1
  B  B18  1  -0.04850856  0.25888074  -0.00812349  1
  B  B19  1  0.74111926  -0.30738930  -0.00812349  1
  B  B20  1  1.30738930  1.04850856  -0.00812349  1
  B  B21  1  0.59221407  -0.38184190  1.17479016  1
  B  B22  1  0.02594403  0.40778593  1.17479016  1
  B  B23  1  1.38184190  0.97405597  1.17479016  1
  B  B24  1  1.04850856  0.74111926  1.00812349  1
  B  B25  1  0.25888074  1.30738930  1.00812349  1
  B  B26  1  -0.30738930  -0.04850856  1.00812349  1
  B  B27  1  0.40778593  1.38184190  0.82520984  1
  B  B28  1  0.97405597  0.59221407  0.82520984  1
  B  B29  1  -0.38184190  0.02594403  0.82520984  1
  B  B30  1  -0.38184190  0.59221407  0.32520984  1
  B  B31  1  0.40778593  0.02594403  0.32520984  1
  B  B32  1  0.97405597  1.38184190  0.32520984  1
  B  B33  1  0.25888074  -0.04850856  1.50812349  1
  B  B34  1  -0.30738930  0.74111926  1.50812349  1
  B  B35  1  1.04850856  1.30738930  1.50812349  1
  Li  Li36  1  0.33629680  0.56000173  0.69824548  1
  Li  Li37  1  0.43999827  0.77629506  0.69824548  1
  Li  Li38  1  0.22370494  0.66370320  0.69824548  1
  Li  Li39  1  0.56000173  0.33629680  0.80175452  1
  Li  Li40  1  0.77629506  0.43999827  0.80175452  1
  Li  Li41  1  0.66370320  0.22370494  0.80175452  1
  Li  Li42  1  0.66370320  0.43999827  0.30175452  1
  Li  Li43  1  0.56000173  0.22370494  0.30175452  1
  Li  Li44  1  0.77629506  0.33629680  0.30175452  1
  Li  Li45  1  0.43999827  0.66370320  0.19824548  1
  Li  Li46  1  0.22370494  0.56000173  0.19824548  1
  Li  Li47  1  0.33629680  0.77629506  0.19824548  1
  Li  Li48  1  0.00296346  0.89333507  0.03157881  1
  Li  Li49  1  0.10666493  0.10962839  0.03157881  1
  Li  Li50  1  0.89037161  0.99703654  0.03157881  1
  Li  Li51  1  0.22666840  0.66963013  0.13508785  1
  Li  Li52  1  0.44296173  0.77333160  0.13508785  1
  Li  Li53  1  0.33036987  0.55703827  0.13508785  1
  Li  Li54  1  0.33036987  0.77333160  0.63508785  1
  Li  Li55  1  0.22666840  0.55703827  0.63508785  1
  Li  Li56  1  0.44296173  0.66963013  0.63508785  1
  Li  Li57  1  0.10666493  0.99703654  0.53157881  1
  Li  Li58  1  0.89037161  0.89333507  0.53157881  1
  Li  Li59  1  0.00296346  0.10962839  0.53157881  1
  Li  Li60  1  0.66963013  0.22666840  0.36491215  1
  Li  Li61  1  0.77333160  0.44296173  0.36491215  1
  Li  Li62  1  0.55703827  0.33036987  0.36491215  1
  Li  Li63  1  0.89333507  0.00296346  0.46842119  1
  Li  Li64  1  0.10962839  0.10666493  0.46842119  1
  Li  Li65  1  0.99703654  0.89037161  0.46842119  1
  Li  Li66  1  0.99703654  0.10666493  0.96842119  1
  Li  Li67  1  0.89333507  0.89037161  0.96842119  1
  Li  Li68  1  0.10962839  0.00296346  0.96842119  1
  Li  Li69  1  0.77333160  0.33036987  0.86491215  1
  Li  Li70  1  0.55703827  0.22666840  0.86491215  1
  Li  Li71  1  0.66963013  0.44296173  0.86491215  1
  Li  Li72  1  0.58083554  0.50897870  0.08970816  1
  Li  Li73  1  0.49102130  0.07185684  0.08970816  1
  Li  Li74  1  0.92814316  0.41916446  0.08970816  1
  Li  Li75  1  0.50897870  0.58083554  0.41029184  1
  Li  Li76  1  0.07185684  0.49102130  0.41029184  1
  Li  Li77  1  0.41916446  0.92814316  0.41029184  1
  Li  Li78  1  0.41916446  0.49102130  0.91029184  1
  Li  Li79  1  0.50897870  0.92814316  0.91029184  1
  Li  Li80  1  0.07185684  0.58083554  0.91029184  1
  Li  Li81  1  0.49102130  0.41916446  0.58970816  1
  Li  Li82  1  0.92814316  0.50897870  0.58970816  1
  Li  Li83  1  0.58083554  0.07185684  0.58970816  1
  Li  Li84  1  0.24750221  0.84231203  0.42304149  1
  Li  Li85  1  0.15768797  0.40519017  0.42304149  1
  Li  Li86  1  0.59480983  0.75249779  0.42304149  1
  Li  Li87  1  0.17564536  0.91416887  0.74362518  1
  Li  Li88  1  0.73852351  0.82435464  0.74362518  1
  Li  Li89  1  0.08583113  0.26147649  0.74362518  1
  Li  Li90  1  0.08583113  0.82435464  0.24362518  1
  Li  Li91  1  0.17564536  0.26147649  0.24362518  1
  Li  Li92  1  0.73852351  0.91416887  0.24362518  1
  Li  Li93  1  0.15768797  0.75249779  0.92304149  1
  Li  Li94  1  0.59480983  0.84231203  0.92304149  1
  Li  Li95  1  0.24750221  0.40519017  0.92304149  1
  Li  Li96  1  0.91416887  0.17564536  0.75637482  1
  Li  Li97  1  0.82435464  0.73852351  0.75637482  1
  Li  Li98  1  0.26147649  0.08583113  0.75637482  1
  Li  Li99  1  0.84231203  0.24750221  0.07695851  1
  Li  Li100  1  0.40519017  0.15768797  0.07695851  1
  Li  Li101  1  0.75249779  0.59480983  0.07695851  1
  Li  Li102  1  0.75249779  0.15768797  0.57695851  1
  Li  Li103  1  0.84231203  0.59480983  0.57695851  1
  Li  Li104  1  0.40519017  0.24750221  0.57695851  1
  Li  Li105  1  0.82435464  0.08583113  0.25637482  1
  Li  Li106  1  0.26147649  0.17564536  0.25637482  1
  Li  Li107  1  0.91416887  0.73852351  0.25637482  1
  Li  Li108  1  0.13636690  0.00000000  0.25000000  1
  Li  Li109  1  0.00000000  0.13636690  0.25000000  1
  Li  Li110  1  0.86363310  0.86363310  0.25000000  1
  Li  Li111  1  0.86363310  -0.00000000  0.75000000  1
  Li  Li112  1  0.00000000  0.86363310  0.75000000  1
  Li  Li113  1  0.13636690  0.13636690  0.75000000  1
  Li  Li114  1  0.80303357  0.33333333  0.58333333  1
  Li  Li115  1  0.66666667  0.46970024  0.58333333  1
  Li  Li116  1  0.53029976  0.19696643  0.58333333  1
  Li  Li117  1  0.53029976  0.33333333  0.08333333  1
  Li  Li118  1  0.66666667  0.19696643  0.08333333  1
  Li  Li119  1  0.80303357  0.46970024  0.08333333  1
  Li  Li120  1  0.46970024  0.66666667  0.91666667  1
  Li  Li121  1  0.33333333  0.80303357  0.91666667  1
  Li  Li122  1  0.19696643  0.53029976  0.91666667  1
  Li  Li123  1  0.19696643  0.66666667  0.41666667  1
  Li  Li124  1  0.33333333  0.53029976  0.41666667  1
  Li  Li125  1  0.46970024  0.80303357  0.41666667  1
  Li  Li126  1  0.50000000  0.00000000  0.00000000  1
  Li  Li127  1  0.00000000  0.50000000  0.00000000  1
  Li  Li128  1  0.50000000  0.50000000  0.00000000  1
  Li  Li129  1  0.00000000  0.50000000  0.50000000  1
  Li  Li130  1  0.50000000  0.00000000  0.50000000  1
  Li  Li131  1  0.50000000  0.50000000  0.50000000  1
  Li  Li132  1  0.16666667  0.33333333  0.33333333  1
  Li  Li133  1  0.66666667  0.83333333  0.33333333  1
  Li  Li134  1  0.16666667  0.83333333  0.33333333  1
  Li  Li135  1  0.66666667  0.83333333  0.83333333  1
  Li  Li136  1  0.16666667  0.33333333  0.83333333  1
  Li  Li137  1  0.16666667  0.83333333  0.83333333  1
  Li  Li138  1  0.83333333  0.66666667  0.66666667  1
  Li  Li139  1  0.33333333  0.16666667  0.66666667  1
  Li  Li140  1  0.83333333  0.16666667  0.66666667  1
  Li  Li141  1  0.33333333  0.16666667  0.16666667  1
  Li  Li142  1  0.83333333  0.66666667  0.16666667  1
  Li  Li143  1  0.83333333  0.16666667  0.16666667  1
  O  O144  1  0.13874808  0.71183615  0.64381198  1
  O  O145  1  0.28816385  0.42691194  0.64381198  1
  O  O146  1  0.57308806  0.86125192  0.64381198  1
  O  O147  1  0.71183615  0.13874808  0.85618802  1
  O  O148  1  0.42691194  0.28816385  0.85618802  1
  O  O149  1  0.86125192  0.57308806  0.85618802  1
  O  O150  1  0.86125192  0.28816385  0.35618802  1
  O  O151  1  0.71183615  0.57308806  0.35618802  1
  O  O152  1  0.42691194  0.13874808  0.35618802  1
  O  O153  1  0.28816385  0.86125192  0.14381198  1
  O  O154  1  0.57308806  0.71183615  0.14381198  1
  O  O155  1  0.13874808  0.42691194  0.14381198  1
  O  O156  1  0.80541475  0.04516948  0.97714531  1
  O  O157  1  0.95483052  0.76024527  0.97714531  1
  O  O158  1  0.23975473  0.19458525  0.97714531  1
  O  O159  1  0.37850282  0.47208142  0.18952136  1
  O  O160  1  0.09357860  0.62149718  0.18952136  1
  O  O161  1  0.52791858  0.90642140  0.18952136  1
  O  O162  1  0.52791858  0.62149718  0.68952136  1
  O  O163  1  0.37850282  0.90642140  0.68952136  1
  O  O164  1  0.09357860  0.47208142  0.68952136  1
  O  O165  1  0.95483052  0.19458525  0.47714531  1
  O  O166  1  0.23975473  0.04516948  0.47714531  1
  O  O167  1  0.80541475  0.76024527  0.47714531  1
  O  O168  1  0.47208142  0.37850282  0.31047864  1
  O  O169  1  0.62149718  0.09357860  0.31047864  1
  O  O170  1  0.90642140  0.52791858  0.31047864  1
  O  O171  1  0.04516948  0.80541475  0.52285469  1
  O  O172  1  0.76024527  0.95483052  0.52285469  1
  O  O173  1  0.19458525  0.23975473  0.52285469  1
  O  O174  1  0.19458525  0.95483052  0.02285469  1
  O  O175  1  0.04516948  0.23975473  0.02285469  1
  O  O176  1  0.76024527  0.80541475  0.02285469  1
  O  O177  1  0.62149718  0.52791858  0.81047864  1
  O  O178  1  0.90642140  0.37850282  0.81047864  1
  O  O179  1  0.47208142  0.09357860  0.81047864  1
  O  O180  1  0.27948931  0.87710677  0.34123919  1
  O  O181  1  0.12289323  0.40238254  0.34123919  1
  O  O182  1  0.59761746  0.72051069  0.34123919  1
  O  O183  1  0.87710677  0.27948931  0.15876081  1
  O  O184  1  0.40238254  0.12289323  0.15876081  1
  O  O185  1  0.72051069  0.59761746  0.15876081  1
  O  O186  1  0.72051069  0.12289323  0.65876081  1
  O  O187  1  0.87710677  0.59761746  0.65876081  1
  O  O188  1  0.40238254  0.27948931  0.65876081  1
  O  O189  1  0.12289323  0.72051069  0.84123919  1
  O  O190  1  0.59761746  0.87710677  0.84123919  1
  O  O191  1  0.27948931  0.40238254  0.84123919  1
  O  O192  1  0.94615598  0.21044010  0.67457252  1
  O  O193  1  0.78955990  0.73571588  0.67457252  1
  O  O194  1  0.26428412  0.05384402  0.67457252  1
  O  O195  1  0.54377343  0.61282264  0.49209415  1
  O  O196  1  0.06904921  0.45622657  0.49209415  1
  O  O197  1  0.38717736  0.93095079  0.49209415  1
  O  O198  1  0.38717736  0.45622657  0.99209415  1
  O  O199  1  0.54377343  0.93095079  0.99209415  1
  O  O200  1  0.06904921  0.61282264  0.99209415  1
  O  O201  1  0.78955990  0.05384402  0.17457252  1
  O  O202  1  0.26428412  0.21044010  0.17457252  1
  O  O203  1  0.94615598  0.73571588  0.17457252  1
  O  O204  1  0.61282264  0.54377343  0.00790585  1
  O  O205  1  0.45622657  0.06904921  0.00790585  1
  O  O206  1  0.93095079  0.38717736  0.00790585  1
  O  O207  1  0.21044010  0.94615598  0.82542748  1
  O  O208  1  0.73571588  0.78955990  0.82542748  1
  O  O209  1  0.05384402  0.26428412  0.82542748  1
  O  O210  1  0.05384402  0.78955990  0.32542748  1
  O  O211  1  0.21044010  0.26428412  0.32542748  1
  O  O212  1  0.73571588  0.94615598  0.32542748  1
  O  O213  1  0.45622657  0.38717736  0.50790585  1
  O  O214  1  0.93095079  0.54377343  0.50790585  1
  O  O215  1  0.61282264  0.06904921  0.50790585  1
  O  O216  1  0.94677499  0.00000000  0.25000000  1
  O  O217  1  0.00000000  0.94677499  0.25000000  1
  O  O218  1  0.05322501  0.05322501  0.25000000  1
  O  O219  1  0.05322501  0.00000000  0.75000000  1
  O  O220  1  0.00000000  0.05322501  0.75000000  1
  O  O221  1  0.94677499  0.94677499  0.75000000  1
  O  O222  1  0.61344165  0.33333333  0.58333333  1
  O  O223  1  0.66666667  0.28010832  0.58333333  1
  O  O224  1  0.71989168  0.38655835  0.58333333  1
  O  O225  1  0.71989168  0.33333333  0.08333333  1
  O  O226  1  0.66666667  0.38655835  0.08333333  1
  O  O227  1  0.61344165  0.28010832  0.08333333  1
  O  O228  1  0.28010832  0.66666667  0.91666667  1
  O  O229  1  0.33333333  0.61344165  0.91666667  1
  O  O230  1  0.38655835  0.71989168  0.91666667  1
  O  O231  1  0.38655835  0.66666667  0.41666667  1
  O  O232  1  0.33333333  0.71989168  0.41666667  1
  O  O233  1  0.28010832  0.61344165  0.41666667  1
  O  O234  1  0.35470969  0.00000000  0.25000000  1
  O  O235  1  0.00000000  0.35470969  0.25000000  1
  O  O236  1  0.64529031  0.64529031  0.25000000  1
  O  O237  1  0.64529031  0.00000000  0.75000000  1
  O  O238  1  0.00000000  0.64529031  0.75000000  1
  O  O239  1  0.35470969  0.35470969  0.75000000  1
  O  O240  1  0.02137636  0.33333333  0.58333333  1
  O  O241  1  0.66666667  0.68804302  0.58333333  1
  O  O242  1  0.31195698  0.97862364  0.58333333  1
  O  O243  1  0.31195698  0.33333333  0.08333333  1
  O  O244  1  0.66666667  0.97862364  0.08333333  1
  O  O245  1  0.02137636  0.68804302  0.08333333  1
  O  O246  1  0.68804302  0.66666667  0.91666667  1
  O  O247  1  0.33333333  0.02137636  0.91666667  1
  O  O248  1  0.97862364  0.31195698  0.91666667  1
  O  O249  1  0.97862364  0.66666667  0.41666667  1
  O  O250  1  0.33333333  0.31195698  0.41666667  1
  O  O251  1  0.68804302  0.02137636  0.41666667  1
