# generated using pymatgen
data_Li2Sb2P2Se
_symmetry_space_group_name_H-M   'P 1'
_cell_length_a   5.27965798
_cell_length_b   5.39203090
_cell_length_c   6.77773528
_cell_angle_alpha   93.65954828
_cell_angle_beta   96.89800072
_cell_angle_gamma   102.96913435
_symmetry_Int_Tables_number   1
_chemical_formula_structural   Li2Sb2P2Se
_chemical_formula_sum   'Li2 Sb2 P2 Se1'
_cell_volume   185.84249828
_cell_formula_units_Z   1
loop_
 _symmetry_equiv_pos_site_id
 _symmetry_equiv_pos_as_xyz
  1  'x, y, z'
loop_
 _atom_site_type_symbol
 _atom_site_label
 _atom_site_symmetry_multiplicity
 _atom_site_fract_x
 _atom_site_fract_y
 _atom_site_fract_z
 _atom_site_occupancy
  P  P0  1  0.12500000  0.12500000  0.12500000  1
  P  P1  1  0.50000000  0.50000000  0.50000000  1
  Se  Se2  1  0.25000000  0.25000000  0.25000000  1
  Li  Li3  1  0.75000000  0.75000000  0.75000000  1
  Li  Li4  1  0.88350466  0.24593511  0.91602287  1
  Sb  Sb5  1  0.11708189  0.49087910  0.75132022  1
  Sb  Sb6  1  0.34033367  0.40707730  0.25679657  1
