# generated using pymatgen
data_LiF
_symmetry_space_group_name_H-M   'P 1'
_cell_length_a   6.54875117
_cell_length_b   7.88016939
_cell_length_c   5.13825716
_cell_angle_alpha   90.00000000
_cell_angle_beta   90.00000000
_cell_angle_gamma   90.00000000
_symmetry_Int_Tables_number   1
_chemical_formula_structural   LiF
_chemical_formula_sum   'Li14 F14'
_cell_volume   265.16114003
_cell_formula_units_Z   14
loop_
 _symmetry_equiv_pos_site_id
 _symmetry_equiv_pos_as_xyz
  1  'x, y, z'
loop_
 _atom_site_type_symbol
 _atom_site_label
 _atom_site_symmetry_multiplicity
 _atom_site_fract_x
 _atom_site_fract_y
 _atom_site_fract_z
 _atom_site_occupancy
  F  F0  1  0.86309371  0.23180618  0.76430504  1
  F  F1  1  -0.86309371  -0.23180618  0.76430504  1
  F  F2  1  -0.36309371  0.73180618  -0.76430504  1
  F  F3  1  1.36309371  0.26819382  -0.76430504  1
  F  F4  1  -0.86309371  -0.23180618  -0.76430504  1
  F  F5  1  0.86309371  0.23180618  -0.76430504  1
  F  F6  1  1.36309371  0.26819382  0.76430504  1
  F  F7  1  -0.36309371  0.73180618  0.76430504  1
  F  F8  1  0.00000000  0.00000000  0.50000000  1
  F  F9  1  0.50000000  0.50000000  0.50000000  1
  F  F10  1  0.00000000  0.00000000  0.08115194  1
  F  F11  1  0.50000000  0.50000000  0.91884806  1
  F  F12  1  0.00000000  0.00000000  0.91884806  1
  F  F13  1  0.50000000  0.50000000  0.08115194  1
  Li  Li14  1  0.73761388  0.51171161  0.68154596  1
  Li  Li15  1  0.26238612  0.48828839  0.68154596  1
  Li  Li16  1  0.76238612  0.01171161  0.31845404  1
  Li  Li17  1  0.23761388  0.98828839  0.31845404  1
  Li  Li18  1  0.26238612  0.48828839  0.31845404  1
  Li  Li19  1  0.73761388  0.51171161  0.31845404  1
  Li  Li20  1  0.23761388  0.98828839  0.68154596  1
  Li  Li21  1  0.76238612  0.01171161  0.68154596  1
  Li  Li22  1  0.00000000  0.00000000  0.70963926  1
  Li  Li23  1  0.50000000  0.50000000  0.29036074  1
  Li  Li24  1  0.00000000  0.00000000  0.29036074  1
  Li  Li25  1  0.50000000  0.50000000  0.70963926  1
  Li  Li26  1  0.00000000  0.50000000  0.00000000  1
  Li  Li27  1  0.50000000  0.00000000  0.00000000  1
