# generated using pymatgen
data_LiF
_symmetry_space_group_name_H-M   'P 1'
_cell_length_a   9.73078452
_cell_length_b   9.73078452
_cell_length_c   21.96788547
_cell_angle_alpha   90.00000000
_cell_angle_beta   90.00000000
_cell_angle_gamma   120.00000000
_symmetry_Int_Tables_number   1
_chemical_formula_structural   LiF
_chemical_formula_sum   'Li61 F61'
_cell_volume   1801.41841563
_cell_formula_units_Z   61
loop_
 _symmetry_equiv_pos_site_id
 _symmetry_equiv_pos_as_xyz
  1  'x, y, z'
loop_
 _atom_site_type_symbol
 _atom_site_label
 _atom_site_symmetry_multiplicity
 _atom_site_fract_x
 _atom_site_fract_y
 _atom_site_fract_z
 _atom_site_occupancy
  F  F0  1  0.55730899  0.31749005  0.39911782  1
  F  F1  1  0.68250995  0.23981894  0.39911782  1
  F  F2  1  0.76018106  0.44269101  0.39911782  1
  F  F3  1  0.68250995  0.44269101  0.60088218  1
  F  F4  1  0.76018106  0.31749005  0.60088218  1
  F  F5  1  0.55730899  0.23981894  0.60088218  1
  F  F6  1  0.66666667  0.33333333  0.00000000  1
  F  F7  1  0.74320094  0.61231907  0.94849205  1
  F  F8  1  0.38768093  0.13088187  0.94849205  1
  F  F9  1  0.86911813  0.25679906  0.94849205  1
  F  F10  1  0.38768093  0.25679906  0.05150795  1
  F  F11  1  0.86911813  0.61231907  0.05150795  1
  F  F12  1  0.74320094  0.13088187  0.05150795  1
  F  F13  1  0.54815536  0.55629376  0.54604550  1
  F  F14  1  0.44370624  0.99186160  0.54604550  1
  F  F15  1  0.00813840  0.45184464  0.54604550  1
  F  F16  1  0.44370624  0.45184464  0.45395450  1
  F  F17  1  0.00813840  0.55629376  0.45395450  1
  F  F18  1  0.54815536  0.99186160  0.45395450  1
  F  F19  1  0.33333333  0.66666667  0.00000000  1
  F  F20  1  0.37485161  0.40655408  0.30090041  1
  F  F21  1  0.59344592  0.96829752  0.30090041  1
  F  F22  1  0.03170248  0.62514839  0.30090041  1
  F  F23  1  0.59344592  0.62514839  0.69909959  1
  F  F24  1  0.03170248  0.40655408  0.69909959  1
  F  F25  1  0.37485161  0.96829752  0.69909959  1
  F  F26  1  0.29231099  0.31895542  0.79967264  1
  F  F27  1  0.68104458  0.97335558  0.79967264  1
  F  F28  1  0.02664442  0.70768901  0.79967264  1
  F  F29  1  0.68104458  0.70768901  0.20032736  1
  F  F30  1  0.02664442  0.31895542  0.20032736  1
  F  F31  1  0.29231099  0.97335558  0.20032736  1
  F  F32  1  0.50106639  0.78118287  0.61827139  1
  F  F33  1  0.21881713  0.71988352  0.61827139  1
  F  F34  1  0.28011648  0.49893361  0.61827139  1
  F  F35  1  0.21881713  0.49893361  0.38172861  1
  F  F36  1  0.28011648  0.78118287  0.38172861  1
  F  F37  1  0.50106639  0.71988352  0.38172861  1
  F  F38  1  0.50940183  0.31328823  0.96691043  1
  F  F39  1  0.68671177  0.19611360  0.96691043  1
  F  F40  1  0.80388640  0.49059817  0.96691043  1
  F  F41  1  0.68671177  0.49059817  0.03308957  1
  F  F42  1  0.80388640  0.31328823  0.03308957  1
  F  F43  1  0.50940183  0.19611360  0.03308957  1
  F  F44  1  0.66666667  0.33333333  0.94343761  1
  F  F45  1  0.66666667  0.33333333  0.05656239  1
  F  F46  1  0.33548046  0.14358127  0.39650192  1
  F  F47  1  0.85641873  0.19189919  0.39650192  1
  F  F48  1  0.80810081  0.66451954  0.39650192  1
  F  F49  1  0.85641873  0.66451954  0.60349808  1
  F  F50  1  0.80810081  0.14358127  0.60349808  1
  F  F51  1  0.33548046  0.19189919  0.60349808  1
  F  F52  1  0.42715794  0.62763600  0.05434741  1
  F  F53  1  0.37236400  0.79952194  0.05434741  1
  F  F54  1  0.20047806  0.57284206  0.05434741  1
  F  F55  1  0.37236400  0.57284206  0.94565259  1
  F  F56  1  0.20047806  0.62763600  0.94565259  1
  F  F57  1  0.42715794  0.79952194  0.94565259  1
  F  F58  1  0.48307464  0.51692536  0.50000000  1
  F  F59  1  0.48307464  0.96614928  0.50000000  1
  F  F60  1  0.03385072  0.51692536  0.50000000  1
  Li  Li61  1  0.84635705  0.84658472  0.37571015  1
  Li  Li62  1  -0.84658472  -0.00022767  0.37571015  1
  Li  Li63  1  0.00022767  -0.84635705  0.37571015  1
  Li  Li64  1  -0.84658472  -0.84635705  -0.37571015  1
  Li  Li65  1  0.00022767  0.84658472  -0.37571015  1
  Li  Li66  1  0.84635705  -0.00022767  -0.37571015  1
  Li  Li67  1  0.52516943  0.54105873  0.87444861  1
  Li  Li68  1  0.45894127  0.98411070  0.87444861  1
  Li  Li69  1  0.01588930  0.47483057  0.87444861  1
  Li  Li70  1  0.45894127  0.47483057  0.12555139  1
  Li  Li71  1  0.01588930  0.54105873  0.12555139  1
  Li  Li72  1  0.52516943  0.98411070  0.12555139  1
  Li  Li73  1  0.32892246  0.02516903  0.63436168  1
  Li  Li74  1  0.97483097  0.30375343  0.63436168  1
  Li  Li75  1  0.69624657  0.67107754  0.63436168  1
  Li  Li76  1  0.97483097  0.67107754  0.36563832  1
  Li  Li77  1  0.69624657  0.02516903  0.36563832  1
  Li  Li78  1  0.32892246  0.30375343  0.36563832  1
  Li  Li79  1  0.54991148  0.65696211  0.12798055  1
  Li  Li80  1  0.34303789  0.89294937  0.12798055  1
  Li  Li81  1  0.10705063  0.45008852  0.12798055  1
  Li  Li82  1  0.34303789  0.45008852  0.87201945  1
  Li  Li83  1  0.10705063  0.65696211  0.87201945  1
  Li  Li84  1  0.54991148  0.89294937  0.87201945  1
  Li  Li85  1  0.66666667  0.33333333  0.50000000  1
  Li  Li86  1  0.40976190  0.14842737  0.69411223  1
  Li  Li87  1  0.85157263  0.26133453  0.69411223  1
  Li  Li88  1  0.73866547  0.59023810  0.69411223  1
  Li  Li89  1  0.85157263  0.59023810  0.30588777  1
  Li  Li90  1  0.73866547  0.14842737  0.30588777  1
  Li  Li91  1  0.40976190  0.26133453  0.30588777  1
  Li  Li92  1  0.00000000  0.00000000  0.21960866  1
  Li  Li93  1  0.00000000  0.00000000  0.78039134  1
  Li  Li94  1  0.25190608  0.91997542  0.87568459  1
  Li  Li95  1  0.08002458  0.33193066  0.87568459  1
  Li  Li96  1  0.66806934  0.74809392  0.87568459  1
  Li  Li97  1  0.08002458  0.74809392  0.12431541  1
  Li  Li98  1  0.66806934  0.91997542  0.12431541  1
  Li  Li99  1  0.25190608  0.33193066  0.12431541  1
  Li  Li100  1  0.21406502  0.29276681  0.42366698  1
  Li  Li101  1  0.70723319  0.92129820  0.42366698  1
  Li  Li102  1  0.07870180  0.78593498  0.42366698  1
  Li  Li103  1  0.70723319  0.78593498  0.57633302  1
  Li  Li104  1  0.07870180  0.29276681  0.57633302  1
  Li  Li105  1  0.21406502  0.92129820  0.57633302  1
  Li  Li106  1  0.00000000  0.00000000  0.00000000  1
  Li  Li107  1  0.33333333  0.66666667  0.50000000  1
  Li  Li108  1  0.74739515  0.13520422  0.96987177  1
  Li  Li109  1  0.86479578  0.61219093  0.96987177  1
  Li  Li110  1  0.38780907  0.25260485  0.96987177  1
  Li  Li111  1  0.86479578  0.25260485  0.03012823  1
  Li  Li112  1  0.38780907  0.13520422  0.03012823  1
  Li  Li113  1  0.74739515  0.61219093  0.03012823  1
  Li  Li114  1  0.12679850  0.06681495  0.86217351  1
  Li  Li115  1  0.93318505  0.05998355  0.86217351  1
  Li  Li116  1  0.94001645  0.87320150  0.86217351  1
  Li  Li117  1  0.93318505  0.87320150  0.13782649  1
  Li  Li118  1  0.94001645  0.06681495  0.13782649  1
  Li  Li119  1  0.12679850  0.05998355  0.13782649  1
  Li  Li120  1  0.33333333  0.66666667  0.27275379  1
  Li  Li121  1  0.33333333  0.66666667  0.72724621  1
