# generated using pymatgen
data_LiF
_symmetry_space_group_name_H-M   'P 1'
_cell_length_a   9.58937217
_cell_length_b   9.58937217
_cell_length_c   9.58937217
_cell_angle_alpha   90.00000000
_cell_angle_beta   90.00000000
_cell_angle_gamma   90.00000000
_symmetry_Int_Tables_number   1
_chemical_formula_structural   LiF
_chemical_formula_sum   'Li40 F40'
_cell_volume   881.80086845
_cell_formula_units_Z   40
loop_
 _symmetry_equiv_pos_site_id
 _symmetry_equiv_pos_as_xyz
  1  'x, y, z'
loop_
 _atom_site_type_symbol
 _atom_site_label
 _atom_site_symmetry_multiplicity
 _atom_site_fract_x
 _atom_site_fract_y
 _atom_site_fract_z
 _atom_site_occupancy
  F  F0  1  0.70233866  0.25000000  0.25000000  1
  F  F1  1  0.29766134  0.75000000  0.25000000  1
  F  F2  1  0.25000000  0.70233866  0.25000000  1
  F  F3  1  0.25000000  0.29766134  0.75000000  1
  F  F4  1  0.25000000  0.25000000  0.70233866  1
  F  F5  1  0.75000000  0.25000000  0.29766134  1
  F  F6  1  0.70233866  0.75000000  0.75000000  1
  F  F7  1  0.29766134  0.25000000  0.75000000  1
  F  F8  1  0.25000000  0.20233866  0.75000000  1
  F  F9  1  0.25000000  0.79766134  0.25000000  1
  F  F10  1  0.25000000  0.75000000  0.20233866  1
  F  F11  1  0.75000000  0.75000000  0.79766134  1
  F  F12  1  0.20233866  0.25000000  0.75000000  1
  F  F13  1  0.79766134  0.75000000  0.75000000  1
  F  F14  1  0.75000000  0.70233866  0.75000000  1
  F  F15  1  0.75000000  0.29766134  0.25000000  1
  F  F16  1  0.75000000  0.25000000  0.20233866  1
  F  F17  1  0.25000000  0.25000000  0.79766134  1
  F  F18  1  0.20233866  0.75000000  0.25000000  1
  F  F19  1  0.79766134  0.25000000  0.25000000  1
  F  F20  1  0.75000000  0.20233866  0.25000000  1
  F  F21  1  0.75000000  0.79766134  0.75000000  1
  F  F22  1  0.75000000  0.75000000  0.70233866  1
  F  F23  1  0.25000000  0.75000000  0.29766134  1
  F  F24  1  0.29365321  0.29365321  0.29365321  1
  F  F25  1  0.70634679  0.70634679  0.29365321  1
  F  F26  1  0.70634679  0.29365321  0.70634679  1
  F  F27  1  0.29365321  0.70634679  0.70634679  1
  F  F28  1  0.29365321  0.79365321  0.79365321  1
  F  F29  1  0.70634679  0.20634679  0.79365321  1
  F  F30  1  0.70634679  0.79365321  0.20634679  1
  F  F31  1  0.29365321  0.20634679  0.20634679  1
  F  F32  1  0.79365321  0.29365321  0.79365321  1
  F  F33  1  0.20634679  0.70634679  0.79365321  1
  F  F34  1  0.20634679  0.29365321  0.20634679  1
  F  F35  1  0.79365321  0.70634679  0.20634679  1
  F  F36  1  0.79365321  0.79365321  0.29365321  1
  F  F37  1  0.20634679  0.20634679  0.29365321  1
  F  F38  1  0.20634679  0.79365321  0.70634679  1
  F  F39  1  0.79365321  0.20634679  0.70634679  1
  Li  Li40  1  0.46584148  0.25000000  0.25000000  1
  Li  Li41  1  -0.46584148  0.75000000  0.25000000  1
  Li  Li42  1  0.25000000  0.46584148  0.25000000  1
  Li  Li43  1  0.25000000  -0.46584148  0.75000000  1
  Li  Li44  1  0.25000000  0.25000000  0.46584148  1
  Li  Li45  1  0.75000000  0.25000000  -0.46584148  1
  Li  Li46  1  0.46584148  0.75000000  0.75000000  1
  Li  Li47  1  -0.46584148  1.25000000  0.75000000  1
  Li  Li48  1  0.25000000  0.96584148  0.75000000  1
  Li  Li49  1  0.25000000  0.03415852  1.25000000  1
  Li  Li50  1  0.25000000  0.75000000  0.96584148  1
  Li  Li51  1  0.75000000  0.75000000  0.03415852  1
  Li  Li52  1  0.96584148  0.25000000  0.75000000  1
  Li  Li53  1  0.03415852  0.75000000  0.75000000  1
  Li  Li54  1  0.75000000  0.46584148  0.75000000  1
  Li  Li55  1  0.75000000  -0.46584148  1.25000000  1
  Li  Li56  1  0.75000000  0.25000000  0.96584148  1
  Li  Li57  1  1.25000000  0.25000000  0.03415852  1
  Li  Li58  1  0.96584148  0.75000000  0.25000000  1
  Li  Li59  1  0.03415852  1.25000000  0.25000000  1
  Li  Li60  1  0.75000000  0.96584148  0.25000000  1
  Li  Li61  1  0.75000000  0.03415852  0.75000000  1
  Li  Li62  1  0.75000000  0.75000000  0.46584148  1
  Li  Li63  1  1.25000000  0.75000000  -0.46584148  1
  Li  Li64  1  0.14401773  0.14401773  0.14401773  1
  Li  Li65  1  0.85598227  0.85598227  0.14401773  1
  Li  Li66  1  0.85598227  0.14401773  0.85598227  1
  Li  Li67  1  0.14401773  0.85598227  0.85598227  1
  Li  Li68  1  0.14401773  0.64401773  0.64401773  1
  Li  Li69  1  0.85598227  0.35598227  0.64401773  1
  Li  Li70  1  0.85598227  0.64401773  0.35598227  1
  Li  Li71  1  0.14401773  0.35598227  0.35598227  1
  Li  Li72  1  0.64401773  0.14401773  0.64401773  1
  Li  Li73  1  0.35598227  0.85598227  0.64401773  1
  Li  Li74  1  0.35598227  0.14401773  0.35598227  1
  Li  Li75  1  0.64401773  0.85598227  0.35598227  1
  Li  Li76  1  0.64401773  0.64401773  0.14401773  1
  Li  Li77  1  0.35598227  0.35598227  0.14401773  1
  Li  Li78  1  0.35598227  0.64401773  0.85598227  1
  Li  Li79  1  0.64401773  0.35598227  0.85598227  1
