# generated using pymatgen
data_LiYP2
_symmetry_space_group_name_H-M   'P 1'
_cell_length_a   3.92796772
_cell_length_b   4.20878175
_cell_length_c   6.76475507
_cell_angle_alpha   96.63505656
_cell_angle_beta   104.44977378
_cell_angle_gamma   116.65038513
_symmetry_Int_Tables_number   1
_chemical_formula_structural   LiYP2
_chemical_formula_sum   'Li2 Y2 P4'
_cell_volume   93.38868188
_cell_formula_units_Z   2
loop_
 _symmetry_equiv_pos_site_id
 _symmetry_equiv_pos_as_xyz
  1  'x, y, z'
loop_
 _atom_site_type_symbol
 _atom_site_label
 _atom_site_symmetry_multiplicity
 _atom_site_fract_x
 _atom_site_fract_y
 _atom_site_fract_z
 _atom_site_occupancy
  P  P0  1  0.00000000  0.00000000  0.00000000  1
  P  P1  1  0.33300000  0.66700000  0.25000000  1
  P  P2  1  0.66700000  0.33300000  0.50000000  1
  P  P3  1  0.00000000  0.00000000  0.75000000  1
  Li  Li4  1  0.76045236  0.17849664  0.83373849  1
  Li  Li5  1  0.77955101  0.20031255  0.68586212  1
  Y  Y6  1  0.85643317  0.84535453  0.84241601  1
  Y  Y7  1  0.38007459  0.26598878  0.84339502  1
