# generated using pymatgen
data_LiF
_symmetry_space_group_name_H-M   'P 1'
_cell_length_a   8.39040651
_cell_length_b   8.39040651
_cell_length_c   11.96362440
_cell_angle_alpha   90.00000000
_cell_angle_beta   90.00000000
_cell_angle_gamma   90.00000000
_symmetry_Int_Tables_number   1
_chemical_formula_structural   LiF
_chemical_formula_sum   'Li42 F42'
_cell_volume   842.22625473
_cell_formula_units_Z   42
loop_
 _symmetry_equiv_pos_site_id
 _symmetry_equiv_pos_as_xyz
  1  'x, y, z'
loop_
 _atom_site_type_symbol
 _atom_site_label
 _atom_site_symmetry_multiplicity
 _atom_site_fract_x
 _atom_site_fract_y
 _atom_site_fract_z
 _atom_site_occupancy
  F  F0  1  0.33542700  0.78619032  0.72714261  1
  F  F1  1  -0.33542700  -0.78619032  0.72714261  1
  F  F2  1  -0.78619032  0.33542700  0.72714261  1
  F  F3  1  0.78619032  -0.33542700  0.72714261  1
  F  F4  1  -0.33542700  0.78619032  -0.72714261  1
  F  F5  1  0.33542700  -0.78619032  -0.72714261  1
  F  F6  1  0.78619032  0.33542700  -0.72714261  1
  F  F7  1  -0.78619032  -0.33542700  -0.72714261  1
  F  F8  1  -0.33542700  -0.78619032  -0.72714261  1
  F  F9  1  0.33542700  0.78619032  -0.72714261  1
  F  F10  1  0.78619032  -0.33542700  -0.72714261  1
  F  F11  1  -0.78619032  0.33542700  -0.72714261  1
  F  F12  1  0.33542700  -0.78619032  0.72714261  1
  F  F13  1  -0.33542700  0.78619032  0.72714261  1
  F  F14  1  -0.78619032  -0.33542700  0.72714261  1
  F  F15  1  0.78619032  0.33542700  0.72714261  1
  F  F16  1  0.12098668  0.27479439  0.19877968  1
  F  F17  1  0.87901332  0.72520561  0.19877968  1
  F  F18  1  0.72520561  0.12098668  0.19877968  1
  F  F19  1  0.27479439  0.87901332  0.19877968  1
  F  F20  1  0.87901332  0.27479439  0.80122032  1
  F  F21  1  0.12098668  0.72520561  0.80122032  1
  F  F22  1  0.27479439  0.12098668  0.80122032  1
  F  F23  1  0.72520561  0.87901332  0.80122032  1
  F  F24  1  0.87901332  0.72520561  0.80122032  1
  F  F25  1  0.12098668  0.27479439  0.80122032  1
  F  F26  1  0.27479439  0.87901332  0.80122032  1
  F  F27  1  0.72520561  0.12098668  0.80122032  1
  F  F28  1  0.12098668  0.72520561  0.19877968  1
  F  F29  1  0.87901332  0.27479439  0.19877968  1
  F  F30  1  0.72520561  0.87901332  0.19877968  1
  F  F31  1  0.27479439  0.12098668  0.19877968  1
  F  F32  1  0.85889069  -0.00000000  0.62559829  1
  F  F33  1  0.14110931  0.00000000  0.62559829  1
  F  F34  1  0.00000000  0.85889069  0.62559829  1
  F  F35  1  0.00000000  0.14110931  0.62559829  1
  F  F36  1  0.14110931  0.00000000  0.37440171  1
  F  F37  1  0.85889069  -0.00000000  0.37440171  1
  F  F38  1  0.00000000  0.85889069  0.37440171  1
  F  F39  1  0.00000000  0.14110931  0.37440171  1
  F  F40  1  0.50000000  0.50000000  0.15377682  1
  F  F41  1  0.50000000  0.50000000  0.84622318  1
  Li  Li42  1  0.18594325  0.18594325  0.77167032  1
  Li  Li43  1  0.81405675  0.81405675  0.77167032  1
  Li  Li44  1  0.81405675  0.18594325  0.77167032  1
  Li  Li45  1  0.18594325  0.81405675  0.77167032  1
  Li  Li46  1  0.81405675  0.18594325  0.22832968  1
  Li  Li47  1  0.18594325  0.81405675  0.22832968  1
  Li  Li48  1  0.18594325  0.18594325  0.22832968  1
  Li  Li49  1  0.81405675  0.81405675  0.22832968  1
  Li  Li50  1  0.59465992  0.17770062  -0.00000000  1
  Li  Li51  1  0.40534008  0.82229938  -0.00000000  1
  Li  Li52  1  0.82229938  0.59465992  -0.00000000  1
  Li  Li53  1  0.17770062  0.40534008  -0.00000000  1
  Li  Li54  1  0.40534008  0.17770062  -0.00000000  1
  Li  Li55  1  0.59465992  0.82229938  -0.00000000  1
  Li  Li56  1  0.17770062  0.59465992  0.00000000  1
  Li  Li57  1  0.82229938  0.40534008  -0.00000000  1
  Li  Li58  1  0.50000000  0.50000000  0.50000000  1
  Li  Li59  1  0.00000000  0.50000000  0.50000000  1
  Li  Li60  1  0.50000000  0.00000000  0.50000000  1
  Li  Li61  1  0.22605231  0.22605231  -0.00000000  1
  Li  Li62  1  0.77394769  0.77394769  0.00000000  1
  Li  Li63  1  0.77394769  0.22605231  0.00000000  1
  Li  Li64  1  0.22605231  0.77394769  0.00000000  1
  Li  Li65  1  0.50000000  0.50000000  0.34828568  1
  Li  Li66  1  0.50000000  0.50000000  0.65171432  1
  Li  Li67  1  0.50000000  0.50000000  -0.00000000  1
  Li  Li68  1  0.00000000  0.50000000  0.06559053  1
  Li  Li69  1  0.50000000  0.00000000  0.06559053  1
  Li  Li70  1  0.00000000  0.50000000  0.93440947  1
  Li  Li71  1  0.50000000  0.00000000  0.93440947  1
  Li  Li72  1  0.15583646  0.15583646  0.90408659  1
  Li  Li73  1  0.84416354  0.84416354  0.90408659  1
  Li  Li74  1  0.84416354  0.15583646  0.90408659  1
  Li  Li75  1  0.15583646  0.84416354  0.90408659  1
  Li  Li76  1  0.84416354  0.15583646  0.09591341  1
  Li  Li77  1  0.15583646  0.84416354  0.09591341  1
  Li  Li78  1  0.15583646  0.15583646  0.09591341  1
  Li  Li79  1  0.84416354  0.84416354  0.09591341  1
  Li  Li80  1  0.25031834  0.00000000  0.50000000  1
  Li  Li81  1  0.74968166  0.00000000  0.50000000  1
  Li  Li82  1  0.00000000  0.25031834  0.50000000  1
  Li  Li83  1  0.00000000  0.74968166  0.50000000  1
