# generated using pymatgen
data_LiF
_symmetry_space_group_name_H-M   'P 1'
_cell_length_a   10.99474763
_cell_length_b   10.99474763
_cell_length_c   10.99474763
_cell_angle_alpha   90.00000000
_cell_angle_beta   90.00000000
_cell_angle_gamma   90.00000000
_symmetry_Int_Tables_number   1
_chemical_formula_structural   LiF
_chemical_formula_sum   'Li48 F48'
_cell_volume   1329.09430124
_cell_formula_units_Z   48
loop_
 _symmetry_equiv_pos_site_id
 _symmetry_equiv_pos_as_xyz
  1  'x, y, z'
loop_
 _atom_site_type_symbol
 _atom_site_label
 _atom_site_symmetry_multiplicity
 _atom_site_fract_x
 _atom_site_fract_y
 _atom_site_fract_z
 _atom_site_occupancy
  F  F0  1  0.33839628  -0.00000000  0.25000000  1
  F  F1  1  0.16160372  -0.00000000  0.75000000  1
  F  F2  1  0.25000000  0.33839628  0.00000000  1
  F  F3  1  0.75000000  0.16160372  0.00000000  1
  F  F4  1  0.00000000  0.25000000  0.33839628  1
  F  F5  1  0.00000000  0.75000000  0.16160372  1
  F  F6  1  0.75000000  0.58839628  0.00000000  1
  F  F7  1  0.75000000  0.41160372  0.50000000  1
  F  F8  1  0.08839628  0.50000000  0.25000000  1
  F  F9  1  0.91160372  -0.00000000  0.25000000  1
  F  F10  1  0.00000000  0.25000000  0.91160372  1
  F  F11  1  0.50000000  0.25000000  0.08839628  1
  F  F12  1  0.83839628  0.50000000  0.75000000  1
  F  F13  1  0.66160372  0.50000000  0.25000000  1
  F  F14  1  0.75000000  0.83839628  0.50000000  1
  F  F15  1  0.25000000  0.66160372  0.50000000  1
  F  F16  1  0.50000000  0.75000000  0.83839628  1
  F  F17  1  0.50000000  0.25000000  0.66160372  1
  F  F18  1  0.25000000  0.08839628  0.50000000  1
  F  F19  1  0.25000000  0.91160372  -0.00000000  1
  F  F20  1  0.58839628  0.00000000  0.75000000  1
  F  F21  1  0.41160372  0.50000000  0.75000000  1
  F  F22  1  0.50000000  0.75000000  0.41160372  1
  F  F23  1  0.00000000  0.75000000  0.58839628  1
  F  F24  1  0.51447254  -0.00000000  0.25000000  1
  F  F25  1  0.98552746  0.00000000  0.75000000  1
  F  F26  1  0.25000000  0.51447254  0.00000000  1
  F  F27  1  0.75000000  0.98552746  -0.00000000  1
  F  F28  1  0.00000000  0.25000000  0.51447254  1
  F  F29  1  0.00000000  0.75000000  0.98552746  1
  F  F30  1  0.75000000  0.76447254  -0.00000000  1
  F  F31  1  0.75000000  0.23552746  0.50000000  1
  F  F32  1  0.26447254  0.50000000  0.25000000  1
  F  F33  1  0.73552746  -0.00000000  0.25000000  1
  F  F34  1  0.00000000  0.25000000  0.73552746  1
  F  F35  1  0.50000000  0.25000000  0.26447254  1
  F  F36  1  0.01447254  0.50000000  0.75000000  1
  F  F37  1  0.48552746  0.50000000  0.25000000  1
  F  F38  1  0.75000000  0.01447254  0.50000000  1
  F  F39  1  0.25000000  0.48552746  0.50000000  1
  F  F40  1  0.50000000  0.75000000  0.01447254  1
  F  F41  1  0.50000000  0.25000000  0.48552746  1
  F  F42  1  0.25000000  0.26447254  0.50000000  1
  F  F43  1  0.25000000  0.73552746  -0.00000000  1
  F  F44  1  0.76447254  -0.00000000  0.75000000  1
  F  F45  1  0.23552746  0.50000000  0.75000000  1
  F  F46  1  0.50000000  0.75000000  0.23552746  1
  F  F47  1  0.00000000  0.75000000  0.76447254  1
  Li  Li48  1  0.45923365  0.34151261  0.55113100  1
  Li  Li49  1  0.04076635  -0.34151261  1.05113100  1
  Li  Li50  1  -0.45923365  0.84151261  -0.05113100  1
  Li  Li51  1  0.95923365  0.15848739  -0.55113100  1
  Li  Li52  1  0.55113100  0.45923365  0.34151261  1
  Li  Li53  1  1.05113100  0.04076635  -0.34151261  1
  Li  Li54  1  -0.05113100  -0.45923365  0.84151261  1
  Li  Li55  1  -0.55113100  0.95923365  0.15848739  1
  Li  Li56  1  0.34151261  0.55113100  0.45923365  1
  Li  Li57  1  -0.34151261  1.05113100  0.04076635  1
  Li  Li58  1  0.84151261  -0.05113100  -0.45923365  1
  Li  Li59  1  0.15848739  -0.55113100  0.95923365  1
  Li  Li60  1  1.09151261  0.70923365  -0.30113100  1
  Li  Li61  1  0.40848739  0.29076635  0.19886900  1
  Li  Li62  1  0.59151261  -0.20923365  1.30113100  1
  Li  Li63  1  -0.09151261  1.20923365  0.80113100  1
  Li  Li64  1  1.20923365  0.80113100  -0.09151261  1
  Li  Li65  1  -0.20923365  1.30113100  0.59151261  1
  Li  Li66  1  0.29076635  0.19886900  0.40848739  1
  Li  Li67  1  0.70923365  -0.30113100  1.09151261  1
  Li  Li68  1  1.30113100  0.59151261  -0.20923365  1
  Li  Li69  1  0.80113100  -0.09151261  1.20923365  1
  Li  Li70  1  -0.30113100  1.09151261  0.70923365  1
  Li  Li71  1  0.19886900  0.40848739  0.29076635  1
  Li  Li72  1  0.95923365  0.84151261  1.05113100  1
  Li  Li73  1  0.54076635  0.15848739  1.55113100  1
  Li  Li74  1  0.04076635  1.34151261  0.44886900  1
  Li  Li75  1  1.45923365  0.65848739  -0.05113100  1
  Li  Li76  1  1.05113100  0.95923365  0.84151261  1
  Li  Li77  1  1.55113100  0.54076635  0.15848739  1
  Li  Li78  1  0.44886900  0.04076635  1.34151261  1
  Li  Li79  1  -0.05113100  1.45923365  0.65848739  1
  Li  Li80  1  0.84151261  1.05113100  0.95923365  1
  Li  Li81  1  0.15848739  1.55113100  0.54076635  1
  Li  Li82  1  1.34151261  0.44886900  0.04076635  1
  Li  Li83  1  0.65848739  -0.05113100  1.45923365  1
  Li  Li84  1  1.59151261  1.20923365  0.19886900  1
  Li  Li85  1  0.90848739  0.79076635  0.69886900  1
  Li  Li86  1  1.09151261  0.29076635  1.80113100  1
  Li  Li87  1  0.40848739  1.70923365  1.30113100  1
  Li  Li88  1  1.70923365  1.30113100  0.40848739  1
  Li  Li89  1  0.29076635  1.80113100  1.09151261  1
  Li  Li90  1  0.79076635  0.69886900  0.90848739  1
  Li  Li91  1  1.20923365  0.19886900  1.59151261  1
  Li  Li92  1  1.80113100  1.09151261  0.29076635  1
  Li  Li93  1  1.30113100  0.40848739  1.70923365  1
  Li  Li94  1  0.19886900  1.59151261  1.20923365  1
  Li  Li95  1  0.69886900  0.90848739  0.79076635  1
