# generated using pymatgen
data_LiF
_symmetry_space_group_name_H-M   'P 1'
_cell_length_a   11.65968890
_cell_length_b   11.65968890
_cell_length_c   9.46763874
_cell_angle_alpha   90.00000000
_cell_angle_beta   90.00000000
_cell_angle_gamma   90.00000000
_symmetry_Int_Tables_number   1
_chemical_formula_structural   LiF
_chemical_formula_sum   'Li56 F56'
_cell_volume   1287.10981862
_cell_formula_units_Z   56
loop_
 _symmetry_equiv_pos_site_id
 _symmetry_equiv_pos_as_xyz
  1  'x, y, z'
loop_
 _atom_site_type_symbol
 _atom_site_label
 _atom_site_symmetry_multiplicity
 _atom_site_fract_x
 _atom_site_fract_y
 _atom_site_fract_z
 _atom_site_occupancy
  F  F0  1  0.78368801  0.88210980  0.91621288  1
  F  F1  1  0.71631199  0.11789020  0.41621288  1
  F  F2  1  0.36789020  0.53368801  0.16621288  1
  F  F3  1  0.13210980  0.46631199  0.66621288  1
  F  F4  1  0.71631199  0.88210980  0.08378712  1
  F  F5  1  0.78368801  0.11789020  0.58378712  1
  F  F6  1  0.13210980  0.53368801  0.83378712  1
  F  F7  1  0.36789020  0.46631199  0.33378712  1
  F  F8  1  0.21631199  0.11789020  0.08378712  1
  F  F9  1  0.28368801  0.88210980  0.58378712  1
  F  F10  1  0.63210980  0.46631199  0.83378712  1
  F  F11  1  0.86789020  0.53368801  0.33378712  1
  F  F12  1  0.28368801  0.11789020  0.91621288  1
  F  F13  1  0.21631199  0.88210980  0.41621288  1
  F  F14  1  0.86789020  0.46631199  0.16621288  1
  F  F15  1  0.63210980  0.53368801  0.66621288  1
  F  F16  1  0.28368801  0.38210980  0.41621288  1
  F  F17  1  0.21631199  0.61789020  0.91621288  1
  F  F18  1  0.86789020  0.03368801  0.66621288  1
  F  F19  1  0.63210980  0.96631199  0.16621288  1
  F  F20  1  0.21631199  0.38210980  0.58378712  1
  F  F21  1  0.28368801  0.61789020  0.08378712  1
  F  F22  1  0.63210980  0.03368801  0.33378712  1
  F  F23  1  0.86789020  0.96631199  0.83378712  1
  F  F24  1  0.71631199  0.61789020  0.58378712  1
  F  F25  1  0.78368801  0.38210980  0.08378712  1
  F  F26  1  0.13210980  0.96631199  0.33378712  1
  F  F27  1  0.36789020  0.03368801  0.83378712  1
  F  F28  1  0.78368801  0.61789020  0.41621288  1
  F  F29  1  0.71631199  0.38210980  0.91621288  1
  F  F30  1  0.36789020  0.96631199  0.66621288  1
  F  F31  1  0.13210980  0.03368801  0.16621288  1
  F  F32  1  0.00000000  0.25000000  0.81324168  1
  F  F33  1  0.00000000  0.75000000  0.06324168  1
  F  F34  1  0.50000000  0.25000000  0.18675832  1
  F  F35  1  0.50000000  0.75000000  0.93675832  1
  F  F36  1  0.00000000  0.75000000  0.18675832  1
  F  F37  1  0.00000000  0.25000000  0.93675832  1
  F  F38  1  0.50000000  0.75000000  0.81324168  1
  F  F39  1  0.50000000  0.25000000  0.06324168  1
  F  F40  1  0.50000000  0.75000000  0.31324168  1
  F  F41  1  0.50000000  0.25000000  0.56324168  1
  F  F42  1  0.00000000  0.75000000  0.68675832  1
  F  F43  1  0.00000000  0.25000000  0.43675832  1
  F  F44  1  0.50000000  0.25000000  0.68675832  1
  F  F45  1  0.50000000  0.75000000  0.43675832  1
  F  F46  1  0.00000000  0.25000000  0.31324168  1
  F  F47  1  0.00000000  0.75000000  0.56324168  1
  F  F48  1  0.00000000  0.25000000  0.37500000  1
  F  F49  1  0.00000000  0.75000000  0.62500000  1
  F  F50  1  0.50000000  0.25000000  0.62500000  1
  F  F51  1  0.50000000  0.75000000  0.37500000  1
  F  F52  1  0.50000000  0.75000000  0.87500000  1
  F  F53  1  0.50000000  0.25000000  0.12500000  1
  F  F54  1  0.00000000  0.75000000  0.12500000  1
  F  F55  1  0.00000000  0.25000000  0.87500000  1
  Li  Li56  1  0.00000000  0.25000000  0.12500000  1
  Li  Li57  1  0.00000000  0.75000000  0.37500000  1
  Li  Li58  1  0.00000000  0.75000000  0.87500000  1
  Li  Li59  1  0.00000000  0.25000000  0.62500000  1
  Li  Li60  1  0.50000000  0.75000000  0.62500000  1
  Li  Li61  1  0.50000000  0.25000000  0.87500000  1
  Li  Li62  1  0.50000000  0.25000000  0.37500000  1
  Li  Li63  1  0.50000000  0.75000000  0.12500000  1
  Li  Li64  1  0.19972968  0.73129506  0.90871459  1
  Li  Li65  1  0.30027032  -0.73129506  1.40871459  1
  Li  Li66  1  -0.48129506  0.94972968  1.15871459  1
  Li  Li67  1  0.98129506  0.05027032  1.65871459  1
  Li  Li68  1  0.30027032  0.73129506  -0.90871459  1
  Li  Li69  1  0.19972968  -0.73129506  -0.40871459  1
  Li  Li70  1  0.98129506  0.94972968  -0.15871459  1
  Li  Li71  1  -0.48129506  0.05027032  -0.65871459  1
  Li  Li72  1  -0.19972968  -0.73129506  -0.90871459  1
  Li  Li73  1  0.69972968  0.73129506  -0.40871459  1
  Li  Li74  1  1.48129506  0.05027032  -0.15871459  1
  Li  Li75  1  0.01870494  0.94972968  -0.65871459  1
  Li  Li76  1  0.69972968  -0.73129506  0.90871459  1
  Li  Li77  1  -0.19972968  0.73129506  1.40871459  1
  Li  Li78  1  0.01870494  0.05027032  1.15871459  1
  Li  Li79  1  1.48129506  0.94972968  1.65871459  1
  Li  Li80  1  0.69972968  1.23129506  1.40871459  1
  Li  Li81  1  0.80027032  -0.23129506  1.90871459  1
  Li  Li82  1  0.01870494  1.44972968  1.65871459  1
  Li  Li83  1  1.48129506  0.55027032  2.15871459  1
  Li  Li84  1  0.80027032  1.23129506  -0.40871459  1
  Li  Li85  1  0.69972968  -0.23129506  0.09128541  1
  Li  Li86  1  1.48129506  1.44972968  0.34128541  1
  Li  Li87  1  0.01870494  0.55027032  -0.15871459  1
  Li  Li88  1  0.30027032  -0.23129506  -0.40871459  1
  Li  Li89  1  1.19972968  1.23129506  0.09128541  1
  Li  Li90  1  1.98129506  0.55027032  0.34128541  1
  Li  Li91  1  0.51870494  1.44972968  -0.15871459  1
  Li  Li92  1  1.19972968  -0.23129506  1.40871459  1
  Li  Li93  1  0.30027032  1.23129506  1.90871459  1
  Li  Li94  1  0.51870494  0.55027032  1.65871459  1
  Li  Li95  1  1.98129506  1.44972968  2.15871459  1
  Li  Li96  1  0.00000000  0.00000000  0.00000000  1
  Li  Li97  1  0.50000000  0.00000000  0.50000000  1
  Li  Li98  1  0.25000000  0.75000000  0.25000000  1
  Li  Li99  1  0.25000000  0.25000000  0.75000000  1
  Li  Li100  1  0.50000000  0.00000000  -0.00000000  1
  Li  Li101  1  0.00000000  0.00000000  0.50000000  1
  Li  Li102  1  0.25000000  0.75000000  0.75000000  1
  Li  Li103  1  0.25000000  0.25000000  0.25000000  1
  Li  Li104  1  0.50000000  0.50000000  0.50000000  1
  Li  Li105  1  0.00000000  0.50000000  -0.00000000  1
  Li  Li106  1  0.75000000  0.25000000  0.75000000  1
  Li  Li107  1  0.75000000  0.75000000  0.25000000  1
  Li  Li108  1  0.00000000  0.50000000  0.50000000  1
  Li  Li109  1  0.50000000  0.50000000  -0.00000000  1
  Li  Li110  1  0.75000000  0.25000000  0.25000000  1
  Li  Li111  1  0.75000000  0.75000000  0.75000000  1
