# generated using pymatgen
data_LiF
_symmetry_space_group_name_H-M   'P 1'
_cell_length_a   12.06315373
_cell_length_b   11.17245516
_cell_length_c   7.01837992
_cell_angle_alpha   90.00000000
_cell_angle_beta   90.00000000
_cell_angle_gamma   90.00000000
_symmetry_Int_Tables_number   1
_chemical_formula_structural   LiF
_chemical_formula_sum   'Li24 F24'
_cell_volume   945.90246366
_cell_formula_units_Z   24
loop_
 _symmetry_equiv_pos_site_id
 _symmetry_equiv_pos_as_xyz
  1  'x, y, z'
loop_
 _atom_site_type_symbol
 _atom_site_label
 _atom_site_symmetry_multiplicity
 _atom_site_fract_x
 _atom_site_fract_y
 _atom_site_fract_z
 _atom_site_occupancy
  F  F0  1  0.13681530  0.88229977  0.42526991  1
  F  F1  1  0.36318470  0.11770023  0.92526991  1
  F  F2  1  0.86318470  0.38229977  0.57473009  1
  F  F3  1  0.63681530  0.61770023  0.07473009  1
  F  F4  1  0.86318470  0.11770023  0.57473009  1
  F  F5  1  0.63681530  0.88229977  0.07473009  1
  F  F6  1  0.13681530  0.61770023  0.42526991  1
  F  F7  1  0.36318470  0.38229977  0.92526991  1
  F  F8  1  0.08463084  0.48290909  0.36287660  1
  F  F9  1  0.41536916  0.51709091  0.86287660  1
  F  F10  1  0.91536916  0.98290909  0.63712340  1
  F  F11  1  0.58463084  0.01709091  0.13712340  1
  F  F12  1  0.91536916  0.51709091  0.63712340  1
  F  F13  1  0.58463084  0.48290909  0.13712340  1
  F  F14  1  0.08463084  0.01709091  0.36287660  1
  F  F15  1  0.41536916  0.98290909  0.86287660  1
  F  F16  1  0.51658055  0.71105062  0.62491689  1
  F  F17  1  0.98341945  0.28894938  0.12491689  1
  F  F18  1  0.48341945  0.21105062  0.37508311  1
  F  F19  1  0.01658055  0.78894938  0.87508311  1
  F  F20  1  0.48341945  0.28894938  0.37508311  1
  F  F21  1  0.01658055  0.71105062  0.87508311  1
  F  F22  1  0.51658055  0.78894938  0.62491689  1
  F  F23  1  0.98341945  0.21105062  0.12491689  1
  Li  Li24  1  0.33246890  0.54202642  0.17393948  1
  Li  Li25  1  0.16753110  -0.54202642  0.67393948  1
  Li  Li26  1  -0.33246890  1.04202642  -0.17393948  1
  Li  Li27  1  0.83246890  -0.04202642  0.32606052  1
  Li  Li28  1  -0.33246890  -0.54202642  -0.17393948  1
  Li  Li29  1  0.83246890  0.54202642  0.32606052  1
  Li  Li30  1  0.33246890  -0.04202642  0.17393948  1
  Li  Li31  1  0.16753110  1.04202642  0.67393948  1
  Li  Li32  1  0.67261142  0.33732722  0.56781691  1
  Li  Li33  1  0.82738858  0.66267278  0.06781691  1
  Li  Li34  1  0.32738858  0.83732722  0.43218309  1
  Li  Li35  1  0.17261142  0.16267278  0.93218309  1
  Li  Li36  1  0.32738858  0.66267278  0.43218309  1
  Li  Li37  1  0.17261142  0.33732722  0.93218309  1
  Li  Li38  1  0.67261142  0.16267278  0.56781691  1
  Li  Li39  1  0.82738858  0.83732722  0.06781691  1
  Li  Li40  1  0.66630111  0.25000000  0.36282420  1
  Li  Li41  1  0.83369889  0.75000000  0.86282420  1
  Li  Li42  1  0.33369889  0.75000000  0.63717580  1
  Li  Li43  1  0.16630111  0.25000000  0.13717580  1
  Li  Li44  1  0.00000000  0.00000000  0.00000000  1
  Li  Li45  1  0.50000000  0.00000000  0.50000000  1
  Li  Li46  1  0.00000000  0.50000000  0.00000000  1
  Li  Li47  1  0.50000000  0.50000000  0.50000000  1
