# generated using pymatgen
data_LiF
_symmetry_space_group_name_H-M   'P 1'
_cell_length_a   7.02833844
_cell_length_b   7.02833844
_cell_length_c   29.38139953
_cell_angle_alpha   90.00000000
_cell_angle_beta   90.00000000
_cell_angle_gamma   90.00000000
_symmetry_Int_Tables_number   1
_chemical_formula_structural   LiF
_chemical_formula_sum   'Li56 F56'
_cell_volume   1451.36889547
_cell_formula_units_Z   56
loop_
 _symmetry_equiv_pos_site_id
 _symmetry_equiv_pos_as_xyz
  1  'x, y, z'
loop_
 _atom_site_type_symbol
 _atom_site_label
 _atom_site_symmetry_multiplicity
 _atom_site_fract_x
 _atom_site_fract_y
 _atom_site_fract_z
 _atom_site_occupancy
  F  F0  1  0.00000000  0.00000000  0.00000000  1
  F  F1  1  0.50000000  0.00000000  0.50000000  1
  F  F2  1  0.25000000  0.75000000  0.25000000  1
  F  F3  1  0.25000000  0.25000000  0.75000000  1
  F  F4  1  0.50000000  0.00000000  0.00000000  1
  F  F5  1  0.00000000  0.00000000  0.50000000  1
  F  F6  1  0.25000000  0.75000000  0.75000000  1
  F  F7  1  0.25000000  0.25000000  0.25000000  1
  F  F8  1  0.50000000  0.50000000  0.50000000  1
  F  F9  1  0.00000000  0.50000000  0.00000000  1
  F  F10  1  0.75000000  0.25000000  0.75000000  1
  F  F11  1  0.75000000  0.75000000  0.25000000  1
  F  F12  1  0.00000000  0.50000000  0.50000000  1
  F  F13  1  0.50000000  0.50000000  0.00000000  1
  F  F14  1  0.75000000  0.25000000  0.25000000  1
  F  F15  1  0.75000000  0.75000000  0.75000000  1
  F  F16  1  0.90839930  0.43286053  0.96768995  1
  F  F17  1  0.59160070  0.56713947  0.46768995  1
  F  F18  1  0.81713947  0.65839930  0.21768995  1
  F  F19  1  0.68286053  0.34160070  0.71768995  1
  F  F20  1  0.59160070  0.43286053  0.03231005  1
  F  F21  1  0.90839930  0.56713947  0.53231005  1
  F  F22  1  0.68286053  0.65839930  0.78231005  1
  F  F23  1  0.81713947  0.34160070  0.28231005  1
  F  F24  1  0.09160070  0.56713947  0.03231005  1
  F  F25  1  0.40839930  0.43286053  0.53231005  1
  F  F26  1  0.18286053  0.34160070  0.78231005  1
  F  F27  1  0.31713947  0.65839930  0.28231005  1
  F  F28  1  0.40839930  0.56713947  0.96768995  1
  F  F29  1  0.09160070  0.43286053  0.46768995  1
  F  F30  1  0.31713947  0.34160070  0.21768995  1
  F  F31  1  0.18286053  0.65839930  0.71768995  1
  F  F32  1  0.40839930  0.93286053  0.46768995  1
  F  F33  1  0.09160070  0.06713947  0.96768995  1
  F  F34  1  0.31713947  0.15839930  0.71768995  1
  F  F35  1  0.18286053  0.84160070  0.21768995  1
  F  F36  1  0.09160070  0.93286053  0.53231005  1
  F  F37  1  0.40839930  0.06713947  0.03231005  1
  F  F38  1  0.18286053  0.15839930  0.28231005  1
  F  F39  1  0.31713947  0.84160070  0.78231005  1
  F  F40  1  0.59160070  0.06713947  0.53231005  1
  F  F41  1  0.90839930  0.93286053  0.03231005  1
  F  F42  1  0.68286053  0.84160070  0.28231005  1
  F  F43  1  0.81713947  0.15839930  0.78231005  1
  F  F44  1  0.90839930  0.06713947  0.46768995  1
  F  F45  1  0.59160070  0.93286053  0.96768995  1
  F  F46  1  0.81713947  0.84160070  0.71768995  1
  F  F47  1  0.68286053  0.15839930  0.21768995  1
  F  F48  1  0.00000000  0.25000000  0.37500000  1
  F  F49  1  0.00000000  0.75000000  0.62500000  1
  F  F50  1  0.50000000  0.25000000  0.62500000  1
  F  F51  1  0.50000000  0.75000000  0.37500000  1
  F  F52  1  0.50000000  0.75000000  0.87500000  1
  F  F53  1  0.50000000  0.25000000  0.12500000  1
  F  F54  1  0.00000000  0.75000000  0.12500000  1
  F  F55  1  0.00000000  0.25000000  0.87500000  1
  Li  Li56  1  0.65304762  0.18986068  0.56063935  1
  Li  Li57  1  -0.15304762  -0.18986068  1.06063935  1
  Li  Li58  1  0.06013932  1.40304762  0.81063935  1
  Li  Li59  1  0.43986068  -0.40304762  1.31063935  1
  Li  Li60  1  -0.15304762  0.18986068  -0.56063935  1
  Li  Li61  1  0.65304762  -0.18986068  -0.06063935  1
  Li  Li62  1  0.43986068  1.40304762  0.18936065  1
  Li  Li63  1  0.06013932  -0.40304762  -0.31063935  1
  Li  Li64  1  -0.65304762  -0.18986068  -0.56063935  1
  Li  Li65  1  1.15304762  0.18986068  -0.06063935  1
  Li  Li66  1  0.93986068  -0.40304762  0.18936065  1
  Li  Li67  1  0.56013932  1.40304762  -0.31063935  1
  Li  Li68  1  1.15304762  -0.18986068  0.56063935  1
  Li  Li69  1  -0.65304762  0.18986068  1.06063935  1
  Li  Li70  1  0.56013932  -0.40304762  0.81063935  1
  Li  Li71  1  0.93986068  1.40304762  1.31063935  1
  Li  Li72  1  1.15304762  0.68986068  1.06063935  1
  Li  Li73  1  0.34695238  0.31013932  1.56063935  1
  Li  Li74  1  0.56013932  1.90304762  1.31063935  1
  Li  Li75  1  0.93986068  0.09695238  1.81063935  1
  Li  Li76  1  0.34695238  0.68986068  -0.06063935  1
  Li  Li77  1  1.15304762  0.31013932  0.43936065  1
  Li  Li78  1  0.93986068  1.90304762  0.68936065  1
  Li  Li79  1  0.56013932  0.09695238  0.18936065  1
  Li  Li80  1  -0.15304762  0.31013932  -0.06063935  1
  Li  Li81  1  1.65304762  0.68986068  0.43936065  1
  Li  Li82  1  1.43986068  0.09695238  0.68936065  1
  Li  Li83  1  1.06013932  1.90304762  0.18936065  1
  Li  Li84  1  1.65304762  0.31013932  1.06063935  1
  Li  Li85  1  -0.15304762  0.68986068  1.56063935  1
  Li  Li86  1  1.06013932  0.09695238  1.31063935  1
  Li  Li87  1  1.43986068  1.90304762  1.81063935  1
  Li  Li88  1  0.00000000  0.25000000  0.12500000  1
  Li  Li89  1  0.00000000  0.75000000  0.37500000  1
  Li  Li90  1  0.00000000  0.75000000  0.87500000  1
  Li  Li91  1  0.00000000  0.25000000  0.62500000  1
  Li  Li92  1  0.50000000  0.75000000  0.62500000  1
  Li  Li93  1  0.50000000  0.25000000  0.87500000  1
  Li  Li94  1  0.50000000  0.25000000  0.37500000  1
  Li  Li95  1  0.50000000  0.75000000  0.12500000  1
  Li  Li96  1  0.13923367  0.38923367  0.12500000  1
  Li  Li97  1  0.36076633  0.61076633  0.62500000  1
  Li  Li98  1  0.86076633  0.88923367  0.37500000  1
  Li  Li99  1  0.63923367  0.11076633  0.87500000  1
  Li  Li100  1  0.86076633  0.61076633  0.87500000  1
  Li  Li101  1  0.63923367  0.38923367  0.37500000  1
  Li  Li102  1  0.13923367  0.11076633  0.62500000  1
  Li  Li103  1  0.36076633  0.88923367  0.12500000  1
  Li  Li104  1  0.63923367  0.88923367  0.62500000  1
  Li  Li105  1  0.86076633  0.11076633  0.12500000  1
  Li  Li106  1  0.36076633  0.38923367  0.87500000  1
  Li  Li107  1  0.13923367  0.61076633  0.37500000  1
  Li  Li108  1  0.36076633  0.11076633  0.37500000  1
  Li  Li109  1  0.13923367  0.88923367  0.87500000  1
  Li  Li110  1  0.63923367  0.61076633  0.12500000  1
  Li  Li111  1  0.86076633  0.38923367  0.62500000  1
