# generated using pymatgen
data_Sr3Li4S4O
_symmetry_space_group_name_H-M   'P 1'
_cell_length_a   17.14048106
_cell_length_b   17.14048106
_cell_length_c   15.25544061
_cell_angle_alpha   90.00000000
_cell_angle_beta   90.00000000
_cell_angle_gamma   90.00000000
_symmetry_Int_Tables_number   1
_chemical_formula_structural   Sr3Li4S4O
_chemical_formula_sum   'Sr48 Li64 S64 O16'
_cell_volume   4481.98881616
_cell_formula_units_Z   16
loop_
 _symmetry_equiv_pos_site_id
 _symmetry_equiv_pos_as_xyz
  1  'x, y, z'
loop_
 _atom_site_type_symbol
 _atom_site_label
 _atom_site_symmetry_multiplicity
 _atom_site_fract_x
 _atom_site_fract_y
 _atom_site_fract_z
 _atom_site_occupancy
  Li  Li0  1  0.00000000  0.25000000  0.37500000  1
  Li  Li1  1  0.00000000  0.75000000  0.62500000  1
  Li  Li2  1  0.50000000  0.25000000  0.62500000  1
  Li  Li3  1  0.50000000  0.75000000  0.37500000  1
  Li  Li4  1  0.50000000  0.75000000  0.87500000  1
  Li  Li5  1  0.50000000  0.25000000  0.12500000  1
  Li  Li6  1  0.00000000  0.75000000  0.12500000  1
  Li  Li7  1  0.00000000  0.25000000  0.87500000  1
  Li  Li8  1  0.78578634  0.89032869  0.11067119  1
  Li  Li9  1  0.71421366  0.10967131  0.61067119  1
  Li  Li10  1  0.35967131  0.53578634  0.36067119  1
  Li  Li11  1  0.14032869  0.46421366  0.86067119  1
  Li  Li12  1  0.71421366  0.89032869  0.88932881  1
  Li  Li13  1  0.78578634  0.10967131  0.38932881  1
  Li  Li14  1  0.14032869  0.53578634  0.63932881  1
  Li  Li15  1  0.35967131  0.46421366  0.13932881  1
  Li  Li16  1  0.21421366  0.10967131  0.88932881  1
  Li  Li17  1  0.28578634  0.89032869  0.38932881  1
  Li  Li18  1  0.64032869  0.46421366  0.63932881  1
  Li  Li19  1  0.85967131  0.53578634  0.13932881  1
  Li  Li20  1  0.28578634  0.10967131  0.11067119  1
  Li  Li21  1  0.21421366  0.89032869  0.61067119  1
  Li  Li22  1  0.85967131  0.46421366  0.36067119  1
  Li  Li23  1  0.64032869  0.53578634  0.86067119  1
  Li  Li24  1  0.28578634  0.39032869  0.61067119  1
  Li  Li25  1  0.21421366  0.60967131  0.11067119  1
  Li  Li26  1  0.85967131  0.03578634  0.86067119  1
  Li  Li27  1  0.64032869  0.96421366  0.36067119  1
  Li  Li28  1  0.21421366  0.39032869  0.38932881  1
  Li  Li29  1  0.28578634  0.60967131  0.88932881  1
  Li  Li30  1  0.64032869  0.03578634  0.13932881  1
  Li  Li31  1  0.85967131  0.96421366  0.63932881  1
  Li  Li32  1  0.71421366  0.60967131  0.38932881  1
  Li  Li33  1  0.78578634  0.39032869  0.88932881  1
  Li  Li34  1  0.14032869  0.96421366  0.13932881  1
  Li  Li35  1  0.35967131  0.03578634  0.63932881  1
  Li  Li36  1  0.78578634  0.60967131  0.61067119  1
  Li  Li37  1  0.71421366  0.39032869  0.11067119  1
  Li  Li38  1  0.35967131  0.96421366  0.86067119  1
  Li  Li39  1  0.14032869  0.03578634  0.36067119  1
  Li  Li40  1  0.17390440  0.42390440  0.12500000  1
  Li  Li41  1  0.32609560  0.57609560  0.62500000  1
  Li  Li42  1  0.82609560  0.92390440  0.37500000  1
  Li  Li43  1  0.67390440  0.07609560  0.87500000  1
  Li  Li44  1  0.82609560  0.57609560  0.87500000  1
  Li  Li45  1  0.67390440  0.42390440  0.37500000  1
  Li  Li46  1  0.17390440  0.07609560  0.62500000  1
  Li  Li47  1  0.32609560  0.92390440  0.12500000  1
  Li  Li48  1  0.67390440  0.92390440  0.62500000  1
  Li  Li49  1  0.82609560  0.07609560  0.12500000  1
  Li  Li50  1  0.32609560  0.42390440  0.87500000  1
  Li  Li51  1  0.17390440  0.57609560  0.37500000  1
  Li  Li52  1  0.32609560  0.07609560  0.37500000  1
  Li  Li53  1  0.17390440  0.92390440  0.87500000  1
  Li  Li54  1  0.67390440  0.57609560  0.12500000  1
  Li  Li55  1  0.82609560  0.42390440  0.62500000  1
  Li  Li56  1  0.00000000  0.25000000  0.12500000  1
  Li  Li57  1  0.00000000  0.75000000  0.37500000  1
  Li  Li58  1  0.00000000  0.75000000  0.87500000  1
  Li  Li59  1  0.00000000  0.25000000  0.62500000  1
  Li  Li60  1  0.50000000  0.75000000  0.62500000  1
  Li  Li61  1  0.50000000  0.25000000  0.87500000  1
  Li  Li62  1  0.50000000  0.25000000  0.37500000  1
  Li  Li63  1  0.50000000  0.75000000  0.12500000  1
  O  O64  1  0.00000000  0.00000000  0.00000000  1
  O  O65  1  0.50000000  0.00000000  0.50000000  1
  O  O66  1  0.25000000  0.75000000  0.25000000  1
  O  O67  1  0.25000000  0.25000000  0.75000000  1
  O  O68  1  0.50000000  0.00000000  0.00000000  1
  O  O69  1  0.00000000  0.00000000  0.50000000  1
  O  O70  1  0.25000000  0.75000000  0.75000000  1
  O  O71  1  0.25000000  0.25000000  0.25000000  1
  O  O72  1  0.50000000  0.50000000  0.50000000  1
  O  O73  1  0.00000000  0.50000000  0.00000000  1
  O  O74  1  0.75000000  0.25000000  0.75000000  1
  O  O75  1  0.75000000  0.75000000  0.25000000  1
  O  O76  1  0.00000000  0.50000000  0.50000000  1
  O  O77  1  0.50000000  0.50000000  0.00000000  1
  O  O78  1  0.75000000  0.25000000  0.25000000  1
  O  O79  1  0.75000000  0.75000000  0.75000000  1
  S  S80  1  0.68559396  0.38309981  0.87438189  1
  S  S81  1  -0.18559396  -0.38309981  1.37438189  1
  S  S82  1  -0.13309981  1.43559396  1.12438189  1
  S  S83  1  0.63309981  -0.43559396  1.62438189  1
  S  S84  1  -0.18559396  0.38309981  -0.87438189  1
  S  S85  1  0.68559396  -0.38309981  -0.37438189  1
  S  S86  1  0.63309981  1.43559396  -0.12438189  1
  S  S87  1  -0.13309981  -0.43559396  -0.62438189  1
  S  S88  1  -0.68559396  -0.38309981  -0.87438189  1
  S  S89  1  1.18559396  0.38309981  -0.37438189  1
  S  S90  1  1.13309981  -0.43559396  -0.12438189  1
  S  S91  1  0.36690019  1.43559396  -0.62438189  1
  S  S92  1  1.18559396  -0.38309981  0.87438189  1
  S  S93  1  -0.68559396  0.38309981  1.37438189  1
  S  S94  1  0.36690019  -0.43559396  1.12438189  1
  S  S95  1  1.13309981  1.43559396  1.62438189  1
  S  S96  1  1.18559396  0.88309981  1.37438189  1
  S  S97  1  0.31440604  0.11690019  1.87438189  1
  S  S98  1  0.36690019  1.93559396  1.62438189  1
  S  S99  1  1.13309981  0.06440604  2.12438189  1
  S  S100  1  0.31440604  0.88309981  -0.37438189  1
  S  S101  1  1.18559396  0.11690019  0.12561811  1
  S  S102  1  1.13309981  1.93559396  0.37561811  1
  S  S103  1  0.36690019  0.06440604  -0.12438189  1
  S  S104  1  -0.18559396  0.11690019  -0.37438189  1
  S  S105  1  1.68559396  0.88309981  0.12561811  1
  S  S106  1  1.63309981  0.06440604  0.37561811  1
  S  S107  1  0.86690019  1.93559396  -0.12438189  1
  S  S108  1  1.68559396  0.11690019  1.37438189  1
  S  S109  1  -0.18559396  0.88309981  1.87438189  1
  S  S110  1  0.86690019  0.06440604  1.62438189  1
  S  S111  1  1.63309981  1.93559396  2.12438189  1
  S  S112  1  0.20718977  0.85578121  0.93484426  1
  S  S113  1  0.29281023  0.14421879  0.43484426  1
  S  S114  1  0.39421879  0.95718977  0.18484426  1
  S  S115  1  0.10578121  0.04281023  0.68484426  1
  S  S116  1  0.29281023  0.85578121  0.06515574  1
  S  S117  1  0.20718977  0.14421879  0.56515574  1
  S  S118  1  0.10578121  0.95718977  0.81515574  1
  S  S119  1  0.39421879  0.04281023  0.31515574  1
  S  S120  1  0.79281023  0.14421879  0.06515574  1
  S  S121  1  0.70718977  0.85578121  0.56515574  1
  S  S122  1  0.60578121  0.04281023  0.81515574  1
  S  S123  1  0.89421879  0.95718977  0.31515574  1
  S  S124  1  0.70718977  0.14421879  0.93484426  1
  S  S125  1  0.79281023  0.85578121  0.43484426  1
  S  S126  1  0.89421879  0.04281023  0.18484426  1
  S  S127  1  0.60578121  0.95718977  0.68484426  1
  S  S128  1  0.70718977  0.35578121  0.43484426  1
  S  S129  1  0.79281023  0.64421879  0.93484426  1
  S  S130  1  0.89421879  0.45718977  0.68484426  1
  S  S131  1  0.60578121  0.54281023  0.18484426  1
  S  S132  1  0.79281023  0.35578121  0.56515574  1
  S  S133  1  0.70718977  0.64421879  0.06515574  1
  S  S134  1  0.60578121  0.45718977  0.31515574  1
  S  S135  1  0.89421879  0.54281023  0.81515574  1
  S  S136  1  0.29281023  0.64421879  0.56515574  1
  S  S137  1  0.20718977  0.35578121  0.06515574  1
  S  S138  1  0.10578121  0.54281023  0.31515574  1
  S  S139  1  0.39421879  0.45718977  0.81515574  1
  S  S140  1  0.20718977  0.64421879  0.43484426  1
  S  S141  1  0.29281023  0.35578121  0.93484426  1
  S  S142  1  0.39421879  0.54281023  0.68484426  1
  S  S143  1  0.10578121  0.45718977  0.18484426  1
  Sr  Sr144  1  0.31379329  -0.00000000  0.25000000  1
  Sr  Sr145  1  0.18620671  0.00000000  0.75000000  1
  Sr  Sr146  1  0.25000000  0.06379329  0.50000000  1
  Sr  Sr147  1  0.25000000  0.93620671  -0.00000000  1
  Sr  Sr148  1  0.68620671  -0.00000000  0.75000000  1
  Sr  Sr149  1  0.81379329  -0.00000000  0.25000000  1
  Sr  Sr150  1  0.75000000  0.93620671  0.50000000  1
  Sr  Sr151  1  0.75000000  0.06379329  0.00000000  1
  Sr  Sr152  1  0.81379329  0.50000000  0.75000000  1
  Sr  Sr153  1  0.68620671  0.50000000  0.25000000  1
  Sr  Sr154  1  0.75000000  0.56379329  0.00000000  1
  Sr  Sr155  1  0.75000000  0.43620671  0.50000000  1
  Sr  Sr156  1  0.18620671  0.50000000  0.25000000  1
  Sr  Sr157  1  0.31379329  0.50000000  0.75000000  1
  Sr  Sr158  1  0.25000000  0.43620671  -0.00000000  1
  Sr  Sr159  1  0.25000000  0.56379329  0.50000000  1
  Sr  Sr160  1  0.92243160  0.33214876  0.72002895  1
  Sr  Sr161  1  0.57756840  0.66785124  0.22002895  1
  Sr  Sr162  1  0.91785124  0.67243160  0.97002895  1
  Sr  Sr163  1  0.58214876  0.32756840  0.47002895  1
  Sr  Sr164  1  0.57756840  0.33214876  0.27997105  1
  Sr  Sr165  1  0.92243160  0.66785124  0.77997105  1
  Sr  Sr166  1  0.58214876  0.67243160  0.02997105  1
  Sr  Sr167  1  0.91785124  0.32756840  0.52997105  1
  Sr  Sr168  1  0.07756840  0.66785124  0.27997105  1
  Sr  Sr169  1  0.42243160  0.33214876  0.77997105  1
  Sr  Sr170  1  0.08214876  0.32756840  0.02997105  1
  Sr  Sr171  1  0.41785124  0.67243160  0.52997105  1
  Sr  Sr172  1  0.42243160  0.66785124  0.72002895  1
  Sr  Sr173  1  0.07756840  0.33214876  0.22002895  1
  Sr  Sr174  1  0.41785124  0.32756840  0.97002895  1
  Sr  Sr175  1  0.08214876  0.67243160  0.47002895  1
  Sr  Sr176  1  0.42243160  0.83214876  0.22002895  1
  Sr  Sr177  1  0.07756840  0.16785124  0.72002895  1
  Sr  Sr178  1  0.41785124  0.17243160  0.47002895  1
  Sr  Sr179  1  0.08214876  0.82756840  0.97002895  1
  Sr  Sr180  1  0.07756840  0.83214876  0.77997105  1
  Sr  Sr181  1  0.42243160  0.16785124  0.27997105  1
  Sr  Sr182  1  0.08214876  0.17243160  0.52997105  1
  Sr  Sr183  1  0.41785124  0.82756840  0.02997105  1
  Sr  Sr184  1  0.57756840  0.16785124  0.77997105  1
  Sr  Sr185  1  0.92243160  0.83214876  0.27997105  1
  Sr  Sr186  1  0.58214876  0.82756840  0.52997105  1
  Sr  Sr187  1  0.91785124  0.17243160  0.02997105  1
  Sr  Sr188  1  0.92243160  0.16785124  0.22002895  1
  Sr  Sr189  1  0.57756840  0.83214876  0.72002895  1
  Sr  Sr190  1  0.91785124  0.82756840  0.47002895  1
  Sr  Sr191  1  0.58214876  0.17243160  0.97002895  1
