# generated using pymatgen
data_Li2Y2As3P2Se
_symmetry_space_group_name_H-M   'P 1'
_cell_length_a   5.24367994
_cell_length_b   5.27845321
_cell_length_c   7.02838628
_cell_angle_alpha   94.18755923
_cell_angle_beta   98.43792398
_cell_angle_gamma   105.75066028
_symmetry_Int_Tables_number   1
_chemical_formula_structural   Li2Y2As3P2Se
_chemical_formula_sum   'Li2 Y2 As3 P2 Se1'
_cell_volume   183.89842056
_cell_formula_units_Z   1
loop_
 _symmetry_equiv_pos_site_id
 _symmetry_equiv_pos_as_xyz
  1  'x, y, z'
loop_
 _atom_site_type_symbol
 _atom_site_label
 _atom_site_symmetry_multiplicity
 _atom_site_fract_x
 _atom_site_fract_y
 _atom_site_fract_z
 _atom_site_occupancy
  Se  Se0  1  0.12500000  0.00000000  0.25000000  1
  P  P1  1  0.00000000  0.00000000  0.00000000  1
  P  P2  1  0.37500000  0.00000000  0.25000000  1
  As  As3  1  0.25000000  0.25000000  0.25000000  1
  As  As4  1  0.00000000  0.25000000  0.12500000  1
  As  As5  1  0.62550147  0.29780723  0.09321332  1
  Li  Li6  1  0.70086894  0.87982343  0.60727659  1
  Li  Li7  1  0.89434655  0.50712520  0.36787911  1
  Y  Y8  1  0.34202620  0.23545166  0.11691459  1
  Y  Y9  1  0.98395122  0.81857623  0.48373279  1
