# generated using pymatgen
data_Li2Ca3F8
_symmetry_space_group_name_H-M   'P 1'
_cell_length_a   12.13014225
_cell_length_b   12.13014225
_cell_length_c   11.30057745
_cell_angle_alpha   90.00000000
_cell_angle_beta   90.00000000
_cell_angle_gamma   120.00000000
_symmetry_Int_Tables_number   1
_chemical_formula_structural   Li2Ca3F8
_chemical_formula_sum   'Li16 Ca24 F64'
_cell_volume   1440.00186881
_cell_formula_units_Z   8
loop_
 _symmetry_equiv_pos_site_id
 _symmetry_equiv_pos_as_xyz
  1  'x, y, z'
loop_
 _atom_site_type_symbol
 _atom_site_label
 _atom_site_symmetry_multiplicity
 _atom_site_fract_x
 _atom_site_fract_y
 _atom_site_fract_z
 _atom_site_occupancy
  Ca  Ca0  1  0.54354436  0.45755154  0.33897654  1
  Ca  Ca1  1  0.54244846  0.08599282  0.33897654  1
  Ca  Ca2  1  0.91400718  0.45645564  0.33897654  1
  Ca  Ca3  1  0.54244846  0.45645564  0.66102346  1
  Ca  Ca4  1  0.91400718  0.45755154  0.66102346  1
  Ca  Ca5  1  0.54354436  0.08599282  0.66102346  1
  Ca  Ca6  1  0.19830741  0.80169259  0.00000000  1
  Ca  Ca7  1  0.19830741  0.39661482  -0.00000000  1
  Ca  Ca8  1  0.60338518  0.80169259  -0.00000000  1
  Ca  Ca9  1  0.23237033  0.02030296  0.04096922  1
  Ca  Ca10  1  0.97969704  0.21206737  0.04096922  1
  Ca  Ca11  1  0.78793263  0.76762967  0.04096922  1
  Ca  Ca12  1  0.97969704  0.76762967  0.95903078  1
  Ca  Ca13  1  0.78793263  0.02030296  0.95903078  1
  Ca  Ca14  1  0.23237033  0.21206737  0.95903078  1
  Ca  Ca15  1  0.91053624  0.74463351  0.34639653  1
  Ca  Ca16  1  0.25536649  0.16590273  0.34639653  1
  Ca  Ca17  1  0.83409727  0.08946376  0.34639653  1
  Ca  Ca18  1  0.25536649  0.08946376  0.65360347  1
  Ca  Ca19  1  0.83409727  0.74463351  0.65360347  1
  Ca  Ca20  1  0.91053624  0.16590273  0.65360347  1
  Ca  Ca21  1  0.45828804  0.54171196  0.50000000  1
  Ca  Ca22  1  0.45828804  0.91657608  0.50000000  1
  Ca  Ca23  1  0.08342392  0.54171196  0.50000000  1
  F  F24  1  0.00000000  0.00000000  0.81999888  1
  F  F25  1  0.00000000  0.00000000  0.18000112  1
  F  F26  1  0.00000000  0.00000000  0.58455544  1
  F  F27  1  0.00000000  0.00000000  0.41544456  1
  F  F28  1  0.69366683  0.09467231  0.00955518  1
  F  F29  1  -0.09467231  0.59899451  0.00955518  1
  F  F30  1  -0.59899451  -0.69366683  0.00955518  1
  F  F31  1  -0.09467231  -0.69366683  -0.00955518  1
  F  F32  1  -0.59899451  0.09467231  -0.00955518  1
  F  F33  1  0.69366683  0.59899451  -0.00955518  1
  F  F34  1  0.00771506  0.69332786  0.31102641  1
  F  F35  1  0.30667214  0.31438721  0.31102641  1
  F  F36  1  0.68561279  0.99228494  0.31102641  1
  F  F37  1  0.30667214  0.99228494  0.68897359  1
  F  F38  1  0.68561279  0.69332786  0.68897359  1
  F  F39  1  0.00771506  0.31438721  0.68897359  1
  F  F40  1  0.14365371  0.43277297  0.12423152  1
  F  F41  1  0.56722703  0.71088074  0.12423152  1
  F  F42  1  0.28911926  0.85634629  0.12423152  1
  F  F43  1  0.56722703  0.85634629  0.87576848  1
  F  F44  1  0.28911926  0.43277297  0.87576848  1
  F  F45  1  0.14365371  0.71088074  0.87576848  1
  F  F46  1  0.82624337  0.37001183  0.80203277  1
  F  F47  1  0.62998817  0.45623153  0.80203277  1
  F  F48  1  0.54376847  0.17375663  0.80203277  1
  F  F49  1  0.62998817  0.17375663  0.19796723  1
  F  F50  1  0.54376847  0.37001183  0.19796723  1
  F  F51  1  0.82624337  0.45623153  0.19796723  1
  F  F52  1  0.66666667  0.33333333  -0.00000000  1
  F  F53  1  0.44040317  0.08660345  0.66242646  1
  F  F54  1  0.91339655  0.35379972  0.66242646  1
  F  F55  1  0.64620028  0.55959683  0.66242646  1
  F  F56  1  0.91339655  0.55959683  0.33757354  1
  F  F57  1  0.64620028  0.08660345  0.33757354  1
  F  F58  1  0.44040317  0.35379972  0.33757354  1
  F  F59  1  0.71705401  0.44201490  0.36636485  1
  F  F60  1  0.55798510  0.27503911  0.36636485  1
  F  F61  1  0.72496089  0.28294599  0.36636485  1
  F  F62  1  0.55798510  0.28294599  0.63363515  1
  F  F63  1  0.72496089  0.44201490  0.63363515  1
  F  F64  1  0.71705401  0.27503911  0.63363515  1
  F  F65  1  0.00000000  0.00000000  0.00000000  1
  F  F66  1  0.20655189  0.79344811  0.50000000  1
  F  F67  1  0.20655189  0.41310378  0.50000000  1
  F  F68  1  0.58689622  0.79344811  0.50000000  1
  F  F69  1  0.95739615  0.66871024  0.61668096  1
  F  F70  1  0.33128976  0.28868591  0.61668096  1
  F  F71  1  0.71131409  0.04260385  0.61668096  1
  F  F72  1  0.33128976  0.04260385  0.38331904  1
  F  F73  1  0.71131409  0.66871024  0.38331904  1
  F  F74  1  0.95739615  0.28868591  0.38331904  1
  F  F75  1  0.25721203  0.74278797  0.50000000  1
  F  F76  1  0.25721203  0.51442407  0.50000000  1
  F  F77  1  0.48557593  0.74278797  0.50000000  1
  F  F78  1  0.40230276  0.13267192  0.34101099  1
  F  F79  1  0.86732808  0.26963084  0.34101099  1
  F  F80  1  0.73036916  0.59769724  0.34101099  1
  F  F81  1  0.86732808  0.59769724  0.65898901  1
  F  F82  1  0.73036916  0.13267192  0.65898901  1
  F  F83  1  0.40230276  0.26963084  0.65898901  1
  F  F84  1  0.33333333  0.66666667  0.50000000  1
  F  F85  1  0.63136424  0.36863576  0.00000000  1
  F  F86  1  0.63136424  0.26272848  0.00000000  1
  F  F87  1  0.73727152  0.36863576  0.00000000  1
  Li  Li88  1  0.68686903  0.21964736  0.45964347  1
  Li  Li89  1  0.78035264  0.46722168  0.45964347  1
  Li  Li90  1  0.53277832  0.31313097  0.45964347  1
  Li  Li91  1  0.78035264  0.31313097  0.54035653  1
  Li  Li92  1  0.53277832  0.21964736  0.54035653  1
  Li  Li93  1  0.68686903  0.46722168  0.54035653  1
  Li  Li94  1  0.33333333  0.66666667  -0.00000000  1
  Li  Li95  1  0.97753643  0.32567230  0.27455095  1
  Li  Li96  1  0.67432770  0.65186413  0.27455095  1
  Li  Li97  1  0.34813587  0.02246357  0.27455095  1
  Li  Li98  1  0.67432770  0.02246357  0.72544905  1
  Li  Li99  1  0.34813587  0.32567230  0.72544905  1
  Li  Li100  1  0.97753643  0.65186413  0.72544905  1
  Li  Li101  1  0.33333333  0.66666667  0.33713498  1
  Li  Li102  1  0.33333333  0.66666667  0.66286502  1
  Li  Li103  1  0.66666667  0.33333333  0.50000000  1
