# generated using pymatgen
data_Li3Y2Al(P2Se)2
_symmetry_space_group_name_H-M   'P 1'
_cell_length_a   5.34452617
_cell_length_b   5.67753238
_cell_length_c   7.32920988
_cell_angle_alpha   94.09180475
_cell_angle_beta   98.91110007
_cell_angle_gamma   106.43515342
_symmetry_Int_Tables_number   1
_chemical_formula_structural   Li3Y2Al(P2Se)2
_chemical_formula_sum   'Li3 Y2 Al1 P4 Se2'
_cell_volume   209.17122395
_cell_formula_units_Z   1
loop_
 _symmetry_equiv_pos_site_id
 _symmetry_equiv_pos_as_xyz
  1  'x, y, z'
loop_
 _atom_site_type_symbol
 _atom_site_label
 _atom_site_symmetry_multiplicity
 _atom_site_fract_x
 _atom_site_fract_y
 _atom_site_fract_z
 _atom_site_occupancy
  Al  Al0  1  0.00000000  0.00000000  0.00000000  1
  Y  Y1  1  0.50000000  0.50000000  0.50000000  1
  Y  Y2  1  0.50000000  0.50000000  0.00000000  1
  P  P3  1  0.50000000  0.00000000  0.50000000  1
  P  P4  1  0.00000000  0.50000000  0.50000000  1
  P  P5  1  0.75377168  0.82574645  0.38175887  1
  P  P6  1  0.08274087  0.51903001  0.53778246  1
  Se  Se7  1  0.31702860  0.49026561  0.56559154  1
  Se  Se8  1  0.07615051  0.34370298  0.03055787  1
  Li  Li9  1  0.41544564  0.73846596  0.37574273  1
  Li  Li10  1  0.45063343  0.28243760  0.76534482  1
  Li  Li11  1  0.37158696  0.81633003  0.48387209  1
