# generated using pymatgen
data_Li4TeF2
_symmetry_space_group_name_H-M   'P 1'
_cell_length_a   14.91234517
_cell_length_b   14.91234517
_cell_length_c   14.91234517
_cell_angle_alpha   90.00000000
_cell_angle_beta   90.00000000
_cell_angle_gamma   90.00000000
_symmetry_Int_Tables_number   1
_chemical_formula_structural   Li4TeF2
_chemical_formula_sum   'Li96 Te24 F48'
_cell_volume   3316.17806971
_cell_formula_units_Z   24
loop_
 _symmetry_equiv_pos_site_id
 _symmetry_equiv_pos_as_xyz
  1  'x, y, z'
loop_
 _atom_site_type_symbol
 _atom_site_label
 _atom_site_symmetry_multiplicity
 _atom_site_fract_x
 _atom_site_fract_y
 _atom_site_fract_z
 _atom_site_occupancy
  F  F0  1  0.67683463  0.27094270  0.97196777  1
  F  F1  1  -0.17683463  -0.27094270  1.47196777  1
  F  F2  1  -0.67683463  0.77094270  -0.47196777  1
  F  F3  1  1.17683463  0.22905730  -0.97196777  1
  F  F4  1  0.97196777  0.67683463  0.27094270  1
  F  F5  1  1.47196777  -0.17683463  -0.27094270  1
  F  F6  1  -0.47196777  -0.67683463  0.77094270  1
  F  F7  1  -0.97196777  1.17683463  0.22905730  1
  F  F8  1  0.27094270  0.97196777  0.67683463  1
  F  F9  1  -0.27094270  1.47196777  -0.17683463  1
  F  F10  1  0.77094270  -0.47196777  -0.67683463  1
  F  F11  1  0.22905730  -0.97196777  1.17683463  1
  F  F12  1  1.02094270  0.92683463  -0.72196777  1
  F  F13  1  0.47905730  0.07316537  -0.22196777  1
  F  F14  1  0.52094270  -0.42683463  1.72196777  1
  F  F15  1  -0.02094270  1.42683463  1.22196777  1
  F  F16  1  1.42683463  1.22196777  -0.02094270  1
  F  F17  1  -0.42683463  1.72196777  0.52094270  1
  F  F18  1  0.07316537  -0.22196777  0.47905730  1
  F  F19  1  0.92683463  -0.72196777  1.02094270  1
  F  F20  1  1.72196777  0.52094270  -0.42683463  1
  F  F21  1  1.22196777  -0.02094270  1.42683463  1
  F  F22  1  -0.72196777  1.02094270  0.92683463  1
  F  F23  1  -0.22196777  0.47905730  0.07316537  1
  F  F24  1  1.17683463  0.77094270  1.47196777  1
  F  F25  1  0.32316537  0.22905730  1.97196777  1
  F  F26  1  -0.17683463  1.27094270  0.02803223  1
  F  F27  1  1.67683463  0.72905730  -0.47196777  1
  F  F28  1  1.47196777  1.17683463  0.77094270  1
  F  F29  1  1.97196777  0.32316537  0.22905730  1
  F  F30  1  0.02803223  -0.17683463  1.27094270  1
  F  F31  1  -0.47196777  1.67683463  0.72905730  1
  F  F32  1  0.77094270  1.47196777  1.17683463  1
  F  F33  1  0.22905730  1.97196777  0.32316537  1
  F  F34  1  1.27094270  0.02803223  -0.17683463  1
  F  F35  1  0.72905730  -0.47196777  1.67683463  1
  F  F36  1  1.52094270  1.42683463  -0.22196777  1
  F  F37  1  0.97905730  0.57316537  0.27803223  1
  F  F38  1  1.02094270  0.07316537  2.22196777  1
  F  F39  1  0.47905730  1.92683463  1.72196777  1
  F  F40  1  1.92683463  1.72196777  0.47905730  1
  F  F41  1  0.07316537  2.22196777  1.02094270  1
  F  F42  1  0.57316537  0.27803223  0.97905730  1
  F  F43  1  1.42683463  -0.22196777  1.52094270  1
  F  F44  1  2.22196777  1.02094270  0.07316537  1
  F  F45  1  1.72196777  0.47905730  1.92683463  1
  F  F46  1  -0.22196777  1.52094270  1.42683463  1
  F  F47  1  0.27803223  0.97905730  0.57316537  1
  Li  Li48  1  0.11437098  0.72405121  0.64921191  1
  Li  Li49  1  0.38562902  0.27594879  0.14921191  1
  Li  Li50  1  0.88562902  0.22405121  0.85078809  1
  Li  Li51  1  0.61437098  0.77594879  0.35078809  1
  Li  Li52  1  0.64921191  0.11437098  0.72405121  1
  Li  Li53  1  0.14921191  0.38562902  0.27594879  1
  Li  Li54  1  0.85078809  0.88562902  0.22405121  1
  Li  Li55  1  0.35078809  0.61437098  0.77594879  1
  Li  Li56  1  0.72405121  0.64921191  0.11437098  1
  Li  Li57  1  0.27594879  0.14921191  0.38562902  1
  Li  Li58  1  0.22405121  0.85078809  0.88562902  1
  Li  Li59  1  0.77594879  0.35078809  0.61437098  1
  Li  Li60  1  0.47405121  0.36437098  0.60078809  1
  Li  Li61  1  0.02594879  0.63562902  0.10078809  1
  Li  Li62  1  0.97405121  0.13562902  0.39921191  1
  Li  Li63  1  0.52594879  0.86437098  0.89921191  1
  Li  Li64  1  0.86437098  0.89921191  0.52594879  1
  Li  Li65  1  0.13562902  0.39921191  0.97405121  1
  Li  Li66  1  0.63562902  0.10078809  0.02594879  1
  Li  Li67  1  0.36437098  0.60078809  0.47405121  1
  Li  Li68  1  0.39921191  0.97405121  0.13562902  1
  Li  Li69  1  0.89921191  0.52594879  0.86437098  1
  Li  Li70  1  0.60078809  0.47405121  0.36437098  1
  Li  Li71  1  0.10078809  0.02594879  0.63562902  1
  Li  Li72  1  0.61437098  0.22405121  0.14921191  1
  Li  Li73  1  0.88562902  0.77594879  0.64921191  1
  Li  Li74  1  0.38562902  0.72405121  0.35078809  1
  Li  Li75  1  0.11437098  0.27594879  0.85078809  1
  Li  Li76  1  0.14921191  0.61437098  0.22405121  1
  Li  Li77  1  0.64921191  0.88562902  0.77594879  1
  Li  Li78  1  0.35078809  0.38562902  0.72405121  1
  Li  Li79  1  0.85078809  0.11437098  0.27594879  1
  Li  Li80  1  0.22405121  0.14921191  0.61437098  1
  Li  Li81  1  0.77594879  0.64921191  0.88562902  1
  Li  Li82  1  0.72405121  0.35078809  0.38562902  1
  Li  Li83  1  0.27594879  0.85078809  0.11437098  1
  Li  Li84  1  0.97405121  0.86437098  0.10078809  1
  Li  Li85  1  0.52594879  0.13562902  0.60078809  1
  Li  Li86  1  0.47405121  0.63562902  0.89921191  1
  Li  Li87  1  0.02594879  0.36437098  0.39921191  1
  Li  Li88  1  0.36437098  0.39921191  0.02594879  1
  Li  Li89  1  0.63562902  0.89921191  0.47405121  1
  Li  Li90  1  0.13562902  0.60078809  0.52594879  1
  Li  Li91  1  0.86437098  0.10078809  0.97405121  1
  Li  Li92  1  0.89921191  0.47405121  0.63562902  1
  Li  Li93  1  0.39921191  0.02594879  0.36437098  1
  Li  Li94  1  0.10078809  0.97405121  0.86437098  1
  Li  Li95  1  0.60078809  0.52594879  0.13562902  1
  Li  Li96  1  0.71085782  0.78348148  0.53663483  1
  Li  Li97  1  0.78914218  0.21651852  0.03663483  1
  Li  Li98  1  0.28914218  0.28348148  0.96336517  1
  Li  Li99  1  0.21085782  0.71651852  0.46336517  1
  Li  Li100  1  0.53663483  0.71085782  0.78348148  1
  Li  Li101  1  0.03663483  0.78914218  0.21651852  1
  Li  Li102  1  0.96336517  0.28914218  0.28348148  1
  Li  Li103  1  0.46336517  0.21085782  0.71651852  1
  Li  Li104  1  0.78348148  0.53663483  0.71085782  1
  Li  Li105  1  0.21651852  0.03663483  0.78914218  1
  Li  Li106  1  0.28348148  0.96336517  0.28914218  1
  Li  Li107  1  0.71651852  0.46336517  0.21085782  1
  Li  Li108  1  0.53348148  0.96085782  0.71336517  1
  Li  Li109  1  0.96651852  0.03914218  0.21336517  1
  Li  Li110  1  0.03348148  0.53914218  0.28663483  1
  Li  Li111  1  0.46651852  0.46085782  0.78663483  1
  Li  Li112  1  0.46085782  0.78663483  0.46651852  1
  Li  Li113  1  0.53914218  0.28663483  0.03348148  1
  Li  Li114  1  0.03914218  0.21336517  0.96651852  1
  Li  Li115  1  0.96085782  0.71336517  0.53348148  1
  Li  Li116  1  0.28663483  0.03348148  0.53914218  1
  Li  Li117  1  0.78663483  0.46651852  0.46085782  1
  Li  Li118  1  0.71336517  0.53348148  0.96085782  1
  Li  Li119  1  0.21336517  0.96651852  0.03914218  1
  Li  Li120  1  0.21085782  0.28348148  0.03663483  1
  Li  Li121  1  0.28914218  0.71651852  0.53663483  1
  Li  Li122  1  0.78914218  0.78348148  0.46336517  1
  Li  Li123  1  0.71085782  0.21651852  0.96336517  1
  Li  Li124  1  0.03663483  0.21085782  0.28348148  1
  Li  Li125  1  0.53663483  0.28914218  0.71651852  1
  Li  Li126  1  0.46336517  0.78914218  0.78348148  1
  Li  Li127  1  0.96336517  0.71085782  0.21651852  1
  Li  Li128  1  0.28348148  0.03663483  0.21085782  1
  Li  Li129  1  0.71651852  0.53663483  0.28914218  1
  Li  Li130  1  0.78348148  0.46336517  0.78914218  1
  Li  Li131  1  0.21651852  0.96336517  0.71085782  1
  Li  Li132  1  0.03348148  0.46085782  0.21336517  1
  Li  Li133  1  0.46651852  0.53914218  0.71336517  1
  Li  Li134  1  0.53348148  0.03914218  0.78663483  1
  Li  Li135  1  0.96651852  0.96085782  0.28663483  1
  Li  Li136  1  0.96085782  0.28663483  0.96651852  1
  Li  Li137  1  0.03914218  0.78663483  0.53348148  1
  Li  Li138  1  0.53914218  0.71336517  0.46651852  1
  Li  Li139  1  0.46085782  0.21336517  0.03348148  1
  Li  Li140  1  0.78663483  0.53348148  0.03914218  1
  Li  Li141  1  0.28663483  0.96651852  0.96085782  1
  Li  Li142  1  0.21336517  0.03348148  0.46085782  1
  Li  Li143  1  0.71336517  0.46651852  0.53914218  1
  Te  Te144  1  0.12500000  0.83496037  0.41503963  1
  Te  Te145  1  0.37500000  0.16503963  0.91503963  1
  Te  Te146  1  0.87500000  0.33496037  0.08496037  1
  Te  Te147  1  0.62500000  0.66503963  0.58496037  1
  Te  Te148  1  0.41503963  0.12500000  0.83496037  1
  Te  Te149  1  0.91503963  0.37500000  0.16503963  1
  Te  Te150  1  0.08496037  0.87500000  0.33496037  1
  Te  Te151  1  0.58496037  0.62500000  0.66503963  1
  Te  Te152  1  0.83496037  0.41503963  0.12500000  1
  Te  Te153  1  0.16503963  0.91503963  0.37500000  1
  Te  Te154  1  0.33496037  0.08496037  0.87500000  1
  Te  Te155  1  0.66503963  0.58496037  0.62500000  1
  Te  Te156  1  0.62500000  0.33496037  0.91503963  1
  Te  Te157  1  0.87500000  0.66503963  0.41503963  1
  Te  Te158  1  0.37500000  0.83496037  0.58496037  1
  Te  Te159  1  0.12500000  0.16503963  0.08496037  1
  Te  Te160  1  0.91503963  0.62500000  0.33496037  1
  Te  Te161  1  0.41503963  0.87500000  0.66503963  1
  Te  Te162  1  0.58496037  0.37500000  0.83496037  1
  Te  Te163  1  0.08496037  0.12500000  0.16503963  1
  Te  Te164  1  0.33496037  0.91503963  0.62500000  1
  Te  Te165  1  0.66503963  0.41503963  0.87500000  1
  Te  Te166  1  0.83496037  0.58496037  0.37500000  1
  Te  Te167  1  0.16503963  0.08496037  0.12500000  1
