# generated using pymatgen
data_Li2YP2Pb2Se
_symmetry_space_group_name_H-M   'P 1'
_cell_length_a   5.36239606
_cell_length_b   5.56623550
_cell_length_c   7.01785005
_cell_angle_alpha   94.88050013
_cell_angle_beta   98.69109208
_cell_angle_gamma   103.63625689
_symmetry_Int_Tables_number   1
_chemical_formula_structural   Li2YP2Pb2Se
_chemical_formula_sum   'Li2 Y1 P2 Pb2 Se1'
_cell_volume   199.63453822
_cell_formula_units_Z   1
loop_
 _symmetry_equiv_pos_site_id
 _symmetry_equiv_pos_as_xyz
  1  'x, y, z'
loop_
 _atom_site_type_symbol
 _atom_site_label
 _atom_site_symmetry_multiplicity
 _atom_site_fract_x
 _atom_site_fract_y
 _atom_site_fract_z
 _atom_site_occupancy
  Se  Se0  1  0.00000000  0.00000000  0.00000000  1
  Pb  Pb1  1  0.50000000  0.50000000  0.50000000  1
  Pb  Pb2  1  0.50000000  0.50000000  0.00000000  1
  Y  Y3  1  0.50000000  0.00000000  0.50000000  1
  P  P4  1  0.00000000  0.50000000  0.50000000  1
  P  P5  1  0.05749998  0.20389296  0.52681946  1
  Li  Li6  1  0.43244427  0.48259622  0.20239330  1
  Li  Li7  1  0.82078556  0.78459428  0.12845336  1
