# generated using pymatgen
data_LiF
_symmetry_space_group_name_H-M   'P 1'
_cell_length_a   14.39105213
_cell_length_b   10.74040112
_cell_length_c   9.71235941
_cell_angle_alpha   90.00000000
_cell_angle_beta   90.00000000
_cell_angle_gamma   90.00000000
_symmetry_Int_Tables_number   1
_chemical_formula_structural   LiF
_chemical_formula_sum   'Li80 F80'
_cell_volume   1501.19736322
_cell_formula_units_Z   80
loop_
 _symmetry_equiv_pos_site_id
 _symmetry_equiv_pos_as_xyz
  1  'x, y, z'
loop_
 _atom_site_type_symbol
 _atom_site_label
 _atom_site_symmetry_multiplicity
 _atom_site_fract_x
 _atom_site_fract_y
 _atom_site_fract_z
 _atom_site_occupancy
  F  F0  1  0.97027664  0.25000000  0.64099081  1
  F  F1  1  0.52972336  0.75000000  0.14099081  1
  F  F2  1  0.02972336  0.75000000  0.35900919  1
  F  F3  1  0.47027664  0.25000000  0.85900919  1
  F  F4  1  0.64890317  0.08874035  0.30141390  1
  F  F5  1  0.85109683  0.91125965  0.80141390  1
  F  F6  1  0.35109683  0.58874035  0.69858610  1
  F  F7  1  0.14890317  0.41125965  0.19858610  1
  F  F8  1  0.35109683  0.91125965  0.69858610  1
  F  F9  1  0.14890317  0.08874035  0.19858610  1
  F  F10  1  0.64890317  0.41125965  0.30141390  1
  F  F11  1  0.85109683  0.58874035  0.80141390  1
  F  F12  1  0.00000000  0.00000000  0.50000000  1
  F  F13  1  0.50000000  0.00000000  0.00000000  1
  F  F14  1  0.00000000  0.50000000  0.50000000  1
  F  F15  1  0.50000000  0.50000000  0.00000000  1
  F  F16  1  0.38771914  0.44866059  0.04529142  1
  F  F17  1  0.11228086  0.55133941  0.54529142  1
  F  F18  1  0.61228086  0.94866059  0.95470858  1
  F  F19  1  0.88771914  0.05133941  0.45470858  1
  F  F20  1  0.61228086  0.55133941  0.95470858  1
  F  F21  1  0.88771914  0.44866059  0.45470858  1
  F  F22  1  0.38771914  0.05133941  0.04529142  1
  F  F23  1  0.11228086  0.94866059  0.54529142  1
  F  F24  1  0.74696082  0.25000000  0.65285732  1
  F  F25  1  0.75303918  0.75000000  0.15285732  1
  F  F26  1  0.25303918  0.75000000  0.34714268  1
  F  F27  1  0.24696082  0.25000000  0.84714268  1
  F  F28  1  0.06271824  0.33979630  0.45452773  1
  F  F29  1  0.43728176  0.66020370  0.95452773  1
  F  F30  1  0.93728176  0.83979630  0.54547227  1
  F  F31  1  0.56271824  0.16020370  0.04547227  1
  F  F32  1  0.93728176  0.66020370  0.54547227  1
  F  F33  1  0.56271824  0.33979630  0.04547227  1
  F  F34  1  0.06271824  0.16020370  0.45452773  1
  F  F35  1  0.43728176  0.83979630  0.95452773  1
  F  F36  1  0.86657017  0.47523008  0.71019625  1
  F  F37  1  0.63342983  0.52476992  0.21019625  1
  F  F38  1  0.13342983  0.97523008  0.28980375  1
  F  F39  1  0.36657017  0.02476992  0.78980375  1
  F  F40  1  0.13342983  0.52476992  0.28980375  1
  F  F41  1  0.36657017  0.47523008  0.78980375  1
  F  F42  1  0.86657017  0.02476992  0.71019625  1
  F  F43  1  0.63342983  0.97523008  0.21019625  1
  F  F44  1  0.80220999  0.25000000  0.03942138  1
  F  F45  1  0.69779001  0.75000000  0.53942138  1
  F  F46  1  0.19779001  0.75000000  0.96057862  1
  F  F47  1  0.30220999  0.25000000  0.46057862  1
  F  F48  1  0.87424881  0.89096093  0.50614117  1
  F  F49  1  0.62575119  0.10903907  0.00614117  1
  F  F50  1  0.12575119  0.39096093  0.49385883  1
  F  F51  1  0.37424881  0.60903907  0.99385883  1
  F  F52  1  0.12575119  0.10903907  0.49385883  1
  F  F53  1  0.37424881  0.89096093  0.99385883  1
  F  F54  1  0.87424881  0.60903907  0.50614117  1
  F  F55  1  0.62575119  0.39096093  0.00614117  1
  F  F56  1  0.29331813  0.15423188  0.73149908  1
  F  F57  1  0.20668187  0.84576812  0.23149908  1
  F  F58  1  0.70668187  0.65423188  0.26850092  1
  F  F59  1  0.79331813  0.34576812  0.76850092  1
  F  F60  1  0.70668187  0.84576812  0.26850092  1
  F  F61  1  0.79331813  0.15423188  0.76850092  1
  F  F62  1  0.29331813  0.34576812  0.73149908  1
  F  F63  1  0.20668187  0.65423188  0.23149908  1
  F  F64  1  0.32033680  0.95259376  0.10079252  1
  F  F65  1  0.17966320  0.04740624  0.60079252  1
  F  F66  1  0.67966320  0.45259376  0.89920748  1
  F  F67  1  0.82033680  0.54740624  0.39920748  1
  F  F68  1  0.67966320  0.04740624  0.89920748  1
  F  F69  1  0.82033680  0.95259376  0.39920748  1
  F  F70  1  0.32033680  0.54740624  0.10079252  1
  F  F71  1  0.17966320  0.45259376  0.60079252  1
  F  F72  1  0.72640172  0.64605278  0.57111789  1
  F  F73  1  0.77359828  0.35394722  0.07111789  1
  F  F74  1  0.27359828  0.14605278  0.42888211  1
  F  F75  1  0.22640172  0.85394722  0.92888211  1
  F  F76  1  0.27359828  0.35394722  0.42888211  1
  F  F77  1  0.22640172  0.64605278  0.92888211  1
  F  F78  1  0.72640172  0.85394722  0.57111789  1
  F  F79  1  0.77359828  0.14605278  0.07111789  1
  Li  Li80  1  0.15948864  0.89594419  0.17036529  1
  Li  Li81  1  0.34051136  -0.89594419  0.67036529  1
  Li  Li82  1  -0.15948864  1.39594419  -0.17036529  1
  Li  Li83  1  0.65948864  -0.39594419  0.32963471  1
  Li  Li84  1  -0.15948864  -0.89594419  -0.17036529  1
  Li  Li85  1  0.65948864  0.89594419  0.32963471  1
  Li  Li86  1  0.15948864  -0.39594419  0.17036529  1
  Li  Li87  1  0.34051136  1.39594419  0.67036529  1
  Li  Li88  1  0.43215015  0.95458731  0.88091576  1
  Li  Li89  1  0.06784985  0.04541269  0.38091576  1
  Li  Li90  1  0.56784985  0.45458731  0.11908424  1
  Li  Li91  1  0.93215015  0.54541269  0.61908424  1
  Li  Li92  1  0.56784985  0.04541269  0.11908424  1
  Li  Li93  1  0.93215015  0.95458731  0.61908424  1
  Li  Li94  1  0.43215015  0.54541269  0.88091576  1
  Li  Li95  1  0.06784985  0.45458731  0.38091576  1
  Li  Li96  1  0.09623423  0.94813653  0.96301594  1
  Li  Li97  1  0.40376577  0.05186347  0.46301594  1
  Li  Li98  1  0.90376577  0.44813653  0.03698406  1
  Li  Li99  1  0.59623423  0.55186347  0.53698406  1
  Li  Li100  1  0.90376577  0.05186347  0.03698406  1
  Li  Li101  1  0.59623423  0.94813653  0.53698406  1
  Li  Li102  1  0.09623423  0.55186347  0.96301594  1
  Li  Li103  1  0.40376577  0.44813653  0.46301594  1
  Li  Li104  1  0.65702791  0.25000000  0.56415895  1
  Li  Li105  1  0.84297209  0.75000000  0.06415895  1
  Li  Li106  1  0.34297209  0.75000000  0.43584105  1
  Li  Li107  1  0.15702791  0.25000000  0.93584105  1
  Li  Li108  1  0.00000000  0.00000000  0.00000000  1
  Li  Li109  1  0.50000000  0.00000000  0.50000000  1
  Li  Li110  1  0.00000000  0.50000000  0.00000000  1
  Li  Li111  1  0.50000000  0.50000000  0.50000000  1
  Li  Li112  1  0.22320327  0.32111454  0.34319186  1
  Li  Li113  1  0.27679673  0.67888546  0.84319186  1
  Li  Li114  1  0.77679673  0.82111454  0.65680814  1
  Li  Li115  1  0.72320327  0.17888546  0.15680814  1
  Li  Li116  1  0.77679673  0.67888546  0.65680814  1
  Li  Li117  1  0.72320327  0.32111454  0.15680814  1
  Li  Li118  1  0.22320327  0.17888546  0.34319186  1
  Li  Li119  1  0.27679673  0.82111454  0.84319186  1
  Li  Li120  1  0.47534443  0.37306204  0.60951718  1
  Li  Li121  1  0.02465557  0.62693796  0.10951718  1
  Li  Li122  1  0.52465557  0.87306204  0.39048282  1
  Li  Li123  1  0.97534443  0.12693796  0.89048282  1
  Li  Li124  1  0.52465557  0.62693796  0.39048282  1
  Li  Li125  1  0.97534443  0.37306204  0.89048282  1
  Li  Li126  1  0.47534443  0.12693796  0.60951718  1
  Li  Li127  1  0.02465557  0.87306204  0.10951718  1
  Li  Li128  1  0.03669990  0.25000000  0.11519569  1
  Li  Li129  1  0.46330010  0.75000000  0.61519569  1
  Li  Li130  1  0.96330010  0.75000000  0.88480431  1
  Li  Li131  1  0.53669990  0.25000000  0.38480431  1
  Li  Li132  1  0.00977283  0.37741443  0.30546352  1
  Li  Li133  1  0.49022717  0.62258557  0.80546352  1
  Li  Li134  1  0.99022717  0.87741443  0.69453648  1
  Li  Li135  1  0.50977283  0.12258557  0.19453648  1
  Li  Li136  1  0.99022717  0.62258557  0.69453648  1
  Li  Li137  1  0.50977283  0.37741443  0.19453648  1
  Li  Li138  1  0.00977283  0.12258557  0.30546352  1
  Li  Li139  1  0.49022717  0.87741443  0.80546352  1
  Li  Li140  1  0.74259801  0.52509231  0.53723834  1
  Li  Li141  1  0.75740199  0.47490769  0.03723834  1
  Li  Li142  1  0.25740199  0.02509231  0.46276166  1
  Li  Li143  1  0.24259801  0.97490769  0.96276166  1
  Li  Li144  1  0.25740199  0.47490769  0.46276166  1
  Li  Li145  1  0.24259801  0.52509231  0.96276166  1
  Li  Li146  1  0.74259801  0.97490769  0.53723834  1
  Li  Li147  1  0.75740199  0.02509231  0.03723834  1
  Li  Li148  1  0.60378756  0.25000000  0.74541512  1
  Li  Li149  1  0.89621244  0.75000000  0.24541512  1
  Li  Li150  1  0.39621244  0.75000000  0.25458488  1
  Li  Li151  1  0.10378756  0.25000000  0.75458488  1
  Li  Li152  1  0.04808890  0.46810520  0.74189204  1
  Li  Li153  1  0.45191110  0.53189480  0.24189204  1
  Li  Li154  1  0.95191110  0.96810520  0.25810796  1
  Li  Li155  1  0.54808890  0.03189480  0.75810796  1
  Li  Li156  1  0.95191110  0.53189480  0.25810796  1
  Li  Li157  1  0.54808890  0.46810520  0.75810796  1
  Li  Li158  1  0.04808890  0.03189480  0.74189204  1
  Li  Li159  1  0.45191110  0.96810520  0.24189204  1
