# generated using pymatgen
data_LiYAs2P3
_symmetry_space_group_name_H-M   'P 1'
_cell_length_a   5.43717962
_cell_length_b   5.57274646
_cell_length_c   7.28960578
_cell_angle_alpha   94.49238642
_cell_angle_beta   99.52023010
_cell_angle_gamma   106.76480373
_symmetry_Int_Tables_number   1
_chemical_formula_structural   LiYAs2P3
_chemical_formula_sum   'Li1 Y1 As2 P3'
_cell_volume   206.70851983
_cell_formula_units_Z   1
loop_
 _symmetry_equiv_pos_site_id
 _symmetry_equiv_pos_as_xyz
  1  'x, y, z'
loop_
 _atom_site_type_symbol
 _atom_site_label
 _atom_site_symmetry_multiplicity
 _atom_site_fract_x
 _atom_site_fract_y
 _atom_site_fract_z
 _atom_site_occupancy
  P  P0  1  0.12500000  0.12500000  0.12500000  1
  P  P1  1  0.50000000  0.50000000  0.50000000  1
  P  P2  1  0.25000000  0.25000000  0.25000000  1
  As  As3  1  0.75000000  0.75000000  0.75000000  1
  As  As4  1  0.74948437  0.69816315  0.64690035  1
  Li  Li5  1  0.37479314  0.42588172  0.58115798  1
  Y  Y6  1  0.55184404  0.16184936  0.65105875  1
