# generated using pymatgen
data_LiF
_symmetry_space_group_name_H-M   'P 1'
_cell_length_a   10.40869431
_cell_length_b   10.40869431
_cell_length_c   5.05260433
_cell_angle_alpha   90.00000000
_cell_angle_beta   90.00000000
_cell_angle_gamma   90.00000000
_symmetry_Int_Tables_number   1
_chemical_formula_structural   LiF
_chemical_formula_sum   'Li21 F21'
_cell_volume   547.40378749
_cell_formula_units_Z   21
loop_
 _symmetry_equiv_pos_site_id
 _symmetry_equiv_pos_as_xyz
  1  'x, y, z'
loop_
 _atom_site_type_symbol
 _atom_site_label
 _atom_site_symmetry_multiplicity
 _atom_site_fract_x
 _atom_site_fract_y
 _atom_site_fract_z
 _atom_site_occupancy
  F  F0  1  0.24175729  0.33370941  0.50000000  1
  F  F1  1  0.75824271  0.66629059  0.50000000  1
  F  F2  1  0.66629059  0.24175729  0.50000000  1
  F  F3  1  0.33370941  0.75824271  0.50000000  1
  F  F4  1  0.75824271  0.33370941  0.50000000  1
  F  F5  1  0.24175729  0.66629059  0.50000000  1
  F  F6  1  0.33370941  0.24175729  0.50000000  1
  F  F7  1  0.66629059  0.75824271  0.50000000  1
  F  F8  1  0.31235551  0.00000000  0.50000000  1
  F  F9  1  0.68764449  0.00000000  0.50000000  1
  F  F10  1  0.00000000  0.31235551  0.50000000  1
  F  F11  1  0.00000000  0.68764449  0.50000000  1
  F  F12  1  0.29110117  0.50000000  0.16361413  1
  F  F13  1  0.70889883  0.50000000  0.16361413  1
  F  F14  1  0.50000000  0.29110117  0.16361413  1
  F  F15  1  0.50000000  0.70889883  0.16361413  1
  F  F16  1  0.70889883  0.50000000  0.83638587  1
  F  F17  1  0.29110117  0.50000000  0.83638587  1
  F  F18  1  0.50000000  0.29110117  0.83638587  1
  F  F19  1  0.50000000  0.70889883  0.83638587  1
  F  F20  1  0.00000000  0.00000000  0.50000000  1
  Li  Li21  1  0.50000000  0.50000000  0.50000000  1
  Li  Li22  1  0.20244413  0.31507042  0.00000000  1
  Li  Li23  1  -0.20244413  -0.31507042  0.00000000  1
  Li  Li24  1  -0.31507042  0.20244413  -0.00000000  1
  Li  Li25  1  0.31507042  -0.20244413  0.00000000  1
  Li  Li26  1  -0.20244413  0.31507042  0.00000000  1
  Li  Li27  1  0.20244413  -0.31507042  -0.00000000  1
  Li  Li28  1  0.31507042  0.20244413  0.00000000  1
  Li  Li29  1  -0.31507042  -0.20244413  0.00000000  1
  Li  Li30  1  0.71024719  0.50000000  0.50000000  1
  Li  Li31  1  0.28975281  0.50000000  0.50000000  1
  Li  Li32  1  0.50000000  0.71024719  0.50000000  1
  Li  Li33  1  0.50000000  0.28975281  0.50000000  1
  Li  Li34  1  0.00000000  0.50000000  0.00000000  1
  Li  Li35  1  0.50000000  0.00000000  0.00000000  1
  Li  Li36  1  0.11365245  -0.00000000  0.00000000  1
  Li  Li37  1  0.88634755  0.00000000  0.00000000  1
  Li  Li38  1  0.00000000  0.11365245  0.00000000  1
  Li  Li39  1  0.00000000  0.88634755  0.00000000  1
  Li  Li40  1  0.00000000  0.50000000  0.50000000  1
  Li  Li41  1  0.50000000  0.00000000  0.50000000  1
