# generated using pymatgen
data_Li2SiSb2(TeI2)3
_symmetry_space_group_name_H-M   'P 1'
_cell_length_a   6.16482420
_cell_length_b   6.16482420
_cell_length_c   37.02559682
_cell_angle_alpha   90.00000000
_cell_angle_beta   90.00000000
_cell_angle_gamma   120.00000000
_symmetry_Int_Tables_number   1
_chemical_formula_structural   Li2SiSb2(TeI2)3
_chemical_formula_sum   'Li8 Si4 Sb8 Te12 I24'
_cell_volume   1218.63625049
_cell_formula_units_Z   4
loop_
 _symmetry_equiv_pos_site_id
 _symmetry_equiv_pos_as_xyz
  1  'x, y, z'
loop_
 _atom_site_type_symbol
 _atom_site_label
 _atom_site_symmetry_multiplicity
 _atom_site_fract_x
 _atom_site_fract_y
 _atom_site_fract_z
 _atom_site_occupancy
  I  I0  1  0.13750433  0.27500866  0.54683855  1
  I  I1  1  0.72499134  0.86249567  0.54683855  1
  I  I2  1  0.13750433  0.86249567  0.54683855  1
  I  I3  1  0.86249567  0.72499134  0.04683855  1
  I  I4  1  0.27500866  0.13750433  0.04683855  1
  I  I5  1  0.86249567  0.13750433  0.04683855  1
  I  I6  1  0.27500866  0.13750433  0.45316145  1
  I  I7  1  0.86249567  0.72499134  0.45316145  1
  I  I8  1  0.86249567  0.13750433  0.45316145  1
  I  I9  1  0.72499134  0.86249567  0.95316145  1
  I  I10  1  0.13750433  0.27500866  0.95316145  1
  I  I11  1  0.13750433  0.86249567  0.95316145  1
  I  I12  1  0.10052826  0.20105653  0.07442182  1
  I  I13  1  0.79894347  0.89947174  0.07442182  1
  I  I14  1  0.10052826  0.89947174  0.07442182  1
  I  I15  1  0.89947174  0.79894347  0.57442182  1
  I  I16  1  0.20105653  0.10052826  0.57442182  1
  I  I17  1  0.89947174  0.10052826  0.57442182  1
  I  I18  1  0.20105653  0.10052826  0.92557818  1
  I  I19  1  0.89947174  0.79894347  0.92557818  1
  I  I20  1  0.89947174  0.10052826  0.92557818  1
  I  I21  1  0.79894347  0.89947174  0.42557818  1
  I  I22  1  0.10052826  0.20105653  0.42557818  1
  I  I23  1  0.10052826  0.89947174  0.42557818  1
  Li  Li24  1  0.85748016  0.71496032  0.25000000  1
  Li  Li25  1  0.28503968  0.14251984  0.25000000  1
  Li  Li26  1  0.85748016  0.14251984  0.25000000  1
  Li  Li27  1  0.14251984  0.28503968  0.75000000  1
  Li  Li28  1  0.71496032  0.85748016  0.75000000  1
  Li  Li29  1  0.14251984  0.85748016  0.75000000  1
  Li  Li30  1  0.33333333  0.66666667  0.75000000  1
  Li  Li31  1  0.66666667  0.33333333  0.25000000  1
  Sb  Sb32  1  0.00000000  0.00000000  0.25000000  1
  Sb  Sb33  1  0.00000000  0.00000000  0.75000000  1
  Sb  Sb34  1  0.52122464  0.04244927  0.25000000  1
  Sb  Sb35  1  0.95755073  0.47877536  0.25000000  1
  Sb  Sb36  1  0.52122464  0.47877536  0.25000000  1
  Sb  Sb37  1  0.47877536  0.95755073  0.75000000  1
  Sb  Sb38  1  0.04244927  0.52122464  0.75000000  1
  Sb  Sb39  1  0.47877536  0.52122464  0.75000000  1
  Si  Si40  1  0.00000000  0.00000000  0.20705658  1
  Si  Si41  1  0.00000000  0.00000000  0.70705658  1
  Si  Si42  1  0.00000000  0.00000000  0.79294342  1
  Si  Si43  1  0.00000000  0.00000000  0.29294342  1
  Te  Te44  1  0.75613807  0.00000000  0.00000000  1
  Te  Te45  1  0.00000000  0.75613807  0.00000000  1
  Te  Te46  1  -0.75613807  -0.75613807  0.00000000  1
  Te  Te47  1  -0.75613807  0.00000000  0.50000000  1
  Te  Te48  1  0.00000000  -0.75613807  0.50000000  1
  Te  Te49  1  0.75613807  0.75613807  0.50000000  1
  Te  Te50  1  -0.75613807  0.00000000  0.00000000  1
  Te  Te51  1  0.00000000  -0.75613807  0.00000000  1
  Te  Te52  1  0.75613807  0.75613807  0.00000000  1
  Te  Te53  1  0.75613807  0.00000000  0.50000000  1
  Te  Te54  1  0.00000000  0.75613807  0.50000000  1
  Te  Te55  1  -0.75613807  -0.75613807  0.50000000  1
