# generated using pymatgen
data_LiF
_symmetry_space_group_name_H-M   'P 1'
_cell_length_a   23.63650300
_cell_length_b   10.69403233
_cell_length_c   9.50572063
_cell_angle_alpha   90.00000000
_cell_angle_beta   90.00000000
_cell_angle_gamma   90.00000000
_symmetry_Int_Tables_number   1
_chemical_formula_structural   LiF
_chemical_formula_sum   'Li72 F72'
_cell_volume   2402.75650793
_cell_formula_units_Z   72
loop_
 _symmetry_equiv_pos_site_id
 _symmetry_equiv_pos_as_xyz
  1  'x, y, z'
loop_
 _atom_site_type_symbol
 _atom_site_label
 _atom_site_symmetry_multiplicity
 _atom_site_fract_x
 _atom_site_fract_y
 _atom_site_fract_z
 _atom_site_occupancy
  F  F0  1  0.57112927  0.60053163  0.63380757  1
  F  F1  1  0.92887073  0.39946837  0.13380757  1
  F  F2  1  0.42887073  0.10053163  0.36619243  1
  F  F3  1  0.07112927  0.89946837  0.86619243  1
  F  F4  1  0.42887073  0.39946837  0.36619243  1
  F  F5  1  0.07112927  0.60053163  0.86619243  1
  F  F6  1  0.57112927  0.89946837  0.63380757  1
  F  F7  1  0.92887073  0.10053163  0.13380757  1
  F  F8  1  0.87313389  0.35602159  0.01717463  1
  F  F9  1  0.62686611  0.64397841  0.51717463  1
  F  F10  1  0.12686611  0.85602159  0.98282537  1
  F  F11  1  0.37313389  0.14397841  0.48282537  1
  F  F12  1  0.12686611  0.64397841  0.98282537  1
  F  F13  1  0.37313389  0.35602159  0.48282537  1
  F  F14  1  0.87313389  0.14397841  0.01717463  1
  F  F15  1  0.62686611  0.85602159  0.51717463  1
  F  F16  1  0.88409166  0.91332148  0.03790759  1
  F  F17  1  0.61590834  0.08667852  0.53790759  1
  F  F18  1  0.11590834  0.41332148  0.96209241  1
  F  F19  1  0.38409166  0.58667852  0.46209241  1
  F  F20  1  0.11590834  0.08667852  0.96209241  1
  F  F21  1  0.38409166  0.91332148  0.46209241  1
  F  F22  1  0.88409166  0.58667852  0.03790759  1
  F  F23  1  0.61590834  0.41332148  0.53790759  1
  F  F24  1  0.91925622  0.25000000  0.66248219  1
  F  F25  1  0.58074378  0.75000000  0.16248219  1
  F  F26  1  0.08074378  0.75000000  0.33751781  1
  F  F27  1  0.41925622  0.25000000  0.83751781  1
  F  F28  1  0.45748546  0.55738600  0.94575707  1
  F  F29  1  0.04251454  0.44261400  0.44575707  1
  F  F30  1  0.54251454  0.05738600  0.05424293  1
  F  F31  1  0.95748546  0.94261400  0.55424293  1
  F  F32  1  0.54251454  0.44261400  0.05424293  1
  F  F33  1  0.95748546  0.55738600  0.55424293  1
  F  F34  1  0.45748546  0.94261400  0.94575707  1
  F  F35  1  0.04251454  0.05738600  0.44575707  1
  F  F36  1  0.90760898  0.99164936  0.25290264  1
  F  F37  1  0.59239102  0.00835064  0.75290264  1
  F  F38  1  0.09239102  0.49164936  0.74709736  1
  F  F39  1  0.40760898  0.50835064  0.24709736  1
  F  F40  1  0.09239102  0.00835064  0.74709736  1
  F  F41  1  0.40760898  0.99164936  0.24709736  1
  F  F42  1  0.90760898  0.50835064  0.25290264  1
  F  F43  1  0.59239102  0.49164936  0.75290264  1
  F  F44  1  0.72732596  0.90037583  0.64107507  1
  F  F45  1  0.77267404  0.09962417  0.14107507  1
  F  F46  1  0.27267404  0.40037583  0.35892493  1
  F  F47  1  0.22732596  0.59962417  0.85892493  1
  F  F48  1  0.27267404  0.09962417  0.35892493  1
  F  F49  1  0.22732596  0.90037583  0.85892493  1
  F  F50  1  0.72732596  0.59962417  0.64107507  1
  F  F51  1  0.77267404  0.40037583  0.14107507  1
  F  F52  1  0.24496631  0.49173088  0.98593231  1
  F  F53  1  0.25503369  0.50826912  0.48593231  1
  F  F54  1  0.75503369  0.99173088  0.01406769  1
  F  F55  1  0.74496631  0.00826912  0.51406769  1
  F  F56  1  0.75503369  0.50826912  0.01406769  1
  F  F57  1  0.74496631  0.49173088  0.51406769  1
  F  F58  1  0.24496631  0.00826912  0.98593231  1
  F  F59  1  0.25503369  0.99173088  0.48593231  1
  F  F60  1  0.49813862  0.70889057  0.60582082  1
  F  F61  1  0.00186138  0.29110943  0.10582082  1
  F  F62  1  0.50186138  0.20889057  0.39417918  1
  F  F63  1  0.99813862  0.79110943  0.89417918  1
  F  F64  1  0.50186138  0.29110943  0.39417918  1
  F  F65  1  0.99813862  0.70889057  0.89417918  1
  F  F66  1  0.49813862  0.79110943  0.60582082  1
  F  F67  1  0.00186138  0.20889057  0.10582082  1
  F  F68  1  0.04167202  0.25000000  0.16588411  1
  F  F69  1  0.45832798  0.75000000  0.66588411  1
  F  F70  1  0.95832798  0.75000000  0.83411589  1
  F  F71  1  0.54167202  0.25000000  0.33411589  1
  Li  Li72  1  0.11211231  0.25000000  0.95486430  1
  Li  Li73  1  0.38788769  0.75000000  0.45486430  1
  Li  Li74  1  0.88788769  0.75000000  0.04513570  1
  Li  Li75  1  0.61211231  0.25000000  0.54513570  1
  Li  Li76  1  0.00000000  0.00000000  0.50000000  1
  Li  Li77  1  0.50000000  0.00000000  0.00000000  1
  Li  Li78  1  0.00000000  0.50000000  0.50000000  1
  Li  Li79  1  0.50000000  0.50000000  0.00000000  1
  Li  Li80  1  0.00000000  0.00000000  0.00000000  1
  Li  Li81  1  0.50000000  0.00000000  0.50000000  1
  Li  Li82  1  0.00000000  0.50000000  0.00000000  1
  Li  Li83  1  0.50000000  0.50000000  0.50000000  1
  Li  Li84  1  0.40400027  0.25000000  0.19675610  1
  Li  Li85  1  0.09599973  0.75000000  0.69675610  1
  Li  Li86  1  0.59599973  0.75000000  0.80324390  1
  Li  Li87  1  0.90400027  0.25000000  0.30324390  1
  Li  Li88  1  0.95309182  0.25000000  0.41473356  1
  Li  Li89  1  0.54690818  0.75000000  0.91473356  1
  Li  Li90  1  0.04690818  0.75000000  0.58526644  1
  Li  Li91  1  0.45309182  0.25000000  0.08526644  1
  Li  Li92  1  0.86849008  0.33970731  0.28227255  1
  Li  Li93  1  -0.36849008  -0.33970731  0.78227255  1
  Li  Li94  1  -0.86849008  0.83970731  -0.28227255  1
  Li  Li95  1  1.36849008  0.16029269  0.21772745  1
  Li  Li96  1  -0.86849008  -0.33970731  -0.28227255  1
  Li  Li97  1  1.36849008  0.33970731  0.21772745  1
  Li  Li98  1  0.86849008  0.16029269  0.28227255  1
  Li  Li99  1  -0.36849008  0.83970731  0.78227255  1
  Li  Li100  1  0.34724823  0.25000000  0.31353192  1
  Li  Li101  1  0.15275177  0.75000000  0.81353192  1
  Li  Li102  1  0.65275177  0.75000000  0.68646808  1
  Li  Li103  1  0.84724823  0.25000000  0.18646808  1
  Li  Li104  1  0.70843980  0.25000000  0.20330315  1
  Li  Li105  1  0.79156020  0.75000000  0.70330315  1
  Li  Li106  1  0.29156020  0.75000000  0.79669685  1
  Li  Li107  1  0.20843980  0.25000000  0.29669685  1
  Li  Li108  1  0.99484587  0.91336550  0.78412799  1
  Li  Li109  1  0.50515413  0.08663450  0.28412799  1
  Li  Li110  1  0.00515413  0.41336550  0.21587201  1
  Li  Li111  1  0.49484587  0.58663450  0.71587201  1
  Li  Li112  1  0.00515413  0.08663450  0.21587201  1
  Li  Li113  1  0.49484587  0.91336550  0.71587201  1
  Li  Li114  1  0.99484587  0.58663450  0.78412799  1
  Li  Li115  1  0.50515413  0.41336550  0.28412799  1
  Li  Li116  1  0.64251012  0.38280593  0.45375458  1
  Li  Li117  1  0.85748988  0.61719407  0.95375458  1
  Li  Li118  1  0.35748988  0.88280593  0.54624542  1
  Li  Li119  1  0.14251012  0.11719407  0.04624542  1
  Li  Li120  1  0.35748988  0.61719407  0.54624542  1
  Li  Li121  1  0.14251012  0.38280593  0.04624542  1
  Li  Li122  1  0.64251012  0.11719407  0.45375458  1
  Li  Li123  1  0.85748988  0.88280593  0.95375458  1
  Li  Li124  1  0.52788296  0.25000000  0.10515876  1
  Li  Li125  1  0.97211704  0.75000000  0.60515876  1
  Li  Li126  1  0.47211704  0.75000000  0.89484124  1
  Li  Li127  1  0.02788296  0.25000000  0.39484124  1
  Li  Li128  1  0.25136362  0.25000000  0.61872985  1
  Li  Li129  1  0.24863638  0.75000000  0.11872985  1
  Li  Li130  1  0.74863638  0.75000000  0.38127015  1
  Li  Li131  1  0.75136362  0.25000000  0.88127015  1
  Li  Li132  1  0.66810883  0.11344268  0.81792676  1
  Li  Li133  1  0.83189117  0.88655732  0.31792676  1
  Li  Li134  1  0.33189117  0.61344268  0.18207324  1
  Li  Li135  1  0.16810883  0.38655732  0.68207324  1
  Li  Li136  1  0.33189117  0.88655732  0.18207324  1
  Li  Li137  1  0.16810883  0.11344268  0.68207324  1
  Li  Li138  1  0.66810883  0.38655732  0.81792676  1
  Li  Li139  1  0.83189117  0.61344268  0.31792676  1
  Li  Li140  1  0.76369381  0.25000000  0.20861032  1
  Li  Li141  1  0.73630619  0.75000000  0.70861032  1
  Li  Li142  1  0.23630619  0.75000000  0.79138968  1
  Li  Li143  1  0.26369381  0.25000000  0.29138968  1
