# generated using pymatgen
data_LiF
_symmetry_space_group_name_H-M   'P 1'
_cell_length_a   11.37885205
_cell_length_b   11.37885205
_cell_length_c   3.83787488
_cell_angle_alpha   90.00000000
_cell_angle_beta   90.00000000
_cell_angle_gamma   90.00000000
_symmetry_Int_Tables_number   1
_chemical_formula_structural   LiF
_chemical_formula_sum   'Li32 F32'
_cell_volume   496.92141458
_cell_formula_units_Z   32
loop_
 _symmetry_equiv_pos_site_id
 _symmetry_equiv_pos_as_xyz
  1  'x, y, z'
loop_
 _atom_site_type_symbol
 _atom_site_label
 _atom_site_symmetry_multiplicity
 _atom_site_fract_x
 _atom_site_fract_y
 _atom_site_fract_z
 _atom_site_occupancy
  F  F0  1  0.00000000  0.51592780  0.76973904  1
  F  F1  1  0.50000000  -0.51592780  1.26973904  1
  F  F2  1  -0.26592780  0.75000000  1.01973904  1
  F  F3  1  0.76592780  0.25000000  1.51973904  1
  F  F4  1  0.50000000  0.51592780  -0.26973904  1
  F  F5  1  0.00000000  -0.51592780  -0.76973904  1
  F  F6  1  0.76592780  0.75000000  -0.51973904  1
  F  F7  1  -0.26592780  0.25000000  -0.01973904  1
  F  F8  1  0.50000000  1.01592780  1.26973904  1
  F  F9  1  1.00000000  -0.01592780  1.76973904  1
  F  F10  1  0.23407220  1.25000000  1.51973904  1
  F  F11  1  1.26592780  0.75000000  2.01973904  1
  F  F12  1  1.00000000  1.01592780  0.23026096  1
  F  F13  1  0.50000000  -0.01592780  -0.26973904  1
  F  F14  1  1.26592780  1.25000000  -0.01973904  1
  F  F15  1  0.23407220  0.75000000  0.48026096  1
  F  F16  1  0.62482140  0.87482140  0.87500000  1
  F  F17  1  0.87517860  0.12517860  0.37500000  1
  F  F18  1  0.37517860  0.37482140  0.12500000  1
  F  F19  1  0.12482140  0.62517860  0.62500000  1
  F  F20  1  0.37517860  0.12517860  0.12500000  1
  F  F21  1  0.12482140  0.87482140  0.62500000  1
  F  F22  1  0.62482140  0.62517860  0.87500000  1
  F  F23  1  0.87517860  0.37482140  0.37500000  1
  F  F24  1  0.12482140  0.37482140  0.37500000  1
  F  F25  1  0.37517860  0.62517860  0.87500000  1
  F  F26  1  0.87517860  0.87482140  0.62500000  1
  F  F27  1  0.62482140  0.12517860  0.12500000  1
  F  F28  1  0.87517860  0.62517860  0.62500000  1
  F  F29  1  0.62482140  0.37482140  0.12500000  1
  F  F30  1  0.12482140  0.12517860  0.37500000  1
  F  F31  1  0.37517860  0.87482140  0.87500000  1
  Li  Li32  1  0.00000000  0.00000000  0.50000000  1
  Li  Li33  1  0.50000000  0.00000000  0.00000000  1
  Li  Li34  1  0.25000000  0.75000000  0.75000000  1
  Li  Li35  1  0.25000000  0.25000000  0.25000000  1
  Li  Li36  1  0.50000000  0.50000000  0.00000000  1
  Li  Li37  1  0.00000000  0.50000000  0.50000000  1
  Li  Li38  1  0.75000000  0.25000000  0.25000000  1
  Li  Li39  1  0.75000000  0.75000000  0.75000000  1
  Li  Li40  1  0.00000000  0.25000000  0.37500000  1
  Li  Li41  1  0.00000000  0.75000000  0.62500000  1
  Li  Li42  1  0.50000000  0.75000000  0.87500000  1
  Li  Li43  1  0.50000000  0.25000000  0.12500000  1
  Li  Li44  1  0.00000000  0.39546130  0.08032176  1
  Li  Li45  1  0.50000000  0.60453870  0.58032176  1
  Li  Li46  1  0.85453870  0.75000000  0.33032176  1
  Li  Li47  1  0.64546130  0.25000000  0.83032176  1
  Li  Li48  1  0.50000000  0.39546130  0.41967824  1
  Li  Li49  1  0.00000000  0.60453870  0.91967824  1
  Li  Li50  1  0.64546130  0.75000000  0.16967824  1
  Li  Li51  1  0.85453870  0.25000000  0.66967824  1
  Li  Li52  1  0.50000000  0.89546130  0.58032176  1
  Li  Li53  1  0.00000000  0.10453870  0.08032176  1
  Li  Li54  1  0.35453870  0.25000000  0.83032176  1
  Li  Li55  1  0.14546130  0.75000000  0.33032176  1
  Li  Li56  1  0.00000000  0.89546130  0.91967824  1
  Li  Li57  1  0.50000000  0.10453870  0.41967824  1
  Li  Li58  1  0.14546130  0.25000000  0.66967824  1
  Li  Li59  1  0.35453870  0.75000000  0.16967824  1
  Li  Li60  1  0.00000000  0.75000000  0.12500000  1
  Li  Li61  1  0.50000000  0.75000000  0.37500000  1
  Li  Li62  1  0.50000000  0.25000000  0.62500000  1
  Li  Li63  1  0.00000000  0.25000000  0.87500000  1
