# generated using pymatgen
data_LiF
_symmetry_space_group_name_H-M   'P 1'
_cell_length_a   16.67703926
_cell_length_b   16.67703926
_cell_length_c   4.62988793
_cell_angle_alpha   90.00000000
_cell_angle_beta   90.00000000
_cell_angle_gamma   120.00000000
_symmetry_Int_Tables_number   1
_chemical_formula_structural   LiF
_chemical_formula_sum   'Li36 F36'
_cell_volume   1115.16469923
_cell_formula_units_Z   36
loop_
 _symmetry_equiv_pos_site_id
 _symmetry_equiv_pos_as_xyz
  1  'x, y, z'
loop_
 _atom_site_type_symbol
 _atom_site_label
 _atom_site_symmetry_multiplicity
 _atom_site_fract_x
 _atom_site_fract_y
 _atom_site_fract_z
 _atom_site_occupancy
  F  F0  1  0.00000000  0.00000000  0.00000000  1
  F  F1  1  0.00000000  0.00000000  0.50000000  1
  F  F2  1  0.00971810  0.91352163  0.92491306  1
  F  F3  1  -0.91352163  -0.90380353  0.92491306  1
  F  F4  1  0.90380353  -0.00971810  0.92491306  1
  F  F5  1  -0.00971810  -0.91352163  1.42491306  1
  F  F6  1  0.91352163  0.90380353  1.42491306  1
  F  F7  1  -0.90380353  0.00971810  1.42491306  1
  F  F8  1  -0.00971810  -0.91352163  -0.92491306  1
  F  F9  1  0.91352163  0.90380353  -0.92491306  1
  F  F10  1  -0.90380353  0.00971810  -0.92491306  1
  F  F11  1  0.00971810  0.91352163  -0.42491306  1
  F  F12  1  -0.91352163  -0.90380353  -0.42491306  1
  F  F13  1  0.90380353  -0.00971810  -0.42491306  1
  F  F14  1  0.33333333  0.66666667  0.25000000  1
  F  F15  1  0.66666667  0.33333333  0.75000000  1
  F  F16  1  0.02729999  0.88638546  0.10376983  1
  F  F17  1  0.11361454  0.14091453  0.10376983  1
  F  F18  1  0.85908547  0.97270001  0.10376983  1
  F  F19  1  0.97270001  0.11361454  0.60376983  1
  F  F20  1  0.88638546  0.85908547  0.60376983  1
  F  F21  1  0.14091453  0.02729999  0.60376983  1
  F  F22  1  0.97270001  0.11361454  0.89623017  1
  F  F23  1  0.88638546  0.85908547  0.89623017  1
  F  F24  1  0.14091453  0.02729999  0.89623017  1
  F  F25  1  0.02729999  0.88638546  0.39623017  1
  F  F26  1  0.11361454  0.14091453  0.39623017  1
  F  F27  1  0.85908547  0.97270001  0.39623017  1
  F  F28  1  0.50000000  0.00000000  -0.00000000  1
  F  F29  1  0.00000000  0.50000000  0.00000000  1
  F  F30  1  0.50000000  0.50000000  -0.00000000  1
  F  F31  1  0.50000000  0.00000000  0.50000000  1
  F  F32  1  0.00000000  0.50000000  0.50000000  1
  F  F33  1  0.50000000  0.50000000  0.50000000  1
  F  F34  1  0.00000000  0.00000000  0.25000000  1
  F  F35  1  0.00000000  0.00000000  0.75000000  1
  Li  Li36  1  0.22054958  0.30674968  0.25000000  1
  Li  Li37  1  0.69325032  0.91379990  0.25000000  1
  Li  Li38  1  0.08620010  0.77945042  0.25000000  1
  Li  Li39  1  0.77945042  0.69325032  0.75000000  1
  Li  Li40  1  0.30674968  0.08620010  0.75000000  1
  Li  Li41  1  0.91379990  0.22054958  0.75000000  1
  Li  Li42  1  0.13715827  0.80740525  0.00909726  1
  Li  Li43  1  0.19259475  0.32975303  0.00909726  1
  Li  Li44  1  0.67024697  0.86284173  0.00909726  1
  Li  Li45  1  0.86284173  0.19259475  0.50909726  1
  Li  Li46  1  0.80740525  0.67024697  0.50909726  1
  Li  Li47  1  0.32975303  0.13715827  0.50909726  1
  Li  Li48  1  0.86284173  0.19259475  0.99090274  1
  Li  Li49  1  0.80740525  0.67024697  0.99090274  1
  Li  Li50  1  0.32975303  0.13715827  0.99090274  1
  Li  Li51  1  0.13715827  0.80740525  0.49090274  1
  Li  Li52  1  0.19259475  0.32975303  0.49090274  1
  Li  Li53  1  0.67024697  0.86284173  0.49090274  1
  Li  Li54  1  0.21737417  0.21498710  0.25000000  1
  Li  Li55  1  0.78501290  0.00238707  0.25000000  1
  Li  Li56  1  0.99761293  0.78262583  0.25000000  1
  Li  Li57  1  0.78262583  0.78501290  0.75000000  1
  Li  Li58  1  0.21498710  0.99761293  0.75000000  1
  Li  Li59  1  0.00238707  0.21737417  0.75000000  1
  Li  Li60  1  0.71708057  0.17684104  0.25000000  1
  Li  Li61  1  0.82315896  0.54023953  0.25000000  1
  Li  Li62  1  0.45976047  0.28291943  0.25000000  1
  Li  Li63  1  0.28291943  0.82315896  0.75000000  1
  Li  Li64  1  0.17684104  0.45976047  0.75000000  1
  Li  Li65  1  0.54023953  0.71708057  0.75000000  1
  Li  Li66  1  0.62364314  0.20851271  0.25000000  1
  Li  Li67  1  0.79148729  0.41513043  0.25000000  1
  Li  Li68  1  0.58486957  0.37635686  0.25000000  1
  Li  Li69  1  0.37635686  0.79148729  0.75000000  1
  Li  Li70  1  0.20851271  0.58486957  0.75000000  1
  Li  Li71  1  0.41513043  0.62364314  0.75000000  1
