# generated using pymatgen
data_LiCu3MoP2Se
_symmetry_space_group_name_H-M   'P 1'
_cell_length_a   4.64404336
_cell_length_b   4.89944397
_cell_length_c   6.35560731
_cell_angle_alpha   95.29262409
_cell_angle_beta   99.28181898
_cell_angle_gamma   105.85577396
_symmetry_Int_Tables_number   1
_chemical_formula_structural   LiCu3MoP2Se
_chemical_formula_sum   'Li1 Cu3 Mo1 P2 Se1'
_cell_volume   135.86467603
_cell_formula_units_Z   1
loop_
 _symmetry_equiv_pos_site_id
 _symmetry_equiv_pos_as_xyz
  1  'x, y, z'
loop_
 _atom_site_type_symbol
 _atom_site_label
 _atom_site_symmetry_multiplicity
 _atom_site_fract_x
 _atom_site_fract_y
 _atom_site_fract_z
 _atom_site_occupancy
  Se  Se0  1  0.00000000  0.00000000  0.00000000  1
  Cu  Cu1  1  0.50000000  0.50000000  0.50000000  1
  Cu  Cu2  1  0.50000000  0.50000000  0.00000000  1
  Cu  Cu3  1  0.50000000  0.00000000  0.50000000  1
  P  P4  1  0.00000000  0.50000000  0.50000000  1
  P  P5  1  0.12723962  0.93871156  0.91306258  1
  Mo  Mo6  1  0.00576433  0.91422356  0.22936555  1
  Li  Li7  1  0.86637907  0.61980385  0.47677389  1
