# generated using pymatgen
data_LiF
_symmetry_space_group_name_H-M   'P 1'
_cell_length_a   8.34180342
_cell_length_b   8.34180342
_cell_length_c   20.59641639
_cell_angle_alpha   90.00000000
_cell_angle_beta   90.00000000
_cell_angle_gamma   90.00000000
_symmetry_Int_Tables_number   1
_chemical_formula_structural   LiF
_chemical_formula_sum   'Li64 F64'
_cell_volume   1433.21572880
_cell_formula_units_Z   64
loop_
 _symmetry_equiv_pos_site_id
 _symmetry_equiv_pos_as_xyz
  1  'x, y, z'
loop_
 _atom_site_type_symbol
 _atom_site_label
 _atom_site_symmetry_multiplicity
 _atom_site_fract_x
 _atom_site_fract_y
 _atom_site_fract_z
 _atom_site_occupancy
  F  F0  1  0.00000000  0.25000000  0.09160723  1
  F  F1  1  0.00000000  0.75000000  0.34160723  1
  F  F2  1  0.50000000  0.25000000  0.90839277  1
  F  F3  1  0.50000000  0.75000000  0.65839277  1
  F  F4  1  0.00000000  0.75000000  0.90839277  1
  F  F5  1  0.00000000  0.25000000  0.65839277  1
  F  F6  1  0.50000000  0.75000000  0.09160723  1
  F  F7  1  0.50000000  0.25000000  0.34160723  1
  F  F8  1  0.50000000  0.75000000  0.59160723  1
  F  F9  1  0.50000000  0.25000000  0.84160723  1
  F  F10  1  0.00000000  0.75000000  0.40839277  1
  F  F11  1  0.00000000  0.25000000  0.15839277  1
  F  F12  1  0.50000000  0.25000000  0.40839277  1
  F  F13  1  0.50000000  0.75000000  0.15839277  1
  F  F14  1  0.00000000  0.25000000  0.59160723  1
  F  F15  1  0.00000000  0.75000000  0.84160723  1
  F  F16  1  0.34263092  0.52678684  0.20699145  1
  F  F17  1  0.15736908  0.47321316  0.70699145  1
  F  F18  1  0.72321316  0.09263092  0.45699145  1
  F  F19  1  0.77678684  0.90736908  0.95699145  1
  F  F20  1  0.15736908  0.52678684  0.79300855  1
  F  F21  1  0.34263092  0.47321316  0.29300855  1
  F  F22  1  0.77678684  0.09263092  0.54300855  1
  F  F23  1  0.72321316  0.90736908  0.04300855  1
  F  F24  1  0.65736908  0.47321316  0.79300855  1
  F  F25  1  0.84263092  0.52678684  0.29300855  1
  F  F26  1  0.27678684  0.90736908  0.54300855  1
  F  F27  1  0.22321316  0.09263092  0.04300855  1
  F  F28  1  0.84263092  0.47321316  0.20699145  1
  F  F29  1  0.65736908  0.52678684  0.70699145  1
  F  F30  1  0.22321316  0.90736908  0.45699145  1
  F  F31  1  0.27678684  0.09263092  0.95699145  1
  F  F32  1  0.84263092  0.02678684  0.70699145  1
  F  F33  1  0.65736908  0.97321316  0.20699145  1
  F  F34  1  0.22321316  0.59263092  0.95699145  1
  F  F35  1  0.27678684  0.40736908  0.45699145  1
  F  F36  1  0.65736908  0.02678684  0.29300855  1
  F  F37  1  0.84263092  0.97321316  0.79300855  1
  F  F38  1  0.27678684  0.59263092  0.04300855  1
  F  F39  1  0.22321316  0.40736908  0.54300855  1
  F  F40  1  0.15736908  0.97321316  0.29300855  1
  F  F41  1  0.34263092  0.02678684  0.79300855  1
  F  F42  1  0.77678684  0.40736908  0.04300855  1
  F  F43  1  0.72321316  0.59263092  0.54300855  1
  F  F44  1  0.34263092  0.97321316  0.70699145  1
  F  F45  1  0.15736908  0.02678684  0.20699145  1
  F  F46  1  0.72321316  0.40736908  0.95699145  1
  F  F47  1  0.77678684  0.59263092  0.45699145  1
  F  F48  1  0.01214312  -0.00000000  0.25000000  1
  F  F49  1  0.48785688  -0.00000000  0.75000000  1
  F  F50  1  0.25000000  0.76214312  0.50000000  1
  F  F51  1  0.25000000  0.23785688  -0.00000000  1
  F  F52  1  0.98785688  0.00000000  0.75000000  1
  F  F53  1  0.51214312  0.00000000  0.25000000  1
  F  F54  1  0.75000000  0.23785688  0.50000000  1
  F  F55  1  0.75000000  0.76214312  0.00000000  1
  F  F56  1  0.51214312  0.50000000  0.75000000  1
  F  F57  1  0.98785688  0.50000000  0.25000000  1
  F  F58  1  0.75000000  0.26214312  -0.00000000  1
  F  F59  1  0.75000000  0.73785688  0.50000000  1
  F  F60  1  0.48785688  0.50000000  0.25000000  1
  F  F61  1  0.01214312  0.50000000  0.75000000  1
  F  F62  1  0.25000000  0.73785688  0.00000000  1
  F  F63  1  0.25000000  0.26214312  0.50000000  1
  Li  Li64  1  0.47451434  0.40388028  0.65550909  1
  Li  Li65  1  0.02548566  -0.40388028  1.15550909  1
  Li  Li66  1  -0.15388028  1.22451434  0.90550909  1
  Li  Li67  1  0.65388028  -0.22451434  1.40550909  1
  Li  Li68  1  0.02548566  0.40388028  -0.65550909  1
  Li  Li69  1  0.47451434  -0.40388028  -0.15550909  1
  Li  Li70  1  0.65388028  1.22451434  0.09449091  1
  Li  Li71  1  -0.15388028  -0.22451434  -0.40550909  1
  Li  Li72  1  -0.47451434  -0.40388028  -0.65550909  1
  Li  Li73  1  0.97451434  0.40388028  -0.15550909  1
  Li  Li74  1  1.15388028  -0.22451434  0.09449091  1
  Li  Li75  1  0.34611972  1.22451434  -0.40550909  1
  Li  Li76  1  0.97451434  -0.40388028  0.65550909  1
  Li  Li77  1  -0.47451434  0.40388028  1.15550909  1
  Li  Li78  1  0.34611972  -0.22451434  0.90550909  1
  Li  Li79  1  1.15388028  1.22451434  1.40550909  1
  Li  Li80  1  0.97451434  0.90388028  1.15550909  1
  Li  Li81  1  0.52548566  0.09611972  1.65550909  1
  Li  Li82  1  0.34611972  1.72451434  1.40550909  1
  Li  Li83  1  1.15388028  0.27548566  1.90550909  1
  Li  Li84  1  0.52548566  0.90388028  -0.15550909  1
  Li  Li85  1  0.97451434  0.09611972  0.34449091  1
  Li  Li86  1  1.15388028  1.72451434  0.59449091  1
  Li  Li87  1  0.34611972  0.27548566  0.09449091  1
  Li  Li88  1  0.02548566  0.09611972  -0.15550909  1
  Li  Li89  1  1.47451434  0.90388028  0.34449091  1
  Li  Li90  1  1.65388028  0.27548566  0.59449091  1
  Li  Li91  1  0.84611972  1.72451434  0.09449091  1
  Li  Li92  1  1.47451434  0.09611972  1.15550909  1
  Li  Li93  1  0.02548566  0.90388028  1.65550909  1
  Li  Li94  1  0.84611972  0.27548566  1.40550909  1
  Li  Li95  1  1.65388028  1.72451434  1.90550909  1
  Li  Li96  1  0.83435414  -0.00000000  0.25000000  1
  Li  Li97  1  0.66564586  -0.00000000  0.75000000  1
  Li  Li98  1  0.25000000  0.58435414  0.50000000  1
  Li  Li99  1  0.25000000  0.41564586  -0.00000000  1
  Li  Li100  1  0.16564586  -0.00000000  0.75000000  1
  Li  Li101  1  0.33435414  -0.00000000  0.25000000  1
  Li  Li102  1  0.75000000  0.41564586  0.50000000  1
  Li  Li103  1  0.75000000  0.58435414  0.00000000  1
  Li  Li104  1  0.33435414  0.50000000  0.75000000  1
  Li  Li105  1  0.16564586  0.50000000  0.25000000  1
  Li  Li106  1  0.75000000  0.08435414  -0.00000000  1
  Li  Li107  1  0.75000000  0.91564586  0.50000000  1
  Li  Li108  1  0.66564586  0.50000000  0.25000000  1
  Li  Li109  1  0.83435414  0.50000000  0.75000000  1
  Li  Li110  1  0.25000000  0.91564586  0.00000000  1
  Li  Li111  1  0.25000000  0.08435414  0.50000000  1
  Li  Li112  1  0.94394318  0.19394318  0.12500000  1
  Li  Li113  1  0.55605682  0.80605682  0.62500000  1
  Li  Li114  1  0.05605682  0.69394318  0.37500000  1
  Li  Li115  1  0.44394318  0.30605682  0.87500000  1
  Li  Li116  1  0.05605682  0.80605682  0.87500000  1
  Li  Li117  1  0.44394318  0.19394318  0.37500000  1
  Li  Li118  1  0.94394318  0.30605682  0.62500000  1
  Li  Li119  1  0.55605682  0.69394318  0.12500000  1
  Li  Li120  1  0.44394318  0.69394318  0.62500000  1
  Li  Li121  1  0.05605682  0.30605682  0.12500000  1
  Li  Li122  1  0.55605682  0.19394318  0.87500000  1
  Li  Li123  1  0.94394318  0.80605682  0.37500000  1
  Li  Li124  1  0.55605682  0.30605682  0.37500000  1
  Li  Li125  1  0.94394318  0.69394318  0.87500000  1
  Li  Li126  1  0.44394318  0.80605682  0.12500000  1
  Li  Li127  1  0.05605682  0.19394318  0.62500000  1
