# generated using pymatgen
data_LiF
_symmetry_space_group_name_H-M   'P 1'
_cell_length_a   6.12398453
_cell_length_b   6.73937960
_cell_length_c   3.66042723
_cell_angle_alpha   90.00000000
_cell_angle_beta   90.00000000
_cell_angle_gamma   90.00000000
_symmetry_Int_Tables_number   1
_chemical_formula_structural   LiF
_chemical_formula_sum   'Li8 F8'
_cell_volume   151.07262686
_cell_formula_units_Z   8
loop_
 _symmetry_equiv_pos_site_id
 _symmetry_equiv_pos_as_xyz
  1  'x, y, z'
loop_
 _atom_site_type_symbol
 _atom_site_label
 _atom_site_symmetry_multiplicity
 _atom_site_fract_x
 _atom_site_fract_y
 _atom_site_fract_z
 _atom_site_occupancy
  F  F0  1  0.00000000  0.50000000  0.00000000  1
  F  F1  1  0.50000000  0.00000000  0.50000000  1
  F  F2  1  0.00000000  0.00000000  0.50000000  1
  F  F3  1  0.50000000  0.50000000  0.00000000  1
  F  F4  1  0.51604194  0.69947501  0.00000000  1
  F  F5  1  -0.51604194  -0.69947501  -0.00000000  1
  F  F6  1  -0.01604194  1.19947501  0.50000000  1
  F  F7  1  1.01604194  -0.19947501  0.50000000  1
  Li  Li8  1  0.71945081  0.75084661  0.00000000  1
  Li  Li9  1  0.28054919  0.24915339  0.00000000  1
  Li  Li10  1  0.78054919  0.25084661  0.50000000  1
  Li  Li11  1  0.21945081  0.74915339  0.50000000  1
  Li  Li12  1  0.00000000  0.50000000  0.31312579  1
  Li  Li13  1  0.50000000  0.00000000  0.18687421  1
  Li  Li14  1  0.00000000  0.50000000  0.68687421  1
  Li  Li15  1  0.50000000  0.00000000  0.81312579  1
