# generated using pymatgen
data_Li2Y2As3P2
_symmetry_space_group_name_H-M   'P 1'
_cell_length_a   5.25551537
_cell_length_b   5.34879246
_cell_length_c   7.07326458
_cell_angle_alpha   94.18748456
_cell_angle_beta   98.66575281
_cell_angle_gamma   106.10791129
_symmetry_Int_Tables_number   1
_chemical_formula_structural   Li2Y2As3P2
_chemical_formula_sum   'Li2 Y2 As3 P2'
_cell_volume   187.46218071
_cell_formula_units_Z   1
loop_
 _symmetry_equiv_pos_site_id
 _symmetry_equiv_pos_as_xyz
  1  'x, y, z'
loop_
 _atom_site_type_symbol
 _atom_site_label
 _atom_site_symmetry_multiplicity
 _atom_site_fract_x
 _atom_site_fract_y
 _atom_site_fract_z
 _atom_site_occupancy
  Y  Y0  1  0.00000000  0.00000000  0.00000000  1
  Y  Y1  1  0.50000000  0.50000000  0.50000000  1
  P  P2  1  0.50000000  0.50000000  0.00000000  1
  P  P3  1  0.50000000  0.00000000  0.50000000  1
  As  As4  1  0.00000000  0.50000000  0.50000000  1
  As  As5  1  0.26139002  0.30674385  0.05852027  1
  As  As6  1  0.18964062  0.07961752  0.33305016  1
  Li  Li7  1  0.25382564  0.62486079  0.47231032  1
  Li  Li8  1  0.54721999  0.61228741  0.02882994  1
