# generated using pymatgen
data_LiF
_symmetry_space_group_name_H-M   'P 1'
_cell_length_a   14.91090302
_cell_length_b   14.91090302
_cell_length_c   5.36144461
_cell_angle_alpha   90.00000000
_cell_angle_beta   90.00000000
_cell_angle_gamma   120.00000000
_symmetry_Int_Tables_number   1
_chemical_formula_structural   LiF
_chemical_formula_sum   'Li42 F42'
_cell_volume   1032.33427345
_cell_formula_units_Z   42
loop_
 _symmetry_equiv_pos_site_id
 _symmetry_equiv_pos_as_xyz
  1  'x, y, z'
loop_
 _atom_site_type_symbol
 _atom_site_label
 _atom_site_symmetry_multiplicity
 _atom_site_fract_x
 _atom_site_fract_y
 _atom_site_fract_z
 _atom_site_occupancy
  F  F0  1  0.11611332  0.38842327  0.15264787  1
  F  F1  1  0.61157673  0.72769005  0.15264787  1
  F  F2  1  0.27230995  0.88388668  0.15264787  1
  F  F3  1  0.61157673  0.88388668  0.84735213  1
  F  F4  1  0.27230995  0.38842327  0.84735213  1
  F  F5  1  0.11611332  0.72769005  0.84735213  1
  F  F6  1  0.36747351  0.99150666  0.35124782  1
  F  F7  1  0.00849334  0.37596685  0.35124782  1
  F  F8  1  0.62403315  0.63252649  0.35124782  1
  F  F9  1  0.00849334  0.63252649  0.64875218  1
  F  F10  1  0.62403315  0.99150666  0.64875218  1
  F  F11  1  0.36747351  0.37596685  0.64875218  1
  F  F12  1  0.62145634  0.03531588  0.74388160  1
  F  F13  1  0.96468412  0.58614046  0.74388160  1
  F  F14  1  0.41385954  0.37854366  0.74388160  1
  F  F15  1  0.96468412  0.37854366  0.25611840  1
  F  F16  1  0.41385954  0.03531588  0.25611840  1
  F  F17  1  0.62145634  0.58614046  0.25611840  1
  F  F18  1  0.96412340  0.11021011  0.97535565  1
  F  F19  1  0.88978989  0.85391329  0.97535565  1
  F  F20  1  0.14608671  0.03587660  0.97535565  1
  F  F21  1  0.88978989  0.03587660  0.02464435  1
  F  F22  1  0.14608671  0.11021011  0.02464435  1
  F  F23  1  0.96412340  0.85391329  0.02464435  1
  F  F24  1  0.38869869  0.98386835  0.60674053  1
  F  F25  1  0.01613165  0.40483034  0.60674053  1
  F  F26  1  0.59516966  0.61130131  0.60674053  1
  F  F27  1  0.01613165  0.61130131  0.39325947  1
  F  F28  1  0.59516966  0.98386835  0.39325947  1
  F  F29  1  0.38869869  0.40483034  0.39325947  1
  F  F30  1  0.81655980  0.95674660  0.08944683  1
  F  F31  1  0.04325340  0.85981320  0.08944683  1
  F  F32  1  0.14018680  0.18344020  0.08944683  1
  F  F33  1  0.04325340  0.18344020  0.91055317  1
  F  F34  1  0.14018680  0.95674660  0.91055317  1
  F  F35  1  0.81655980  0.85981320  0.91055317  1
  F  F36  1  0.14496439  0.90273600  0.92796856  1
  F  F37  1  0.09726400  0.24222839  0.92796856  1
  F  F38  1  0.75777161  0.85503561  0.92796856  1
  F  F39  1  0.09726400  0.85503561  0.07203144  1
  F  F40  1  0.75777161  0.90273600  0.07203144  1
  F  F41  1  0.14496439  0.24222839  0.07203144  1
  Li  Li42  1  0.40679798  0.45870836  0.10404905  1
  Li  Li43  1  -0.45870836  -0.05191038  0.10404905  1
  Li  Li44  1  0.05191038  -0.40679798  0.10404905  1
  Li  Li45  1  -0.45870836  -0.40679798  -0.10404905  1
  Li  Li46  1  0.05191038  0.45870836  -0.10404905  1
  Li  Li47  1  0.40679798  -0.05191038  -0.10404905  1
  Li  Li48  1  0.52401983  0.52683075  0.37037947  1
  Li  Li49  1  0.47316925  0.99718908  0.37037947  1
  Li  Li50  1  0.00281092  0.47598017  0.37037947  1
  Li  Li51  1  0.47316925  0.47598017  0.62962053  1
  Li  Li52  1  0.00281092  0.52683075  0.62962053  1
  Li  Li53  1  0.52401983  0.99718908  0.62962053  1
  Li  Li54  1  0.66666667  0.33333333  0.00000000  1
  Li  Li55  1  0.29438033  0.14215350  0.78654332  1
  Li  Li56  1  0.85784650  0.15222683  0.78654332  1
  Li  Li57  1  0.84777317  0.70561967  0.78654332  1
  Li  Li58  1  0.85784650  0.70561967  0.21345668  1
  Li  Li59  1  0.84777317  0.14215350  0.21345668  1
  Li  Li60  1  0.29438033  0.15222683  0.21345668  1
  Li  Li61  1  0.67250355  0.81217286  0.81723358  1
  Li  Li62  1  0.18782714  0.86033069  0.81723358  1
  Li  Li63  1  0.13966931  0.32749645  0.81723358  1
  Li  Li64  1  0.18782714  0.32749645  0.18276642  1
  Li  Li65  1  0.13966931  0.81217286  0.18276642  1
  Li  Li66  1  0.67250355  0.86033069  0.18276642  1
  Li  Li67  1  0.30489986  0.94888386  0.23528891  1
  Li  Li68  1  0.05111614  0.35601600  0.23528891  1
  Li  Li69  1  0.64398400  0.69510014  0.23528891  1
  Li  Li70  1  0.05111614  0.69510014  0.76471109  1
  Li  Li71  1  0.64398400  0.94888386  0.76471109  1
  Li  Li72  1  0.30489986  0.35601600  0.76471109  1
  Li  Li73  1  0.75480275  0.46282630  0.82335645  1
  Li  Li74  1  0.53717370  0.29197645  0.82335645  1
  Li  Li75  1  0.70802355  0.24519725  0.82335645  1
  Li  Li76  1  0.53717370  0.24519725  0.17664355  1
  Li  Li77  1  0.70802355  0.46282630  0.17664355  1
  Li  Li78  1  0.75480275  0.29197645  0.17664355  1
  Li  Li79  1  0.33333333  0.66666667  0.00000000  1
  Li  Li80  1  0.33333333  0.66666667  0.50000000  1
  Li  Li81  1  0.19982670  0.80017330  0.00000000  1
  Li  Li82  1  0.19982670  0.39965340  0.00000000  1
  Li  Li83  1  0.60034660  0.80017330  0.00000000  1
