# generated using pymatgen
data_LiAl3AsSe
_symmetry_space_group_name_H-M   'P 1'
_cell_length_a   6.67425079
_cell_length_b   5.88286015
_cell_length_c   8.05642393
_cell_angle_alpha   92.29074373
_cell_angle_beta   93.34344387
_cell_angle_gamma   91.20528635
_symmetry_Int_Tables_number   1
_chemical_formula_structural   LiAl3AsSe
_chemical_formula_sum   'Li1 Al3 As1 Se1'
_cell_volume   315.44752649
_cell_formula_units_Z   1
loop_
 _symmetry_equiv_pos_site_id
 _symmetry_equiv_pos_as_xyz
  1  'x, y, z'
loop_
 _atom_site_type_symbol
 _atom_site_label
 _atom_site_symmetry_multiplicity
 _atom_site_fract_x
 _atom_site_fract_y
 _atom_site_fract_z
 _atom_site_occupancy
  Al  Al0  1  0.00000000  0.00000000  0.00000000  1
  Al  Al1  1  0.50000000  0.50000000  0.50000000  1
  Al  Al2  1  0.25000000  0.25000000  0.25000000  1
  Se  Se3  1  0.75000000  0.25000000  0.00000000  1
  As  As4  1  0.25000000  0.75000000  0.50000000  1
  Li  Li5  1  0.71975374  0.32630854  0.48025522  1
