# generated using pymatgen
data_LiF
_symmetry_space_group_name_H-M   'P 1'
_cell_length_a   9.64748265
_cell_length_b   9.64748265
_cell_length_c   11.17912797
_cell_angle_alpha   90.00000000
_cell_angle_beta   90.00000000
_cell_angle_gamma   120.00000000
_symmetry_Int_Tables_number   1
_chemical_formula_structural   LiF
_chemical_formula_sum   'Li36 F36'
_cell_volume   901.08668483
_cell_formula_units_Z   36
loop_
 _symmetry_equiv_pos_site_id
 _symmetry_equiv_pos_as_xyz
  1  'x, y, z'
loop_
 _atom_site_type_symbol
 _atom_site_label
 _atom_site_symmetry_multiplicity
 _atom_site_fract_x
 _atom_site_fract_y
 _atom_site_fract_z
 _atom_site_occupancy
  F  F0  1  0.33333333  0.66666667  0.25000000  1
  F  F1  1  0.66666667  0.33333333  0.75000000  1
  F  F2  1  0.00000000  0.00000000  0.33761623  1
  F  F3  1  0.00000000  0.00000000  0.83761623  1
  F  F4  1  0.00000000  0.00000000  0.66238377  1
  F  F5  1  0.00000000  0.00000000  0.16238377  1
  F  F6  1  0.66236100  0.95851591  0.57821344  1
  F  F7  1  -0.95851591  -0.29615490  0.57821344  1
  F  F8  1  0.29615490  -0.66236100  0.57821344  1
  F  F9  1  -0.66236100  -0.95851591  1.07821344  1
  F  F10  1  0.95851591  0.29615490  1.07821344  1
  F  F11  1  -0.29615490  0.66236100  1.07821344  1
  F  F12  1  -0.66236100  -0.95851591  -0.57821344  1
  F  F13  1  0.95851591  0.29615490  -0.57821344  1
  F  F14  1  -0.29615490  0.66236100  -0.57821344  1
  F  F15  1  0.66236100  0.95851591  -0.07821344  1
  F  F16  1  -0.95851591  -0.29615490  -0.07821344  1
  F  F17  1  0.29615490  -0.66236100  -0.07821344  1
  F  F18  1  0.00000000  0.00000000  0.25000000  1
  F  F19  1  0.00000000  0.00000000  0.75000000  1
  F  F20  1  0.30589256  0.61315649  0.90199448  1
  F  F21  1  0.38684351  0.69273607  0.90199448  1
  F  F22  1  0.30726393  0.69410744  0.90199448  1
  F  F23  1  0.69410744  0.38684351  0.40199448  1
  F  F24  1  0.61315649  0.30726393  0.40199448  1
  F  F25  1  0.69273607  0.30589256  0.40199448  1
  F  F26  1  0.69410744  0.38684351  0.09800552  1
  F  F27  1  0.61315649  0.30726393  0.09800552  1
  F  F28  1  0.69273607  0.30589256  0.09800552  1
  F  F29  1  0.30589256  0.61315649  0.59800552  1
  F  F30  1  0.38684351  0.69273607  0.59800552  1
  F  F31  1  0.30726393  0.69410744  0.59800552  1
  F  F32  1  0.33333333  0.66666667  0.14228110  1
  F  F33  1  0.66666667  0.33333333  0.64228110  1
  F  F34  1  0.66666667  0.33333333  0.85771890  1
  F  F35  1  0.33333333  0.66666667  0.35771890  1
  Li  Li36  1  0.47788871  0.59768304  0.58711042  1
  Li  Li37  1  0.40231696  0.88020567  0.58711042  1
  Li  Li38  1  0.11979433  0.52211129  0.58711042  1
  Li  Li39  1  0.52211129  0.40231696  0.08711042  1
  Li  Li40  1  0.59768304  0.11979433  0.08711042  1
  Li  Li41  1  0.88020567  0.47788871  0.08711042  1
  Li  Li42  1  0.52211129  0.40231696  0.41288958  1
  Li  Li43  1  0.59768304  0.11979433  0.41288958  1
  Li  Li44  1  0.88020567  0.47788871  0.41288958  1
  Li  Li45  1  0.47788871  0.59768304  0.91288958  1
  Li  Li46  1  0.40231696  0.88020567  0.91288958  1
  Li  Li47  1  0.11979433  0.52211129  0.91288958  1
  Li  Li48  1  0.26448598  0.69632646  0.10150386  1
  Li  Li49  1  0.30367354  0.56815953  0.10150386  1
  Li  Li50  1  0.43184047  0.73551402  0.10150386  1
  Li  Li51  1  0.73551402  0.30367354  0.60150386  1
  Li  Li52  1  0.69632646  0.43184047  0.60150386  1
  Li  Li53  1  0.56815953  0.26448598  0.60150386  1
  Li  Li54  1  0.73551402  0.30367354  0.89849614  1
  Li  Li55  1  0.69632646  0.43184047  0.89849614  1
  Li  Li56  1  0.56815953  0.26448598  0.89849614  1
  Li  Li57  1  0.26448598  0.69632646  0.39849614  1
  Li  Li58  1  0.30367354  0.56815953  0.39849614  1
  Li  Li59  1  0.43184047  0.73551402  0.39849614  1
  Li  Li60  1  0.33333333  0.66666667  0.98955194  1
  Li  Li61  1  0.66666667  0.33333333  0.48955194  1
  Li  Li62  1  0.66666667  0.33333333  0.01044806  1
  Li  Li63  1  0.33333333  0.66666667  0.51044806  1
  Li  Li64  1  0.79447797  0.67268936  0.25000000  1
  Li  Li65  1  0.32731064  0.12178861  0.25000000  1
  Li  Li66  1  0.87821139  0.20552203  0.25000000  1
  Li  Li67  1  0.20552203  0.32731064  0.75000000  1
  Li  Li68  1  0.67268936  0.87821139  0.75000000  1
  Li  Li69  1  0.12178861  0.79447797  0.75000000  1
  Li  Li70  1  0.00000000  0.00000000  0.00000000  1
  Li  Li71  1  0.00000000  0.00000000  0.50000000  1
