# generated using pymatgen
data_LiF
_symmetry_space_group_name_H-M   'P 1'
_cell_length_a   9.17600611
_cell_length_b   7.15878922
_cell_length_c   11.76588407
_cell_angle_alpha   90.00000000
_cell_angle_beta   90.00000000
_cell_angle_gamma   90.00000000
_symmetry_Int_Tables_number   1
_chemical_formula_structural   LiF
_chemical_formula_sum   'Li24 F24'
_cell_volume   772.89026000
_cell_formula_units_Z   24
loop_
 _symmetry_equiv_pos_site_id
 _symmetry_equiv_pos_as_xyz
  1  'x, y, z'
loop_
 _atom_site_type_symbol
 _atom_site_label
 _atom_site_symmetry_multiplicity
 _atom_site_fract_x
 _atom_site_fract_y
 _atom_site_fract_z
 _atom_site_occupancy
  F  F0  1  0.35735090  0.66046889  0.41394096  1
  F  F1  1  0.14264910  0.33953111  0.91394096  1
  F  F2  1  0.64264910  0.16046889  0.58605904  1
  F  F3  1  0.85735090  0.83953111  0.08605904  1
  F  F4  1  0.64264910  0.33953111  0.58605904  1
  F  F5  1  0.85735090  0.66046889  0.08605904  1
  F  F6  1  0.35735090  0.83953111  0.41394096  1
  F  F7  1  0.14264910  0.16046889  0.91394096  1
  F  F8  1  0.17143121  0.65244770  0.05413700  1
  F  F9  1  0.32856879  0.34755230  0.55413700  1
  F  F10  1  0.82856879  0.15244770  0.94586300  1
  F  F11  1  0.67143121  0.84755230  0.44586300  1
  F  F12  1  0.82856879  0.34755230  0.94586300  1
  F  F13  1  0.67143121  0.65244770  0.44586300  1
  F  F14  1  0.17143121  0.84755230  0.05413700  1
  F  F15  1  0.32856879  0.15244770  0.55413700  1
  F  F16  1  0.07637438  0.84450767  0.93027224  1
  F  F17  1  0.42362562  0.15549233  0.43027224  1
  F  F18  1  0.92362562  0.34450767  0.06972776  1
  F  F19  1  0.57637438  0.65549233  0.56972776  1
  F  F20  1  0.92362562  0.15549233  0.06972776  1
  F  F21  1  0.57637438  0.84450767  0.56972776  1
  F  F22  1  0.07637438  0.65549233  0.93027224  1
  F  F23  1  0.42362562  0.34450767  0.43027224  1
  Li  Li24  1  0.90835020  0.05324336  0.54967933  1
  Li  Li25  1  -0.40835020  -0.05324336  1.04967933  1
  Li  Li26  1  -0.90835020  0.55324336  -0.54967933  1
  Li  Li27  1  1.40835020  0.44675664  -0.04967933  1
  Li  Li28  1  -0.90835020  -0.05324336  -0.54967933  1
  Li  Li29  1  1.40835020  0.05324336  -0.04967933  1
  Li  Li30  1  0.90835020  0.44675664  0.54967933  1
  Li  Li31  1  -0.40835020  0.55324336  1.04967933  1
  Li  Li32  1  0.32093222  0.84786111  0.65941020  1
  Li  Li33  1  0.17906778  0.15213889  0.15941020  1
  Li  Li34  1  0.67906778  0.34786111  0.34058980  1
  Li  Li35  1  0.82093222  0.65213889  0.84058980  1
  Li  Li36  1  0.67906778  0.15213889  0.34058980  1
  Li  Li37  1  0.82093222  0.84786111  0.84058980  1
  Li  Li38  1  0.32093222  0.65213889  0.65941020  1
  Li  Li39  1  0.17906778  0.34786111  0.15941020  1
  Li  Li40  1  0.42006428  0.25000000  0.05427083  1
  Li  Li41  1  0.07993572  0.75000000  0.55427083  1
  Li  Li42  1  0.57993572  0.75000000  0.94572917  1
  Li  Li43  1  0.92006428  0.25000000  0.44572917  1
  Li  Li44  1  0.86335617  0.25000000  0.55954601  1
  Li  Li45  1  0.63664383  0.75000000  0.05954601  1
  Li  Li46  1  0.13664383  0.75000000  0.44045399  1
  Li  Li47  1  0.36335617  0.25000000  0.94045399  1
