# generated using pymatgen
data_LiF
_symmetry_space_group_name_H-M   'P 1'
_cell_length_a   8.96125062
_cell_length_b   8.38098191
_cell_length_c   8.96554182
_cell_angle_alpha   90.00000000
_cell_angle_beta   90.00000000
_cell_angle_gamma   90.00000000
_symmetry_Int_Tables_number   1
_chemical_formula_structural   LiF
_chemical_formula_sum   'Li24 F24'
_cell_volume   673.34876417
_cell_formula_units_Z   24
loop_
 _symmetry_equiv_pos_site_id
 _symmetry_equiv_pos_as_xyz
  1  'x, y, z'
loop_
 _atom_site_type_symbol
 _atom_site_label
 _atom_site_symmetry_multiplicity
 _atom_site_fract_x
 _atom_site_fract_y
 _atom_site_fract_z
 _atom_site_occupancy
  F  F0  1  0.02193408  0.88558600  0.16767508  1
  F  F1  1  0.47806592  0.11441400  0.66767508  1
  F  F2  1  0.97806592  0.38558600  0.83232492  1
  F  F3  1  0.52193408  0.61441400  0.33232492  1
  F  F4  1  0.97806592  0.11441400  0.83232492  1
  F  F5  1  0.52193408  0.88558600  0.33232492  1
  F  F6  1  0.02193408  0.61441400  0.16767508  1
  F  F7  1  0.47806592  0.38558600  0.66767508  1
  F  F8  1  0.12045560  0.11739403  0.32500605  1
  F  F9  1  0.37954440  0.88260597  0.82500605  1
  F  F10  1  0.87954440  0.61739403  0.67499395  1
  F  F11  1  0.62045560  0.38260597  0.17499395  1
  F  F12  1  0.87954440  0.88260597  0.67499395  1
  F  F13  1  0.62045560  0.11739403  0.17499395  1
  F  F14  1  0.12045560  0.38260597  0.32500605  1
  F  F15  1  0.37954440  0.61739403  0.82500605  1
  F  F16  1  0.91957900  0.40662568  0.65221979  1
  F  F17  1  0.58042100  0.59337432  0.15221979  1
  F  F18  1  0.08042100  0.90662568  0.34778021  1
  F  F19  1  0.41957900  0.09337432  0.84778021  1
  F  F20  1  0.08042100  0.59337432  0.34778021  1
  F  F21  1  0.41957900  0.40662568  0.84778021  1
  F  F22  1  0.91957900  0.09337432  0.65221979  1
  F  F23  1  0.58042100  0.90662568  0.15221979  1
  Li  Li24  1  0.01689109  0.25000000  0.11139307  1
  Li  Li25  1  0.48310891  0.75000000  0.61139307  1
  Li  Li26  1  0.98310891  0.75000000  0.88860693  1
  Li  Li27  1  0.51689109  0.25000000  0.38860693  1
  Li  Li28  1  0.23696573  0.41831802  0.87727044  1
  Li  Li29  1  0.26303427  -0.41831802  1.37727044  1
  Li  Li30  1  -0.23696573  0.91831802  -0.87727044  1
  Li  Li31  1  0.73696573  0.08168198  -0.37727044  1
  Li  Li32  1  -0.23696573  -0.41831802  -0.87727044  1
  Li  Li33  1  0.73696573  0.41831802  -0.37727044  1
  Li  Li34  1  0.23696573  0.08168198  0.87727044  1
  Li  Li35  1  0.26303427  0.91831802  1.37727044  1
  Li  Li36  1  0.87427936  0.25000000  0.58987493  1
  Li  Li37  1  0.62572064  0.75000000  0.08987493  1
  Li  Li38  1  0.12572064  0.75000000  0.41012507  1
  Li  Li39  1  0.37427936  0.25000000  0.91012507  1
  Li  Li40  1  0.00000000  0.00000000  0.00000000  1
  Li  Li41  1  0.50000000  0.00000000  0.50000000  1
  Li  Li42  1  0.00000000  0.50000000  0.00000000  1
  Li  Li43  1  0.50000000  0.50000000  0.50000000  1
  Li  Li44  1  0.00000000  0.00000000  0.50000000  1
  Li  Li45  1  0.50000000  0.00000000  0.00000000  1
  Li  Li46  1  0.00000000  0.50000000  0.50000000  1
  Li  Li47  1  0.50000000  0.50000000  0.00000000  1
