# generated using pymatgen
data_LiF
_symmetry_space_group_name_H-M   'P 1'
_cell_length_a   16.71594986
_cell_length_b   16.71594986
_cell_length_c   5.72215748
_cell_angle_alpha   90.00000000
_cell_angle_beta   90.00000000
_cell_angle_gamma   90.00000000
_symmetry_Int_Tables_number   1
_chemical_formula_structural   LiF
_chemical_formula_sum   'Li48 F48'
_cell_volume   1598.90229453
_cell_formula_units_Z   48
loop_
 _symmetry_equiv_pos_site_id
 _symmetry_equiv_pos_as_xyz
  1  'x, y, z'
loop_
 _atom_site_type_symbol
 _atom_site_label
 _atom_site_symmetry_multiplicity
 _atom_site_fract_x
 _atom_site_fract_y
 _atom_site_fract_z
 _atom_site_occupancy
  F  F0  1  0.00000000  0.00000000  0.00000000  1
  F  F1  1  0.50000000  0.00000000  0.50000000  1
  F  F2  1  0.25000000  0.75000000  0.25000000  1
  F  F3  1  0.25000000  0.25000000  0.75000000  1
  F  F4  1  0.50000000  0.00000000  0.00000000  1
  F  F5  1  0.00000000  0.00000000  0.50000000  1
  F  F6  1  0.25000000  0.75000000  0.75000000  1
  F  F7  1  0.25000000  0.25000000  0.25000000  1
  F  F8  1  0.50000000  0.50000000  0.50000000  1
  F  F9  1  0.00000000  0.50000000  0.00000000  1
  F  F10  1  0.75000000  0.25000000  0.75000000  1
  F  F11  1  0.75000000  0.75000000  0.25000000  1
  F  F12  1  0.00000000  0.50000000  0.50000000  1
  F  F13  1  0.50000000  0.50000000  0.00000000  1
  F  F14  1  0.75000000  0.25000000  0.25000000  1
  F  F15  1  0.75000000  0.75000000  0.75000000  1
  F  F16  1  0.21762831  0.37719597  0.71750035  1
  F  F17  1  0.28237169  0.62280403  0.21750035  1
  F  F18  1  0.87280403  0.96762831  0.96750035  1
  F  F19  1  0.62719597  0.03237169  0.46750035  1
  F  F20  1  0.28237169  0.37719597  0.28249965  1
  F  F21  1  0.21762831  0.62280403  0.78249965  1
  F  F22  1  0.62719597  0.96762831  0.03249965  1
  F  F23  1  0.87280403  0.03237169  0.53249965  1
  F  F24  1  0.78237169  0.62280403  0.28249965  1
  F  F25  1  0.71762831  0.37719597  0.78249965  1
  F  F26  1  0.12719597  0.03237169  0.03249965  1
  F  F27  1  0.37280403  0.96762831  0.53249965  1
  F  F28  1  0.71762831  0.62280403  0.71750035  1
  F  F29  1  0.78237169  0.37719597  0.21750035  1
  F  F30  1  0.37280403  0.03237169  0.96750035  1
  F  F31  1  0.12719597  0.96762831  0.46750035  1
  F  F32  1  0.71762831  0.87719597  0.21750035  1
  F  F33  1  0.78237169  0.12280403  0.71750035  1
  F  F34  1  0.37280403  0.46762831  0.46750035  1
  F  F35  1  0.12719597  0.53237169  0.96750035  1
  F  F36  1  0.78237169  0.87719597  0.78249965  1
  F  F37  1  0.71762831  0.12280403  0.28249965  1
  F  F38  1  0.12719597  0.46762831  0.53249965  1
  F  F39  1  0.37280403  0.53237169  0.03249965  1
  F  F40  1  0.28237169  0.12280403  0.78249965  1
  F  F41  1  0.21762831  0.87719597  0.28249965  1
  F  F42  1  0.62719597  0.53237169  0.53249965  1
  F  F43  1  0.87280403  0.46762831  0.03249965  1
  F  F44  1  0.21762831  0.12280403  0.21750035  1
  F  F45  1  0.28237169  0.87719597  0.71750035  1
  F  F46  1  0.87280403  0.53237169  0.46750035  1
  F  F47  1  0.62719597  0.46762831  0.96750035  1
  Li  Li48  1  0.00000000  0.25000000  0.12500000  1
  Li  Li49  1  0.00000000  0.75000000  0.37500000  1
  Li  Li50  1  0.00000000  0.75000000  0.87500000  1
  Li  Li51  1  0.00000000  0.25000000  0.62500000  1
  Li  Li52  1  0.50000000  0.75000000  0.62500000  1
  Li  Li53  1  0.50000000  0.25000000  0.87500000  1
  Li  Li54  1  0.50000000  0.25000000  0.37500000  1
  Li  Li55  1  0.50000000  0.75000000  0.12500000  1
  Li  Li56  1  0.34197347  0.03531517  0.64108954  1
  Li  Li57  1  0.15802653  -0.03531517  1.14108954  1
  Li  Li58  1  0.21468483  1.09197347  0.89108954  1
  Li  Li59  1  0.28531517  -0.09197347  1.39108954  1
  Li  Li60  1  0.15802653  0.03531517  -0.64108954  1
  Li  Li61  1  0.34197347  -0.03531517  -0.14108954  1
  Li  Li62  1  0.28531517  1.09197347  0.10891046  1
  Li  Li63  1  0.21468483  -0.09197347  -0.39108954  1
  Li  Li64  1  -0.34197347  -0.03531517  -0.64108954  1
  Li  Li65  1  0.84197347  0.03531517  -0.14108954  1
  Li  Li66  1  0.78531517  -0.09197347  0.10891046  1
  Li  Li67  1  0.71468483  1.09197347  -0.39108954  1
  Li  Li68  1  0.84197347  -0.03531517  0.64108954  1
  Li  Li69  1  -0.34197347  0.03531517  1.14108954  1
  Li  Li70  1  0.71468483  -0.09197347  0.89108954  1
  Li  Li71  1  0.78531517  1.09197347  1.39108954  1
  Li  Li72  1  0.84197347  0.53531517  1.14108954  1
  Li  Li73  1  0.65802653  0.46468483  1.64108954  1
  Li  Li74  1  0.71468483  1.59197347  1.39108954  1
  Li  Li75  1  0.78531517  0.40802653  1.89108954  1
  Li  Li76  1  0.65802653  0.53531517  -0.14108954  1
  Li  Li77  1  0.84197347  0.46468483  0.35891046  1
  Li  Li78  1  0.78531517  1.59197347  0.60891046  1
  Li  Li79  1  0.71468483  0.40802653  0.10891046  1
  Li  Li80  1  0.15802653  0.46468483  -0.14108954  1
  Li  Li81  1  1.34197347  0.53531517  0.35891046  1
  Li  Li82  1  1.28531517  0.40802653  0.60891046  1
  Li  Li83  1  1.21468483  1.59197347  0.10891046  1
  Li  Li84  1  1.34197347  0.46468483  1.14108954  1
  Li  Li85  1  0.15802653  0.53531517  1.64108954  1
  Li  Li86  1  1.21468483  0.40802653  1.39108954  1
  Li  Li87  1  1.28531517  1.59197347  1.89108954  1
  Li  Li88  1  0.00000000  0.25000000  0.37500000  1
  Li  Li89  1  0.00000000  0.75000000  0.62500000  1
  Li  Li90  1  0.50000000  0.25000000  0.62500000  1
  Li  Li91  1  0.50000000  0.75000000  0.37500000  1
  Li  Li92  1  0.50000000  0.75000000  0.87500000  1
  Li  Li93  1  0.50000000  0.25000000  0.12500000  1
  Li  Li94  1  0.00000000  0.75000000  0.12500000  1
  Li  Li95  1  0.00000000  0.25000000  0.87500000  1
