# generated using pymatgen
data_LiF
_symmetry_space_group_name_H-M   'P 1'
_cell_length_a   5.98867029
_cell_length_b   5.98867029
_cell_length_c   15.88342777
_cell_angle_alpha   90.00000000
_cell_angle_beta   90.00000000
_cell_angle_gamma   120.00000000
_symmetry_Int_Tables_number   1
_chemical_formula_structural   LiF
_chemical_formula_sum   'Li19 F19'
_cell_volume   493.32789202
_cell_formula_units_Z   19
loop_
 _symmetry_equiv_pos_site_id
 _symmetry_equiv_pos_as_xyz
  1  'x, y, z'
loop_
 _atom_site_type_symbol
 _atom_site_label
 _atom_site_symmetry_multiplicity
 _atom_site_fract_x
 _atom_site_fract_y
 _atom_site_fract_z
 _atom_site_occupancy
  F  F0  1  0.66666667  0.33333333  0.50000000  1
  F  F1  1  0.83181316  0.16818684  0.50000000  1
  F  F2  1  0.83181316  0.66362632  0.50000000  1
  F  F3  1  0.33637368  0.16818684  0.50000000  1
  F  F4  1  0.21644744  0.18231365  0.39635359  1
  F  F5  1  0.81768635  0.03413379  0.39635359  1
  F  F6  1  0.96586621  0.78355256  0.39635359  1
  F  F7  1  0.81768635  0.78355256  0.60364641  1
  F  F8  1  0.96586621  0.18231365  0.60364641  1
  F  F9  1  0.21644744  0.03413379  0.60364641  1
  F  F10  1  0.86823100  0.83307173  0.53524770  1
  F  F11  1  0.16692827  0.03515927  0.53524770  1
  F  F12  1  0.96484073  0.13176900  0.53524770  1
  F  F13  1  0.16692827  0.13176900  0.46475230  1
  F  F14  1  0.96484073  0.83307173  0.46475230  1
  F  F15  1  0.86823100  0.03515927  0.46475230  1
  F  F16  1  0.33333333  0.66666667  0.50000000  1
  F  F17  1  0.00000000  0.00000000  0.74522719  1
  F  F18  1  0.00000000  0.00000000  0.25477281  1
  Li  Li19  1  0.67827056  0.04609134  0.63385931  1
  Li  Li20  1  -0.04609134  0.63217922  0.63385931  1
  Li  Li21  1  -0.63217922  -0.67827056  0.63385931  1
  Li  Li22  1  -0.04609134  -0.67827056  -0.63385931  1
  Li  Li23  1  -0.63217922  0.04609134  -0.63385931  1
  Li  Li24  1  0.67827056  0.63217922  -0.63385931  1
  Li  Li25  1  0.34541244  0.24923721  0.43782253  1
  Li  Li26  1  0.75076279  0.09617523  0.43782253  1
  Li  Li27  1  0.90382477  0.65458756  0.43782253  1
  Li  Li28  1  0.75076279  0.65458756  0.56217747  1
  Li  Li29  1  0.90382477  0.24923721  0.56217747  1
  Li  Li30  1  0.34541244  0.09617523  0.56217747  1
  Li  Li31  1  0.00000000  0.00000000  0.50000000  1
  Li  Li32  1  0.97867793  0.56812367  0.84313246  1
  Li  Li33  1  0.43187633  0.41055426  0.84313246  1
  Li  Li34  1  0.58944574  0.02132207  0.84313246  1
  Li  Li35  1  0.43187633  0.02132207  0.15686754  1
  Li  Li36  1  0.58944574  0.56812367  0.15686754  1
  Li  Li37  1  0.97867793  0.41055426  0.15686754  1
