# generated using pymatgen
data_KLi3Te2
_symmetry_space_group_name_H-M   'P 1'
_cell_length_a   10.34572709
_cell_length_b   10.34572709
_cell_length_c   14.36503862
_cell_angle_alpha   90.00000000
_cell_angle_beta   90.00000000
_cell_angle_gamma   120.00000000
_symmetry_Int_Tables_number   1
_chemical_formula_structural   KLi3Te2
_chemical_formula_sum   'K6 Li18 Te12'
_cell_volume   1331.55608975
_cell_formula_units_Z   6
loop_
 _symmetry_equiv_pos_site_id
 _symmetry_equiv_pos_as_xyz
  1  'x, y, z'
loop_
 _atom_site_type_symbol
 _atom_site_label
 _atom_site_symmetry_multiplicity
 _atom_site_fract_x
 _atom_site_fract_y
 _atom_site_fract_z
 _atom_site_occupancy
  K  K0  1  0.33333333  0.66666667  0.25000000  1
  K  K1  1  0.66666667  0.33333333  0.75000000  1
  K  K2  1  0.00000000  0.00000000  0.12493976  1
  K  K3  1  0.00000000  0.00000000  0.62493976  1
  K  K4  1  0.00000000  0.00000000  0.87506024  1
  K  K5  1  0.00000000  0.00000000  0.37506024  1
  Li  Li6  1  0.33333333  0.66666667  0.82837523  1
  Li  Li7  1  0.66666667  0.33333333  0.32837523  1
  Li  Li8  1  0.66666667  0.33333333  0.17162477  1
  Li  Li9  1  0.33333333  0.66666667  0.67162477  1
  Li  Li10  1  0.81799510  0.63599020  0.25000000  1
  Li  Li11  1  0.36400980  0.18200490  0.25000000  1
  Li  Li12  1  0.81799510  0.18200490  0.25000000  1
  Li  Li13  1  0.18200490  0.36400980  0.75000000  1
  Li  Li14  1  0.63599020  0.81799510  0.75000000  1
  Li  Li15  1  0.18200490  0.81799510  0.75000000  1
  Li  Li16  1  0.00000000  0.00000000  0.25000000  1
  Li  Li17  1  0.00000000  0.00000000  0.75000000  1
  Li  Li18  1  0.22882289  0.45764578  0.25000000  1
  Li  Li19  1  0.54235422  0.77117711  0.25000000  1
  Li  Li20  1  0.22882289  0.77117711  0.25000000  1
  Li  Li21  1  0.77117711  0.54235422  0.75000000  1
  Li  Li22  1  0.45764578  0.22882289  0.75000000  1
  Li  Li23  1  0.77117711  0.22882289  0.75000000  1
  Te  Te24  1  0.50000000  0.00000000  -0.00000000  1
  Te  Te25  1  0.00000000  0.50000000  0.00000000  1
  Te  Te26  1  0.50000000  0.50000000  0.00000000  1
  Te  Te27  1  0.50000000  0.00000000  0.50000000  1
  Te  Te28  1  0.00000000  0.50000000  0.50000000  1
  Te  Te29  1  0.50000000  0.50000000  0.50000000  1
  Te  Te30  1  0.00000000  0.00000000  0.00000000  1
  Te  Te31  1  0.00000000  0.00000000  0.50000000  1
  Te  Te32  1  0.33333333  0.66666667  0.55575472  1
  Te  Te33  1  0.66666667  0.33333333  0.05575472  1
  Te  Te34  1  0.66666667  0.33333333  0.44424528  1
  Te  Te35  1  0.33333333  0.66666667  0.94424528  1
