# generated using pymatgen
data_Li3(YP)2
_symmetry_space_group_name_H-M   'P 1'
_cell_length_a   5.04810045
_cell_length_b   5.24832477
_cell_length_c   7.14067283
_cell_angle_alpha   94.65664859
_cell_angle_beta   100.14121253
_cell_angle_gamma   108.70390664
_symmetry_Int_Tables_number   1
_chemical_formula_structural   Li3(YP)2
_chemical_formula_sum   'Li3 Y2 P2'
_cell_volume   174.46192853
_cell_formula_units_Z   1
loop_
 _symmetry_equiv_pos_site_id
 _symmetry_equiv_pos_as_xyz
  1  'x, y, z'
loop_
 _atom_site_type_symbol
 _atom_site_label
 _atom_site_symmetry_multiplicity
 _atom_site_fract_x
 _atom_site_fract_y
 _atom_site_fract_z
 _atom_site_occupancy
  Y  Y0  1  0.00000000  0.00000000  0.00000000  1
  Y  Y1  1  0.50000000  0.50000000  0.50000000  1
  P  P2  1  0.25000000  0.25000000  0.25000000  1
  P  P3  1  0.75000000  0.25000000  0.00000000  1
  Li  Li4  1  0.25000000  0.75000000  0.50000000  1
  Li  Li5  1  0.39618410  0.90762777  0.03216726  1
  Li  Li6  1  0.67300646  0.45604448  0.52317005  1
