# generated using pymatgen
data_Li3La3N3O3F2
_symmetry_space_group_name_H-M   'P 1'
_cell_length_a   9.34633653
_cell_length_b   8.91854694
_cell_length_c   9.63961834
_cell_angle_alpha   90.00000000
_cell_angle_beta   90.00000000
_cell_angle_gamma   90.00000000
_symmetry_Int_Tables_number   1
_chemical_formula_structural   Li3La3N3O3F2
_chemical_formula_sum   'Li3 La3 N3 O3 F2'
_cell_volume   803.51752982
_cell_formula_units_Z   1
loop_
 _symmetry_equiv_pos_site_id
 _symmetry_equiv_pos_as_xyz
  1  'x, y, z'
loop_
 _atom_site_type_symbol
 _atom_site_label
 _atom_site_symmetry_multiplicity
 _atom_site_fract_x
 _atom_site_fract_y
 _atom_site_fract_z
 _atom_site_occupancy
  La  La0  1  0.00000000  0.00000000  0.00000000  1
  La  La1  1  0.50000000  0.50000000  0.50000000  1
  La  La2  1  0.50000000  0.50000000  0.00000000  1
  F  F3  1  0.50000000  0.00000000  0.50000000  1
  F  F4  1  0.00000000  0.50000000  0.50000000  1
  N  N5  1  0.47369827  0.09492828  0.94917828  1
  N  N6  1  0.94039386  0.30750891  0.33309536  1
  N  N7  1  0.19225025  0.55975658  0.63865563  1
  O  O8  1  0.80644898  0.49064487  0.81004285  1
  O  O9  1  0.02319396  0.88026436  0.70317961  1
  O  O10  1  0.20431858  0.13019840  0.32842612  1
  Li  Li11  1  0.24704598  0.89223601  0.07616442  1
  Li  Li12  1  0.70712923  0.51128287  0.29025120  1
  Li  Li13  1  0.03484398  0.97012352  0.69778132  1
