# generated using pymatgen
data_LiF
_symmetry_space_group_name_H-M   'P 1'
_cell_length_a   10.23035055
_cell_length_b   10.23035055
_cell_length_c   11.35265663
_cell_angle_alpha   90.00000000
_cell_angle_beta   90.00000000
_cell_angle_gamma   90.00000000
_symmetry_Int_Tables_number   1
_chemical_formula_structural   LiF
_chemical_formula_sum   'Li64 F64'
_cell_volume   1188.16986593
_cell_formula_units_Z   64
loop_
 _symmetry_equiv_pos_site_id
 _symmetry_equiv_pos_as_xyz
  1  'x, y, z'
loop_
 _atom_site_type_symbol
 _atom_site_label
 _atom_site_symmetry_multiplicity
 _atom_site_fract_x
 _atom_site_fract_y
 _atom_site_fract_z
 _atom_site_occupancy
  F  F0  1  0.00000000  0.25000000  0.97746393  1
  F  F1  1  0.00000000  0.75000000  0.22746393  1
  F  F2  1  0.50000000  0.25000000  0.02253607  1
  F  F3  1  0.50000000  0.75000000  0.77253607  1
  F  F4  1  0.00000000  0.75000000  0.02253607  1
  F  F5  1  0.00000000  0.25000000  0.77253607  1
  F  F6  1  0.50000000  0.75000000  0.97746393  1
  F  F7  1  0.50000000  0.25000000  0.22746393  1
  F  F8  1  0.50000000  0.75000000  0.47746393  1
  F  F9  1  0.50000000  0.25000000  0.72746393  1
  F  F10  1  0.00000000  0.75000000  0.52253607  1
  F  F11  1  0.00000000  0.25000000  0.27253607  1
  F  F12  1  0.50000000  0.25000000  0.52253607  1
  F  F13  1  0.50000000  0.75000000  0.27253607  1
  F  F14  1  0.00000000  0.25000000  0.47746393  1
  F  F15  1  0.00000000  0.75000000  0.72746393  1
  F  F16  1  0.21401662  0.45783075  0.83571102  1
  F  F17  1  0.28598338  0.54216925  0.33571102  1
  F  F18  1  0.79216925  0.96401662  0.08571102  1
  F  F19  1  0.70783075  0.03598338  0.58571102  1
  F  F20  1  0.28598338  0.45783075  0.16428898  1
  F  F21  1  0.21401662  0.54216925  0.66428898  1
  F  F22  1  0.70783075  0.96401662  0.91428898  1
  F  F23  1  0.79216925  0.03598338  0.41428898  1
  F  F24  1  0.78598338  0.54216925  0.16428898  1
  F  F25  1  0.71401662  0.45783075  0.66428898  1
  F  F26  1  0.20783075  0.03598338  0.91428898  1
  F  F27  1  0.29216925  0.96401662  0.41428898  1
  F  F28  1  0.71401662  0.54216925  0.83571102  1
  F  F29  1  0.78598338  0.45783075  0.33571102  1
  F  F30  1  0.29216925  0.03598338  0.08571102  1
  F  F31  1  0.20783075  0.96401662  0.58571102  1
  F  F32  1  0.71401662  0.95783075  0.33571102  1
  F  F33  1  0.78598338  0.04216925  0.83571102  1
  F  F34  1  0.29216925  0.46401662  0.58571102  1
  F  F35  1  0.20783075  0.53598338  0.08571102  1
  F  F36  1  0.78598338  0.95783075  0.66428898  1
  F  F37  1  0.71401662  0.04216925  0.16428898  1
  F  F38  1  0.20783075  0.46401662  0.41428898  1
  F  F39  1  0.29216925  0.53598338  0.91428898  1
  F  F40  1  0.28598338  0.04216925  0.66428898  1
  F  F41  1  0.21401662  0.95783075  0.16428898  1
  F  F42  1  0.70783075  0.53598338  0.41428898  1
  F  F43  1  0.79216925  0.46401662  0.91428898  1
  F  F44  1  0.21401662  0.04216925  0.33571102  1
  F  F45  1  0.28598338  0.95783075  0.83571102  1
  F  F46  1  0.79216925  0.53598338  0.58571102  1
  F  F47  1  0.70783075  0.46401662  0.08571102  1
  F  F48  1  0.18917669  0.43917669  0.12500000  1
  F  F49  1  0.31082331  0.56082331  0.62500000  1
  F  F50  1  0.81082331  0.93917669  0.37500000  1
  F  F51  1  0.68917669  0.06082331  0.87500000  1
  F  F52  1  0.81082331  0.56082331  0.87500000  1
  F  F53  1  0.68917669  0.43917669  0.37500000  1
  F  F54  1  0.18917669  0.06082331  0.62500000  1
  F  F55  1  0.31082331  0.93917669  0.12500000  1
  F  F56  1  0.68917669  0.93917669  0.62500000  1
  F  F57  1  0.81082331  0.06082331  0.12500000  1
  F  F58  1  0.31082331  0.43917669  0.87500000  1
  F  F59  1  0.18917669  0.56082331  0.37500000  1
  F  F60  1  0.31082331  0.06082331  0.37500000  1
  F  F61  1  0.18917669  0.93917669  0.87500000  1
  F  F62  1  0.68917669  0.56082331  0.12500000  1
  F  F63  1  0.81082331  0.43917669  0.62500000  1
  Li  Li64  1  0.06965539  -0.00000000  0.25000000  1
  Li  Li65  1  0.43034461  -0.00000000  0.75000000  1
  Li  Li66  1  0.25000000  0.81965539  0.50000000  1
  Li  Li67  1  0.25000000  0.18034461  0.00000000  1
  Li  Li68  1  0.93034461  0.00000000  0.75000000  1
  Li  Li69  1  0.56965539  0.00000000  0.25000000  1
  Li  Li70  1  0.75000000  0.18034461  0.50000000  1
  Li  Li71  1  0.75000000  0.81965539  -0.00000000  1
  Li  Li72  1  0.56965539  0.50000000  0.75000000  1
  Li  Li73  1  0.93034461  0.50000000  0.25000000  1
  Li  Li74  1  0.75000000  0.31965539  0.00000000  1
  Li  Li75  1  0.75000000  0.68034461  0.50000000  1
  Li  Li76  1  0.43034461  0.50000000  0.25000000  1
  Li  Li77  1  0.06965539  0.50000000  0.75000000  1
  Li  Li78  1  0.25000000  0.68034461  -0.00000000  1
  Li  Li79  1  0.25000000  0.31965539  0.50000000  1
  Li  Li80  1  0.00000000  0.25000000  0.12500000  1
  Li  Li81  1  0.00000000  0.75000000  0.37500000  1
  Li  Li82  1  0.00000000  0.75000000  0.87500000  1
  Li  Li83  1  0.00000000  0.25000000  0.62500000  1
  Li  Li84  1  0.50000000  0.75000000  0.62500000  1
  Li  Li85  1  0.50000000  0.25000000  0.87500000  1
  Li  Li86  1  0.50000000  0.25000000  0.37500000  1
  Li  Li87  1  0.50000000  0.75000000  0.12500000  1
  Li  Li88  1  0.34433458  0.17531154  0.08411857  1
  Li  Li89  1  0.15566542  -0.17531154  0.58411857  1
  Li  Li90  1  0.07468846  1.09433458  0.33411857  1
  Li  Li91  1  0.42531154  -0.09433458  0.83411857  1
  Li  Li92  1  0.15566542  0.17531154  -0.08411857  1
  Li  Li93  1  0.34433458  -0.17531154  0.41588143  1
  Li  Li94  1  0.42531154  1.09433458  0.66588143  1
  Li  Li95  1  0.07468846  -0.09433458  0.16588143  1
  Li  Li96  1  -0.34433458  -0.17531154  -0.08411857  1
  Li  Li97  1  0.84433458  0.17531154  0.41588143  1
  Li  Li98  1  0.92531154  -0.09433458  0.66588143  1
  Li  Li99  1  0.57468846  1.09433458  0.16588143  1
  Li  Li100  1  0.84433458  -0.17531154  0.08411857  1
  Li  Li101  1  -0.34433458  0.17531154  0.58411857  1
  Li  Li102  1  0.57468846  -0.09433458  0.33411857  1
  Li  Li103  1  0.92531154  1.09433458  0.83411857  1
  Li  Li104  1  0.84433458  0.67531154  0.58411857  1
  Li  Li105  1  0.65566542  0.32468846  1.08411857  1
  Li  Li106  1  0.57468846  1.59433458  0.83411857  1
  Li  Li107  1  0.92531154  0.40566542  1.33411857  1
  Li  Li108  1  0.65566542  0.67531154  0.41588143  1
  Li  Li109  1  0.84433458  0.32468846  0.91588143  1
  Li  Li110  1  0.92531154  1.59433458  1.16588143  1
  Li  Li111  1  0.57468846  0.40566542  0.66588143  1
  Li  Li112  1  0.15566542  0.32468846  0.41588143  1
  Li  Li113  1  1.34433458  0.67531154  0.91588143  1
  Li  Li114  1  1.42531154  0.40566542  1.16588143  1
  Li  Li115  1  1.07468846  1.59433458  0.66588143  1
  Li  Li116  1  1.34433458  0.32468846  0.58411857  1
  Li  Li117  1  0.15566542  0.67531154  1.08411857  1
  Li  Li118  1  1.07468846  0.40566542  0.83411857  1
  Li  Li119  1  1.42531154  1.59433458  1.33411857  1
  Li  Li120  1  0.00000000  0.25000000  0.37500000  1
  Li  Li121  1  0.00000000  0.75000000  0.62500000  1
  Li  Li122  1  0.50000000  0.25000000  0.62500000  1
  Li  Li123  1  0.50000000  0.75000000  0.37500000  1
  Li  Li124  1  0.50000000  0.75000000  0.87500000  1
  Li  Li125  1  0.50000000  0.25000000  0.12500000  1
  Li  Li126  1  0.00000000  0.75000000  0.12500000  1
  Li  Li127  1  0.00000000  0.25000000  0.87500000  1
