# generated using pymatgen
data_LiF
_symmetry_space_group_name_H-M   'P 1'
_cell_length_a   8.24701918
_cell_length_b   8.24701918
_cell_length_c   24.27285159
_cell_angle_alpha   90.00000000
_cell_angle_beta   90.00000000
_cell_angle_gamma   120.00000000
_symmetry_Int_Tables_number   1
_chemical_formula_structural   LiF
_chemical_formula_sum   'Li67 F67'
_cell_volume   1429.70172618
_cell_formula_units_Z   67
loop_
 _symmetry_equiv_pos_site_id
 _symmetry_equiv_pos_as_xyz
  1  'x, y, z'
loop_
 _atom_site_type_symbol
 _atom_site_label
 _atom_site_symmetry_multiplicity
 _atom_site_fract_x
 _atom_site_fract_y
 _atom_site_fract_z
 _atom_site_occupancy
  F  F0  1  0.33333333  0.66666667  0.50000000  1
  F  F1  1  0.80348693  0.23797937  0.21653143  1
  F  F2  1  0.76202063  0.56550756  0.21653143  1
  F  F3  1  0.43449244  0.19651307  0.21653143  1
  F  F4  1  0.76202063  0.19651307  0.78346857  1
  F  F5  1  0.43449244  0.23797937  0.78346857  1
  F  F6  1  0.80348693  0.56550756  0.78346857  1
  F  F7  1  0.66666667  0.33333333  -0.00000000  1
  F  F8  1  0.76371252  0.08928225  0.40131578  1
  F  F9  1  0.91071775  0.67443026  0.40131578  1
  F  F10  1  0.32556974  0.23628748  0.40131578  1
  F  F11  1  0.91071775  0.23628748  0.59868422  1
  F  F12  1  0.32556974  0.08928225  0.59868422  1
  F  F13  1  0.76371252  0.67443026  0.59868422  1
  F  F14  1  0.79002631  0.59912845  0.52071523  1
  F  F15  1  0.40087155  0.19089785  0.52071523  1
  F  F16  1  0.80910215  0.20997369  0.52071523  1
  F  F17  1  0.40087155  0.20997369  0.47928477  1
  F  F18  1  0.80910215  0.59912845  0.47928477  1
  F  F19  1  0.79002631  0.19089785  0.47928477  1
  F  F20  1  0.16626041  0.47464899  0.29408331  1
  F  F21  1  0.52535101  0.69161141  0.29408331  1
  F  F22  1  0.30838859  0.83373959  0.29408331  1
  F  F23  1  0.52535101  0.83373959  0.70591669  1
  F  F24  1  0.30838859  0.47464899  0.70591669  1
  F  F25  1  0.16626041  0.69161141  0.70591669  1
  F  F26  1  0.16455885  0.92033025  0.68571641  1
  F  F27  1  0.07966975  0.24422859  0.68571641  1
  F  F28  1  0.75577141  0.83544115  0.68571641  1
  F  F29  1  0.07966975  0.83544115  0.31428359  1
  F  F30  1  0.75577141  0.92033025  0.31428359  1
  F  F31  1  0.16455885  0.24422859  0.31428359  1
  F  F32  1  0.79995001  0.67432568  0.00590066  1
  F  F33  1  0.32567432  0.12562433  0.00590066  1
  F  F34  1  0.87437567  0.20004999  0.00590066  1
  F  F35  1  0.32567432  0.20004999  0.99409934  1
  F  F36  1  0.87437567  0.67432568  0.99409934  1
  F  F37  1  0.79995001  0.12562433  0.99409934  1
  F  F38  1  0.65552684  0.58422499  0.60601820  1
  F  F39  1  0.41577501  0.07130186  0.60601820  1
  F  F40  1  0.92869814  0.34447316  0.60601820  1
  F  F41  1  0.41577501  0.34447316  0.39398180  1
  F  F42  1  0.92869814  0.58422499  0.39398180  1
  F  F43  1  0.65552684  0.07130186  0.39398180  1
  F  F44  1  0.96035135  0.39519033  0.51534678  1
  F  F45  1  0.60480967  0.56516103  0.51534678  1
  F  F46  1  0.43483897  0.03964865  0.51534678  1
  F  F47  1  0.60480967  0.03964865  0.48465322  1
  F  F48  1  0.43483897  0.39519033  0.48465322  1
  F  F49  1  0.96035135  0.56516103  0.48465322  1
  F  F50  1  0.86807194  0.35554295  0.07167684  1
  F  F51  1  0.64445705  0.51252899  0.07167684  1
  F  F52  1  0.48747101  0.13192806  0.07167684  1
  F  F53  1  0.64445705  0.13192806  0.92832316  1
  F  F54  1  0.48747101  0.35554295  0.92832316  1
  F  F55  1  0.86807194  0.51252899  0.92832316  1
  F  F56  1  0.22257049  0.26938956  0.53042673  1
  F  F57  1  0.73061044  0.95318092  0.53042673  1
  F  F58  1  0.04681908  0.77742951  0.53042673  1
  F  F59  1  0.73061044  0.77742951  0.46957327  1
  F  F60  1  0.04681908  0.26938956  0.46957327  1
  F  F61  1  0.22257049  0.95318092  0.46957327  1
  F  F62  1  0.33333333  0.66666667  0.00000000  1
  F  F63  1  0.33333333  0.66666667  0.19258080  1
  F  F64  1  0.33333333  0.66666667  0.80741920  1
  F  F65  1  0.33333333  0.66666667  0.42785351  1
  F  F66  1  0.33333333  0.66666667  0.57214649  1
  Li  Li67  1  0.33333333  0.66666667  0.61609320  1
  Li  Li68  1  0.33333333  0.66666667  0.38390680  1
  Li  Li69  1  0.77998478  0.45593392  0.26961859  1
  Li  Li70  1  -0.45593392  0.32405087  0.26961859  1
  Li  Li71  1  -0.32405087  -0.77998478  0.26961859  1
  Li  Li72  1  -0.45593392  -0.77998478  -0.26961859  1
  Li  Li73  1  -0.32405087  0.45593392  -0.26961859  1
  Li  Li74  1  0.77998478  0.32405087  -0.26961859  1
  Li  Li75  1  0.04866269  0.31975750  0.11729226  1
  Li  Li76  1  0.68024250  0.72890519  0.11729226  1
  Li  Li77  1  0.27109481  0.95133731  0.11729226  1
  Li  Li78  1  0.68024250  0.95133731  0.88270774  1
  Li  Li79  1  0.27109481  0.31975750  0.88270774  1
  Li  Li80  1  0.04866269  0.72890519  0.88270774  1
  Li  Li81  1  0.33333333  0.66666667  0.31042134  1
  Li  Li82  1  0.33333333  0.66666667  0.68957866  1
  Li  Li83  1  0.16116372  0.73627007  0.25182690  1
  Li  Li84  1  0.26372993  0.42489365  0.25182690  1
  Li  Li85  1  0.57510635  0.83883628  0.25182690  1
  Li  Li86  1  0.26372993  0.83883628  0.74817310  1
  Li  Li87  1  0.57510635  0.73627007  0.74817310  1
  Li  Li88  1  0.16116372  0.42489365  0.74817310  1
  Li  Li89  1  0.66666667  0.33333333  0.90316978  1
  Li  Li90  1  0.66666667  0.33333333  0.09683022  1
  Li  Li91  1  0.57876086  0.42123914  0.50000000  1
  Li  Li92  1  0.57876086  0.15752171  0.50000000  1
  Li  Li93  1  0.84247829  0.42123914  0.50000000  1
  Li  Li94  1  0.00000000  0.00000000  0.87863828  1
  Li  Li95  1  0.00000000  0.00000000  0.12136172  1
  Li  Li96  1  0.55788194  0.27131080  0.35032773  1
  Li  Li97  1  0.72868920  0.28657114  0.35032773  1
  Li  Li98  1  0.71342886  0.44211806  0.35032773  1
  Li  Li99  1  0.72868920  0.44211806  0.64967227  1
  Li  Li100  1  0.71342886  0.27131080  0.64967227  1
  Li  Li101  1  0.55788194  0.28657114  0.64967227  1
  Li  Li102  1  0.00000000  0.00000000  0.26209228  1
  Li  Li103  1  0.00000000  0.00000000  0.73790772  1
  Li  Li104  1  0.93594219  0.79693063  0.09004744  1
  Li  Li105  1  0.20306937  0.13901156  0.09004744  1
  Li  Li106  1  0.86098844  0.06405781  0.09004744  1
  Li  Li107  1  0.20306937  0.06405781  0.90995256  1
  Li  Li108  1  0.86098844  0.79693063  0.90995256  1
  Li  Li109  1  0.93594219  0.13901156  0.90995256  1
  Li  Li110  1  0.24925789  0.37954149  0.11982288  1
  Li  Li111  1  0.62045851  0.86971640  0.11982288  1
  Li  Li112  1  0.13028360  0.75074211  0.11982288  1
  Li  Li113  1  0.62045851  0.75074211  0.88017712  1
  Li  Li114  1  0.13028360  0.37954149  0.88017712  1
  Li  Li115  1  0.24925789  0.86971640  0.88017712  1
  Li  Li116  1  0.86383141  0.13616859  0.50000000  1
  Li  Li117  1  0.86383141  0.72766283  0.50000000  1
  Li  Li118  1  0.27233717  0.13616859  0.50000000  1
  Li  Li119  1  0.16975353  0.83024647  0.50000000  1
  Li  Li120  1  0.16975353  0.33950705  0.50000000  1
  Li  Li121  1  0.66049295  0.83024647  0.50000000  1
  Li  Li122  1  0.24568404  0.68396582  0.53096856  1
  Li  Li123  1  0.31603418  0.56171822  0.53096856  1
  Li  Li124  1  0.43828178  0.75431596  0.53096856  1
  Li  Li125  1  0.31603418  0.75431596  0.46903144  1
  Li  Li126  1  0.43828178  0.68396582  0.46903144  1
  Li  Li127  1  0.24568404  0.56171822  0.46903144  1
  Li  Li128  1  0.89927506  0.56184429  0.22984200  1
  Li  Li129  1  0.43815571  0.33743077  0.22984200  1
  Li  Li130  1  0.66256923  0.10072494  0.22984200  1
  Li  Li131  1  0.43815571  0.10072494  0.77015800  1
  Li  Li132  1  0.66256923  0.56184429  0.77015800  1
  Li  Li133  1  0.89927506  0.33743077  0.77015800  1
