# generated using pymatgen
data_LiF
_symmetry_space_group_name_H-M   'P 1'
_cell_length_a   9.09144477
_cell_length_b   9.09144477
_cell_length_c   23.95953159
_cell_angle_alpha   90.00000000
_cell_angle_beta   90.00000000
_cell_angle_gamma   120.00000000
_symmetry_Int_Tables_number   1
_chemical_formula_structural   LiF
_chemical_formula_sum   'Li66 F66'
_cell_volume   1715.04201805
_cell_formula_units_Z   66
loop_
 _symmetry_equiv_pos_site_id
 _symmetry_equiv_pos_as_xyz
  1  'x, y, z'
loop_
 _atom_site_type_symbol
 _atom_site_label
 _atom_site_symmetry_multiplicity
 _atom_site_fract_x
 _atom_site_fract_y
 _atom_site_fract_z
 _atom_site_occupancy
  F  F0  1  0.78656880  0.52701054  0.79795991  1
  F  F1  1  0.47298946  0.25955826  0.79795991  1
  F  F2  1  0.74044174  0.21343120  0.79795991  1
  F  F3  1  0.52701054  0.78656880  0.70204009  1
  F  F4  1  0.25955826  0.47298946  0.70204009  1
  F  F5  1  0.21343120  0.74044174  0.70204009  1
  F  F6  1  0.21343120  0.47298946  0.20204009  1
  F  F7  1  0.52701054  0.74044174  0.20204009  1
  F  F8  1  0.25955826  0.78656880  0.20204009  1
  F  F9  1  0.47298946  0.21343120  0.29795991  1
  F  F10  1  0.74044174  0.52701054  0.29795991  1
  F  F11  1  0.78656880  0.25955826  0.29795991  1
  F  F12  1  0.45323547  0.86034387  0.13129325  1
  F  F13  1  0.13965613  0.59289159  0.13129325  1
  F  F14  1  0.40710841  0.54676453  0.13129325  1
  F  F15  1  0.19367720  0.11990213  0.03537342  1
  F  F16  1  0.92622493  0.80632280  0.03537342  1
  F  F17  1  0.88009787  0.07377507  0.03537342  1
  F  F18  1  0.88009787  0.80632280  0.53537342  1
  F  F19  1  0.19367720  0.07377507  0.53537342  1
  F  F20  1  0.92622493  0.11990213  0.53537342  1
  F  F21  1  0.13965613  0.54676453  0.63129325  1
  F  F22  1  0.40710841  0.86034387  0.63129325  1
  F  F23  1  0.45323547  0.59289159  0.63129325  1
  F  F24  1  0.11990213  0.19367720  0.46462658  1
  F  F25  1  0.80632280  0.92622493  0.46462658  1
  F  F26  1  0.07377507  0.88009787  0.46462658  1
  F  F27  1  0.86034387  0.45323547  0.36870675  1
  F  F28  1  0.59289159  0.13965613  0.36870675  1
  F  F29  1  0.54676453  0.40710841  0.36870675  1
  F  F30  1  0.54676453  0.13965613  0.86870675  1
  F  F31  1  0.86034387  0.40710841  0.86870675  1
  F  F32  1  0.59289159  0.45323547  0.86870675  1
  F  F33  1  0.80632280  0.88009787  0.96462658  1
  F  F34  1  0.07377507  0.19367720  0.96462658  1
  F  F35  1  0.11990213  0.92622493  0.96462658  1
  F  F36  1  0.29618365  0.00000000  0.25000000  1
  F  F37  1  0.00000000  0.29618365  0.25000000  1
  F  F38  1  0.70381635  0.70381635  0.25000000  1
  F  F39  1  0.70381635  -0.00000000  0.75000000  1
  F  F40  1  0.00000000  0.70381635  0.75000000  1
  F  F41  1  0.29618365  0.29618365  0.75000000  1
  F  F42  1  0.96285031  0.33333333  0.58333333  1
  F  F43  1  0.66666667  0.62951698  0.58333333  1
  F  F44  1  0.37048302  0.03714969  0.58333333  1
  F  F45  1  0.37048302  0.33333333  0.08333333  1
  F  F46  1  0.66666667  0.03714969  0.08333333  1
  F  F47  1  0.96285031  0.62951698  0.08333333  1
  F  F48  1  0.62951698  0.66666667  0.91666667  1
  F  F49  1  0.33333333  0.96285031  0.91666667  1
  F  F50  1  0.03714969  0.37048302  0.91666667  1
  F  F51  1  0.03714969  0.66666667  0.41666667  1
  F  F52  1  0.33333333  0.37048302  0.41666667  1
  F  F53  1  0.62951698  0.96285031  0.41666667  1
  F  F54  1  0.00000000  0.00000000  0.14843079  1
  F  F55  1  0.00000000  0.00000000  0.35156921  1
  F  F56  1  0.00000000  0.00000000  0.85156921  1
  F  F57  1  0.00000000  0.00000000  0.64843079  1
  F  F58  1  0.66666667  0.33333333  0.48176412  1
  F  F59  1  0.66666667  0.33333333  0.68490255  1
  F  F60  1  0.66666667  0.33333333  0.18490255  1
  F  F61  1  0.66666667  0.33333333  0.98176412  1
  F  F62  1  0.33333333  0.66666667  0.81509745  1
  F  F63  1  0.33333333  0.66666667  0.01823588  1
  F  F64  1  0.33333333  0.66666667  0.51823588  1
  F  F65  1  0.33333333  0.66666667  0.31509745  1
  Li  Li66  1  0.00000000  0.00000000  0.20604617  1
  Li  Li67  1  0.00000000  0.00000000  0.29395383  1
  Li  Li68  1  0.00000000  0.00000000  0.79395383  1
  Li  Li69  1  0.00000000  0.00000000  0.70604617  1
  Li  Li70  1  0.66666667  0.33333333  0.53937950  1
  Li  Li71  1  0.66666667  0.33333333  0.62728717  1
  Li  Li72  1  0.66666667  0.33333333  0.12728717  1
  Li  Li73  1  0.66666667  0.33333333  0.03937950  1
  Li  Li74  1  0.33333333  0.66666667  0.87271283  1
  Li  Li75  1  0.33333333  0.66666667  0.96062050  1
  Li  Li76  1  0.33333333  0.66666667  0.46062050  1
  Li  Li77  1  0.33333333  0.66666667  0.37271283  1
  Li  Li78  1  0.81616047  0.26521641  0.54511523  1
  Li  Li79  1  -0.26521641  0.55094405  0.54511523  1
  Li  Li80  1  -0.55094405  -0.81616047  0.54511523  1
  Li  Li81  1  0.26521641  0.81616047  -0.04511523  1
  Li  Li82  1  0.55094405  -0.26521641  -0.04511523  1
  Li  Li83  1  -0.81616047  -0.55094405  -0.04511523  1
  Li  Li84  1  -0.81616047  -0.26521641  -0.54511523  1
  Li  Li85  1  0.26521641  -0.55094405  -0.54511523  1
  Li  Li86  1  0.55094405  0.81616047  -0.54511523  1
  Li  Li87  1  -0.26521641  -0.81616047  1.04511523  1
  Li  Li88  1  -0.55094405  0.26521641  1.04511523  1
  Li  Li89  1  0.81616047  0.55094405  1.04511523  1
  Li  Li90  1  1.48282713  0.59854974  0.87844856  1
  Li  Li91  1  0.40145026  0.88427739  0.87844856  1
  Li  Li92  1  0.11572261  -0.48282713  0.87844856  1
  Li  Li93  1  0.93188308  1.14949380  0.28821811  1
  Li  Li94  1  1.21761072  0.06811692  0.28821811  1
  Li  Li95  1  -0.14949380  -0.21761072  0.28821811  1
  Li  Li96  1  -0.14949380  0.06811692  -0.21178189  1
  Li  Li97  1  0.93188308  -0.21761072  -0.21178189  1
  Li  Li98  1  1.21761072  1.14949380  -0.21178189  1
  Li  Li99  1  0.40145026  -0.48282713  1.37844856  1
  Li  Li100  1  0.11572261  0.59854974  1.37844856  1
  Li  Li101  1  1.48282713  0.88427739  1.37844856  1
  Li  Li102  1  1.14949380  0.93188308  1.21178189  1
  Li  Li103  1  0.06811692  1.21761072  1.21178189  1
  Li  Li104  1  -0.21761072  -0.14949380  1.21178189  1
  Li  Li105  1  0.59854974  1.48282713  0.62155144  1
  Li  Li106  1  0.88427739  0.40145026  0.62155144  1
  Li  Li107  1  -0.48282713  0.11572261  0.62155144  1
  Li  Li108  1  -0.48282713  0.40145026  0.12155144  1
  Li  Li109  1  0.59854974  0.11572261  0.12155144  1
  Li  Li110  1  0.88427739  1.48282713  0.12155144  1
  Li  Li111  1  0.06811692  -0.14949380  1.71178189  1
  Li  Li112  1  -0.21761072  0.93188308  1.71178189  1
  Li  Li113  1  1.14949380  1.21761072  1.71178189  1
  Li  Li114  1  0.50000000  -0.00000000  -0.00000000  1
  Li  Li115  1  0.00000000  0.50000000  0.00000000  1
  Li  Li116  1  0.50000000  0.50000000  -0.00000000  1
  Li  Li117  1  0.00000000  0.50000000  0.50000000  1
  Li  Li118  1  0.50000000  -0.00000000  0.50000000  1
  Li  Li119  1  0.50000000  0.50000000  0.50000000  1
  Li  Li120  1  0.16666667  0.33333333  0.33333333  1
  Li  Li121  1  0.66666667  0.83333333  0.33333333  1
  Li  Li122  1  0.16666667  0.83333333  0.33333333  1
  Li  Li123  1  0.66666667  0.83333333  0.83333333  1
  Li  Li124  1  0.16666667  0.33333333  0.83333333  1
  Li  Li125  1  0.16666667  0.83333333  0.83333333  1
  Li  Li126  1  0.83333333  0.66666667  0.66666667  1
  Li  Li127  1  0.33333333  0.16666667  0.66666667  1
  Li  Li128  1  0.83333333  0.16666667  0.66666667  1
  Li  Li129  1  0.33333333  0.16666667  0.16666667  1
  Li  Li130  1  0.83333333  0.66666667  0.16666667  1
  Li  Li131  1  0.83333333  0.16666667  0.16666667  1
