# generated using pymatgen
data_Li2Y2P3Se2
_symmetry_space_group_name_H-M   'P 1'
_cell_length_a   4.70432392
_cell_length_b   4.95811982
_cell_length_c   7.07474788
_cell_angle_alpha   95.31264700
_cell_angle_beta   101.56984069
_cell_angle_gamma   111.33879152
_symmetry_Int_Tables_number   1
_chemical_formula_structural   Li2Y2P3Se2
_chemical_formula_sum   'Li2 Y2 P3 Se2'
_cell_volume   148.08049811
_cell_formula_units_Z   1
loop_
 _symmetry_equiv_pos_site_id
 _symmetry_equiv_pos_as_xyz
  1  'x, y, z'
loop_
 _atom_site_type_symbol
 _atom_site_label
 _atom_site_symmetry_multiplicity
 _atom_site_fract_x
 _atom_site_fract_y
 _atom_site_fract_z
 _atom_site_occupancy
  Y  Y0  1  0.12500000  0.12500000  0.12500000  1
  Y  Y1  1  0.50000000  0.50000000  0.50000000  1
  P  P2  1  0.25000000  0.25000000  0.25000000  1
  P  P3  1  0.75000000  0.75000000  0.75000000  1
  P  P4  1  0.57505073  0.63313415  0.35228761  1
  Se  Se5  1  0.73466961  0.88506998  0.42393122  1
  Se  Se6  1  0.27119565  0.38523640  0.88651065  1
  Li  Li7  1  0.25636182  0.36182041  0.02526117  1
  Li  Li8  1  0.58968758  0.87218767  0.13347271  1
