# generated using pymatgen
data_Li2Si4Te3F12
_symmetry_space_group_name_H-M   'P 1'
_cell_length_a   15.77649386
_cell_length_b   11.39092474
_cell_length_c   5.12249241
_cell_angle_alpha   90.00000000
_cell_angle_beta   90.00000000
_cell_angle_gamma   90.00000000
_symmetry_Int_Tables_number   1
_chemical_formula_structural   Li2Si4Te3F12
_chemical_formula_sum   'Li8 Si16 Te12 F48'
_cell_volume   920.55724094
_cell_formula_units_Z   4
loop_
 _symmetry_equiv_pos_site_id
 _symmetry_equiv_pos_as_xyz
  1  'x, y, z'
loop_
 _atom_site_type_symbol
 _atom_site_label
 _atom_site_symmetry_multiplicity
 _atom_site_fract_x
 _atom_site_fract_y
 _atom_site_fract_z
 _atom_site_occupancy
  F  F0  1  0.95894726  0.44836200  -0.00000000  1
  F  F1  1  0.04105274  0.55163800  0.00000000  1
  F  F2  1  0.54105274  0.94836200  0.00000000  1
  F  F3  1  0.45894726  0.05163800  -0.00000000  1
  F  F4  1  0.61297471  0.20291375  0.00000000  1
  F  F5  1  0.38702529  0.79708625  0.00000000  1
  F  F6  1  0.88702529  0.70291375  0.00000000  1
  F  F7  1  0.11297471  0.29708625  0.00000000  1
  F  F8  1  0.77441522  0.83256220  0.26380360  1
  F  F9  1  -0.77441522  -0.83256220  0.26380360  1
  F  F10  1  -0.27441522  1.33256220  -0.26380360  1
  F  F11  1  1.27441522  -0.33256220  -0.26380360  1
  F  F12  1  -0.77441522  -0.83256220  -0.26380360  1
  F  F13  1  0.77441522  0.83256220  -0.26380360  1
  F  F14  1  1.27441522  -0.33256220  0.26380360  1
  F  F15  1  -0.27441522  1.33256220  0.26380360  1
  F  F16  1  0.21055273  0.56804713  0.12971573  1
  F  F17  1  0.78944727  0.43195287  0.12971573  1
  F  F18  1  0.28944727  0.06804713  0.87028427  1
  F  F19  1  0.71055273  0.93195287  0.87028427  1
  F  F20  1  0.78944727  0.43195287  0.87028427  1
  F  F21  1  0.21055273  0.56804713  0.87028427  1
  F  F22  1  0.71055273  0.93195287  0.12971573  1
  F  F23  1  0.28944727  0.06804713  0.12971573  1
  F  F24  1  0.94753556  0.15466550  0.50000000  1
  F  F25  1  0.05246444  0.84533450  0.50000000  1
  F  F26  1  0.55246444  0.65466550  0.50000000  1
  F  F27  1  0.44753556  0.34533450  0.50000000  1
  F  F28  1  0.47388413  0.49351739  0.91290001  1
  F  F29  1  0.52611587  0.50648261  0.91290001  1
  F  F30  1  0.02611587  0.99351739  0.08709999  1
  F  F31  1  0.97388413  0.00648261  0.08709999  1
  F  F32  1  0.52611587  0.50648261  0.08709999  1
  F  F33  1  0.47388413  0.49351739  0.08709999  1
  F  F34  1  0.97388413  0.00648261  0.91290001  1
  F  F35  1  0.02611587  0.99351739  0.91290001  1
  F  F36  1  0.00000000  0.00000000  0.00000000  1
  F  F37  1  0.50000000  0.50000000  0.00000000  1
  F  F38  1  0.32776778  0.60750234  0.05751358  1
  F  F39  1  0.67223222  0.39249766  0.05751358  1
  F  F40  1  0.17223222  0.10750234  0.94248642  1
  F  F41  1  0.82776778  0.89249766  0.94248642  1
  F  F42  1  0.67223222  0.39249766  0.94248642  1
  F  F43  1  0.32776778  0.60750234  0.94248642  1
  F  F44  1  0.82776778  0.89249766  0.05751358  1
  F  F45  1  0.17223222  0.10750234  0.05751358  1
  F  F46  1  0.00000000  0.00000000  0.50000000  1
  F  F47  1  0.50000000  0.50000000  0.50000000  1
  Li  Li48  1  0.10905947  0.86686640  0.73302857  1
  Li  Li49  1  0.89094053  0.13313360  0.73302857  1
  Li  Li50  1  0.39094053  0.36686640  0.26697143  1
  Li  Li51  1  0.60905947  0.63313360  0.26697143  1
  Li  Li52  1  0.89094053  0.13313360  0.26697143  1
  Li  Li53  1  0.10905947  0.86686640  0.26697143  1
  Li  Li54  1  0.60905947  0.63313360  0.73302857  1
  Li  Li55  1  0.39094053  0.36686640  0.73302857  1
  Si  Si56  1  0.80615863  0.57232022  0.50000000  1
  Si  Si57  1  0.19384137  0.42767978  0.50000000  1
  Si  Si58  1  0.69384137  0.07232022  0.50000000  1
  Si  Si59  1  0.30615863  0.92767978  0.50000000  1
  Si  Si60  1  0.00000000  0.50000000  0.00000000  1
  Si  Si61  1  0.50000000  0.00000000  0.00000000  1
  Si  Si62  1  0.00000000  0.50000000  0.25711597  1
  Si  Si63  1  0.50000000  0.00000000  0.74288403  1
  Si  Si64  1  0.00000000  0.50000000  0.74288403  1
  Si  Si65  1  0.50000000  0.00000000  0.25711597  1
  Si  Si66  1  0.00000000  0.50000000  0.50000000  1
  Si  Si67  1  0.50000000  0.00000000  0.50000000  1
  Si  Si68  1  0.83299072  0.46556559  0.50000000  1
  Si  Si69  1  0.16700928  0.53443441  0.50000000  1
  Si  Si70  1  0.66700928  0.96556559  0.50000000  1
  Si  Si71  1  0.33299072  0.03443441  0.50000000  1
  Te  Te72  1  0.97797629  0.12214041  0.19711300  1
  Te  Te73  1  0.02202371  0.87785959  0.19711300  1
  Te  Te74  1  0.52202371  0.62214041  0.80288700  1
  Te  Te75  1  0.47797629  0.37785959  0.80288700  1
  Te  Te76  1  0.02202371  0.87785959  0.80288700  1
  Te  Te77  1  0.97797629  0.12214041  0.80288700  1
  Te  Te78  1  0.47797629  0.37785959  0.19711300  1
  Te  Te79  1  0.52202371  0.62214041  0.19711300  1
  Te  Te80  1  0.83747330  0.54752697  0.00000000  1
  Te  Te81  1  0.16252670  0.45247303  0.00000000  1
  Te  Te82  1  0.66252670  0.04752697  -0.00000000  1
  Te  Te83  1  0.33747330  0.95247303  0.00000000  1
