# generated using pymatgen
data_Li2Y2AsP4Se
_symmetry_space_group_name_H-M   'P 1'
_cell_length_a   4.20853021
_cell_length_b   4.45549956
_cell_length_c   6.78918345
_cell_angle_alpha   96.16562897
_cell_angle_beta   102.80199059
_cell_angle_gamma   111.72531174
_symmetry_Int_Tables_number   1
_chemical_formula_structural   Li2Y2AsP4Se
_chemical_formula_sum   'Li2 Y2 As1 P4 Se1'
_cell_volume   112.77291883
_cell_formula_units_Z   1
loop_
 _symmetry_equiv_pos_site_id
 _symmetry_equiv_pos_as_xyz
  1  'x, y, z'
loop_
 _atom_site_type_symbol
 _atom_site_label
 _atom_site_symmetry_multiplicity
 _atom_site_fract_x
 _atom_site_fract_y
 _atom_site_fract_z
 _atom_site_occupancy
  Se  Se0  1  0.00000000  0.00000000  0.00000000  1
  Y  Y1  1  0.50000000  0.50000000  0.50000000  1
  Y  Y2  1  0.25000000  0.25000000  0.25000000  1
  P  P3  1  0.75000000  0.25000000  0.00000000  1
  P  P4  1  0.25000000  0.75000000  0.50000000  1
  P  P5  1  0.69797642  0.89637292  0.90008285  1
  P  P6  1  0.23748716  0.64993000  0.84456706  1
  As  As7  1  0.66447029  0.43600530  0.94092559  1
  Li  Li8  1  0.75247135  0.79106516  0.88493332  1
  Li  Li9  1  0.87121534  0.47386948  0.92741089  1
