# generated using pymatgen
data_LiYP2Se
_symmetry_space_group_name_H-M   'P 1'
_cell_length_a   4.64910857
_cell_length_b   4.95649257
_cell_length_c   7.05210744
_cell_angle_alpha   95.34033923
_cell_angle_beta   101.63014860
_cell_angle_gamma   111.45002019
_symmetry_Int_Tables_number   1
_chemical_formula_structural   LiYP2Se
_chemical_formula_sum   'Li2 Y2 P4 Se2'
_cell_volume   145.64228037
_cell_formula_units_Z   2
loop_
 _symmetry_equiv_pos_site_id
 _symmetry_equiv_pos_as_xyz
  1  'x, y, z'
loop_
 _atom_site_type_symbol
 _atom_site_label
 _atom_site_symmetry_multiplicity
 _atom_site_fract_x
 _atom_site_fract_y
 _atom_site_fract_z
 _atom_site_occupancy
  Se  Se0  1  0.00000000  0.00000000  0.00000000  1
  Se  Se1  1  0.50000000  0.50000000  0.50000000  1
  Y  Y2  1  0.50000000  0.50000000  0.00000000  1
  Y  Y3  1  0.50000000  0.00000000  0.50000000  1
  P  P4  1  0.00000000  0.50000000  0.50000000  1
  P  P5  1  0.57808967  0.26892979  0.64134876  1
  P  P6  1  0.92475966  0.29976287  0.70919899  1
  P  P7  1  0.80306162  0.96119154  0.86869242  1
  Li  Li8  1  0.32566577  0.13747504  0.20568759  1
  Li  Li9  1  0.22560847  0.47058846  0.02065477  1
