# generated using pymatgen
data_Li2YAs(P2Pb)2
_symmetry_space_group_name_H-M   'P 1'
_cell_length_a   4.97523194
_cell_length_b   5.11911238
_cell_length_c   7.23570215
_cell_angle_alpha   95.75026593
_cell_angle_beta   101.91919632
_cell_angle_gamma   110.16280763
_symmetry_Int_Tables_number   1
_chemical_formula_structural   Li2YAs(P2Pb)2
_chemical_formula_sum   'Li2 Y1 As1 P4 Pb2'
_cell_volume   166.28852523
_cell_formula_units_Z   1
loop_
 _symmetry_equiv_pos_site_id
 _symmetry_equiv_pos_as_xyz
  1  'x, y, z'
loop_
 _atom_site_type_symbol
 _atom_site_label
 _atom_site_symmetry_multiplicity
 _atom_site_fract_x
 _atom_site_fract_y
 _atom_site_fract_z
 _atom_site_occupancy
  Pb  Pb0  1  0.00000000  0.00000000  0.00000000  1
  Pb  Pb1  1  0.50000000  0.50000000  0.50000000  1
  Y  Y2  1  0.50000000  0.50000000  0.00000000  1
  P  P3  1  0.50000000  0.00000000  0.50000000  1
  P  P4  1  0.00000000  0.50000000  0.50000000  1
  P  P5  1  0.19361451  0.43678187  0.85492826  1
  P  P6  1  0.74154056  0.74156432  0.78773638  1
  As  As7  1  0.67566375  0.30911248  0.07637243  1
  Li  Li8  1  0.46542674  0.52184490  0.01169238  1
  Li  Li9  1  0.35026606  0.75212448  0.75062906  1
