# generated using pymatgen
data_Li2YAs3P3Se
_symmetry_space_group_name_H-M   'P 1'
_cell_length_a   5.40823364
_cell_length_b   5.35925586
_cell_length_c   7.55210085
_cell_angle_alpha   95.34047109
_cell_angle_beta   101.63043576
_cell_angle_gamma   111.45054982
_symmetry_Int_Tables_number   1
_chemical_formula_structural   Li2YAs3P3Se
_chemical_formula_sum   'Li2 Y1 As3 P3 Se1'
_cell_volume   196.17763706
_cell_formula_units_Z   1
loop_
 _symmetry_equiv_pos_site_id
 _symmetry_equiv_pos_as_xyz
  1  'x, y, z'
loop_
 _atom_site_type_symbol
 _atom_site_label
 _atom_site_symmetry_multiplicity
 _atom_site_fract_x
 _atom_site_fract_y
 _atom_site_fract_z
 _atom_site_occupancy
  Se  Se0  1  0.00000000  0.00000000  0.00000000  1
  P  P1  1  0.50000000  0.50000000  0.50000000  1
  P  P2  1  0.25000000  0.25000000  0.25000000  1
  P  P3  1  0.75000000  0.25000000  0.00000000  1
  As  As4  1  0.25000000  0.75000000  0.50000000  1
  As  As5  1  0.41238544  0.48212095  0.15208215  1
  As  As6  1  0.97364727  0.27554358  0.27065600  1
  Li  Li7  1  0.19998182  0.58352112  0.58162901  1
  Li  Li8  1  0.58437459  0.03876599  0.60861085  1
  Y  Y9  1  0.00299381  0.22484999  0.42660635  1
