# generated using pymatgen
data_Li2Te4As4P3Se
_symmetry_space_group_name_H-M   'P 1'
_cell_length_a   5.72818057
_cell_length_b   6.03385746
_cell_length_c   7.03603456
_cell_angle_alpha   92.48658882
_cell_angle_beta   96.01897195
_cell_angle_gamma   100.71657037
_symmetry_Int_Tables_number   1
_chemical_formula_structural   Li2Te4As4P3Se
_chemical_formula_sum   'Li2 Te4 As4 P3 Se1'
_cell_volume   237.13539972
_cell_formula_units_Z   1
loop_
 _symmetry_equiv_pos_site_id
 _symmetry_equiv_pos_as_xyz
  1  'x, y, z'
loop_
 _atom_site_type_symbol
 _atom_site_label
 _atom_site_symmetry_multiplicity
 _atom_site_fract_x
 _atom_site_fract_y
 _atom_site_fract_z
 _atom_site_occupancy
  Se  Se0  1  0.00000000  0.00000000  0.00000000  1
  Te  Te1  1  0.50000000  0.50000000  0.50000000  1
  Te  Te2  1  0.50000000  0.50000000  0.00000000  1
  Te  Te3  1  0.50000000  0.00000000  0.50000000  1
  Te  Te4  1  0.00000000  0.50000000  0.50000000  1
  P  P5  1  0.30615439  0.89928046  0.49373482  1
  P  P6  1  0.90645369  0.64480395  0.77539589  1
  P  P7  1  0.11784017  0.63831322  0.27082327  1
  As  As8  1  0.38803355  0.20248308  0.16417694  1
  As  As9  1  0.98746306  0.76589777  0.38141179  1
  As  As10  1  0.08164184  0.00644521  0.27685035  1
  As  As11  1  0.18496944  0.58572892  0.86190144  1
  Li  Li12  1  0.18789411  0.18968059  0.46249235  1
  Li  Li13  1  0.58236918  0.05491555  0.78289355  1
