# generated using pymatgen
data_LiF
_symmetry_space_group_name_H-M   'P 1'
_cell_length_a   12.44035578
_cell_length_b   12.44035578
_cell_length_c   3.84135889
_cell_angle_alpha   90.00000000
_cell_angle_beta   90.00000000
_cell_angle_gamma   120.00000000
_symmetry_Int_Tables_number   1
_chemical_formula_structural   LiF
_chemical_formula_sum   'Li18 F18'
_cell_volume   514.85047419
_cell_formula_units_Z   18
loop_
 _symmetry_equiv_pos_site_id
 _symmetry_equiv_pos_as_xyz
  1  'x, y, z'
loop_
 _atom_site_type_symbol
 _atom_site_label
 _atom_site_symmetry_multiplicity
 _atom_site_fract_x
 _atom_site_fract_y
 _atom_site_fract_z
 _atom_site_occupancy
  F  F0  1  0.33333333  0.66666667  0.59814483  1
  F  F1  1  0.66666667  0.33333333  0.09814483  1
  F  F2  1  0.66666667  0.33333333  0.40185517  1
  F  F3  1  0.33333333  0.66666667  0.90185517  1
  F  F4  1  0.00000000  0.00000000  0.25000000  1
  F  F5  1  0.00000000  0.00000000  0.75000000  1
  F  F6  1  0.28870077  0.38228996  0.25000000  1
  F  F7  1  -0.38228996  -0.09358919  0.25000000  1
  F  F8  1  0.09358919  -0.28870077  0.25000000  1
  F  F9  1  -0.28870077  -0.38228996  0.75000000  1
  F  F10  1  0.38228996  0.09358919  0.75000000  1
  F  F11  1  -0.09358919  0.28870077  0.75000000  1
  F  F12  1  0.50000000  -0.00000000  0.00000000  1
  F  F13  1  0.00000000  0.50000000  0.00000000  1
  F  F14  1  0.50000000  0.50000000  0.00000000  1
  F  F15  1  0.50000000  -0.00000000  0.50000000  1
  F  F16  1  0.00000000  0.50000000  0.50000000  1
  F  F17  1  0.50000000  0.50000000  0.50000000  1
  Li  Li18  1  0.12316706  0.47747383  0.25000000  1
  Li  Li19  1  0.52252617  0.64569322  0.25000000  1
  Li  Li20  1  0.35430678  0.87683294  0.25000000  1
  Li  Li21  1  0.87683294  0.52252617  0.75000000  1
  Li  Li22  1  0.47747383  0.35430678  0.75000000  1
  Li  Li23  1  0.64569322  0.12316706  0.75000000  1
  Li  Li24  1  0.38148023  0.74937570  0.25000000  1
  Li  Li25  1  0.25062430  0.63210452  0.25000000  1
  Li  Li26  1  0.36789548  0.61851977  0.25000000  1
  Li  Li27  1  0.61851977  0.25062430  0.75000000  1
  Li  Li28  1  0.74937570  0.36789548  0.75000000  1
  Li  Li29  1  0.63210452  0.38148023  0.75000000  1
  Li  Li30  1  0.89383613  0.12318534  0.25000000  1
  Li  Li31  1  0.87681466  0.77065078  0.25000000  1
  Li  Li32  1  0.22934922  0.10616387  0.25000000  1
  Li  Li33  1  0.10616387  0.87681466  0.75000000  1
  Li  Li34  1  0.12318534  0.22934922  0.75000000  1
  Li  Li35  1  0.77065078  0.89383613  0.75000000  1
