# generated using pymatgen
data_Li2Y2As4P2Se
_symmetry_space_group_name_H-M   'P 1'
_cell_length_a   5.42823559
_cell_length_b   5.60483090
_cell_length_c   6.93994723
_cell_angle_alpha   93.36658268
_cell_angle_beta   97.27141580
_cell_angle_gamma   103.32781969
_symmetry_Int_Tables_number   1
_chemical_formula_structural   Li2Y2As4P2Se
_chemical_formula_sum   'Li2 Y2 As4 P2 Se1'
_cell_volume   202.95743186
_cell_formula_units_Z   1
loop_
 _symmetry_equiv_pos_site_id
 _symmetry_equiv_pos_as_xyz
  1  'x, y, z'
loop_
 _atom_site_type_symbol
 _atom_site_label
 _atom_site_symmetry_multiplicity
 _atom_site_fract_x
 _atom_site_fract_y
 _atom_site_fract_z
 _atom_site_occupancy
  Se  Se0  1  0.12500000  0.00000000  0.25000000  1
  P  P1  1  0.00000000  0.00000000  0.00000000  1
  P  P2  1  0.37500000  0.00000000  0.25000000  1
  As  As3  1  0.25000000  0.25000000  0.25000000  1
  As  As4  1  0.00000000  0.25000000  0.12500000  1
  As  As5  1  0.63199966  0.57342946  0.15576260  1
  As  As6  1  0.34459700  0.52314899  0.78146257  1
  Li  Li7  1  0.90466827  0.47256951  0.69912101  1
  Li  Li8  1  0.48500617  0.57774146  0.39775075  1
  Y  Y9  1  0.58280819  0.25436018  0.05940062  1
  Y  Y10  1  0.59535034  0.15372944  0.24892990  1
