# generated using pymatgen
data_LiF
_symmetry_space_group_name_H-M   'P 1'
_cell_length_a   13.25896359
_cell_length_b   6.71650014
_cell_length_c   9.70448448
_cell_angle_alpha   90.00000000
_cell_angle_beta   90.00000000
_cell_angle_gamma   90.00000000
_symmetry_Int_Tables_number   1
_chemical_formula_structural   LiF
_chemical_formula_sum   'Li36 F36'
_cell_volume   864.22151896
_cell_formula_units_Z   36
loop_
 _symmetry_equiv_pos_site_id
 _symmetry_equiv_pos_as_xyz
  1  'x, y, z'
loop_
 _atom_site_type_symbol
 _atom_site_label
 _atom_site_symmetry_multiplicity
 _atom_site_fract_x
 _atom_site_fract_y
 _atom_site_fract_z
 _atom_site_occupancy
  F  F0  1  0.88738947  0.98804847  0.01304704  1
  F  F1  1  0.61261053  0.01195153  0.51304704  1
  F  F2  1  0.11261053  0.48804847  0.98695296  1
  F  F3  1  0.38738947  0.51195153  0.48695296  1
  F  F4  1  0.11261053  0.01195153  0.98695296  1
  F  F5  1  0.38738947  0.98804847  0.48695296  1
  F  F6  1  0.88738947  0.51195153  0.01304704  1
  F  F7  1  0.61261053  0.48804847  0.51304704  1
  F  F8  1  0.83461152  0.90076747  0.51189596  1
  F  F9  1  0.66538848  0.09923253  0.01189596  1
  F  F10  1  0.16538848  0.40076747  0.48810404  1
  F  F11  1  0.33461152  0.59923253  0.98810404  1
  F  F12  1  0.16538848  0.09923253  0.48810404  1
  F  F13  1  0.33461152  0.90076747  0.98810404  1
  F  F14  1  0.83461152  0.59923253  0.51189596  1
  F  F15  1  0.66538848  0.40076747  0.01189596  1
  F  F16  1  0.00000000  0.00000000  0.50000000  1
  F  F17  1  0.50000000  0.00000000  -0.00000000  1
  F  F18  1  0.00000000  0.50000000  0.50000000  1
  F  F19  1  0.50000000  0.50000000  -0.00000000  1
  F  F20  1  0.13445285  0.13730465  0.82221426  1
  F  F21  1  0.36554715  0.86269535  0.32221426  1
  F  F22  1  0.86554715  0.63730465  0.17778574  1
  F  F23  1  0.63445285  0.36269535  0.67778574  1
  F  F24  1  0.86554715  0.86269535  0.17778574  1
  F  F25  1  0.63445285  0.13730465  0.67778574  1
  F  F26  1  0.13445285  0.36269535  0.82221426  1
  F  F27  1  0.36554715  0.63730465  0.32221426  1
  F  F28  1  0.55955890  0.25000000  0.74872931  1
  F  F29  1  0.94044110  0.75000000  0.24872931  1
  F  F30  1  0.44044110  0.75000000  0.25127069  1
  F  F31  1  0.05955890  0.25000000  0.75127069  1
  F  F32  1  0.31758181  0.25000000  0.08921426  1
  F  F33  1  0.18241819  0.75000000  0.58921426  1
  F  F34  1  0.68241819  0.75000000  0.91078574  1
  F  F35  1  0.81758181  0.25000000  0.41078574  1
  Li  Li36  1  0.00000000  0.00000000  0.00000000  1
  Li  Li37  1  0.50000000  0.00000000  0.50000000  1
  Li  Li38  1  0.00000000  0.50000000  0.00000000  1
  Li  Li39  1  0.50000000  0.50000000  0.50000000  1
  Li  Li40  1  0.90943368  0.25000000  0.63483220  1
  Li  Li41  1  0.59056632  0.75000000  0.13483220  1
  Li  Li42  1  0.09056632  0.75000000  0.36516780  1
  Li  Li43  1  0.40943368  0.25000000  0.86516780  1
  Li  Li44  1  0.85409581  0.06192962  0.26328060  1
  Li  Li45  1  -0.35409581  -0.06192962  0.76328060  1
  Li  Li46  1  -0.85409581  0.56192962  -0.26328060  1
  Li  Li47  1  1.35409581  0.43807038  0.23671940  1
  Li  Li48  1  -0.85409581  -0.06192962  -0.26328060  1
  Li  Li49  1  1.35409581  0.06192962  0.23671940  1
  Li  Li50  1  0.85409581  0.43807038  0.26328060  1
  Li  Li51  1  -0.35409581  0.56192962  0.76328060  1
  Li  Li52  1  0.26825445  0.25000000  0.28925683  1
  Li  Li53  1  0.23174555  0.75000000  0.78925683  1
  Li  Li54  1  0.73174555  0.75000000  0.71074317  1
  Li  Li55  1  0.76825445  0.25000000  0.21074317  1
  Li  Li56  1  0.48428117  0.90191035  0.28012524  1
  Li  Li57  1  0.01571883  0.09808965  0.78012524  1
  Li  Li58  1  0.51571883  0.40191035  0.71987476  1
  Li  Li59  1  0.98428117  0.59808965  0.21987476  1
  Li  Li60  1  0.51571883  0.09808965  0.71987476  1
  Li  Li61  1  0.98428117  0.90191035  0.21987476  1
  Li  Li62  1  0.48428117  0.59808965  0.28012524  1
  Li  Li63  1  0.01571883  0.40191035  0.78012524  1
  Li  Li64  1  0.01862593  0.52362985  0.34272873  1
  Li  Li65  1  0.48137407  0.47637015  0.84272873  1
  Li  Li66  1  0.98137407  0.02362985  0.65727127  1
  Li  Li67  1  0.51862593  0.97637015  0.15727127  1
  Li  Li68  1  0.98137407  0.47637015  0.65727127  1
  Li  Li69  1  0.51862593  0.52362985  0.15727127  1
  Li  Li70  1  0.01862593  0.97637015  0.34272873  1
  Li  Li71  1  0.48137407  0.02362985  0.84272873  1
