# generated using pymatgen
data_LiF
_symmetry_space_group_name_H-M   'P 1'
_cell_length_a   6.71097765
_cell_length_b   8.62713061
_cell_length_c   10.89321835
_cell_angle_alpha   90.00000000
_cell_angle_beta   90.00000000
_cell_angle_gamma   90.00000000
_symmetry_Int_Tables_number   1
_chemical_formula_structural   LiF
_chemical_formula_sum   'Li24 F24'
_cell_volume   630.67900658
_cell_formula_units_Z   24
loop_
 _symmetry_equiv_pos_site_id
 _symmetry_equiv_pos_as_xyz
  1  'x, y, z'
loop_
 _atom_site_type_symbol
 _atom_site_label
 _atom_site_symmetry_multiplicity
 _atom_site_fract_x
 _atom_site_fract_y
 _atom_site_fract_z
 _atom_site_occupancy
  F  F0  1  0.15631886  0.63530444  0.40965620  1
  F  F1  1  0.34368114  0.36469556  0.90965620  1
  F  F2  1  0.84368114  0.13530444  0.59034380  1
  F  F3  1  0.65631886  0.86469556  0.09034380  1
  F  F4  1  0.84368114  0.36469556  0.59034380  1
  F  F5  1  0.65631886  0.63530444  0.09034380  1
  F  F6  1  0.15631886  0.86469556  0.40965620  1
  F  F7  1  0.34368114  0.13530444  0.90965620  1
  F  F8  1  0.01232654  0.25000000  0.64387756  1
  F  F9  1  0.48767346  0.75000000  0.14387756  1
  F  F10  1  0.98767346  0.75000000  0.35612244  1
  F  F11  1  0.51232654  0.25000000  0.85612244  1
  F  F12  1  0.05583001  0.16091628  0.09516658  1
  F  F13  1  0.44416999  0.83908372  0.59516658  1
  F  F14  1  0.94416999  0.66091628  0.90483342  1
  F  F15  1  0.55583001  0.33908372  0.40483342  1
  F  F16  1  0.94416999  0.83908372  0.90483342  1
  F  F17  1  0.55583001  0.16091628  0.40483342  1
  F  F18  1  0.05583001  0.33908372  0.09516658  1
  F  F19  1  0.44416999  0.66091628  0.59516658  1
  F  F20  1  0.55910050  0.25000000  0.39783457  1
  F  F21  1  0.94089950  0.75000000  0.89783457  1
  F  F22  1  0.44089950  0.75000000  0.60216543  1
  F  F23  1  0.05910050  0.25000000  0.10216543  1
  Li  Li24  1  0.84297621  0.25000000  0.00764553  1
  Li  Li25  1  0.65702379  0.75000000  0.50764553  1
  Li  Li26  1  0.15702379  0.75000000  0.99235447  1
  Li  Li27  1  0.34297621  0.25000000  0.49235447  1
  Li  Li28  1  0.00000000  0.00000000  0.00000000  1
  Li  Li29  1  0.50000000  0.00000000  0.50000000  1
  Li  Li30  1  0.00000000  0.50000000  0.00000000  1
  Li  Li31  1  0.50000000  0.50000000  0.50000000  1
  Li  Li32  1  0.74018930  0.06674764  0.48828844  1
  Li  Li33  1  -0.24018930  -0.06674764  0.98828844  1
  Li  Li34  1  -0.74018930  0.56674764  -0.48828844  1
  Li  Li35  1  1.24018930  0.43325236  0.01171156  1
  Li  Li36  1  -0.74018930  -0.06674764  -0.48828844  1
  Li  Li37  1  1.24018930  0.06674764  0.01171156  1
  Li  Li38  1  0.74018930  0.43325236  0.48828844  1
  Li  Li39  1  -0.24018930  0.56674764  0.98828844  1
  Li  Li40  1  0.86056497  0.25000000  0.48283855  1
  Li  Li41  1  0.63943503  0.75000000  0.98283855  1
  Li  Li42  1  0.13943503  0.75000000  0.51716145  1
  Li  Li43  1  0.36056497  0.25000000  0.01716145  1
  Li  Li44  1  0.00000000  0.00000000  0.50000000  1
  Li  Li45  1  0.50000000  0.00000000  0.00000000  1
  Li  Li46  1  0.00000000  0.50000000  0.50000000  1
  Li  Li47  1  0.50000000  0.50000000  0.00000000  1
