# generated using pymatgen
data_LiP
_symmetry_space_group_name_H-M   'P 1'
_cell_length_a   4.91706898
_cell_length_b   5.11465938
_cell_length_c   6.76989701
_cell_angle_alpha   94.13946600
_cell_angle_beta   99.19322721
_cell_angle_gamma   106.77186750
_symmetry_Int_Tables_number   1
_chemical_formula_structural   LiP
_chemical_formula_sum   'Li2 P2'
_cell_volume   159.65546134
_cell_formula_units_Z   2
loop_
 _symmetry_equiv_pos_site_id
 _symmetry_equiv_pos_as_xyz
  1  'x, y, z'
loop_
 _atom_site_type_symbol
 _atom_site_label
 _atom_site_symmetry_multiplicity
 _atom_site_fract_x
 _atom_site_fract_y
 _atom_site_fract_z
 _atom_site_occupancy
  P  P0  1  0.00000000  0.00000000  0.00000000  1
  P  P1  1  0.33300000  0.66700000  0.25000000  1
  Li  Li2  1  0.66700000  0.33300000  0.50000000  1
  Li  Li3  1  0.00000000  0.00000000  0.75000000  1
