# generated using pymatgen
data_Li2Y2MoAs4P3
_symmetry_space_group_name_H-M   'P 1'
_cell_length_a   5.20878777
_cell_length_b   5.38799553
_cell_length_c   7.09966870
_cell_angle_alpha   94.37168929
_cell_angle_beta   99.52063042
_cell_angle_gamma   107.55933838
_symmetry_Int_Tables_number   1
_chemical_formula_structural   Li2Y2MoAs4P3
_chemical_formula_sum   'Li2 Y2 Mo1 As4 P3'
_cell_volume   185.65777065
_cell_formula_units_Z   1
loop_
 _symmetry_equiv_pos_site_id
 _symmetry_equiv_pos_as_xyz
  1  'x, y, z'
loop_
 _atom_site_type_symbol
 _atom_site_label
 _atom_site_symmetry_multiplicity
 _atom_site_fract_x
 _atom_site_fract_y
 _atom_site_fract_z
 _atom_site_occupancy
  P  P0  1  0.00000000  0.00000000  0.00000000  1
  P  P1  1  0.50000000  0.50000000  0.50000000  1
  P  P2  1  0.25000000  0.25000000  0.25000000  1
  Mo  Mo3  1  0.75000000  0.25000000  0.00000000  1
  As  As4  1  0.25000000  0.75000000  0.50000000  1
  As  As5  1  0.18695066  0.85764242  0.08510450  1
  As  As6  1  0.35985198  0.64597000  0.93014956  1
  As  As7  1  0.04694183  0.85448823  0.81022566  1
  Li  Li8  1  0.98943576  0.85017282  0.52715315  1
  Li  Li9  1  0.91318629  0.17193480  0.75101425  1
  Y  Y10  1  0.73069864  0.78718469  0.15131108  1
  Y  Y11  1  0.62172683  0.94581905  0.72011480  1
