# generated using pymatgen
data_Li2Ca3F8
_symmetry_space_group_name_H-M   'P 1'
_cell_length_a   8.39580129
_cell_length_b   8.39580129
_cell_length_c   19.25021824
_cell_angle_alpha   90.00000000
_cell_angle_beta   90.00000000
_cell_angle_gamma   90.00000000
_symmetry_Int_Tables_number   1
_chemical_formula_structural   Li2Ca3F8
_chemical_formula_sum   'Li16 Ca24 F64'
_cell_volume   1356.93786017
_cell_formula_units_Z   8
loop_
 _symmetry_equiv_pos_site_id
 _symmetry_equiv_pos_as_xyz
  1  'x, y, z'
loop_
 _atom_site_type_symbol
 _atom_site_label
 _atom_site_symmetry_multiplicity
 _atom_site_fract_x
 _atom_site_fract_y
 _atom_site_fract_z
 _atom_site_occupancy
  Ca  Ca0  1  0.00000000  0.25000000  0.12500000  1
  Ca  Ca1  1  0.00000000  0.75000000  0.37500000  1
  Ca  Ca2  1  0.00000000  0.75000000  0.87500000  1
  Ca  Ca3  1  0.00000000  0.25000000  0.62500000  1
  Ca  Ca4  1  0.50000000  0.75000000  0.62500000  1
  Ca  Ca5  1  0.50000000  0.25000000  0.87500000  1
  Ca  Ca6  1  0.50000000  0.25000000  0.37500000  1
  Ca  Ca7  1  0.50000000  0.75000000  0.12500000  1
  Ca  Ca8  1  0.00000000  0.00000000  0.00000000  1
  Ca  Ca9  1  0.50000000  0.00000000  0.50000000  1
  Ca  Ca10  1  0.25000000  0.75000000  0.25000000  1
  Ca  Ca11  1  0.25000000  0.25000000  0.75000000  1
  Ca  Ca12  1  0.50000000  0.00000000  0.00000000  1
  Ca  Ca13  1  0.00000000  0.00000000  0.50000000  1
  Ca  Ca14  1  0.25000000  0.75000000  0.75000000  1
  Ca  Ca15  1  0.25000000  0.25000000  0.25000000  1
  Ca  Ca16  1  0.50000000  0.50000000  0.50000000  1
  Ca  Ca17  1  0.00000000  0.50000000  0.00000000  1
  Ca  Ca18  1  0.75000000  0.25000000  0.75000000  1
  Ca  Ca19  1  0.75000000  0.75000000  0.25000000  1
  Ca  Ca20  1  0.00000000  0.50000000  0.50000000  1
  Ca  Ca21  1  0.50000000  0.50000000  0.00000000  1
  Ca  Ca22  1  0.75000000  0.25000000  0.25000000  1
  Ca  Ca23  1  0.75000000  0.75000000  0.75000000  1
  F  F24  1  0.94385008  0.84456736  0.98621324  1
  F  F25  1  -0.44385008  -0.84456736  1.48621324  1
  F  F26  1  -0.59456736  1.69385008  1.23621324  1
  F  F27  1  1.09456736  -0.69385008  1.73621324  1
  F  F28  1  -0.44385008  0.84456736  -0.98621324  1
  F  F29  1  0.94385008  -0.84456736  -0.48621324  1
  F  F30  1  1.09456736  1.69385008  -0.23621324  1
  F  F31  1  -0.59456736  -0.69385008  -0.73621324  1
  F  F32  1  -0.94385008  -0.84456736  -0.98621324  1
  F  F33  1  1.44385008  0.84456736  -0.48621324  1
  F  F34  1  1.59456736  -0.69385008  -0.23621324  1
  F  F35  1  -0.09456736  1.69385008  -0.73621324  1
  F  F36  1  1.44385008  -0.84456736  0.98621324  1
  F  F37  1  -0.94385008  0.84456736  1.48621324  1
  F  F38  1  -0.09456736  -0.69385008  1.23621324  1
  F  F39  1  1.59456736  1.69385008  1.73621324  1
  F  F40  1  1.44385008  1.34456736  1.48621324  1
  F  F41  1  0.05614992  -0.34456736  1.98621324  1
  F  F42  1  -0.09456736  2.19385008  1.73621324  1
  F  F43  1  1.59456736  -0.19385008  2.23621324  1
  F  F44  1  0.05614992  1.34456736  -0.48621324  1
  F  F45  1  1.44385008  -0.34456736  0.01378676  1
  F  F46  1  1.59456736  2.19385008  0.26378676  1
  F  F47  1  -0.09456736  -0.19385008  -0.23621324  1
  F  F48  1  -0.44385008  -0.34456736  -0.48621324  1
  F  F49  1  1.94385008  1.34456736  0.01378676  1
  F  F50  1  2.09456736  -0.19385008  0.26378676  1
  F  F51  1  0.40543264  2.19385008  -0.23621324  1
  F  F52  1  1.94385008  -0.34456736  1.48621324  1
  F  F53  1  -0.44385008  1.34456736  1.98621324  1
  F  F54  1  0.40543264  -0.19385008  1.73621324  1
  F  F55  1  2.09456736  2.19385008  2.23621324  1
  F  F56  1  0.37702370  0.85315678  0.42103192  1
  F  F57  1  0.12297630  0.14684322  0.92103192  1
  F  F58  1  0.39684322  0.12702370  0.67103192  1
  F  F59  1  0.10315678  0.87297630  0.17103192  1
  F  F60  1  0.12297630  0.85315678  0.57896808  1
  F  F61  1  0.37702370  0.14684322  0.07896808  1
  F  F62  1  0.10315678  0.12702370  0.32896808  1
  F  F63  1  0.39684322  0.87297630  0.82896808  1
  F  F64  1  0.62297630  0.14684322  0.57896808  1
  F  F65  1  0.87702370  0.85315678  0.07896808  1
  F  F66  1  0.60315678  0.87297630  0.32896808  1
  F  F67  1  0.89684322  0.12702370  0.82896808  1
  F  F68  1  0.87702370  0.14684322  0.42103192  1
  F  F69  1  0.62297630  0.85315678  0.92103192  1
  F  F70  1  0.89684322  0.87297630  0.67103192  1
  F  F71  1  0.60315678  0.12702370  0.17103192  1
  F  F72  1  0.87702370  0.35315678  0.92103192  1
  F  F73  1  0.62297630  0.64684322  0.42103192  1
  F  F74  1  0.89684322  0.62702370  0.17103192  1
  F  F75  1  0.60315678  0.37297630  0.67103192  1
  F  F76  1  0.62297630  0.35315678  0.07896808  1
  F  F77  1  0.87702370  0.64684322  0.57896808  1
  F  F78  1  0.60315678  0.62702370  0.82896808  1
  F  F79  1  0.89684322  0.37297630  0.32896808  1
  F  F80  1  0.12297630  0.64684322  0.07896808  1
  F  F81  1  0.37702370  0.35315678  0.57896808  1
  F  F82  1  0.10315678  0.37297630  0.82896808  1
  F  F83  1  0.39684322  0.62702370  0.32896808  1
  F  F84  1  0.37702370  0.64684322  0.92103192  1
  F  F85  1  0.12297630  0.35315678  0.42103192  1
  F  F86  1  0.39684322  0.37297630  0.17103192  1
  F  F87  1  0.10315678  0.62702370  0.67103192  1
  Li  Li88  1  0.48039678  0.00000000  0.25000000  1
  Li  Li89  1  0.01960322  -0.00000000  0.75000000  1
  Li  Li90  1  0.25000000  0.23039678  0.50000000  1
  Li  Li91  1  0.25000000  0.76960322  0.00000000  1
  Li  Li92  1  0.51960322  0.00000000  0.75000000  1
  Li  Li93  1  0.98039678  0.00000000  0.25000000  1
  Li  Li94  1  0.75000000  0.76960322  0.50000000  1
  Li  Li95  1  0.75000000  0.23039678  0.00000000  1
  Li  Li96  1  0.98039678  0.50000000  0.75000000  1
  Li  Li97  1  0.51960322  0.50000000  0.25000000  1
  Li  Li98  1  0.75000000  0.73039678  0.00000000  1
  Li  Li99  1  0.75000000  0.26960322  0.50000000  1
  Li  Li100  1  0.01960322  0.50000000  0.25000000  1
  Li  Li101  1  0.48039678  0.50000000  0.75000000  1
  Li  Li102  1  0.25000000  0.26960322  0.00000000  1
  Li  Li103  1  0.25000000  0.73039678  0.50000000  1
