# generated using pymatgen
data_LiF
_symmetry_space_group_name_H-M   'P 1'
_cell_length_a   17.84043694
_cell_length_b   17.84043694
_cell_length_c   7.31120943
_cell_angle_alpha   90.00000000
_cell_angle_beta   90.00000000
_cell_angle_gamma   120.00000000
_symmetry_Int_Tables_number   1
_chemical_formula_structural   LiF
_chemical_formula_sum   'Li65 F65'
_cell_volume   2015.25881415
_cell_formula_units_Z   65
loop_
 _symmetry_equiv_pos_site_id
 _symmetry_equiv_pos_as_xyz
  1  'x, y, z'
loop_
 _atom_site_type_symbol
 _atom_site_label
 _atom_site_symmetry_multiplicity
 _atom_site_fract_x
 _atom_site_fract_y
 _atom_site_fract_z
 _atom_site_occupancy
  F  F0  1  0.20227171  0.37178996  0.05254597  1
  F  F1  1  0.62821004  0.83048176  0.05254597  1
  F  F2  1  0.16951824  0.79772829  0.05254597  1
  F  F3  1  0.62821004  0.79772829  0.94745403  1
  F  F4  1  0.16951824  0.37178996  0.94745403  1
  F  F5  1  0.20227171  0.83048176  0.94745403  1
  F  F6  1  0.46202323  0.82528342  0.20651763  1
  F  F7  1  0.17471658  0.63673981  0.20651763  1
  F  F8  1  0.36326019  0.53797677  0.20651763  1
  F  F9  1  0.17471658  0.53797677  0.79348237  1
  F  F10  1  0.36326019  0.82528342  0.79348237  1
  F  F11  1  0.46202323  0.63673981  0.79348237  1
  F  F12  1  0.29212333  0.43159370  0.20125969  1
  F  F13  1  0.56840630  0.86052964  0.20125969  1
  F  F14  1  0.13947036  0.70787667  0.20125969  1
  F  F15  1  0.56840630  0.70787667  0.79874031  1
  F  F16  1  0.13947036  0.43159370  0.79874031  1
  F  F17  1  0.29212333  0.86052964  0.79874031  1
  F  F18  1  0.11260306  0.58665272  0.48044010  1
  F  F19  1  0.41334728  0.52595033  0.48044010  1
  F  F20  1  0.47404967  0.88739694  0.48044010  1
  F  F21  1  0.41334728  0.88739694  0.51955990  1
  F  F22  1  0.47404967  0.58665272  0.51955990  1
  F  F23  1  0.11260306  0.52595033  0.51955990  1
  F  F24  1  0.44164846  0.13885642  0.28289717  1
  F  F25  1  0.86114358  0.30279204  0.28289717  1
  F  F26  1  0.69720796  0.55835154  0.28289717  1
  F  F27  1  0.86114358  0.55835154  0.71710283  1
  F  F28  1  0.69720796  0.13885642  0.71710283  1
  F  F29  1  0.44164846  0.30279204  0.71710283  1
  F  F30  1  0.27145363  0.56308265  0.43198688  1
  F  F31  1  0.43691735  0.70837098  0.43198688  1
  F  F32  1  0.29162902  0.72854637  0.43198688  1
  F  F33  1  0.43691735  0.72854637  0.56801312  1
  F  F34  1  0.29162902  0.56308265  0.56801312  1
  F  F35  1  0.27145363  0.70837098  0.56801312  1
  F  F36  1  0.33333333  0.66666667  0.00000000  1
  F  F37  1  0.48021483  0.68803984  0.95278422  1
  F  F38  1  0.31196016  0.79217499  0.95278422  1
  F  F39  1  0.20782501  0.51978517  0.95278422  1
  F  F40  1  0.31196016  0.51978517  0.04721578  1
  F  F41  1  0.20782501  0.68803984  0.04721578  1
  F  F42  1  0.48021483  0.79217499  0.04721578  1
  F  F43  1  0.76922621  0.72248399  0.80618101  1
  F  F44  1  0.27751601  0.04674222  0.80618101  1
  F  F45  1  0.95325778  0.23077379  0.80618101  1
  F  F46  1  0.27751601  0.23077379  0.19381899  1
  F  F47  1  0.95325778  0.72248399  0.19381899  1
  F  F48  1  0.76922621  0.04674222  0.19381899  1
  F  F49  1  0.00000000  0.00000000  0.54009290  1
  F  F50  1  0.00000000  0.00000000  0.45990710  1
  F  F51  1  0.51008321  0.48991679  0.00000000  1
  F  F52  1  0.51008321  0.02016642  0.00000000  1
  F  F53  1  0.97983358  0.48991679  -0.00000000  1
  F  F54  1  0.33333333  0.66666667  0.50000000  1
  F  F55  1  0.82802352  0.60756684  0.93842371  1
  F  F56  1  0.39243316  0.22045668  0.93842371  1
  F  F57  1  0.77954332  0.17197648  0.93842371  1
  F  F58  1  0.39243316  0.17197648  0.06157629  1
  F  F59  1  0.77954332  0.60756684  0.06157629  1
  F  F60  1  0.82802352  0.22045668  0.06157629  1
  F  F61  1  0.00000000  0.00000000  0.14385685  1
  F  F62  1  0.00000000  0.00000000  0.85614315  1
  F  F63  1  0.33333333  0.66666667  0.23893956  1
  F  F64  1  0.33333333  0.66666667  0.76106044  1
  Li  Li65  1  0.74644977  0.41948779  0.35438389  1
  Li  Li66  1  -0.41948779  0.32696198  0.35438389  1
  Li  Li67  1  -0.32696198  -0.74644977  0.35438389  1
  Li  Li68  1  -0.41948779  -0.74644977  -0.35438389  1
  Li  Li69  1  -0.32696198  0.41948779  -0.35438389  1
  Li  Li70  1  0.74644977  0.32696198  -0.35438389  1
  Li  Li71  1  0.93454246  0.47163362  0.40476821  1
  Li  Li72  1  0.52836638  0.46290884  0.40476821  1
  Li  Li73  1  0.53709116  0.06545754  0.40476821  1
  Li  Li74  1  0.52836638  0.06545754  0.59523179  1
  Li  Li75  1  0.53709116  0.47163362  0.59523179  1
  Li  Li76  1  0.93454246  0.46290884  0.59523179  1
  Li  Li77  1  0.92910454  0.07089546  -0.00000000  1
  Li  Li78  1  0.92910454  0.85820909  -0.00000000  1
  Li  Li79  1  0.14179091  0.07089546  -0.00000000  1
  Li  Li80  1  0.16888471  0.63798800  0.68459102  1
  Li  Li81  1  0.36201200  0.53089672  0.68459102  1
  Li  Li82  1  0.46910328  0.83111529  0.68459102  1
  Li  Li83  1  0.36201200  0.83111529  0.31540898  1
  Li  Li84  1  0.46910328  0.63798800  0.31540898  1
  Li  Li85  1  0.16888471  0.53089672  0.31540898  1
  Li  Li86  1  0.77825486  0.30491356  0.10909569  1
  Li  Li87  1  0.69508644  0.47334130  0.10909569  1
  Li  Li88  1  0.52665870  0.22174514  0.10909569  1
  Li  Li89  1  0.69508644  0.22174514  0.89090431  1
  Li  Li90  1  0.52665870  0.30491356  0.89090431  1
  Li  Li91  1  0.77825486  0.47334130  0.89090431  1
  Li  Li92  1  0.37924738  0.62075262  0.50000000  1
  Li  Li93  1  0.37924738  0.75849476  0.50000000  1
  Li  Li94  1  0.24150524  0.62075262  0.50000000  1
  Li  Li95  1  0.80863455  0.36340273  0.86257339  1
  Li  Li96  1  0.63659727  0.44523182  0.86257339  1
  Li  Li97  1  0.55476818  0.19136545  0.86257339  1
  Li  Li98  1  0.63659727  0.19136545  0.13742661  1
  Li  Li99  1  0.55476818  0.36340273  0.13742661  1
  Li  Li100  1  0.80863455  0.44523182  0.13742661  1
  Li  Li101  1  0.00000000  0.00000000  0.00000000  1
  Li  Li102  1  0.90777569  0.58503917  0.51595304  1
  Li  Li103  1  0.41496083  0.32273652  0.51595304  1
  Li  Li104  1  0.67726348  0.09222431  0.51595304  1
  Li  Li105  1  0.41496083  0.09222431  0.48404696  1
  Li  Li106  1  0.67726348  0.58503917  0.48404696  1
  Li  Li107  1  0.90777569  0.32273652  0.48404696  1
  Li  Li108  1  0.25904294  0.27026677  0.17411157  1
  Li  Li109  1  0.72973323  0.98877617  0.17411157  1
  Li  Li110  1  0.01122383  0.74095706  0.17411157  1
  Li  Li111  1  0.72973323  0.74095706  0.82588843  1
  Li  Li112  1  0.01122383  0.27026677  0.82588843  1
  Li  Li113  1  0.25904294  0.98877617  0.82588843  1
  Li  Li114  1  0.92507960  0.08909501  0.33987039  1
  Li  Li115  1  0.91090499  0.83598459  0.33987039  1
  Li  Li116  1  0.16401541  0.07492040  0.33987039  1
  Li  Li117  1  0.91090499  0.07492040  0.66012961  1
  Li  Li118  1  0.16401541  0.08909501  0.66012961  1
  Li  Li119  1  0.92507960  0.83598459  0.66012961  1
  Li  Li120  1  0.66666667  0.33333333  0.50000000  1
  Li  Li121  1  0.24602613  0.38245544  0.68691249  1
  Li  Li122  1  0.61754456  0.86357069  0.68691249  1
  Li  Li123  1  0.13642931  0.75397387  0.68691249  1
  Li  Li124  1  0.61754456  0.75397387  0.31308751  1
  Li  Li125  1  0.13642931  0.38245544  0.31308751  1
  Li  Li126  1  0.24602613  0.86357069  0.31308751  1
  Li  Li127  1  0.13416658  0.86583342  0.50000000  1
  Li  Li128  1  0.13416658  0.26833315  0.50000000  1
  Li  Li129  1  0.73166685  0.86583342  0.50000000  1
