# generated using pymatgen
data_LiF
_symmetry_space_group_name_H-M   'P 1'
_cell_length_a   8.26514756
_cell_length_b   8.26514756
_cell_length_c   3.61839199
_cell_angle_alpha   90.00000000
_cell_angle_beta   90.00000000
_cell_angle_gamma   120.00000000
_symmetry_Int_Tables_number   1
_chemical_formula_structural   LiF
_chemical_formula_sum   'Li15 F15'
_cell_volume   214.06588881
_cell_formula_units_Z   15
loop_
 _symmetry_equiv_pos_site_id
 _symmetry_equiv_pos_as_xyz
  1  'x, y, z'
loop_
 _atom_site_type_symbol
 _atom_site_label
 _atom_site_symmetry_multiplicity
 _atom_site_fract_x
 _atom_site_fract_y
 _atom_site_fract_z
 _atom_site_occupancy
  F  F0  1  0.28610460  0.18964907  0.21268547  1
  F  F1  1  0.81035093  0.09645553  0.21268547  1
  F  F2  1  0.90354447  0.71389540  0.21268547  1
  F  F3  1  0.81035093  0.71389540  0.78731453  1
  F  F4  1  0.90354447  0.18964907  0.78731453  1
  F  F5  1  0.28610460  0.09645553  0.78731453  1
  F  F6  1  0.00000000  0.00000000  0.50000000  1
  F  F7  1  0.52903522  0.68237792  0.81732234  1
  F  F8  1  0.31762208  0.84665731  0.81732234  1
  F  F9  1  0.15334269  0.47096478  0.81732234  1
  F  F10  1  0.31762208  0.47096478  0.18267766  1
  F  F11  1  0.15334269  0.68237792  0.18267766  1
  F  F12  1  0.52903522  0.84665731  0.18267766  1
  F  F13  1  0.00000000  0.00000000  0.28516809  1
  F  F14  1  0.00000000  0.00000000  0.71483191  1
  Li  Li15  1  0.33333333  0.66666667  0.50000000  1
  Li  Li16  1  0.66666667  0.33333333  0.00000000  1
  Li  Li17  1  0.14743852  0.85256148  0.50000000  1
  Li  Li18  1  0.14743852  0.29487704  0.50000000  1
  Li  Li19  1  0.70512296  0.85256148  0.50000000  1
  Li  Li20  1  0.00000000  0.00000000  0.00000000  1
  Li  Li21  1  0.01014939  0.59202228  0.01809469  1
  Li  Li22  1  -0.59202228  -0.58187289  0.01809469  1
  Li  Li23  1  0.58187289  -0.01014939  0.01809469  1
  Li  Li24  1  -0.59202228  -0.01014939  -0.01809469  1
  Li  Li25  1  0.58187289  0.59202228  -0.01809469  1
  Li  Li26  1  0.01014939  -0.58187289  -0.01809469  1
  Li  Li27  1  0.84077743  0.15922257  0.50000000  1
  Li  Li28  1  0.84077743  0.68155486  0.50000000  1
  Li  Li29  1  0.31844514  0.15922257  0.50000000  1
