# generated using pymatgen
data_LiYAsP2
_symmetry_space_group_name_H-M   'P 1'
_cell_length_a   4.72189627
_cell_length_b   4.74634970
_cell_length_c   7.19652205
_cell_angle_alpha   95.34368780
_cell_angle_beta   101.63744109
_cell_angle_gamma   111.46347007
_symmetry_Int_Tables_number   1
_chemical_formula_structural   LiYAsP2
_chemical_formula_sum   'Li2 Y2 As2 P4'
_cell_volume   144.52955386
_cell_formula_units_Z   2
loop_
 _symmetry_equiv_pos_site_id
 _symmetry_equiv_pos_as_xyz
  1  'x, y, z'
loop_
 _atom_site_type_symbol
 _atom_site_label
 _atom_site_symmetry_multiplicity
 _atom_site_fract_x
 _atom_site_fract_y
 _atom_site_fract_z
 _atom_site_occupancy
  P  P0  1  0.00000000  0.00000000  0.00000000  1
  P  P1  1  0.33300000  0.66700000  0.25000000  1
  P  P2  1  0.66700000  0.33300000  0.50000000  1
  P  P3  1  0.00000000  0.00000000  0.75000000  1
  As  As4  1  0.27150084  0.91863565  0.60627817  1
  As  As5  1  0.44359392  0.94766388  0.69305469  1
  Li  Li6  1  0.95977391  0.97660655  0.78128162  1
  Li  Li7  1  0.94477362  0.49259961  0.81937235  1
  Y  Y8  1  0.80464569  0.31481000  0.18859813  1
  Y  Y9  1  0.80314629  0.01407552  0.36221308  1
