# generated using pymatgen
data_LiF
_symmetry_space_group_name_H-M   'P 1'
_cell_length_a   4.36506108
_cell_length_b   4.36506108
_cell_length_c   30.15893974
_cell_angle_alpha   90.00000000
_cell_angle_beta   90.00000000
_cell_angle_gamma   120.00000000
_symmetry_Int_Tables_number   1
_chemical_formula_structural   LiF
_chemical_formula_sum   'Li20 F20'
_cell_volume   497.65383084
_cell_formula_units_Z   20
loop_
 _symmetry_equiv_pos_site_id
 _symmetry_equiv_pos_as_xyz
  1  'x, y, z'
loop_
 _atom_site_type_symbol
 _atom_site_label
 _atom_site_symmetry_multiplicity
 _atom_site_fract_x
 _atom_site_fract_y
 _atom_site_fract_z
 _atom_site_occupancy
  F  F0  1  0.25470703  0.50941406  0.14128234  1
  F  F1  1  -0.50941406  -0.25470703  0.14128234  1
  F  F2  1  0.25470703  -0.25470703  0.14128234  1
  F  F3  1  -0.25470703  -0.50941406  0.64128234  1
  F  F4  1  0.50941406  0.25470703  0.64128234  1
  F  F5  1  -0.25470703  0.25470703  0.64128234  1
  F  F6  1  0.50941406  0.25470703  -0.14128234  1
  F  F7  1  -0.25470703  -0.50941406  -0.14128234  1
  F  F8  1  -0.25470703  0.25470703  -0.14128234  1
  F  F9  1  -0.50941406  -0.25470703  0.35871766  1
  F  F10  1  0.25470703  0.50941406  0.35871766  1
  F  F11  1  0.25470703  -0.25470703  0.35871766  1
  F  F12  1  0.07526747  0.15053494  0.25000000  1
  F  F13  1  0.84946506  0.92473253  0.25000000  1
  F  F14  1  0.07526747  0.92473253  0.25000000  1
  F  F15  1  0.92473253  0.84946506  0.75000000  1
  F  F16  1  0.15053494  0.07526747  0.75000000  1
  F  F17  1  0.92473253  0.07526747  0.75000000  1
  F  F18  1  0.33333333  0.66666667  0.75000000  1
  F  F19  1  0.66666667  0.33333333  0.25000000  1
  Li  Li20  1  0.00000000  0.00000000  0.20005114  1
  Li  Li21  1  0.00000000  0.00000000  0.70005114  1
  Li  Li22  1  0.00000000  0.00000000  0.79994886  1
  Li  Li23  1  0.00000000  0.00000000  0.29994886  1
  Li  Li24  1  0.77992860  0.55985721  0.27432826  1
  Li  Li25  1  0.44014279  0.22007140  0.27432826  1
  Li  Li26  1  0.77992860  0.22007140  0.27432826  1
  Li  Li27  1  0.22007140  0.44014279  0.77432826  1
  Li  Li28  1  0.55985721  0.77992860  0.77432826  1
  Li  Li29  1  0.22007140  0.77992860  0.77432826  1
  Li  Li30  1  0.55985721  0.77992860  0.72567174  1
  Li  Li31  1  0.22007140  0.44014279  0.72567174  1
  Li  Li32  1  0.22007140  0.77992860  0.72567174  1
  Li  Li33  1  0.44014279  0.22007140  0.22567174  1
  Li  Li34  1  0.77992860  0.55985721  0.22567174  1
  Li  Li35  1  0.77992860  0.22007140  0.22567174  1
  Li  Li36  1  0.33333333  0.66666667  0.90616625  1
  Li  Li37  1  0.66666667  0.33333333  0.40616625  1
  Li  Li38  1  0.66666667  0.33333333  0.09383375  1
  Li  Li39  1  0.33333333  0.66666667  0.59383375  1
