# generated using pymatgen
data_Li6SF4
_symmetry_space_group_name_H-M   'P 1'
_cell_length_a   18.60009807
_cell_length_b   18.60009807
_cell_length_c   11.63246120
_cell_angle_alpha   90.00000000
_cell_angle_beta   90.00000000
_cell_angle_gamma   120.00000000
_symmetry_Int_Tables_number   1
_chemical_formula_structural   Li6SF4
_chemical_formula_sum   'Li108 S18 F72'
_cell_volume   3485.24018382
_cell_formula_units_Z   18
loop_
 _symmetry_equiv_pos_site_id
 _symmetry_equiv_pos_as_xyz
  1  'x, y, z'
loop_
 _atom_site_type_symbol
 _atom_site_label
 _atom_site_symmetry_multiplicity
 _atom_site_fract_x
 _atom_site_fract_y
 _atom_site_fract_z
 _atom_site_occupancy
  F  F0  1  0.43776333  0.29113180  0.14120080  1
  F  F1  1  0.70886820  0.14663152  0.14120080  1
  F  F2  1  0.85336848  0.56223667  0.14120080  1
  F  F3  1  0.29113180  0.43776333  0.35879920  1
  F  F4  1  0.14663152  0.70886820  0.35879920  1
  F  F5  1  0.56223667  0.85336848  0.35879920  1
  F  F6  1  0.56223667  0.70886820  0.85879920  1
  F  F7  1  0.29113180  0.85336848  0.85879920  1
  F  F8  1  0.14663152  0.43776333  0.85879920  1
  F  F9  1  0.70886820  0.56223667  0.64120080  1
  F  F10  1  0.85336848  0.29113180  0.64120080  1
  F  F11  1  0.43776333  0.14663152  0.64120080  1
  F  F12  1  0.10442999  0.62446514  0.47453413  1
  F  F13  1  0.37553486  0.47996486  0.47453413  1
  F  F14  1  0.52003514  0.89557001  0.47453413  1
  F  F15  1  0.95779847  0.77109666  0.69213254  1
  F  F16  1  0.81329819  0.04220153  0.69213254  1
  F  F17  1  0.22890334  0.18670181  0.69213254  1
  F  F18  1  0.22890334  0.04220153  0.19213254  1
  F  F19  1  0.95779847  0.18670181  0.19213254  1
  F  F20  1  0.81329819  0.77109666  0.19213254  1
  F  F21  1  0.37553486  0.89557001  0.97453413  1
  F  F22  1  0.52003514  0.62446514  0.97453413  1
  F  F23  1  0.10442999  0.47996486  0.97453413  1
  F  F24  1  0.77109666  0.95779847  0.80786746  1
  F  F25  1  0.04220153  0.81329819  0.80786746  1
  F  F26  1  0.18670181  0.22890334  0.80786746  1
  F  F27  1  0.62446514  0.10442999  0.02546587  1
  F  F28  1  0.47996486  0.37553486  0.02546587  1
  F  F29  1  0.89557001  0.52003514  0.02546587  1
  F  F30  1  0.89557001  0.37553486  0.52546587  1
  F  F31  1  0.62446514  0.52003514  0.52546587  1
  F  F32  1  0.47996486  0.10442999  0.52546587  1
  F  F33  1  0.04220153  0.22890334  0.30786746  1
  F  F34  1  0.18670181  0.95779847  0.30786746  1
  F  F35  1  0.77109666  0.81329819  0.30786746  1
  F  F36  1  0.00000000  0.00000000  0.25000000  1
  F  F37  1  0.00000000  0.00000000  0.75000000  1
  F  F38  1  0.66666667  0.33333333  0.58333333  1
  F  F39  1  0.66666667  0.33333333  0.08333333  1
  F  F40  1  0.33333333  0.66666667  0.91666667  1
  F  F41  1  0.33333333  0.66666667  0.41666667  1
  F  F42  1  0.00000000  0.00000000  0.65887141  1
  F  F43  1  0.00000000  0.00000000  0.84112859  1
  F  F44  1  0.00000000  0.00000000  0.34112859  1
  F  F45  1  0.00000000  0.00000000  0.15887141  1
  F  F46  1  0.66666667  0.33333333  0.99220474  1
  F  F47  1  0.66666667  0.33333333  0.17446192  1
  F  F48  1  0.66666667  0.33333333  0.67446192  1
  F  F49  1  0.66666667  0.33333333  0.49220474  1
  F  F50  1  0.33333333  0.66666667  0.32553808  1
  F  F51  1  0.33333333  0.66666667  0.50779526  1
  F  F52  1  0.33333333  0.66666667  0.00779526  1
  F  F53  1  0.33333333  0.66666667  0.82553808  1
  F  F54  1  0.00000000  0.00000000  0.00000000  1
  F  F55  1  0.00000000  0.00000000  0.50000000  1
  F  F56  1  0.66666667  0.33333333  0.33333333  1
  F  F57  1  0.66666667  0.33333333  0.83333333  1
  F  F58  1  0.33333333  0.66666667  0.66666667  1
  F  F59  1  0.33333333  0.66666667  0.16666667  1
  F  F60  1  0.00000000  0.00000000  0.06526711  1
  F  F61  1  0.00000000  0.00000000  0.43473289  1
  F  F62  1  0.00000000  0.00000000  0.93473289  1
  F  F63  1  0.00000000  0.00000000  0.56526711  1
  F  F64  1  0.66666667  0.33333333  0.39860044  1
  F  F65  1  0.66666667  0.33333333  0.76806622  1
  F  F66  1  0.66666667  0.33333333  0.26806622  1
  F  F67  1  0.66666667  0.33333333  0.89860044  1
  F  F68  1  0.33333333  0.66666667  0.73193378  1
  F  F69  1  0.33333333  0.66666667  0.10139956  1
  F  F70  1  0.33333333  0.66666667  0.60139956  1
  F  F71  1  0.33333333  0.66666667  0.23193378  1
  Li  Li72  1  0.17502488  0.90765474  0.52422240  1
  Li  Li73  1  -0.90765474  -0.73262986  0.52422240  1
  Li  Li74  1  0.73262986  -0.17502488  0.52422240  1
  Li  Li75  1  0.90765474  0.17502488  -0.02422240  1
  Li  Li76  1  -0.73262986  -0.90765474  -0.02422240  1
  Li  Li77  1  -0.17502488  0.73262986  -0.02422240  1
  Li  Li78  1  -0.17502488  -0.90765474  -0.52422240  1
  Li  Li79  1  0.90765474  0.73262986  -0.52422240  1
  Li  Li80  1  -0.73262986  0.17502488  -0.52422240  1
  Li  Li81  1  -0.90765474  -0.17502488  1.02422240  1
  Li  Li82  1  0.73262986  0.90765474  1.02422240  1
  Li  Li83  1  0.17502488  -0.73262986  1.02422240  1
  Li  Li84  1  0.84169154  1.24098807  0.85755574  1
  Li  Li85  1  -0.24098807  -0.39929653  0.85755574  1
  Li  Li86  1  1.39929653  0.15830846  0.85755574  1
  Li  Li87  1  1.57432140  0.50835821  0.30911093  1
  Li  Li88  1  -0.06596319  -0.57432140  0.30911093  1
  Li  Li89  1  0.49164179  1.06596319  0.30911093  1
  Li  Li90  1  0.49164179  -0.57432140  -0.19088907  1
  Li  Li91  1  1.57432140  1.06596319  -0.19088907  1
  Li  Li92  1  -0.06596319  0.50835821  -0.19088907  1
  Li  Li93  1  -0.24098807  0.15830846  1.35755574  1
  Li  Li94  1  1.39929653  1.24098807  1.35755574  1
  Li  Li95  1  0.84169154  -0.39929653  1.35755574  1
  Li  Li96  1  0.50835821  1.57432140  1.19088907  1
  Li  Li97  1  -0.57432140  -0.06596319  1.19088907  1
  Li  Li98  1  1.06596319  0.49164179  1.19088907  1
  Li  Li99  1  1.24098807  0.84169154  0.64244426  1
  Li  Li100  1  -0.39929653  -0.24098807  0.64244426  1
  Li  Li101  1  0.15830846  1.39929653  0.64244426  1
  Li  Li102  1  0.15830846  -0.24098807  0.14244426  1
  Li  Li103  1  1.24098807  1.39929653  0.14244426  1
  Li  Li104  1  -0.39929653  0.84169154  0.14244426  1
  Li  Li105  1  -0.57432140  0.49164179  1.69088907  1
  Li  Li106  1  1.06596319  1.57432140  1.69088907  1
  Li  Li107  1  0.50835821  -0.06596319  1.69088907  1
  Li  Li108  1  0.39429322  0.60438966  0.61344176  1
  Li  Li109  1  0.39561034  0.78990356  0.61344176  1
  Li  Li110  1  0.21009644  0.60570678  0.61344176  1
  Li  Li111  1  0.60438966  0.39429322  0.88655824  1
  Li  Li112  1  0.78990356  0.39561034  0.88655824  1
  Li  Li113  1  0.60570678  0.21009644  0.88655824  1
  Li  Li114  1  0.60570678  0.39561034  0.38655824  1
  Li  Li115  1  0.60438966  0.21009644  0.38655824  1
  Li  Li116  1  0.78990356  0.39429322  0.38655824  1
  Li  Li117  1  0.39561034  0.60570678  0.11344176  1
  Li  Li118  1  0.21009644  0.60438966  0.11344176  1
  Li  Li119  1  0.39429322  0.78990356  0.11344176  1
  Li  Li120  1  0.06095989  0.93772299  0.94677510  1
  Li  Li121  1  0.06227701  0.12323690  0.94677510  1
  Li  Li122  1  0.87676310  0.93904011  0.94677510  1
  Li  Li123  1  0.27105632  0.72762655  0.21989157  1
  Li  Li124  1  0.45657023  0.72894368  0.21989157  1
  Li  Li125  1  0.27237345  0.54342977  0.21989157  1
  Li  Li126  1  0.27237345  0.72894368  0.71989157  1
  Li  Li127  1  0.27105632  0.54342977  0.71989157  1
  Li  Li128  1  0.45657023  0.72762655  0.71989157  1
  Li  Li129  1  0.06227701  0.93904011  0.44677510  1
  Li  Li130  1  0.87676310  0.93772299  0.44677510  1
  Li  Li131  1  0.06095989  0.12323690  0.44677510  1
  Li  Li132  1  0.72762655  0.27105632  0.28010843  1
  Li  Li133  1  0.72894368  0.45657023  0.28010843  1
  Li  Li134  1  0.54342977  0.27237345  0.28010843  1
  Li  Li135  1  0.93772299  0.06095989  0.55322490  1
  Li  Li136  1  0.12323690  0.06227701  0.55322490  1
  Li  Li137  1  0.93904011  0.87676310  0.55322490  1
  Li  Li138  1  0.93904011  0.06227701  0.05322490  1
  Li  Li139  1  0.93772299  0.87676310  0.05322490  1
  Li  Li140  1  0.12323690  0.06095989  0.05322490  1
  Li  Li141  1  0.72894368  0.27237345  0.78010843  1
  Li  Li142  1  0.54342977  0.27105632  0.78010843  1
  Li  Li143  1  0.72762655  0.45657023  0.78010843  1
  Li  Li144  1  0.85502156  0.00000000  0.25000000  1
  Li  Li145  1  0.00000000  0.85502156  0.25000000  1
  Li  Li146  1  0.14497844  0.14497844  0.25000000  1
  Li  Li147  1  0.14497844  0.00000000  0.75000000  1
  Li  Li148  1  0.00000000  0.14497844  0.75000000  1
  Li  Li149  1  0.85502156  0.85502156  0.75000000  1
  Li  Li150  1  0.52168823  0.33333333  0.58333333  1
  Li  Li151  1  0.66666667  0.18835489  0.58333333  1
  Li  Li152  1  0.81164511  0.47831177  0.58333333  1
  Li  Li153  1  0.81164511  0.33333333  0.08333333  1
  Li  Li154  1  0.66666667  0.47831177  0.08333333  1
  Li  Li155  1  0.52168823  0.18835489  0.08333333  1
  Li  Li156  1  0.18835489  0.66666667  0.91666667  1
  Li  Li157  1  0.33333333  0.52168823  0.91666667  1
  Li  Li158  1  0.47831177  0.81164511  0.91666667  1
  Li  Li159  1  0.47831177  0.66666667  0.41666667  1
  Li  Li160  1  0.33333333  0.81164511  0.41666667  1
  Li  Li161  1  0.18835489  0.52168823  0.41666667  1
  Li  Li162  1  0.50000000  0.00000000  0.00000000  1
  Li  Li163  1  0.00000000  0.50000000  0.00000000  1
  Li  Li164  1  0.50000000  0.50000000  0.00000000  1
  Li  Li165  1  0.00000000  0.50000000  0.50000000  1
  Li  Li166  1  0.50000000  0.00000000  0.50000000  1
  Li  Li167  1  0.50000000  0.50000000  0.50000000  1
  Li  Li168  1  0.16666667  0.33333333  0.33333333  1
  Li  Li169  1  0.66666667  0.83333333  0.33333333  1
  Li  Li170  1  0.16666667  0.83333333  0.33333333  1
  Li  Li171  1  0.66666667  0.83333333  0.83333333  1
  Li  Li172  1  0.16666667  0.33333333  0.83333333  1
  Li  Li173  1  0.16666667  0.83333333  0.83333333  1
  Li  Li174  1  0.83333333  0.66666667  0.66666667  1
  Li  Li175  1  0.33333333  0.16666667  0.66666667  1
  Li  Li176  1  0.83333333  0.16666667  0.66666667  1
  Li  Li177  1  0.33333333  0.16666667  0.16666667  1
  Li  Li178  1  0.83333333  0.66666667  0.16666667  1
  Li  Li179  1  0.83333333  0.16666667  0.16666667  1
  S  S180  1  0.49708705  0.00000000  0.25000000  1
  S  S181  1  0.00000000  0.49708705  0.25000000  1
  S  S182  1  0.50291295  0.50291295  0.25000000  1
  S  S183  1  0.50291295  0.00000000  0.75000000  1
  S  S184  1  0.00000000  0.50291295  0.75000000  1
  S  S185  1  0.49708705  0.49708705  0.75000000  1
  S  S186  1  0.16375372  0.33333333  0.58333333  1
  S  S187  1  0.66666667  0.83042038  0.58333333  1
  S  S188  1  0.16957962  0.83624628  0.58333333  1
  S  S189  1  0.16957962  0.33333333  0.08333333  1
  S  S190  1  0.66666667  0.83624628  0.08333333  1
  S  S191  1  0.16375372  0.83042038  0.08333333  1
  S  S192  1  0.83042038  0.66666667  0.91666667  1
  S  S193  1  0.33333333  0.16375372  0.91666667  1
  S  S194  1  0.83624628  0.16957962  0.91666667  1
  S  S195  1  0.83624628  0.66666667  0.41666667  1
  S  S196  1  0.33333333  0.16957962  0.41666667  1
  S  S197  1  0.83042038  0.16375372  0.41666667  1
