# generated using pymatgen
data_LiF
_symmetry_space_group_name_H-M   'P 1'
_cell_length_a   7.16263977
_cell_length_b   11.56690273
_cell_length_c   8.77645432
_cell_angle_alpha   90.00000000
_cell_angle_beta   90.00000000
_cell_angle_gamma   90.00000000
_symmetry_Int_Tables_number   1
_chemical_formula_structural   LiF
_chemical_formula_sum   'Li24 F24'
_cell_volume   727.12535667
_cell_formula_units_Z   24
loop_
 _symmetry_equiv_pos_site_id
 _symmetry_equiv_pos_as_xyz
  1  'x, y, z'
loop_
 _atom_site_type_symbol
 _atom_site_label
 _atom_site_symmetry_multiplicity
 _atom_site_fract_x
 _atom_site_fract_y
 _atom_site_fract_z
 _atom_site_occupancy
  F  F0  1  0.43515122  0.25000000  0.83228073  1
  F  F1  1  0.06484878  0.75000000  0.33228073  1
  F  F2  1  0.56484878  0.75000000  0.16771927  1
  F  F3  1  0.93515122  0.25000000  0.66771927  1
  F  F4  1  0.19329531  0.25000000  0.00960192  1
  F  F5  1  0.30670469  0.75000000  0.50960192  1
  F  F6  1  0.80670469  0.75000000  0.99039808  1
  F  F7  1  0.69329531  0.25000000  0.49039808  1
  F  F8  1  0.17156529  0.28799368  0.30892175  1
  F  F9  1  0.32843471  0.71200632  0.80892175  1
  F  F10  1  0.82843471  0.78799368  0.69107825  1
  F  F11  1  0.67156529  0.21200632  0.19107825  1
  F  F12  1  0.82843471  0.71200632  0.69107825  1
  F  F13  1  0.67156529  0.28799368  0.19107825  1
  F  F14  1  0.17156529  0.21200632  0.30892175  1
  F  F15  1  0.32843471  0.78799368  0.80892175  1
  F  F16  1  0.00000000  0.00000000  0.50000000  1
  F  F17  1  0.50000000  0.00000000  0.00000000  1
  F  F18  1  0.00000000  0.50000000  0.50000000  1
  F  F19  1  0.50000000  0.50000000  0.00000000  1
  F  F20  1  0.70783120  0.25000000  0.14747257  1
  F  F21  1  0.79216880  0.75000000  0.64747257  1
  F  F22  1  0.29216880  0.75000000  0.85252743  1
  F  F23  1  0.20783120  0.25000000  0.35252743  1
  Li  Li24  1  0.65183654  0.67385492  0.34209626  1
  Li  Li25  1  -0.15183654  -0.67385492  0.84209626  1
  Li  Li26  1  -0.65183654  1.17385492  -0.34209626  1
  Li  Li27  1  1.15183654  -0.17385492  0.15790374  1
  Li  Li28  1  -0.65183654  -0.67385492  -0.34209626  1
  Li  Li29  1  1.15183654  0.67385492  0.15790374  1
  Li  Li30  1  0.65183654  -0.17385492  0.34209626  1
  Li  Li31  1  -0.15183654  1.17385492  0.84209626  1
  Li  Li32  1  0.36033581  0.36525755  0.40422798  1
  Li  Li33  1  0.13966419  0.63474245  0.90422798  1
  Li  Li34  1  0.63966419  0.86525755  0.59577202  1
  Li  Li35  1  0.86033581  0.13474245  0.09577202  1
  Li  Li36  1  0.63966419  0.63474245  0.59577202  1
  Li  Li37  1  0.86033581  0.36525755  0.09577202  1
  Li  Li38  1  0.36033581  0.13474245  0.40422798  1
  Li  Li39  1  0.13966419  0.86525755  0.90422798  1
  Li  Li40  1  0.88310719  0.95585154  0.25275656  1
  Li  Li41  1  0.61689281  0.04414846  0.75275656  1
  Li  Li42  1  0.11689281  0.45585154  0.74724344  1
  Li  Li43  1  0.38310719  0.54414846  0.24724344  1
  Li  Li44  1  0.11689281  0.04414846  0.74724344  1
  Li  Li45  1  0.38310719  0.95585154  0.24724344  1
  Li  Li46  1  0.88310719  0.54414846  0.25275656  1
  Li  Li47  1  0.61689281  0.45585154  0.75275656  1
