# generated using pymatgen
data_LiF
_symmetry_space_group_name_H-M   'P 1'
_cell_length_a   5.32313523
_cell_length_b   4.24415953
_cell_length_c   5.55629877
_cell_angle_alpha   90.00000000
_cell_angle_beta   90.00000000
_cell_angle_gamma   90.00000000
_symmetry_Int_Tables_number   1
_chemical_formula_structural   LiF
_chemical_formula_sum   'Li8 F8'
_cell_volume   125.52920832
_cell_formula_units_Z   8
loop_
 _symmetry_equiv_pos_site_id
 _symmetry_equiv_pos_as_xyz
  1  'x, y, z'
loop_
 _atom_site_type_symbol
 _atom_site_label
 _atom_site_symmetry_multiplicity
 _atom_site_fract_x
 _atom_site_fract_y
 _atom_site_fract_z
 _atom_site_occupancy
  F  F0  1  0.00000000  0.50000000  0.00000000  1
  F  F1  1  0.50000000  0.00000000  0.50000000  1
  F  F2  1  0.00000000  0.00000000  0.50000000  1
  F  F3  1  0.50000000  0.50000000  0.00000000  1
  F  F4  1  0.32945858  0.83989200  0.00000000  1
  F  F5  1  -0.32945858  -0.83989200  0.00000000  1
  F  F6  1  0.17054142  1.33989200  0.50000000  1
  F  F7  1  0.82945858  -0.33989200  0.50000000  1
  Li  Li8  1  0.10248542  0.85733956  0.00000000  1
  Li  Li9  1  0.89751458  0.14266044  0.00000000  1
  Li  Li10  1  0.39751458  0.35733956  0.50000000  1
  Li  Li11  1  0.60248542  0.64266044  0.50000000  1
  Li  Li12  1  0.00000000  0.00000000  0.27353406  1
  Li  Li13  1  0.50000000  0.50000000  0.22646594  1
  Li  Li14  1  0.00000000  0.00000000  0.72646594  1
  Li  Li15  1  0.50000000  0.50000000  0.77353406  1
