# generated using pymatgen
data_Li2Y2Mo2P2Se
_symmetry_space_group_name_H-M   'P 1'
_cell_length_a   5.12341894
_cell_length_b   5.24440847
_cell_length_c   6.78214378
_cell_angle_alpha   94.07939514
_cell_angle_beta   98.46663595
_cell_angle_gamma   105.67751152
_symmetry_Int_Tables_number   1
_chemical_formula_structural   Li2Y2Mo2P2Se
_chemical_formula_sum   'Li2 Y2 Mo2 P2 Se1'
_cell_volume   172.35867219
_cell_formula_units_Z   1
loop_
 _symmetry_equiv_pos_site_id
 _symmetry_equiv_pos_as_xyz
  1  'x, y, z'
loop_
 _atom_site_type_symbol
 _atom_site_label
 _atom_site_symmetry_multiplicity
 _atom_site_fract_x
 _atom_site_fract_y
 _atom_site_fract_z
 _atom_site_occupancy
  Se  Se0  1  0.00000000  0.00000000  0.00000000  1
  P  P1  1  0.50000000  0.50000000  0.50000000  1
  P  P2  1  0.50000000  0.50000000  0.00000000  1
  Mo  Mo3  1  0.50000000  0.00000000  0.50000000  1
  Mo  Mo4  1  0.00000000  0.50000000  0.50000000  1
  Li  Li5  1  0.78740455  0.86390963  0.14378907  1
  Li  Li6  1  0.90003383  0.85781579  0.44750999  1
  Y  Y7  1  0.13158878  0.97281946  0.86573978  1
  Y  Y8  1  0.12323110  0.48999153  0.87925060  1
