# generated using pymatgen
data_Li2Ca3F8
_symmetry_space_group_name_H-M   'P 1'
_cell_length_a   10.90112562
_cell_length_b   10.90112562
_cell_length_c   13.28276059
_cell_angle_alpha   90.00000000
_cell_angle_beta   90.00000000
_cell_angle_gamma   90.00000000
_symmetry_Int_Tables_number   1
_chemical_formula_structural   Li2Ca3F8
_chemical_formula_sum   'Li16 Ca24 F64'
_cell_volume   1578.45074152
_cell_formula_units_Z   8
loop_
 _symmetry_equiv_pos_site_id
 _symmetry_equiv_pos_as_xyz
  1  'x, y, z'
loop_
 _atom_site_type_symbol
 _atom_site_label
 _atom_site_symmetry_multiplicity
 _atom_site_fract_x
 _atom_site_fract_y
 _atom_site_fract_z
 _atom_site_occupancy
  Ca  Ca0  1  0.89009567  0.14009567  0.12500000  1
  Ca  Ca1  1  0.60990433  0.85990433  0.62500000  1
  Ca  Ca2  1  0.10990433  0.64009567  0.37500000  1
  Ca  Ca3  1  0.39009567  0.35990433  0.87500000  1
  Ca  Ca4  1  0.10990433  0.85990433  0.87500000  1
  Ca  Ca5  1  0.39009567  0.14009567  0.37500000  1
  Ca  Ca6  1  0.89009567  0.35990433  0.62500000  1
  Ca  Ca7  1  0.60990433  0.64009567  0.12500000  1
  Ca  Ca8  1  0.39009567  0.64009567  0.62500000  1
  Ca  Ca9  1  0.10990433  0.35990433  0.12500000  1
  Ca  Ca10  1  0.60990433  0.14009567  0.87500000  1
  Ca  Ca11  1  0.89009567  0.85990433  0.37500000  1
  Ca  Ca12  1  0.60990433  0.35990433  0.37500000  1
  Ca  Ca13  1  0.89009567  0.64009567  0.87500000  1
  Ca  Ca14  1  0.39009567  0.85990433  0.12500000  1
  Ca  Ca15  1  0.10990433  0.14009567  0.62500000  1
  Ca  Ca16  1  0.00000000  0.25000000  0.37500000  1
  Ca  Ca17  1  0.00000000  0.75000000  0.62500000  1
  Ca  Ca18  1  0.50000000  0.25000000  0.62500000  1
  Ca  Ca19  1  0.50000000  0.75000000  0.37500000  1
  Ca  Ca20  1  0.50000000  0.75000000  0.87500000  1
  Ca  Ca21  1  0.50000000  0.25000000  0.12500000  1
  Ca  Ca22  1  0.00000000  0.75000000  0.12500000  1
  Ca  Ca23  1  0.00000000  0.25000000  0.87500000  1
  F  F24  1  0.45207264  0.86411011  0.63243809  1
  F  F25  1  0.04792736  -0.86411011  1.13243809  1
  F  F26  1  -0.61411011  1.20207264  0.88243809  1
  F  F27  1  1.11411011  -0.20207264  1.38243809  1
  F  F28  1  0.04792736  0.86411011  -0.63243809  1
  F  F29  1  0.45207264  -0.86411011  -0.13243809  1
  F  F30  1  1.11411011  1.20207264  0.11756191  1
  F  F31  1  -0.61411011  -0.20207264  -0.38243809  1
  F  F32  1  -0.45207264  -0.86411011  -0.63243809  1
  F  F33  1  0.95207264  0.86411011  -0.13243809  1
  F  F34  1  1.61411011  -0.20207264  0.11756191  1
  F  F35  1  -0.11411011  1.20207264  -0.38243809  1
  F  F36  1  0.95207264  -0.86411011  0.63243809  1
  F  F37  1  -0.45207264  0.86411011  1.13243809  1
  F  F38  1  -0.11411011  -0.20207264  0.88243809  1
  F  F39  1  1.61411011  1.20207264  1.38243809  1
  F  F40  1  0.95207264  1.36411011  1.13243809  1
  F  F41  1  0.54792736  -0.36411011  1.63243809  1
  F  F42  1  -0.11411011  1.70207264  1.38243809  1
  F  F43  1  1.61411011  0.29792736  1.88243809  1
  F  F44  1  0.54792736  1.36411011  -0.13243809  1
  F  F45  1  0.95207264  -0.36411011  0.36756191  1
  F  F46  1  1.61411011  1.70207264  0.61756191  1
  F  F47  1  -0.11411011  0.29792736  0.11756191  1
  F  F48  1  0.04792736  -0.36411011  -0.13243809  1
  F  F49  1  1.45207264  1.36411011  0.36756191  1
  F  F50  1  2.11411011  0.29792736  0.61756191  1
  F  F51  1  0.38588989  1.70207264  0.11756191  1
  F  F52  1  1.45207264  -0.36411011  1.13243809  1
  F  F53  1  0.04792736  1.36411011  1.63243809  1
  F  F54  1  0.38588989  0.29792736  1.38243809  1
  F  F55  1  2.11411011  1.70207264  1.88243809  1
  F  F56  1  0.47233095  0.67018390  0.17376440  1
  F  F57  1  0.02766905  0.32981610  0.67376440  1
  F  F58  1  0.57981610  0.22233095  0.42376440  1
  F  F59  1  0.92018390  0.77766905  0.92376440  1
  F  F60  1  0.02766905  0.67018390  0.82623560  1
  F  F61  1  0.47233095  0.32981610  0.32623560  1
  F  F62  1  0.92018390  0.22233095  0.57623560  1
  F  F63  1  0.57981610  0.77766905  0.07623560  1
  F  F64  1  0.52766905  0.32981610  0.82623560  1
  F  F65  1  0.97233095  0.67018390  0.32623560  1
  F  F66  1  0.42018390  0.77766905  0.57623560  1
  F  F67  1  0.07981610  0.22233095  0.07623560  1
  F  F68  1  0.97233095  0.32981610  0.17376440  1
  F  F69  1  0.52766905  0.67018390  0.67376440  1
  F  F70  1  0.07981610  0.77766905  0.42376440  1
  F  F71  1  0.42018390  0.22233095  0.92376440  1
  F  F72  1  0.97233095  0.17018390  0.67376440  1
  F  F73  1  0.52766905  0.82981610  0.17376440  1
  F  F74  1  0.07981610  0.72233095  0.92376440  1
  F  F75  1  0.42018390  0.27766905  0.42376440  1
  F  F76  1  0.52766905  0.17018390  0.32623560  1
  F  F77  1  0.97233095  0.82981610  0.82623560  1
  F  F78  1  0.42018390  0.72233095  0.07623560  1
  F  F79  1  0.07981610  0.27766905  0.57623560  1
  F  F80  1  0.02766905  0.82981610  0.32623560  1
  F  F81  1  0.47233095  0.17018390  0.82623560  1
  F  F82  1  0.92018390  0.27766905  0.07623560  1
  F  F83  1  0.57981610  0.72233095  0.57623560  1
  F  F84  1  0.47233095  0.82981610  0.67376440  1
  F  F85  1  0.02766905  0.17018390  0.17376440  1
  F  F86  1  0.57981610  0.27766905  0.92376440  1
  F  F87  1  0.92018390  0.72233095  0.42376440  1
  Li  Li88  1  0.53704092  0.00000000  0.25000000  1
  Li  Li89  1  0.96295908  0.00000000  0.75000000  1
  Li  Li90  1  0.25000000  0.28704092  0.50000000  1
  Li  Li91  1  0.25000000  0.71295908  -0.00000000  1
  Li  Li92  1  0.46295908  0.00000000  0.75000000  1
  Li  Li93  1  0.03704092  0.00000000  0.25000000  1
  Li  Li94  1  0.75000000  0.71295908  0.50000000  1
  Li  Li95  1  0.75000000  0.28704092  -0.00000000  1
  Li  Li96  1  0.03704092  0.50000000  0.75000000  1
  Li  Li97  1  0.46295908  0.50000000  0.25000000  1
  Li  Li98  1  0.75000000  0.78704092  -0.00000000  1
  Li  Li99  1  0.75000000  0.21295908  0.50000000  1
  Li  Li100  1  0.96295908  0.50000000  0.25000000  1
  Li  Li101  1  0.53704092  0.50000000  0.75000000  1
  Li  Li102  1  0.25000000  0.21295908  0.00000000  1
  Li  Li103  1  0.25000000  0.78704092  0.50000000  1
