# generated using pymatgen
data_LiCaF3
_symmetry_space_group_name_H-M   'P 1'
_cell_length_a   18.92701568
_cell_length_b   18.92701568
_cell_length_c   4.19588860
_cell_angle_alpha   90.00000000
_cell_angle_beta   90.00000000
_cell_angle_gamma   120.00000000
_symmetry_Int_Tables_number   1
_chemical_formula_structural   LiCaF3
_chemical_formula_sum   'Li18 Ca18 F54'
_cell_volume   1301.72385827
_cell_formula_units_Z   18
loop_
 _symmetry_equiv_pos_site_id
 _symmetry_equiv_pos_as_xyz
  1  'x, y, z'
loop_
 _atom_site_type_symbol
 _atom_site_label
 _atom_site_symmetry_multiplicity
 _atom_site_fract_x
 _atom_site_fract_y
 _atom_site_fract_z
 _atom_site_occupancy
  Ca  Ca0  1  0.79464086  0.96530849  0.09102596  1
  Ca  Ca1  1  -0.96530849  -0.17066764  0.09102596  1
  Ca  Ca2  1  0.17066764  -0.79464086  0.09102596  1
  Ca  Ca3  1  -0.96530849  -0.79464086  -0.09102596  1
  Ca  Ca4  1  0.17066764  0.96530849  -0.09102596  1
  Ca  Ca5  1  0.79464086  -0.17066764  -0.09102596  1
  Ca  Ca6  1  0.33333333  0.66666667  0.71418566  1
  Ca  Ca7  1  0.33333333  0.66666667  0.28581434  1
  Ca  Ca8  1  0.66666667  0.33333333  0.50000000  1
  Ca  Ca9  1  0.80546962  0.34289712  0.22066235  1
  Ca  Ca10  1  0.65710288  0.46257250  0.22066235  1
  Ca  Ca11  1  0.53742750  0.19453038  0.22066235  1
  Ca  Ca12  1  0.65710288  0.19453038  0.77933765  1
  Ca  Ca13  1  0.53742750  0.34289712  0.77933765  1
  Ca  Ca14  1  0.80546962  0.46257250  0.77933765  1
  Ca  Ca15  1  0.46341388  0.53658612  0.50000000  1
  Ca  Ca16  1  0.46341388  0.92682777  0.50000000  1
  Ca  Ca17  1  0.07317223  0.53658612  0.50000000  1
  F  F18  1  0.59434523  0.63102185  0.25950923  1
  F  F19  1  0.36897815  0.96332339  0.25950923  1
  F  F20  1  0.03667661  0.40565477  0.25950923  1
  F  F21  1  0.36897815  0.40565477  0.74049077  1
  F  F22  1  0.03667661  0.63102185  0.74049077  1
  F  F23  1  0.59434523  0.96332339  0.74049077  1
  F  F24  1  0.91735336  0.77636432  0.78002221  1
  F  F25  1  0.22363568  0.14098904  0.78002221  1
  F  F26  1  0.85901096  0.08264664  0.78002221  1
  F  F27  1  0.22363568  0.08264664  0.21997779  1
  F  F28  1  0.85901096  0.77636432  0.21997779  1
  F  F29  1  0.91735336  0.14098904  0.21997779  1
  F  F30  1  0.39382783  0.60617217  0.50000000  1
  F  F31  1  0.39382783  0.78765566  0.50000000  1
  F  F32  1  0.21234434  0.60617217  0.50000000  1
  F  F33  1  0.86186947  0.68241640  0.60745986  1
  F  F34  1  0.31758360  0.17945306  0.60745986  1
  F  F35  1  0.82054694  0.13813053  0.60745986  1
  F  F36  1  0.31758360  0.13813053  0.39254014  1
  F  F37  1  0.82054694  0.68241640  0.39254014  1
  F  F38  1  0.86186947  0.17945306  0.39254014  1
  F  F39  1  0.76153034  0.00850655  0.43084569  1
  F  F40  1  0.99149345  0.75302379  0.43084569  1
  F  F41  1  0.24697621  0.23846966  0.43084569  1
  F  F42  1  0.99149345  0.23846966  0.56915431  1
  F  F43  1  0.24697621  0.00850655  0.56915431  1
  F  F44  1  0.76153034  0.75302379  0.56915431  1
  F  F45  1  0.00000000  0.00000000  0.50000000  1
  F  F46  1  0.33283861  0.13976851  0.65495910  1
  F  F47  1  0.86023149  0.19307009  0.65495910  1
  F  F48  1  0.80692991  0.66716139  0.65495910  1
  F  F49  1  0.86023149  0.66716139  0.34504090  1
  F  F50  1  0.80692991  0.13976851  0.34504090  1
  F  F51  1  0.33283861  0.19307009  0.34504090  1
  F  F52  1  0.88596439  0.83369279  0.70374857  1
  F  F53  1  0.16630721  0.05227159  0.70374857  1
  F  F54  1  0.94772841  0.11403561  0.70374857  1
  F  F55  1  0.16630721  0.11403561  0.29625143  1
  F  F56  1  0.94772841  0.83369279  0.29625143  1
  F  F57  1  0.88596439  0.05227159  0.29625143  1
  F  F58  1  0.33333333  0.66666667  0.00000000  1
  F  F59  1  0.79112279  0.90005626  0.38098932  1
  F  F60  1  0.09994374  0.89106653  0.38098932  1
  F  F61  1  0.10893347  0.20887721  0.38098932  1
  F  F62  1  0.09994374  0.20887721  0.61901068  1
  F  F63  1  0.10893347  0.90005626  0.61901068  1
  F  F64  1  0.79112279  0.89106653  0.61901068  1
  F  F65  1  0.66666667  0.33333333  0.00000000  1
  F  F66  1  0.89675628  0.01044556  0.08902182  1
  F  F67  1  0.98955444  0.88631073  0.08902182  1
  F  F68  1  0.11368927  0.10324372  0.08902182  1
  F  F69  1  0.98955444  0.10324372  0.91097818  1
  F  F70  1  0.11368927  0.01044556  0.91097818  1
  F  F71  1  0.89675628  0.88631073  0.91097818  1
  Li  Li72  1  0.73296791  0.26703209  0.50000000  1
  Li  Li73  1  0.73296791  0.46593581  0.50000000  1
  Li  Li74  1  0.53406419  0.26703209  0.50000000  1
  Li  Li75  1  0.47086630  0.52913370  -0.00000000  1
  Li  Li76  1  0.47086630  0.94173259  -0.00000000  1
  Li  Li77  1  0.05826741  0.52913370  -0.00000000  1
  Li  Li78  1  0.56728673  0.43271327  -0.00000000  1
  Li  Li79  1  0.56728673  0.13457345  -0.00000000  1
  Li  Li80  1  0.86542655  0.43271327  -0.00000000  1
  Li  Li81  1  0.28884828  0.26274457  0.19790229  1
  Li  Li82  1  0.73725543  0.02610371  0.19790229  1
  Li  Li83  1  0.97389629  0.71115172  0.19790229  1
  Li  Li84  1  0.73725543  0.71115172  0.80209771  1
  Li  Li85  1  0.97389629  0.26274457  0.80209771  1
  Li  Li86  1  0.28884828  0.02610371  0.80209771  1
  Li  Li87  1  0.13163343  0.86836657  -0.00000000  1
  Li  Li88  1  0.13163343  0.26326685  -0.00000000  1
  Li  Li89  1  0.73673315  0.86836657  -0.00000000  1
