# generated using pymatgen
data_LiF
_symmetry_space_group_name_H-M   'P 1'
_cell_length_a   12.90709853
_cell_length_b   12.90709853
_cell_length_c   3.58719663
_cell_angle_alpha   90.00000000
_cell_angle_beta   90.00000000
_cell_angle_gamma   120.00000000
_symmetry_Int_Tables_number   1
_chemical_formula_structural   LiF
_chemical_formula_sum   'Li25 F25'
_cell_volume   517.53898009
_cell_formula_units_Z   25
loop_
 _symmetry_equiv_pos_site_id
 _symmetry_equiv_pos_as_xyz
  1  'x, y, z'
loop_
 _atom_site_type_symbol
 _atom_site_label
 _atom_site_symmetry_multiplicity
 _atom_site_fract_x
 _atom_site_fract_y
 _atom_site_fract_z
 _atom_site_occupancy
  F  F0  1  0.45248656  0.54751344  0.00000000  1
  F  F1  1  0.45248656  0.90497311  0.00000000  1
  F  F2  1  0.09502689  0.54751344  0.00000000  1
  F  F3  1  0.56165834  0.43834166  0.00000000  1
  F  F4  1  0.56165834  0.12331668  0.00000000  1
  F  F5  1  0.87668332  0.43834166  -0.00000000  1
  F  F6  1  0.17870786  0.52208518  0.41900377  1
  F  F7  1  0.47791482  0.65662268  0.41900377  1
  F  F8  1  0.34337732  0.82129214  0.41900377  1
  F  F9  1  0.47791482  0.82129214  0.58099623  1
  F  F10  1  0.34337732  0.52208518  0.58099623  1
  F  F11  1  0.17870786  0.65662268  0.58099623  1
  F  F12  1  0.33333333  0.66666667  0.00000000  1
  F  F13  1  0.46154462  0.00690616  0.21312246  1
  F  F14  1  0.99309384  0.45463847  0.21312246  1
  F  F15  1  0.54536153  0.53845538  0.21312246  1
  F  F16  1  0.99309384  0.53845538  0.78687754  1
  F  F17  1  0.54536153  0.00690616  0.78687754  1
  F  F18  1  0.46154462  0.45463847  0.78687754  1
  F  F19  1  0.99636754  0.14926589  0.58514877  1
  F  F20  1  0.85073411  0.84710165  0.58514877  1
  F  F21  1  0.15289835  0.00363246  0.58514877  1
  F  F22  1  0.85073411  0.00363246  0.41485123  1
  F  F23  1  0.15289835  0.14926589  0.41485123  1
  F  F24  1  0.99636754  0.84710165  0.41485123  1
  Li  Li25  1  0.82594564  0.10856169  0.26938305  1
  Li  Li26  1  -0.10856169  0.71738395  0.26938305  1
  Li  Li27  1  -0.71738395  -0.82594564  0.26938305  1
  Li  Li28  1  -0.10856169  -0.82594564  -0.26938305  1
  Li  Li29  1  -0.71738395  0.10856169  -0.26938305  1
  Li  Li30  1  0.82594564  0.71738395  -0.26938305  1
  Li  Li31  1  0.96721666  0.64312517  0.43560441  1
  Li  Li32  1  0.35687483  0.32409149  0.43560441  1
  Li  Li33  1  0.67590851  0.03278334  0.43560441  1
  Li  Li34  1  0.35687483  0.03278334  0.56439559  1
  Li  Li35  1  0.67590851  0.64312517  0.56439559  1
  Li  Li36  1  0.96721666  0.32409149  0.56439559  1
  Li  Li37  1  0.00000000  0.00000000  0.50000000  1
  Li  Li38  1  0.66666667  0.33333333  0.50000000  1
  Li  Li39  1  0.34565763  0.82921035  0.93557022  1
  Li  Li40  1  0.17078965  0.51644728  0.93557022  1
  Li  Li41  1  0.48355272  0.65434237  0.93557022  1
  Li  Li42  1  0.17078965  0.65434237  0.06442978  1
  Li  Li43  1  0.48355272  0.82921035  0.06442978  1
  Li  Li44  1  0.34565763  0.51644728  0.06442978  1
  Li  Li45  1  0.60899784  0.39100216  0.50000000  1
  Li  Li46  1  0.60899784  0.21799568  0.50000000  1
  Li  Li47  1  0.78200432  0.39100216  0.50000000  1
  Li  Li48  1  0.00000000  0.00000000  0.00000000  1
  Li  Li49  1  0.66666667  0.33333333  0.00000000  1
