# generated using pymatgen
data_LiY2Te4MoP3
_symmetry_space_group_name_H-M   'P 1'
_cell_length_a   5.09905602
_cell_length_b   5.22651314
_cell_length_c   7.17651858
_cell_angle_alpha   94.90352495
_cell_angle_beta   100.67885791
_cell_angle_gamma   109.69551083
_symmetry_Int_Tables_number   1
_chemical_formula_structural   LiY2Te4MoP3
_chemical_formula_sum   'Li1 Y2 Te4 Mo1 P3'
_cell_volume   174.67214148
_cell_formula_units_Z   1
loop_
 _symmetry_equiv_pos_site_id
 _symmetry_equiv_pos_as_xyz
  1  'x, y, z'
loop_
 _atom_site_type_symbol
 _atom_site_label
 _atom_site_symmetry_multiplicity
 _atom_site_fract_x
 _atom_site_fract_y
 _atom_site_fract_z
 _atom_site_occupancy
  Te  Te0  1  0.00000000  0.00000000  0.00000000  1
  Te  Te1  1  0.50000000  0.50000000  0.50000000  1
  Te  Te2  1  0.50000000  0.50000000  0.00000000  1
  Te  Te3  1  0.50000000  0.00000000  0.50000000  1
  Y  Y4  1  0.00000000  0.50000000  0.50000000  1
  Y  Y5  1  0.59804142  0.03976537  0.77236814  1
  P  P6  1  0.31764654  0.44087161  0.71493422  1
  P  P7  1  0.92644188  0.97757190  0.94241328  1
  P  P8  1  0.76160735  0.62033741  0.39478945  1
  Mo  Mo9  1  0.91240045  0.64628696  0.57682544  1
  Li  Li10  1  0.04506750  0.77705514  0.68718267  1
