# generated using pymatgen
data_Li4LaScOF
_symmetry_space_group_name_H-M   'P 1'
_cell_length_a   3.29587948
_cell_length_b   2.85565651
_cell_length_c   5.74964388
_cell_angle_alpha   113.63127921
_cell_angle_beta   107.09096705
_cell_angle_gamma   98.70839871
_symmetry_Int_Tables_number   1
_chemical_formula_structural   Li4LaScOF
_chemical_formula_sum   'Li4 La1 Sc1 O1 F1'
_cell_volume   45.09289925
_cell_formula_units_Z   1
loop_
 _symmetry_equiv_pos_site_id
 _symmetry_equiv_pos_as_xyz
  1  'x, y, z'
loop_
 _atom_site_type_symbol
 _atom_site_label
 _atom_site_symmetry_multiplicity
 _atom_site_fract_x
 _atom_site_fract_y
 _atom_site_fract_z
 _atom_site_occupancy
  F  F0  1  0.00000000  0.00000000  0.00000000  1
  Li  Li1  1  0.50000000  0.50000000  0.50000000  1
  Li  Li2  1  0.25000000  0.25000000  0.25000000  1
  Li  Li3  1  0.75000000  0.25000000  0.00000000  1
  Li  Li4  1  0.25000000  0.75000000  0.50000000  1
  O  O5  1  0.36499704  0.33899269  0.55546116  1
  Sc  Sc6  1  0.52982566  0.11853338  0.08595548  1
  La  La7  1  0.01549822  0.11647734  0.12784117  1
