# generated using pymatgen
data_Li2Y2Mo(PSe)2
_symmetry_space_group_name_H-M   'P 1'
_cell_length_a   5.53543300
_cell_length_b   5.70433136
_cell_length_c   7.24202265
_cell_angle_alpha   93.79898738
_cell_angle_beta   98.27340472
_cell_angle_gamma   105.25902243
_symmetry_Int_Tables_number   1
_chemical_formula_structural   Li2Y2Mo(PSe)2
_chemical_formula_sum   'Li2 Y2 Mo1 P2 Se2'
_cell_volume   217.01363528
_cell_formula_units_Z   1
loop_
 _symmetry_equiv_pos_site_id
 _symmetry_equiv_pos_as_xyz
  1  'x, y, z'
loop_
 _atom_site_type_symbol
 _atom_site_label
 _atom_site_symmetry_multiplicity
 _atom_site_fract_x
 _atom_site_fract_y
 _atom_site_fract_z
 _atom_site_occupancy
  Y  Y0  1  0.12500000  0.00000000  0.25000000  1
  Y  Y1  1  0.00000000  0.00000000  0.00000000  1
  P  P2  1  0.37500000  0.00000000  0.25000000  1
  P  P3  1  0.25000000  0.25000000  0.25000000  1
  Mo  Mo4  1  0.00000000  0.25000000  0.12500000  1
  Se  Se5  1  0.69396267  0.93262939  0.93964237  1
  Se  Se6  1  0.74078537  0.92292339  0.61050530  1
  Li  Li7  1  0.84273111  0.11418982  0.74007888  1
  Li  Li8  1  0.43746090  0.07602067  0.98474256  1
