# generated using pymatgen
data_LiF
_symmetry_space_group_name_H-M   'P 1'
_cell_length_a   7.49994483
_cell_length_b   7.49994483
_cell_length_c   17.57843478
_cell_angle_alpha   90.00000000
_cell_angle_beta   90.00000000
_cell_angle_gamma   90.00000000
_symmetry_Int_Tables_number   1
_chemical_formula_structural   LiF
_chemical_formula_sum   'Li36 F36'
_cell_volume   988.77240877
_cell_formula_units_Z   36
loop_
 _symmetry_equiv_pos_site_id
 _symmetry_equiv_pos_as_xyz
  1  'x, y, z'
loop_
 _atom_site_type_symbol
 _atom_site_label
 _atom_site_symmetry_multiplicity
 _atom_site_fract_x
 _atom_site_fract_y
 _atom_site_fract_z
 _atom_site_occupancy
  F  F0  1  0.29444713  0.49432324  0.92389762  1
  F  F1  1  0.20555287  -0.49432324  1.42389762  1
  F  F2  1  -0.24432324  1.04444713  1.17389762  1
  F  F3  1  0.74432324  -0.04444713  1.67389762  1
  F  F4  1  0.20555287  0.49432324  -0.42389762  1
  F  F5  1  0.29444713  -0.49432324  -0.92389762  1
  F  F6  1  0.74432324  1.04444713  -0.67389762  1
  F  F7  1  -0.24432324  -0.04444713  -0.17389762  1
  F  F8  1  -0.29444713  -0.49432324  -0.92389762  1
  F  F9  1  0.79444713  0.49432324  -0.42389762  1
  F  F10  1  1.24432324  -0.04444713  -0.17389762  1
  F  F11  1  0.25567676  1.04444713  -0.67389762  1
  F  F12  1  0.79444713  -0.49432324  1.42389762  1
  F  F13  1  -0.29444713  0.49432324  0.92389762  1
  F  F14  1  0.25567676  -0.04444713  1.67389762  1
  F  F15  1  1.24432324  1.04444713  1.17389762  1
  F  F16  1  0.79444713  0.99432324  1.42389762  1
  F  F17  1  0.70555287  0.00567676  1.92389762  1
  F  F18  1  0.25567676  1.54444713  1.67389762  1
  F  F19  1  1.24432324  0.45555287  2.17389762  1
  F  F20  1  0.70555287  0.99432324  0.07610238  1
  F  F21  1  0.79444713  0.00567676  -0.42389762  1
  F  F22  1  1.24432324  1.54444713  -0.17389762  1
  F  F23  1  0.25567676  0.45555287  0.32610238  1
  F  F24  1  0.20555287  0.00567676  -0.42389762  1
  F  F25  1  1.29444713  0.99432324  0.07610238  1
  F  F26  1  1.74432324  0.45555287  0.32610238  1
  F  F27  1  0.75567676  1.54444713  -0.17389762  1
  F  F28  1  1.29444713  0.00567676  1.92389762  1
  F  F29  1  0.20555287  0.99432324  1.42389762  1
  F  F30  1  0.75567676  0.45555287  2.17389762  1
  F  F31  1  1.74432324  1.54444713  1.67389762  1
  F  F32  1  0.00000000  0.75000000  0.12500000  1
  F  F33  1  0.50000000  0.75000000  0.37500000  1
  F  F34  1  0.50000000  0.25000000  0.62500000  1
  F  F35  1  0.00000000  0.25000000  0.87500000  1
  Li  Li36  1  0.00000000  0.25000000  0.78872640  1
  Li  Li37  1  0.00000000  0.75000000  0.03872640  1
  Li  Li38  1  0.50000000  0.25000000  0.71127360  1
  Li  Li39  1  0.50000000  0.75000000  0.46127360  1
  Li  Li40  1  0.50000000  0.75000000  0.28872640  1
  Li  Li41  1  0.50000000  0.25000000  0.53872640  1
  Li  Li42  1  0.00000000  0.75000000  0.21127360  1
  Li  Li43  1  0.00000000  0.25000000  0.96127360  1
  Li  Li44  1  0.00000000  0.25000000  0.37500000  1
  Li  Li45  1  0.00000000  0.75000000  0.62500000  1
  Li  Li46  1  0.50000000  0.75000000  0.87500000  1
  Li  Li47  1  0.50000000  0.25000000  0.12500000  1
  Li  Li48  1  0.00000000  0.00000000  0.50000000  1
  Li  Li49  1  0.50000000  0.00000000  0.00000000  1
  Li  Li50  1  0.25000000  0.75000000  0.75000000  1
  Li  Li51  1  0.25000000  0.25000000  0.25000000  1
  Li  Li52  1  0.50000000  0.50000000  -0.00000000  1
  Li  Li53  1  0.00000000  0.50000000  0.50000000  1
  Li  Li54  1  0.75000000  0.25000000  0.25000000  1
  Li  Li55  1  0.75000000  0.75000000  0.75000000  1
  Li  Li56  1  0.81137892  0.00000000  0.00000000  1
  Li  Li57  1  0.68862108  0.00000000  0.50000000  1
  Li  Li58  1  0.25000000  0.56137892  0.25000000  1
  Li  Li59  1  0.25000000  0.43862108  0.75000000  1
  Li  Li60  1  0.18862108  0.00000000  0.00000000  1
  Li  Li61  1  0.31137892  0.00000000  0.50000000  1
  Li  Li62  1  0.75000000  0.43862108  0.75000000  1
  Li  Li63  1  0.75000000  0.56137892  0.25000000  1
  Li  Li64  1  0.31137892  0.50000000  0.50000000  1
  Li  Li65  1  0.18862108  0.50000000  -0.00000000  1
  Li  Li66  1  0.75000000  0.06137892  0.75000000  1
  Li  Li67  1  0.75000000  0.93862108  0.25000000  1
  Li  Li68  1  0.68862108  0.50000000  0.50000000  1
  Li  Li69  1  0.81137892  0.50000000  -0.00000000  1
  Li  Li70  1  0.25000000  0.93862108  0.25000000  1
  Li  Li71  1  0.25000000  0.06137892  0.75000000  1
