# generated using pymatgen
data_Li2As2P3Se
_symmetry_space_group_name_H-M   'P 1'
_cell_length_a   4.95840592
_cell_length_b   5.00883636
_cell_length_c   7.09675753
_cell_angle_alpha   94.75391218
_cell_angle_beta   99.77986358
_cell_angle_gamma   108.19569541
_symmetry_Int_Tables_number   1
_chemical_formula_structural   Li2As2P3Se
_chemical_formula_sum   'Li2 As2 P3 Se1'
_cell_volume   163.25890361
_cell_formula_units_Z   1
loop_
 _symmetry_equiv_pos_site_id
 _symmetry_equiv_pos_as_xyz
  1  'x, y, z'
loop_
 _atom_site_type_symbol
 _atom_site_label
 _atom_site_symmetry_multiplicity
 _atom_site_fract_x
 _atom_site_fract_y
 _atom_site_fract_z
 _atom_site_occupancy
  Se  Se0  1  0.00000000  0.00000000  0.00000000  1
  P  P1  1  0.50000000  0.50000000  0.50000000  1
  P  P2  1  0.25000000  0.25000000  0.25000000  1
  P  P3  1  0.75000000  0.25000000  0.00000000  1
  As  As4  1  0.25000000  0.75000000  0.50000000  1
  As  As5  1  0.20623824  0.08539074  0.83149399  1
  Li  Li6  1  0.42491166  0.14446435  0.59760139  1
  Li  Li7  1  0.35826941  0.63493933  0.27866976  1
