# generated using pymatgen
data_LiY2As2P3
_symmetry_space_group_name_H-M   'P 1'
_cell_length_a   5.22845760
_cell_length_b   5.13462155
_cell_length_c   7.42660034
_cell_angle_alpha   94.55477687
_cell_angle_beta   99.91935710
_cell_angle_gamma   108.29472841
_symmetry_Int_Tables_number   1
_chemical_formula_structural   LiY2As2P3
_chemical_formula_sum   'Li1 Y2 As2 P3'
_cell_volume   184.55926769
_cell_formula_units_Z   1
loop_
 _symmetry_equiv_pos_site_id
 _symmetry_equiv_pos_as_xyz
  1  'x, y, z'
loop_
 _atom_site_type_symbol
 _atom_site_label
 _atom_site_symmetry_multiplicity
 _atom_site_fract_x
 _atom_site_fract_y
 _atom_site_fract_z
 _atom_site_occupancy
  Y  Y0  1  0.12500000  0.00000000  0.25000000  1
  Y  Y1  1  0.00000000  0.00000000  0.00000000  1
  P  P2  1  0.37500000  0.00000000  0.25000000  1
  P  P3  1  0.25000000  0.25000000  0.25000000  1
  P  P4  1  0.00000000  0.25000000  0.12500000  1
  As  As5  1  0.86678352  0.22543019  0.69403010  1
  As  As6  1  0.78102981  0.79752961  0.71340499  1
  Li  Li7  1  0.58725531  0.30828057  0.81280458  1
