# generated using pymatgen
data_Li2YAs(PPb)2
_symmetry_space_group_name_H-M   'P 1'
_cell_length_a   5.53681586
_cell_length_b   5.52302838
_cell_length_c   7.39354629
_cell_angle_alpha   95.13819622
_cell_angle_beta   100.34284676
_cell_angle_gamma   106.52157529
_symmetry_Int_Tables_number   1
_chemical_formula_structural   Li2YAs(PPb)2
_chemical_formula_sum   'Li2 Y1 As1 P2 Pb2'
_cell_volume   210.85431688
_cell_formula_units_Z   1
loop_
 _symmetry_equiv_pos_site_id
 _symmetry_equiv_pos_as_xyz
  1  'x, y, z'
loop_
 _atom_site_type_symbol
 _atom_site_label
 _atom_site_symmetry_multiplicity
 _atom_site_fract_x
 _atom_site_fract_y
 _atom_site_fract_z
 _atom_site_occupancy
  Pb  Pb0  1  0.12500000  0.00000000  0.25000000  1
  Pb  Pb1  1  0.00000000  0.00000000  0.00000000  1
  P  P2  1  0.37500000  0.00000000  0.25000000  1
  P  P3  1  0.25000000  0.25000000  0.25000000  1
  As  As4  1  0.00000000  0.25000000  0.12500000  1
  Li  Li5  1  0.69907018  0.04761017  0.94004338  1
  Li  Li6  1  0.98451318  0.75212109  0.07881873  1
  Y  Y7  1  0.01367660  0.31148635  0.39047531  1
