# generated using pymatgen
data_LiF
_symmetry_space_group_name_H-M   'P 1'
_cell_length_a   11.96959141
_cell_length_b   11.96959141
_cell_length_c   10.00582027
_cell_angle_alpha   90.00000000
_cell_angle_beta   90.00000000
_cell_angle_gamma   120.00000000
_symmetry_Int_Tables_number   1
_chemical_formula_structural   LiF
_chemical_formula_sum   'Li42 F42'
_cell_volume   1241.48644208
_cell_formula_units_Z   42
loop_
 _symmetry_equiv_pos_site_id
 _symmetry_equiv_pos_as_xyz
  1  'x, y, z'
loop_
 _atom_site_type_symbol
 _atom_site_label
 _atom_site_symmetry_multiplicity
 _atom_site_fract_x
 _atom_site_fract_y
 _atom_site_fract_z
 _atom_site_occupancy
  F  F0  1  0.23448857  0.55615798  0.66813227  1
  F  F1  1  0.44384202  0.67833059  0.66813227  1
  F  F2  1  0.32166941  0.76551143  0.66813227  1
  F  F3  1  0.76551143  0.44384202  0.16813227  1
  F  F4  1  0.55615798  0.32166941  0.16813227  1
  F  F5  1  0.67833059  0.23448857  0.16813227  1
  F  F6  1  0.76551143  0.44384202  0.33186773  1
  F  F7  1  0.55615798  0.32166941  0.33186773  1
  F  F8  1  0.67833059  0.23448857  0.33186773  1
  F  F9  1  0.23448857  0.55615798  0.83186773  1
  F  F10  1  0.44384202  0.67833059  0.83186773  1
  F  F11  1  0.32166941  0.76551143  0.83186773  1
  F  F12  1  0.91203161  0.87001377  0.25000000  1
  F  F13  1  0.12998623  0.04201784  0.25000000  1
  F  F14  1  0.95798216  0.08796839  0.25000000  1
  F  F15  1  0.08796839  0.12998623  0.75000000  1
  F  F16  1  0.87001377  0.95798216  0.75000000  1
  F  F17  1  0.04201784  0.91203161  0.75000000  1
  F  F18  1  0.21946908  0.27743689  0.55682696  1
  F  F19  1  0.72256311  0.94203219  0.55682696  1
  F  F20  1  0.05796781  0.78053092  0.55682696  1
  F  F21  1  0.78053092  0.72256311  0.05682696  1
  F  F22  1  0.27743689  0.05796781  0.05682696  1
  F  F23  1  0.94203219  0.21946908  0.05682696  1
  F  F24  1  0.78053092  0.72256311  0.44317304  1
  F  F25  1  0.27743689  0.05796781  0.44317304  1
  F  F26  1  0.94203219  0.21946908  0.44317304  1
  F  F27  1  0.21946908  0.27743689  0.94317304  1
  F  F28  1  0.72256311  0.94203219  0.94317304  1
  F  F29  1  0.05796781  0.78053092  0.94317304  1
  F  F30  1  0.50000000  0.00000000  0.00000000  1
  F  F31  1  0.00000000  0.50000000  0.00000000  1
  F  F32  1  0.50000000  0.50000000  0.00000000  1
  F  F33  1  0.50000000  0.00000000  0.50000000  1
  F  F34  1  0.00000000  0.50000000  0.50000000  1
  F  F35  1  0.50000000  0.50000000  0.50000000  1
  F  F36  1  0.60680718  0.94513779  0.25000000  1
  F  F37  1  0.05486221  0.66166939  0.25000000  1
  F  F38  1  0.33833061  0.39319282  0.25000000  1
  F  F39  1  0.39319282  0.05486221  0.75000000  1
  F  F40  1  0.94513779  0.33833061  0.75000000  1
  F  F41  1  0.66166939  0.60680718  0.75000000  1
  Li  Li42  1  0.33333333  0.66666667  0.25000000  1
  Li  Li43  1  0.66666667  0.33333333  0.75000000  1
  Li  Li44  1  0.33333333  0.66666667  0.85143977  1
  Li  Li45  1  0.66666667  0.33333333  0.35143977  1
  Li  Li46  1  0.66666667  0.33333333  0.14856023  1
  Li  Li47  1  0.33333333  0.66666667  0.64856023  1
  Li  Li48  1  0.66213202  0.73404337  0.25000000  1
  Li  Li49  1  0.26595663  0.92808864  0.25000000  1
  Li  Li50  1  0.07191136  0.33786798  0.25000000  1
  Li  Li51  1  0.33786798  0.26595663  0.75000000  1
  Li  Li52  1  0.73404337  0.07191136  0.75000000  1
  Li  Li53  1  0.92808864  0.66213202  0.75000000  1
  Li  Li54  1  0.00000000  0.00000000  0.00000000  1
  Li  Li55  1  0.00000000  0.00000000  0.50000000  1
  Li  Li56  1  0.40562581  0.60172983  0.95539484  1
  Li  Li57  1  -0.60172983  -0.19610402  0.95539484  1
  Li  Li58  1  0.19610402  -0.40562581  0.95539484  1
  Li  Li59  1  -0.40562581  -0.60172983  1.45539484  1
  Li  Li60  1  0.60172983  0.19610402  1.45539484  1
  Li  Li61  1  -0.19610402  0.40562581  1.45539484  1
  Li  Li62  1  -0.40562581  -0.60172983  -0.95539484  1
  Li  Li63  1  0.60172983  0.19610402  -0.95539484  1
  Li  Li64  1  -0.19610402  0.40562581  -0.95539484  1
  Li  Li65  1  0.40562581  0.60172983  -0.45539484  1
  Li  Li66  1  -0.60172983  -0.19610402  -0.45539484  1
  Li  Li67  1  0.19610402  -0.40562581  -0.45539484  1
  Li  Li68  1  0.83403397  0.54429637  0.00980249  1
  Li  Li69  1  0.45570363  0.28973760  0.00980249  1
  Li  Li70  1  0.71026240  0.16596603  0.00980249  1
  Li  Li71  1  0.16596603  0.45570363  0.50980249  1
  Li  Li72  1  0.54429637  0.71026240  0.50980249  1
  Li  Li73  1  0.28973760  0.83403397  0.50980249  1
  Li  Li74  1  0.16596603  0.45570363  0.99019751  1
  Li  Li75  1  0.54429637  0.71026240  0.99019751  1
  Li  Li76  1  0.28973760  0.83403397  0.99019751  1
  Li  Li77  1  0.83403397  0.54429637  0.49019751  1
  Li  Li78  1  0.45570363  0.28973760  0.49019751  1
  Li  Li79  1  0.71026240  0.16596603  0.49019751  1
  Li  Li80  1  0.33333333  0.66666667  0.98070031  1
  Li  Li81  1  0.66666667  0.33333333  0.48070031  1
  Li  Li82  1  0.66666667  0.33333333  0.01929969  1
  Li  Li83  1  0.33333333  0.66666667  0.51929969  1
