# generated using pymatgen
data_LiF
_symmetry_space_group_name_H-M   'P 1'
_cell_length_a   9.43134642
_cell_length_b   9.43134642
_cell_length_c   8.31688808
_cell_angle_alpha   90.00000000
_cell_angle_beta   90.00000000
_cell_angle_gamma   120.00000000
_symmetry_Int_Tables_number   1
_chemical_formula_structural   LiF
_chemical_formula_sum   'Li18 F18'
_cell_volume   640.67663089
_cell_formula_units_Z   18
loop_
 _symmetry_equiv_pos_site_id
 _symmetry_equiv_pos_as_xyz
  1  'x, y, z'
loop_
 _atom_site_type_symbol
 _atom_site_label
 _atom_site_symmetry_multiplicity
 _atom_site_fract_x
 _atom_site_fract_y
 _atom_site_fract_z
 _atom_site_occupancy
  F  F0  1  0.88006208  0.20108871  0.25418616  1
  F  F1  1  0.79891129  0.67897337  0.25418616  1
  F  F2  1  0.32102663  0.11993792  0.25418616  1
  F  F3  1  0.79891129  0.11993792  0.74581384  1
  F  F4  1  0.32102663  0.20108871  0.74581384  1
  F  F5  1  0.88006208  0.67897337  0.74581384  1
  F  F6  1  0.71947199  0.28052801  0.50000000  1
  F  F7  1  0.71947199  0.43894398  0.50000000  1
  F  F8  1  0.56105602  0.28052801  0.50000000  1
  F  F9  1  0.25464663  0.36855788  0.78277540  1
  F  F10  1  0.63144212  0.88608875  0.78277540  1
  F  F11  1  0.11391125  0.74535337  0.78277540  1
  F  F12  1  0.63144212  0.74535337  0.21722460  1
  F  F13  1  0.11391125  0.36855788  0.21722460  1
  F  F14  1  0.25464663  0.88608875  0.21722460  1
  F  F15  1  0.00000000  0.00000000  0.00000000  1
  F  F16  1  0.00000000  0.00000000  0.70590437  1
  F  F17  1  0.00000000  0.00000000  0.29409563  1
  Li  Li18  1  0.33333333  0.66666667  0.38584876  1
  Li  Li19  1  0.33333333  0.66666667  0.61415124  1
  Li  Li20  1  0.11643452  0.96777549  0.19269892  1
  Li  Li21  1  -0.96777549  -0.85134096  0.19269892  1
  Li  Li22  1  0.85134096  -0.11643452  0.19269892  1
  Li  Li23  1  -0.96777549  -0.11643452  -0.19269892  1
  Li  Li24  1  0.85134096  0.96777549  -0.19269892  1
  Li  Li25  1  0.11643452  -0.85134096  -0.19269892  1
  Li  Li26  1  0.00000000  0.00000000  0.86800696  1
  Li  Li27  1  0.00000000  0.00000000  0.13199304  1
  Li  Li28  1  0.28076694  0.71923306  0.00000000  1
  Li  Li29  1  0.28076694  0.56153388  0.00000000  1
  Li  Li30  1  0.43846612  0.71923306  0.00000000  1
  Li  Li31  1  0.19559220  0.80440780  0.00000000  1
  Li  Li32  1  0.19559220  0.39118440  0.00000000  1
  Li  Li33  1  0.60881560  0.80440780  0.00000000  1
  Li  Li34  1  0.66666667  0.33333333  0.41264927  1
  Li  Li35  1  0.66666667  0.33333333  0.58735073  1
