# generated using pymatgen
data_Li2TiO
_symmetry_space_group_name_H-M   'P 1'
_cell_length_a   3.74974222
_cell_length_b   4.11248794
_cell_length_c   6.54916478
_cell_angle_alpha   107.26502634
_cell_angle_beta   103.11855241
_cell_angle_gamma   96.49035704
_symmetry_Int_Tables_number   1
_chemical_formula_structural   Li2TiO
_chemical_formula_sum   'Li2 Ti1 O1'
_cell_volume   92.14179329
_cell_formula_units_Z   1
loop_
 _symmetry_equiv_pos_site_id
 _symmetry_equiv_pos_as_xyz
  1  'x, y, z'
loop_
 _atom_site_type_symbol
 _atom_site_label
 _atom_site_symmetry_multiplicity
 _atom_site_fract_x
 _atom_site_fract_y
 _atom_site_fract_z
 _atom_site_occupancy
  Li  Li0  1  0.00000000  0.00000000  0.00000000  1
  Li  Li1  1  0.33300000  0.66700000  0.25000000  1
  O  O2  1  0.66700000  0.33300000  0.50000000  1
  Ti  Ti3  1  0.00000000  0.00000000  0.75000000  1
