# generated using pymatgen
data_Li2Si4Te3F12
_symmetry_space_group_name_H-M   'P 1'
_cell_length_a   8.28700651
_cell_length_b   8.28700651
_cell_length_c   17.85809434
_cell_angle_alpha   90.00000000
_cell_angle_beta   90.00000000
_cell_angle_gamma   90.00000000
_symmetry_Int_Tables_number   1
_chemical_formula_structural   Li2Si4Te3F12
_chemical_formula_sum   'Li8 Si16 Te12 F48'
_cell_volume   1226.39528727
_cell_formula_units_Z   4
loop_
 _symmetry_equiv_pos_site_id
 _symmetry_equiv_pos_as_xyz
  1  'x, y, z'
loop_
 _atom_site_type_symbol
 _atom_site_label
 _atom_site_symmetry_multiplicity
 _atom_site_fract_x
 _atom_site_fract_y
 _atom_site_fract_z
 _atom_site_occupancy
  F  F0  1  0.12806378  0.00000000  0.00000000  1
  F  F1  1  0.37193622  0.00000000  0.50000000  1
  F  F2  1  0.25000000  0.87806378  0.25000000  1
  F  F3  1  0.25000000  0.12193622  0.75000000  1
  F  F4  1  0.87193622  0.00000000  0.00000000  1
  F  F5  1  0.62806378  0.00000000  0.50000000  1
  F  F6  1  0.75000000  0.12193622  0.75000000  1
  F  F7  1  0.75000000  0.87806378  0.25000000  1
  F  F8  1  0.62806378  0.50000000  0.50000000  1
  F  F9  1  0.87193622  0.50000000  0.00000000  1
  F  F10  1  0.75000000  0.37806378  0.75000000  1
  F  F11  1  0.75000000  0.62193622  0.25000000  1
  F  F12  1  0.37193622  0.50000000  0.50000000  1
  F  F13  1  0.12806378  0.50000000  0.00000000  1
  F  F14  1  0.25000000  0.62193622  0.25000000  1
  F  F15  1  0.25000000  0.37806378  0.75000000  1
  F  F16  1  0.15955508  0.64079898  0.62357639  1
  F  F17  1  0.34044492  -0.64079898  1.12357639  1
  F  F18  1  -0.39079898  0.90955508  0.87357639  1
  F  F19  1  0.89079898  0.09044492  1.37357639  1
  F  F20  1  0.34044492  0.64079898  -0.12357639  1
  F  F21  1  0.15955508  -0.64079898  -0.62357639  1
  F  F22  1  0.89079898  0.90955508  -0.37357639  1
  F  F23  1  -0.39079898  0.09044492  0.12642361  1
  F  F24  1  -0.15955508  -0.64079898  -0.62357639  1
  F  F25  1  0.65955508  0.64079898  -0.12357639  1
  F  F26  1  1.39079898  0.09044492  0.12642361  1
  F  F27  1  0.10920102  0.90955508  -0.37357639  1
  F  F28  1  0.65955508  -0.64079898  1.12357639  1
  F  F29  1  -0.15955508  0.64079898  0.62357639  1
  F  F30  1  0.10920102  0.09044492  1.37357639  1
  F  F31  1  1.39079898  0.90955508  0.87357639  1
  F  F32  1  0.65955508  1.14079898  1.12357639  1
  F  F33  1  0.84044492  -0.14079898  1.62357639  1
  F  F34  1  0.10920102  1.40955508  1.37357639  1
  F  F35  1  1.39079898  0.59044492  1.87357639  1
  F  F36  1  0.84044492  1.14079898  0.37642361  1
  F  F37  1  0.65955508  -0.14079898  -0.12357639  1
  F  F38  1  1.39079898  1.40955508  0.12642361  1
  F  F39  1  0.10920102  0.59044492  0.62642361  1
  F  F40  1  0.34044492  -0.14079898  -0.12357639  1
  F  F41  1  1.15955508  1.14079898  0.37642361  1
  F  F42  1  1.89079898  0.59044492  0.62642361  1
  F  F43  1  0.60920102  1.40955508  0.12642361  1
  F  F44  1  1.15955508  -0.14079898  1.62357639  1
  F  F45  1  0.34044492  1.14079898  1.12357639  1
  F  F46  1  0.60920102  0.59044492  1.87357639  1
  F  F47  1  1.89079898  1.40955508  1.37357639  1
  Li  Li48  1  0.00000000  0.25000000  0.61020893  1
  Li  Li49  1  0.00000000  0.75000000  0.86020893  1
  Li  Li50  1  0.50000000  0.25000000  0.88979107  1
  Li  Li51  1  0.50000000  0.75000000  0.63979107  1
  Li  Li52  1  0.50000000  0.75000000  0.11020893  1
  Li  Li53  1  0.50000000  0.25000000  0.36020893  1
  Li  Li54  1  0.00000000  0.75000000  0.38979107  1
  Li  Li55  1  0.00000000  0.25000000  0.13979107  1
  Si  Si56  1  0.00000000  0.25000000  0.99460272  1
  Si  Si57  1  0.00000000  0.75000000  0.24460272  1
  Si  Si58  1  0.50000000  0.25000000  0.50539728  1
  Si  Si59  1  0.50000000  0.75000000  0.25539728  1
  Si  Si60  1  0.50000000  0.75000000  0.49460272  1
  Si  Si61  1  0.50000000  0.25000000  0.74460272  1
  Si  Si62  1  0.00000000  0.75000000  0.00539728  1
  Si  Si63  1  0.00000000  0.25000000  0.75539728  1
  Si  Si64  1  0.00000000  0.00000000  0.50000000  1
  Si  Si65  1  0.50000000  0.00000000  0.00000000  1
  Si  Si66  1  0.25000000  0.75000000  0.75000000  1
  Si  Si67  1  0.25000000  0.25000000  0.25000000  1
  Si  Si68  1  0.50000000  0.50000000  0.00000000  1
  Si  Si69  1  0.00000000  0.50000000  0.50000000  1
  Si  Si70  1  0.75000000  0.25000000  0.25000000  1
  Si  Si71  1  0.75000000  0.75000000  0.75000000  1
  Te  Te72  1  0.00000000  0.00000000  0.00000000  1
  Te  Te73  1  0.50000000  0.00000000  0.50000000  1
  Te  Te74  1  0.25000000  0.75000000  0.25000000  1
  Te  Te75  1  0.25000000  0.25000000  0.75000000  1
  Te  Te76  1  0.50000000  0.50000000  0.50000000  1
  Te  Te77  1  0.00000000  0.50000000  0.00000000  1
  Te  Te78  1  0.75000000  0.25000000  0.75000000  1
  Te  Te79  1  0.75000000  0.75000000  0.25000000  1
  Te  Te80  1  0.00000000  0.25000000  0.37500000  1
  Te  Te81  1  0.00000000  0.75000000  0.62500000  1
  Te  Te82  1  0.50000000  0.75000000  0.87500000  1
  Te  Te83  1  0.50000000  0.25000000  0.12500000  1
