# generated using pymatgen
data_Li2P2Se
_symmetry_space_group_name_H-M   'P 1'
_cell_length_a   4.44246916
_cell_length_b   4.76699717
_cell_length_c   6.41345870
_cell_angle_alpha   95.21444761
_cell_angle_beta   99.30182225
_cell_angle_gamma   107.72289617
_symmetry_Int_Tables_number   1
_chemical_formula_structural   Li2P2Se
_chemical_formula_sum   'Li2 P2 Se1'
_cell_volume   126.24645625
_cell_formula_units_Z   1
loop_
 _symmetry_equiv_pos_site_id
 _symmetry_equiv_pos_as_xyz
  1  'x, y, z'
loop_
 _atom_site_type_symbol
 _atom_site_label
 _atom_site_symmetry_multiplicity
 _atom_site_fract_x
 _atom_site_fract_y
 _atom_site_fract_z
 _atom_site_occupancy
  Se  Se0  1  0.12500000  0.12500000  0.12500000  1
  P  P1  1  0.50000000  0.50000000  0.50000000  1
  P  P2  1  0.25000000  0.25000000  0.25000000  1
  Li  Li3  1  0.75000000  0.75000000  0.75000000  1
  Li  Li4  1  0.24429896  0.12408122  0.94952140  1
