# generated using pymatgen
data_Li2Y2Cu3P2Se
_symmetry_space_group_name_H-M   'P 1'
_cell_length_a   5.47451312
_cell_length_b   5.58101104
_cell_length_c   6.89170040
_cell_angle_alpha   93.86318226
_cell_angle_beta   96.97453590
_cell_angle_gamma   102.05380223
_symmetry_Int_Tables_number   1
_chemical_formula_structural   Li2Y2Cu3P2Se
_chemical_formula_sum   'Li2 Y2 Cu3 P2 Se1'
_cell_volume   203.46320704
_cell_formula_units_Z   1
loop_
 _symmetry_equiv_pos_site_id
 _symmetry_equiv_pos_as_xyz
  1  'x, y, z'
loop_
 _atom_site_type_symbol
 _atom_site_label
 _atom_site_symmetry_multiplicity
 _atom_site_fract_x
 _atom_site_fract_y
 _atom_site_fract_z
 _atom_site_occupancy
  Se  Se0  1  0.00000000  0.00000000  0.00000000  1
  Cu  Cu1  1  0.50000000  0.50000000  0.50000000  1
  Cu  Cu2  1  0.25000000  0.25000000  0.25000000  1
  Cu  Cu3  1  0.75000000  0.25000000  0.00000000  1
  P  P4  1  0.25000000  0.75000000  0.50000000  1
  P  P5  1  0.18710800  0.66558195  0.07692164  1
  Li  Li6  1  0.73594041  0.45789119  0.28203667  1
  Li  Li7  1  0.16273164  0.16913786  0.97379302  1
  Y  Y8  1  0.23254767  0.75004068  0.54503107  1
  Y  Y9  1  0.29214492  0.91381763  0.88889818  1
