# generated using pymatgen
data_LiF
_symmetry_space_group_name_H-M   'P 1'
_cell_length_a   11.74828164
_cell_length_b   11.38005480
_cell_length_c   6.54472929
_cell_angle_alpha   90.00000000
_cell_angle_beta   90.00000000
_cell_angle_gamma   90.00000000
_symmetry_Int_Tables_number   1
_chemical_formula_structural   LiF
_chemical_formula_sum   'Li36 F36'
_cell_volume   875.00470909
_cell_formula_units_Z   36
loop_
 _symmetry_equiv_pos_site_id
 _symmetry_equiv_pos_as_xyz
  1  'x, y, z'
loop_
 _atom_site_type_symbol
 _atom_site_label
 _atom_site_symmetry_multiplicity
 _atom_site_fract_x
 _atom_site_fract_y
 _atom_site_fract_z
 _atom_site_occupancy
  F  F0  1  0.62293403  0.02332928  0.60544155  1
  F  F1  1  0.87706597  0.97667072  0.10544155  1
  F  F2  1  0.37706597  0.52332928  0.39455845  1
  F  F3  1  0.12293403  0.47667072  0.89455845  1
  F  F4  1  0.37706597  0.97667072  0.39455845  1
  F  F5  1  0.12293403  0.02332928  0.89455845  1
  F  F6  1  0.62293403  0.47667072  0.60544155  1
  F  F7  1  0.87706597  0.52332928  0.10544155  1
  F  F8  1  0.57965590  0.81947535  0.45288630  1
  F  F9  1  0.92034410  0.18052465  0.95288630  1
  F  F10  1  0.42034410  0.31947535  0.54711370  1
  F  F11  1  0.07965590  0.68052465  0.04711370  1
  F  F12  1  0.42034410  0.18052465  0.54711370  1
  F  F13  1  0.07965590  0.81947535  0.04711370  1
  F  F14  1  0.57965590  0.68052465  0.45288630  1
  F  F15  1  0.92034410  0.31947535  0.95288630  1
  F  F16  1  0.53930604  0.92973229  0.74763676  1
  F  F17  1  0.96069396  0.07026771  0.24763676  1
  F  F18  1  0.46069396  0.42973229  0.25236324  1
  F  F19  1  0.03930604  0.57026771  0.75236324  1
  F  F20  1  0.46069396  0.07026771  0.25236324  1
  F  F21  1  0.03930604  0.92973229  0.75236324  1
  F  F22  1  0.53930604  0.57026771  0.74763676  1
  F  F23  1  0.96069396  0.42973229  0.24763676  1
  F  F24  1  0.31075795  0.61273311  0.75316163  1
  F  F25  1  0.18924205  0.38726689  0.25316163  1
  F  F26  1  0.68924205  0.11273311  0.24683837  1
  F  F27  1  0.81075795  0.88726689  0.74683837  1
  F  F28  1  0.68924205  0.38726689  0.24683837  1
  F  F29  1  0.81075795  0.61273311  0.74683837  1
  F  F30  1  0.31075795  0.88726689  0.75316163  1
  F  F31  1  0.18924205  0.11273311  0.25316163  1
  F  F32  1  0.00000000  0.00000000  0.00000000  1
  F  F33  1  0.50000000  0.00000000  0.50000000  1
  F  F34  1  0.00000000  0.50000000  0.00000000  1
  F  F35  1  0.50000000  0.50000000  0.50000000  1
  Li  Li36  1  0.60083347  0.16424232  0.62423471  1
  Li  Li37  1  -0.10083347  -0.16424232  1.12423471  1
  Li  Li38  1  -0.60083347  0.66424232  -0.62423471  1
  Li  Li39  1  1.10083347  0.33575768  -0.12423471  1
  Li  Li40  1  -0.60083347  -0.16424232  -0.62423471  1
  Li  Li41  1  1.10083347  0.16424232  -0.12423471  1
  Li  Li42  1  0.60083347  0.33575768  0.62423471  1
  Li  Li43  1  -0.10083347  0.66424232  1.12423471  1
  Li  Li44  1  0.54285035  0.25000000  0.80494004  1
  Li  Li45  1  0.95714965  0.75000000  0.30494004  1
  Li  Li46  1  0.45714965  0.75000000  0.19505996  1
  Li  Li47  1  0.04285035  0.25000000  0.69505996  1
  Li  Li48  1  0.00000000  0.00000000  0.50000000  1
  Li  Li49  1  0.50000000  0.00000000  0.00000000  1
  Li  Li50  1  0.00000000  0.50000000  0.50000000  1
  Li  Li51  1  0.50000000  0.50000000  0.00000000  1
  Li  Li52  1  0.89792894  0.12084598  0.41331859  1
  Li  Li53  1  0.60207106  0.87915402  0.91331859  1
  Li  Li54  1  0.10207106  0.62084598  0.58668141  1
  Li  Li55  1  0.39792894  0.37915402  0.08668141  1
  Li  Li56  1  0.10207106  0.87915402  0.58668141  1
  Li  Li57  1  0.39792894  0.12084598  0.08668141  1
  Li  Li58  1  0.89792894  0.37915402  0.41331859  1
  Li  Li59  1  0.60207106  0.62084598  0.91331859  1
  Li  Li60  1  0.07209114  0.11551992  0.30318949  1
  Li  Li61  1  0.42790886  0.88448008  0.80318949  1
  Li  Li62  1  0.92790886  0.61551992  0.69681051  1
  Li  Li63  1  0.57209114  0.38448008  0.19681051  1
  Li  Li64  1  0.92790886  0.88448008  0.69681051  1
  Li  Li65  1  0.57209114  0.11551992  0.19681051  1
  Li  Li66  1  0.07209114  0.38448008  0.30318949  1
  Li  Li67  1  0.42790886  0.61551992  0.80318949  1
  Li  Li68  1  0.86826192  0.25000000  0.76713088  1
  Li  Li69  1  0.63173808  0.75000000  0.26713088  1
  Li  Li70  1  0.13173808  0.75000000  0.23286912  1
  Li  Li71  1  0.36826192  0.25000000  0.73286912  1
