# generated using pymatgen
data_LiCaF3
_symmetry_space_group_name_H-M   'P 1'
_cell_length_a   10.75559912
_cell_length_b   10.75559912
_cell_length_c   18.63402115
_cell_angle_alpha   90.00000000
_cell_angle_beta   90.00000000
_cell_angle_gamma   120.00000000
_symmetry_Int_Tables_number   1
_chemical_formula_structural   LiCaF3
_chemical_formula_sum   'Li18 Ca18 F54'
_cell_volume   1866.83712805
_cell_formula_units_Z   18
loop_
 _symmetry_equiv_pos_site_id
 _symmetry_equiv_pos_as_xyz
  1  'x, y, z'
loop_
 _atom_site_type_symbol
 _atom_site_label
 _atom_site_symmetry_multiplicity
 _atom_site_fract_x
 _atom_site_fract_y
 _atom_site_fract_z
 _atom_site_occupancy
  Ca  Ca0  1  0.61796366  0.50570244  0.17265895  1
  Ca  Ca1  1  -0.50570244  0.11226123  0.17265895  1
  Ca  Ca2  1  -0.11226123  -0.61796366  0.17265895  1
  Ca  Ca3  1  0.61796366  0.50570244  -0.17265895  1
  Ca  Ca4  1  -0.50570244  0.11226123  -0.17265895  1
  Ca  Ca5  1  -0.11226123  -0.61796366  -0.17265895  1
  Ca  Ca6  1  0.50570244  0.61796366  -0.17265895  1
  Ca  Ca7  1  0.11226123  -0.50570244  -0.17265895  1
  Ca  Ca8  1  -0.61796366  -0.11226123  -0.17265895  1
  Ca  Ca9  1  0.50570244  0.61796366  0.17265895  1
  Ca  Ca10  1  0.11226123  -0.50570244  0.17265895  1
  Ca  Ca11  1  -0.61796366  -0.11226123  0.17265895  1
  Ca  Ca12  1  0.00000000  0.00000000  0.69413850  1
  Ca  Ca13  1  0.00000000  0.00000000  0.30586150  1
  Ca  Ca14  1  0.33333333  0.66666667  0.78262900  1
  Ca  Ca15  1  0.33333333  0.66666667  0.21737100  1
  Ca  Ca16  1  0.66666667  0.33333333  0.21737100  1
  Ca  Ca17  1  0.66666667  0.33333333  0.78262900  1
  F  F18  1  0.00000000  0.00000000  0.50000000  1
  F  F19  1  0.70559642  0.00000000  0.50000000  1
  F  F20  1  0.00000000  0.70559642  0.50000000  1
  F  F21  1  0.29440358  0.29440358  0.50000000  1
  F  F22  1  0.00000000  0.00000000  0.97192317  1
  F  F23  1  0.00000000  0.00000000  0.02807683  1
  F  F24  1  0.33333333  0.66666667  0.45101174  1
  F  F25  1  0.33333333  0.66666667  0.54898826  1
  F  F26  1  0.66666667  0.33333333  0.54898826  1
  F  F27  1  0.66666667  0.33333333  0.45101174  1
  F  F28  1  0.28336999  0.73250381  0.00000000  1
  F  F29  1  0.26749619  0.55086618  0.00000000  1
  F  F30  1  0.44913382  0.71663001  -0.00000000  1
  F  F31  1  0.73250381  0.28336999  0.00000000  1
  F  F32  1  0.55086618  0.26749619  0.00000000  1
  F  F33  1  0.71663001  0.44913382  -0.00000000  1
  F  F34  1  0.24292224  0.34184788  0.60715312  1
  F  F35  1  0.65815212  0.90107436  0.60715312  1
  F  F36  1  0.09892564  0.75707776  0.60715312  1
  F  F37  1  0.24292224  0.34184788  0.39284688  1
  F  F38  1  0.65815212  0.90107436  0.39284688  1
  F  F39  1  0.09892564  0.75707776  0.39284688  1
  F  F40  1  0.34184788  0.24292224  0.39284688  1
  F  F41  1  0.90107436  0.65815212  0.39284688  1
  F  F42  1  0.75707776  0.09892564  0.39284688  1
  F  F43  1  0.34184788  0.24292224  0.60715312  1
  F  F44  1  0.90107436  0.65815212  0.60715312  1
  F  F45  1  0.75707776  0.09892564  0.60715312  1
  F  F46  1  0.81763049  0.00000000  0.96258643  1
  F  F47  1  0.00000000  0.81763049  0.96258643  1
  F  F48  1  0.18236951  0.18236951  0.96258643  1
  F  F49  1  0.81763049  0.00000000  0.03741357  1
  F  F50  1  0.00000000  0.81763049  0.03741357  1
  F  F51  1  0.18236951  0.18236951  0.03741357  1
  F  F52  1  0.47859542  0.00000000  0.44483354  1
  F  F53  1  0.00000000  0.47859542  0.44483354  1
  F  F54  1  0.52140458  0.52140458  0.44483354  1
  F  F55  1  0.47859542  0.00000000  0.55516646  1
  F  F56  1  0.00000000  0.47859542  0.55516646  1
  F  F57  1  0.52140458  0.52140458  0.55516646  1
  F  F58  1  0.88369337  0.62113398  0.74199524  1
  F  F59  1  0.37886602  0.26255939  0.74199524  1
  F  F60  1  0.73744061  0.11630663  0.74199524  1
  F  F61  1  0.88369337  0.62113398  0.25800476  1
  F  F62  1  0.37886602  0.26255939  0.25800476  1
  F  F63  1  0.73744061  0.11630663  0.25800476  1
  F  F64  1  0.62113398  0.88369337  0.25800476  1
  F  F65  1  0.26255939  0.37886602  0.25800476  1
  F  F66  1  0.11630663  0.73744061  0.25800476  1
  F  F67  1  0.62113398  0.88369337  0.74199524  1
  F  F68  1  0.26255939  0.37886602  0.74199524  1
  F  F69  1  0.11630663  0.73744061  0.74199524  1
  F  F70  1  0.33333333  0.66666667  0.50000000  1
  F  F71  1  0.66666667  0.33333333  0.50000000  1
  Li  Li72  1  0.76195539  0.00000000  0.31835637  1
  Li  Li73  1  0.00000000  0.76195539  0.31835637  1
  Li  Li74  1  0.23804461  0.23804461  0.31835637  1
  Li  Li75  1  0.76195539  0.00000000  0.68164363  1
  Li  Li76  1  0.00000000  0.76195539  0.68164363  1
  Li  Li77  1  0.23804461  0.23804461  0.68164363  1
  Li  Li78  1  0.52149084  0.00000000  0.50000000  1
  Li  Li79  1  0.00000000  0.52149084  0.50000000  1
  Li  Li80  1  0.47850916  0.47850916  0.50000000  1
  Li  Li81  1  0.72256360  0.00000000  0.04226477  1
  Li  Li82  1  0.00000000  0.72256360  0.04226477  1
  Li  Li83  1  0.27743640  0.27743640  0.04226477  1
  Li  Li84  1  0.72256360  0.00000000  0.95773523  1
  Li  Li85  1  0.00000000  0.72256360  0.95773523  1
  Li  Li86  1  0.27743640  0.27743640  0.95773523  1
  Li  Li87  1  0.39481369  0.00000000  0.50000000  1
  Li  Li88  1  0.00000000  0.39481369  0.50000000  1
  Li  Li89  1  0.60518631  0.60518631  0.50000000  1
