# generated using pymatgen
data_Li3Y2(SbP)2
_symmetry_space_group_name_H-M   'P 1'
_cell_length_a   4.87826147
_cell_length_b   4.94970830
_cell_length_c   6.95466453
_cell_angle_alpha   94.91696851
_cell_angle_beta   100.70813520
_cell_angle_gamma   109.74950829
_symmetry_Int_Tables_number   1
_chemical_formula_structural   Li3Y2(SbP)2
_chemical_formula_sum   'Li3 Y2 Sb2 P2'
_cell_volume   153.28209085
_cell_formula_units_Z   1
loop_
 _symmetry_equiv_pos_site_id
 _symmetry_equiv_pos_as_xyz
  1  'x, y, z'
loop_
 _atom_site_type_symbol
 _atom_site_label
 _atom_site_symmetry_multiplicity
 _atom_site_fract_x
 _atom_site_fract_y
 _atom_site_fract_z
 _atom_site_occupancy
  Y  Y0  1  0.12500000  0.12500000  0.12500000  1
  Y  Y1  1  0.50000000  0.50000000  0.50000000  1
  P  P2  1  0.25000000  0.25000000  0.25000000  1
  P  P3  1  0.75000000  0.75000000  0.75000000  1
  Li  Li4  1  0.32861322  0.23951013  0.57636187  1
  Li  Li5  1  0.59643469  0.43202018  0.91477207  1
  Li  Li6  1  0.99376057  0.77064808  0.57818663  1
  Sb  Sb7  1  0.64282556  0.51544293  0.34065687  1
  Sb  Sb8  1  0.83248543  0.44907021  0.72102503  1
