# generated using pymatgen
data_LiF
_symmetry_space_group_name_H-M   'P 1'
_cell_length_a   6.71488388
_cell_length_b   10.64913171
_cell_length_c   11.61110122
_cell_angle_alpha   90.00000000
_cell_angle_beta   90.00000000
_cell_angle_gamma   90.00000000
_symmetry_Int_Tables_number   1
_chemical_formula_structural   LiF
_chemical_formula_sum   'Li28 F28'
_cell_volume   830.28294331
_cell_formula_units_Z   28
loop_
 _symmetry_equiv_pos_site_id
 _symmetry_equiv_pos_as_xyz
  1  'x, y, z'
loop_
 _atom_site_type_symbol
 _atom_site_label
 _atom_site_symmetry_multiplicity
 _atom_site_fract_x
 _atom_site_fract_y
 _atom_site_fract_z
 _atom_site_occupancy
  F  F0  1  0.73723643  0.95048146  0.50000000  1
  F  F1  1  0.26276357  0.04951854  0.50000000  1
  F  F2  1  0.76276357  0.45048146  0.50000000  1
  F  F3  1  0.23723643  0.54951854  0.50000000  1
  F  F4  1  0.76269930  0.25724260  0.42361438  1
  F  F5  1  -0.76269930  -0.25724260  0.42361438  1
  F  F6  1  -0.26269930  0.75724260  -0.42361438  1
  F  F7  1  1.26269930  0.24275740  -0.42361438  1
  F  F8  1  -0.76269930  -0.25724260  -0.42361438  1
  F  F9  1  0.76269930  0.25724260  -0.42361438  1
  F  F10  1  1.26269930  0.24275740  0.42361438  1
  F  F11  1  -0.26269930  0.75724260  0.42361438  1
  F  F12  1  0.00000000  0.50000000  0.59092759  1
  F  F13  1  0.50000000  0.00000000  0.40907241  1
  F  F14  1  0.00000000  0.50000000  0.40907241  1
  F  F15  1  0.50000000  0.00000000  0.59092759  1
  F  F16  1  0.29985025  0.05060119  0.62642872  1
  F  F17  1  0.70014975  0.94939881  0.62642872  1
  F  F18  1  0.20014975  0.55060119  0.37357128  1
  F  F19  1  0.79985025  0.44939881  0.37357128  1
  F  F20  1  0.70014975  0.94939881  0.37357128  1
  F  F21  1  0.29985025  0.05060119  0.37357128  1
  F  F22  1  0.79985025  0.44939881  0.62642872  1
  F  F23  1  0.20014975  0.55060119  0.62642872  1
  F  F24  1  0.72747638  0.05980428  0.00000000  1
  F  F25  1  0.27252362  0.94019572  0.00000000  1
  F  F26  1  0.77252362  0.55980428  0.00000000  1
  F  F27  1  0.22747638  0.44019572  0.00000000  1
  Li  Li28  1  0.78851506  0.34455555  0.56686241  1
  Li  Li29  1  0.21148494  0.65544445  0.56686241  1
  Li  Li30  1  0.71148494  0.84455555  0.43313759  1
  Li  Li31  1  0.28851506  0.15544445  0.43313759  1
  Li  Li32  1  0.21148494  0.65544445  0.43313759  1
  Li  Li33  1  0.78851506  0.34455555  0.43313759  1
  Li  Li34  1  0.28851506  0.15544445  0.56686241  1
  Li  Li35  1  0.71148494  0.84455555  0.56686241  1
  Li  Li36  1  0.64141897  0.23296796  0.50000000  1
  Li  Li37  1  0.35858103  0.76703204  0.50000000  1
  Li  Li38  1  0.85858103  0.73296796  0.50000000  1
  Li  Li39  1  0.14141897  0.26703204  0.50000000  1
  Li  Li40  1  0.43594590  0.29427780  0.22810702  1
  Li  Li41  1  0.56405410  0.70572220  0.22810702  1
  Li  Li42  1  0.06405410  0.79427780  0.77189298  1
  Li  Li43  1  0.93594590  0.20572220  0.77189298  1
  Li  Li44  1  0.56405410  0.70572220  0.77189298  1
  Li  Li45  1  0.43594590  0.29427780  0.77189298  1
  Li  Li46  1  0.93594590  0.20572220  0.22810702  1
  Li  Li47  1  0.06405410  0.79427780  0.22810702  1
  Li  Li48  1  0.00000000  0.00000000  0.00000000  1
  Li  Li49  1  0.50000000  0.50000000  0.00000000  1
  Li  Li50  1  0.41135292  0.95135310  0.50000000  1
  Li  Li51  1  0.58864708  0.04864690  0.50000000  1
  Li  Li52  1  0.08864708  0.45135310  0.50000000  1
  Li  Li53  1  0.91135292  0.54864690  0.50000000  1
  Li  Li54  1  0.00000000  0.50000000  0.00000000  1
  Li  Li55  1  0.50000000  0.00000000  0.00000000  1
