# generated using pymatgen
data_LiF
_symmetry_space_group_name_H-M   'P 1'
_cell_length_a   16.64257466
_cell_length_b   16.64257466
_cell_length_c   7.87726504
_cell_angle_alpha   90.00000000
_cell_angle_beta   90.00000000
_cell_angle_gamma   120.00000000
_symmetry_Int_Tables_number   1
_chemical_formula_structural   LiF
_chemical_formula_sum   'Li78 F78'
_cell_volume   1889.50096281
_cell_formula_units_Z   78
loop_
 _symmetry_equiv_pos_site_id
 _symmetry_equiv_pos_as_xyz
  1  'x, y, z'
loop_
 _atom_site_type_symbol
 _atom_site_label
 _atom_site_symmetry_multiplicity
 _atom_site_fract_x
 _atom_site_fract_y
 _atom_site_fract_z
 _atom_site_occupancy
  F  F0  1  0.00000000  0.00000000  0.25000000  1
  F  F1  1  0.00000000  0.00000000  0.75000000  1
  F  F2  1  0.66666667  0.33333333  0.58333333  1
  F  F3  1  0.66666667  0.33333333  0.08333333  1
  F  F4  1  0.33333333  0.66666667  0.91666667  1
  F  F5  1  0.33333333  0.66666667  0.41666667  1
  F  F6  1  0.97654034  0.35103178  0.68246689  1
  F  F7  1  0.64896822  0.62550856  0.68246689  1
  F  F8  1  0.37449144  0.02345966  0.68246689  1
  F  F9  1  0.35103178  0.97654034  0.81753311  1
  F  F10  1  0.62550856  0.64896822  0.81753311  1
  F  F11  1  0.02345966  0.37449144  0.81753311  1
  F  F12  1  0.02345966  0.64896822  0.31753311  1
  F  F13  1  0.35103178  0.37449144  0.31753311  1
  F  F14  1  0.62550856  0.97654034  0.31753311  1
  F  F15  1  0.64896822  0.02345966  0.18246689  1
  F  F16  1  0.37449144  0.35103178  0.18246689  1
  F  F17  1  0.97654034  0.62550856  0.18246689  1
  F  F18  1  0.64320701  0.68436511  0.01580022  1
  F  F19  1  0.31563489  0.95884190  0.01580022  1
  F  F20  1  0.04115810  0.35679299  0.01580022  1
  F  F21  1  0.01769845  0.30987368  0.15086644  1
  F  F22  1  0.29217523  0.98230155  0.15086644  1
  F  F23  1  0.69012632  0.70782477  0.15086644  1
  F  F24  1  0.69012632  0.98230155  0.65086644  1
  F  F25  1  0.01769845  0.70782477  0.65086644  1
  F  F26  1  0.29217523  0.30987368  0.65086644  1
  F  F27  1  0.31563489  0.35679299  0.51580022  1
  F  F28  1  0.04115810  0.68436511  0.51580022  1
  F  F29  1  0.64320701  0.95884190  0.51580022  1
  F  F30  1  0.30987368  0.01769845  0.34913356  1
  F  F31  1  0.98230155  0.29217523  0.34913356  1
  F  F32  1  0.70782477  0.69012632  0.34913356  1
  F  F33  1  0.68436511  0.64320701  0.48419978  1
  F  F34  1  0.95884190  0.31563489  0.48419978  1
  F  F35  1  0.35679299  0.04115810  0.48419978  1
  F  F36  1  0.35679299  0.31563489  0.98419978  1
  F  F37  1  0.68436511  0.04115810  0.98419978  1
  F  F38  1  0.95884190  0.64320701  0.98419978  1
  F  F39  1  0.98230155  0.69012632  0.84913356  1
  F  F40  1  0.70782477  0.01769845  0.84913356  1
  F  F41  1  0.30987368  0.29217523  0.84913356  1
  F  F42  1  0.82336827  0.85855449  0.34729042  1
  F  F43  1  0.14144551  0.96481379  0.34729042  1
  F  F44  1  0.03518621  0.17663173  0.34729042  1
  F  F45  1  0.85855449  0.82336827  0.15270958  1
  F  F46  1  0.96481379  0.14144551  0.15270958  1
  F  F47  1  0.17663173  0.03518621  0.15270958  1
  F  F48  1  0.17663173  0.14144551  0.65270958  1
  F  F49  1  0.85855449  0.03518621  0.65270958  1
  F  F50  1  0.96481379  0.82336827  0.65270958  1
  F  F51  1  0.14144551  0.17663173  0.84729042  1
  F  F52  1  0.03518621  0.85855449  0.84729042  1
  F  F53  1  0.82336827  0.96481379  0.84729042  1
  F  F54  1  0.49003494  0.19188782  0.68062376  1
  F  F55  1  0.80811218  0.29814712  0.68062376  1
  F  F56  1  0.70185288  0.50996506  0.68062376  1
  F  F57  1  0.52522115  0.15670161  0.48604291  1
  F  F58  1  0.63148046  0.47477885  0.48604291  1
  F  F59  1  0.84329839  0.36851954  0.48604291  1
  F  F60  1  0.84329839  0.47477885  0.98604291  1
  F  F61  1  0.52522115  0.36851954  0.98604291  1
  F  F62  1  0.63148046  0.15670161  0.98604291  1
  F  F63  1  0.80811218  0.50996506  0.18062376  1
  F  F64  1  0.70185288  0.19188782  0.18062376  1
  F  F65  1  0.49003494  0.29814712  0.18062376  1
  F  F66  1  0.15670161  0.52522115  0.01395709  1
  F  F67  1  0.47477885  0.63148046  0.01395709  1
  F  F68  1  0.36851954  0.84329839  0.01395709  1
  F  F69  1  0.19188782  0.49003494  0.81937624  1
  F  F70  1  0.29814712  0.80811218  0.81937624  1
  F  F71  1  0.50996506  0.70185288  0.81937624  1
  F  F72  1  0.50996506  0.80811218  0.31937624  1
  F  F73  1  0.19188782  0.70185288  0.31937624  1
  F  F74  1  0.29814712  0.49003494  0.31937624  1
  F  F75  1  0.47477885  0.84329839  0.51395709  1
  F  F76  1  0.36851954  0.52522115  0.51395709  1
  F  F77  1  0.15670161  0.63148046  0.51395709  1
  Li  Li78  1  0.89478357  0.83094196  0.76559051  1
  Li  Li79  1  -0.83094196  0.06384160  0.76559051  1
  Li  Li80  1  -0.06384160  -0.89478357  0.76559051  1
  Li  Li81  1  0.83094196  0.89478357  -0.26559051  1
  Li  Li82  1  0.06384160  -0.83094196  -0.26559051  1
  Li  Li83  1  -0.89478357  -0.06384160  -0.26559051  1
  Li  Li84  1  -0.89478357  -0.83094196  -0.76559051  1
  Li  Li85  1  0.83094196  -0.06384160  -0.76559051  1
  Li  Li86  1  0.06384160  0.89478357  -0.76559051  1
  Li  Li87  1  -0.83094196  -0.89478357  1.26559051  1
  Li  Li88  1  -0.06384160  0.83094196  1.26559051  1
  Li  Li89  1  0.89478357  0.06384160  1.26559051  1
  Li  Li90  1  1.56145023  1.16427530  1.09892384  1
  Li  Li91  1  -0.16427530  0.39717493  1.09892384  1
  Li  Li92  1  0.60282507  -0.56145023  1.09892384  1
  Li  Li93  1  1.49760863  1.22811690  0.06774283  1
  Li  Li94  1  0.73050827  -0.49760863  0.06774283  1
  Li  Li95  1  -0.22811690  0.26949173  0.06774283  1
  Li  Li96  1  -0.22811690  -0.49760863  -0.43225717  1
  Li  Li97  1  1.49760863  0.26949173  -0.43225717  1
  Li  Li98  1  0.73050827  1.22811690  -0.43225717  1
  Li  Li99  1  -0.16427530  -0.56145023  1.59892384  1
  Li  Li100  1  0.60282507  1.16427530  1.59892384  1
  Li  Li101  1  1.56145023  0.39717493  1.59892384  1
  Li  Li102  1  1.22811690  1.49760863  1.43225717  1
  Li  Li103  1  -0.49760863  0.73050827  1.43225717  1
  Li  Li104  1  0.26949173  -0.22811690  1.43225717  1
  Li  Li105  1  1.16427530  1.56145023  0.40107616  1
  Li  Li106  1  0.39717493  -0.16427530  0.40107616  1
  Li  Li107  1  -0.56145023  0.60282507  0.40107616  1
  Li  Li108  1  -0.56145023  -0.16427530  -0.09892384  1
  Li  Li109  1  1.16427530  0.60282507  -0.09892384  1
  Li  Li110  1  0.39717493  1.56145023  -0.09892384  1
  Li  Li111  1  -0.49760863  -0.22811690  1.93225717  1
  Li  Li112  1  0.26949173  1.49760863  1.93225717  1
  Li  Li113  1  1.22811690  0.73050827  1.93225717  1
  Li  Li114  1  0.17539500  0.68026248  0.60218754  1
  Li  Li115  1  0.31973752  0.49513252  0.60218754  1
  Li  Li116  1  0.50486748  0.82460500  0.60218754  1
  Li  Li117  1  0.68026248  0.17539500  0.89781246  1
  Li  Li118  1  0.49513252  0.31973752  0.89781246  1
  Li  Li119  1  0.82460500  0.50486748  0.89781246  1
  Li  Li120  1  0.82460500  0.31973752  0.39781246  1
  Li  Li121  1  0.68026248  0.50486748  0.39781246  1
  Li  Li122  1  0.49513252  0.17539500  0.39781246  1
  Li  Li123  1  0.31973752  0.82460500  0.10218754  1
  Li  Li124  1  0.50486748  0.68026248  0.10218754  1
  Li  Li125  1  0.17539500  0.49513252  0.10218754  1
  Li  Li126  1  0.84206166  0.01359581  0.93552087  1
  Li  Li127  1  0.98640419  0.82846585  0.93552087  1
  Li  Li128  1  0.17153415  0.15793834  0.93552087  1
  Li  Li129  1  0.34692915  0.50872833  0.23114580  1
  Li  Li130  1  0.16179918  0.65307085  0.23114580  1
  Li  Li131  1  0.49127167  0.83820082  0.23114580  1
  Li  Li132  1  0.49127167  0.65307085  0.73114580  1
  Li  Li133  1  0.34692915  0.83820082  0.73114580  1
  Li  Li134  1  0.16179918  0.50872833  0.73114580  1
  Li  Li135  1  0.98640419  0.15793834  0.43552087  1
  Li  Li136  1  0.17153415  0.01359581  0.43552087  1
  Li  Li137  1  0.84206166  0.82846585  0.43552087  1
  Li  Li138  1  0.50872833  0.34692915  0.26885420  1
  Li  Li139  1  0.65307085  0.16179918  0.26885420  1
  Li  Li140  1  0.83820082  0.49127167  0.26885420  1
  Li  Li141  1  0.01359581  0.84206166  0.56447913  1
  Li  Li142  1  0.82846585  0.98640419  0.56447913  1
  Li  Li143  1  0.15793834  0.17153415  0.56447913  1
  Li  Li144  1  0.15793834  0.98640419  0.06447913  1
  Li  Li145  1  0.01359581  0.17153415  0.06447913  1
  Li  Li146  1  0.82846585  0.84206166  0.06447913  1
  Li  Li147  1  0.65307085  0.49127167  0.76885420  1
  Li  Li148  1  0.83820082  0.34692915  0.76885420  1
  Li  Li149  1  0.50872833  0.16179918  0.76885420  1
  Li  Li150  1  0.00000000  0.00000000  0.00000000  1
  Li  Li151  1  0.00000000  0.00000000  0.50000000  1
  Li  Li152  1  0.66666667  0.33333333  0.33333333  1
  Li  Li153  1  0.66666667  0.33333333  0.83333333  1
  Li  Li154  1  0.33333333  0.66666667  0.66666667  1
  Li  Li155  1  0.33333333  0.66666667  0.16666667  1
