# generated using pymatgen
data_LiF
_symmetry_space_group_name_H-M   'P 1'
_cell_length_a   5.82502840
_cell_length_b   7.73261361
_cell_length_c   13.13875382
_cell_angle_alpha   90.00000000
_cell_angle_beta   90.00000000
_cell_angle_gamma   90.00000000
_symmetry_Int_Tables_number   1
_chemical_formula_structural   LiF
_chemical_formula_sum   'Li24 F24'
_cell_volume   591.80486688
_cell_formula_units_Z   24
loop_
 _symmetry_equiv_pos_site_id
 _symmetry_equiv_pos_as_xyz
  1  'x, y, z'
loop_
 _atom_site_type_symbol
 _atom_site_label
 _atom_site_symmetry_multiplicity
 _atom_site_fract_x
 _atom_site_fract_y
 _atom_site_fract_z
 _atom_site_occupancy
  F  F0  1  0.57363036  0.70497828  0.15718041  1
  F  F1  1  0.92636964  0.29502172  0.65718041  1
  F  F2  1  0.42636964  0.20497828  0.84281959  1
  F  F3  1  0.07363036  0.79502172  0.34281959  1
  F  F4  1  0.42636964  0.29502172  0.84281959  1
  F  F5  1  0.07363036  0.70497828  0.34281959  1
  F  F6  1  0.57363036  0.79502172  0.15718041  1
  F  F7  1  0.92636964  0.20497828  0.65718041  1
  F  F8  1  0.03348675  0.33717461  0.10883443  1
  F  F9  1  0.46651325  0.66282539  0.60883443  1
  F  F10  1  0.96651325  0.83717461  0.89116557  1
  F  F11  1  0.53348675  0.16282539  0.39116557  1
  F  F12  1  0.96651325  0.66282539  0.89116557  1
  F  F13  1  0.53348675  0.33717461  0.39116557  1
  F  F14  1  0.03348675  0.16282539  0.10883443  1
  F  F15  1  0.46651325  0.83717461  0.60883443  1
  F  F16  1  0.46560395  0.25000000  0.42578025  1
  F  F17  1  0.03439605  0.75000000  0.92578025  1
  F  F18  1  0.53439605  0.75000000  0.57421975  1
  F  F19  1  0.96560395  0.25000000  0.07421975  1
  F  F20  1  0.00000000  0.00000000  0.00000000  1
  F  F21  1  0.50000000  0.00000000  0.50000000  1
  F  F22  1  0.00000000  0.50000000  0.00000000  1
  F  F23  1  0.50000000  0.50000000  0.50000000  1
  Li  Li24  1  0.13639753  0.25000000  0.59470110  1
  Li  Li25  1  0.36360247  0.75000000  0.09470110  1
  Li  Li26  1  0.86360247  0.75000000  0.40529890  1
  Li  Li27  1  0.63639753  0.25000000  0.90529890  1
  Li  Li28  1  0.07356377  0.25000000  0.81294454  1
  Li  Li29  1  0.42643623  0.75000000  0.31294454  1
  Li  Li30  1  0.92643623  0.75000000  0.18705546  1
  Li  Li31  1  0.57356377  0.25000000  0.68705546  1
  Li  Li32  1  0.00000000  0.00000000  0.50000000  1
  Li  Li33  1  0.50000000  0.00000000  0.00000000  1
  Li  Li34  1  0.00000000  0.50000000  0.50000000  1
  Li  Li35  1  0.50000000  0.50000000  0.00000000  1
  Li  Li36  1  0.14134189  0.25000000  0.92634836  1
  Li  Li37  1  0.35865811  0.75000000  0.42634836  1
  Li  Li38  1  0.85865811  0.75000000  0.07365164  1
  Li  Li39  1  0.64134189  0.25000000  0.57365164  1
  Li  Li40  1  0.88792125  0.07457751  0.15787907  1
  Li  Li41  1  -0.38792125  -0.07457751  0.65787907  1
  Li  Li42  1  -0.88792125  0.57457751  -0.15787907  1
  Li  Li43  1  1.38792125  0.42542249  0.34212093  1
  Li  Li44  1  -0.88792125  -0.07457751  -0.15787907  1
  Li  Li45  1  1.38792125  0.07457751  0.34212093  1
  Li  Li46  1  0.88792125  0.42542249  0.15787907  1
  Li  Li47  1  -0.38792125  0.57457751  0.65787907  1
