# generated using pymatgen
data_LiF
_symmetry_space_group_name_H-M   'P 1'
_cell_length_a   7.31372767
_cell_length_b   7.31372767
_cell_length_c   2.73305458
_cell_angle_alpha   90.00000000
_cell_angle_beta   90.00000000
_cell_angle_gamma   120.00000000
_symmetry_Int_Tables_number   1
_chemical_formula_structural   LiF
_chemical_formula_sum   'Li6 F6'
_cell_volume   126.60664720
_cell_formula_units_Z   6
loop_
 _symmetry_equiv_pos_site_id
 _symmetry_equiv_pos_as_xyz
  1  'x, y, z'
loop_
 _atom_site_type_symbol
 _atom_site_label
 _atom_site_symmetry_multiplicity
 _atom_site_fract_x
 _atom_site_fract_y
 _atom_site_fract_z
 _atom_site_occupancy
  F  F0  1  0.78841360  0.21158640  0.50000000  1
  F  F1  1  0.78841360  0.57682721  0.50000000  1
  F  F2  1  0.42317279  0.21158640  0.50000000  1
  F  F3  1  0.03979593  0.96020407  0.50000000  1
  F  F4  1  0.03979593  0.07959186  0.50000000  1
  F  F5  1  0.92040814  0.96020407  0.50000000  1
  Li  Li6  1  0.82285420  -0.82285420  0.00000000  1
  Li  Li7  1  0.82285420  1.64570840  0.00000000  1
  Li  Li8  1  -1.64570840  -0.82285420  -0.00000000  1
  Li  Li9  1  0.00000000  0.00000000  0.00000000  1
  Li  Li10  1  0.33333333  0.66666667  0.25655010  1
  Li  Li11  1  0.33333333  0.66666667  0.74344990  1
