# generated using pymatgen
data_LiYP2
_symmetry_space_group_name_H-M   'P 1'
_cell_length_a   4.62497300
_cell_length_b   4.93146774
_cell_length_c   7.04249016
_cell_angle_alpha   95.38367159
_cell_angle_beta   101.72451748
_cell_angle_gamma   111.62406909
_symmetry_Int_Tables_number   1
_chemical_formula_structural   LiYP2
_chemical_formula_sum   'Li2 Y2 P4'
_cell_volume   143.67124934
_cell_formula_units_Z   2
loop_
 _symmetry_equiv_pos_site_id
 _symmetry_equiv_pos_as_xyz
  1  'x, y, z'
loop_
 _atom_site_type_symbol
 _atom_site_label
 _atom_site_symmetry_multiplicity
 _atom_site_fract_x
 _atom_site_fract_y
 _atom_site_fract_z
 _atom_site_occupancy
  P  P0  1  0.00000000  0.00000000  0.00000000  1
  P  P1  1  0.33300000  0.66700000  0.25000000  1
  P  P2  1  0.66700000  0.33300000  0.50000000  1
  P  P3  1  0.00000000  0.00000000  0.75000000  1
  Li  Li4  1  0.89931229  0.89289742  0.27346384  1
  Li  Li5  1  0.53642899  0.13383980  0.79260244  1
  Y  Y6  1  0.65981032  0.85728713  0.74516166  1
  Y  Y7  1  0.28059793  0.63032104  0.57618061  1
