# generated using pymatgen
data_LiF
_symmetry_space_group_name_H-M   'P 1'
_cell_length_a   7.56809220
_cell_length_b   6.60864816
_cell_length_c   4.80452211
_cell_angle_alpha   90.00000000
_cell_angle_beta   90.00000000
_cell_angle_gamma   90.00000000
_symmetry_Int_Tables_number   1
_chemical_formula_structural   LiF
_chemical_formula_sum   'Li14 F14'
_cell_volume   240.29749394
_cell_formula_units_Z   14
loop_
 _symmetry_equiv_pos_site_id
 _symmetry_equiv_pos_as_xyz
  1  'x, y, z'
loop_
 _atom_site_type_symbol
 _atom_site_label
 _atom_site_symmetry_multiplicity
 _atom_site_fract_x
 _atom_site_fract_y
 _atom_site_fract_z
 _atom_site_occupancy
  F  F0  1  0.18733956  0.35043391  0.15702536  1
  F  F1  1  -0.18733956  -0.35043391  0.15702536  1
  F  F2  1  0.31266044  0.85043391  -0.15702536  1
  F  F3  1  0.68733956  0.14956609  -0.15702536  1
  F  F4  1  -0.18733956  -0.35043391  -0.15702536  1
  F  F5  1  0.18733956  0.35043391  -0.15702536  1
  F  F6  1  0.68733956  0.14956609  0.15702536  1
  F  F7  1  0.31266044  0.85043391  0.15702536  1
  F  F8  1  0.40518940  0.90755002  0.00000000  1
  F  F9  1  0.59481060  0.09244998  -0.00000000  1
  F  F10  1  0.09481060  0.40755002  0.00000000  1
  F  F11  1  0.90518940  0.59244998  0.00000000  1
  F  F12  1  0.00000000  0.50000000  0.00000000  1
  F  F13  1  0.50000000  0.00000000  0.00000000  1
  Li  Li14  1  0.00000000  0.00000000  0.00000000  1
  Li  Li15  1  0.50000000  0.50000000  -0.00000000  1
  Li  Li16  1  0.09638237  0.19358624  -0.00000000  1
  Li  Li17  1  0.90361763  0.80641376  -0.00000000  1
  Li  Li18  1  0.40361763  0.69358624  -0.00000000  1
  Li  Li19  1  0.59638237  0.30641376  -0.00000000  1
  Li  Li20  1  0.40550085  0.75566546  0.50000000  1
  Li  Li21  1  0.59449915  0.24433454  0.50000000  1
  Li  Li22  1  0.09449915  0.25566546  0.50000000  1
  Li  Li23  1  0.90550085  0.74433454  0.50000000  1
  Li  Li24  1  0.00000000  0.00000000  0.50000000  1
  Li  Li25  1  0.50000000  0.50000000  0.50000000  1
  Li  Li26  1  0.00000000  0.50000000  0.50000000  1
  Li  Li27  1  0.50000000  0.00000000  0.50000000  1
