# generated using pymatgen
data_LiYAs2P
_symmetry_space_group_name_H-M   'P 1'
_cell_length_a   4.92822275
_cell_length_b   5.16576413
_cell_length_c   6.67065286
_cell_angle_alpha   93.72257182
_cell_angle_beta   98.38473397
_cell_angle_gamma   105.17835850
_symmetry_Int_Tables_number   1
_chemical_formula_structural   LiYAs2P
_chemical_formula_sum   'Li2 Y2 As4 P2'
_cell_volume   161.19755167
_cell_formula_units_Z   2
loop_
 _symmetry_equiv_pos_site_id
 _symmetry_equiv_pos_as_xyz
  1  'x, y, z'
loop_
 _atom_site_type_symbol
 _atom_site_label
 _atom_site_symmetry_multiplicity
 _atom_site_fract_x
 _atom_site_fract_y
 _atom_site_fract_z
 _atom_site_occupancy
  Y  Y0  1  0.12500000  0.12500000  0.12500000  1
  Y  Y1  1  0.50000000  0.50000000  0.50000000  1
  P  P2  1  0.25000000  0.25000000  0.25000000  1
  P  P3  1  0.75000000  0.75000000  0.75000000  1
  As  As4  1  0.43846477  0.45359739  0.09612566  1
  As  As5  1  0.00804544  0.62524326  0.20351559  1
  As  As6  1  0.40863867  0.62918138  0.92487631  1
  As  As7  1  0.98903728  0.35621912  0.10801557  1
  Li  Li8  1  0.91026932  0.66743422  0.91728137  1
  Li  Li9  1  0.86490446  0.93683026  0.57609971  1
