# generated using pymatgen
data_LiYMoAsP2
_symmetry_space_group_name_H-M   'P 1'
_cell_length_a   5.81804509
_cell_length_b   5.85139659
_cell_length_c   7.46694219
_cell_angle_alpha   94.50111450
_cell_angle_beta   98.47430528
_cell_angle_gamma   103.37368240
_symmetry_Int_Tables_number   1
_chemical_formula_structural   LiYMoAsP2
_chemical_formula_sum   'Li1 Y1 Mo1 As1 P2'
_cell_volume   242.92936128
_cell_formula_units_Z   1
loop_
 _symmetry_equiv_pos_site_id
 _symmetry_equiv_pos_as_xyz
  1  'x, y, z'
loop_
 _atom_site_type_symbol
 _atom_site_label
 _atom_site_symmetry_multiplicity
 _atom_site_fract_x
 _atom_site_fract_y
 _atom_site_fract_z
 _atom_site_occupancy
  P  P0  1  0.00000000  0.00000000  0.00000000  1
  P  P1  1  0.50000000  0.50000000  0.50000000  1
  Mo  Mo2  1  0.25000000  0.25000000  0.25000000  1
  As  As3  1  0.75000000  0.25000000  0.00000000  1
  Li  Li4  1  0.25000000  0.75000000  0.50000000  1
  Y  Y5  1  0.99767935  0.22881825  0.57511645  1
