# generated using pymatgen
data_LiLa2Al3O2
_symmetry_space_group_name_H-M   'P 1'
_cell_length_a   6.11426971
_cell_length_b   5.68888529
_cell_length_c   7.37528953
_cell_angle_alpha   102.06505982
_cell_angle_beta   95.72216390
_cell_angle_gamma   91.15181176
_symmetry_Int_Tables_number   1
_chemical_formula_structural   LiLa2Al3O2
_chemical_formula_sum   'Li1 La2 Al3 O2'
_cell_volume   249.39966825
_cell_formula_units_Z   1
loop_
 _symmetry_equiv_pos_site_id
 _symmetry_equiv_pos_as_xyz
  1  'x, y, z'
loop_
 _atom_site_type_symbol
 _atom_site_label
 _atom_site_symmetry_multiplicity
 _atom_site_fract_x
 _atom_site_fract_y
 _atom_site_fract_z
 _atom_site_occupancy
  Al  Al0  1  0.00000000  0.00000000  0.00000000  1
  Al  Al1  1  0.33300000  0.66700000  0.25000000  1
  Al  Al2  1  0.66700000  0.33300000  0.50000000  1
  La  La3  1  0.00000000  0.00000000  0.75000000  1
  La  La4  1  0.76030343  0.80958961  0.26082183  1
  O  O5  1  0.98560297  0.08719654  0.31310315  1
  O  O6  1  0.94640148  0.46545522  0.81965754  1
  Li  Li7  1  0.73636580  0.32950253  0.09359451  1
