# generated using pymatgen
data_LiCaF3
_symmetry_space_group_name_H-M   'P 1'
_cell_length_a   9.39204451
_cell_length_b   9.39204451
_cell_length_c   18.92227405
_cell_angle_alpha   90.00000000
_cell_angle_beta   90.00000000
_cell_angle_gamma   120.00000000
_symmetry_Int_Tables_number   1
_chemical_formula_structural   LiCaF3
_chemical_formula_sum   'Li18 Ca18 F54'
_cell_volume   1445.52046407
_cell_formula_units_Z   18
loop_
 _symmetry_equiv_pos_site_id
 _symmetry_equiv_pos_as_xyz
  1  'x, y, z'
loop_
 _atom_site_type_symbol
 _atom_site_label
 _atom_site_symmetry_multiplicity
 _atom_site_fract_x
 _atom_site_fract_y
 _atom_site_fract_z
 _atom_site_occupancy
  Ca  Ca0  1  0.00000000  0.00000000  0.81721655  1
  Ca  Ca1  1  0.00000000  0.00000000  0.68278345  1
  Ca  Ca2  1  0.00000000  0.00000000  0.18278345  1
  Ca  Ca3  1  0.00000000  0.00000000  0.31721655  1
  Ca  Ca4  1  0.66666667  0.33333333  0.15054988  1
  Ca  Ca5  1  0.66666667  0.33333333  0.01611679  1
  Ca  Ca6  1  0.66666667  0.33333333  0.51611679  1
  Ca  Ca7  1  0.66666667  0.33333333  0.65054988  1
  Ca  Ca8  1  0.33333333  0.66666667  0.48388321  1
  Ca  Ca9  1  0.33333333  0.66666667  0.34945012  1
  Ca  Ca10  1  0.33333333  0.66666667  0.84945012  1
  Ca  Ca11  1  0.33333333  0.66666667  0.98388321  1
  Ca  Ca12  1  0.00000000  0.00000000  0.00000000  1
  Ca  Ca13  1  0.00000000  0.00000000  0.50000000  1
  Ca  Ca14  1  0.66666667  0.33333333  0.33333333  1
  Ca  Ca15  1  0.66666667  0.33333333  0.83333333  1
  Ca  Ca16  1  0.33333333  0.66666667  0.66666667  1
  Ca  Ca17  1  0.33333333  0.66666667  0.16666667  1
  F  F18  1  0.64720083  0.12441067  0.35090506  1
  F  F19  1  -0.12441067  0.52279016  0.35090506  1
  F  F20  1  -0.52279016  -0.64720083  0.35090506  1
  F  F21  1  0.12441067  0.64720083  0.14909494  1
  F  F22  1  0.52279016  -0.12441067  0.14909494  1
  F  F23  1  -0.64720083  -0.52279016  0.14909494  1
  F  F24  1  -0.64720083  -0.12441067  -0.35090506  1
  F  F25  1  0.12441067  -0.52279016  -0.35090506  1
  F  F26  1  0.52279016  0.64720083  -0.35090506  1
  F  F27  1  -0.12441067  -0.64720083  0.85090506  1
  F  F28  1  -0.52279016  0.12441067  0.85090506  1
  F  F29  1  0.64720083  0.52279016  0.85090506  1
  F  F30  1  1.31386750  0.45774401  0.68423839  1
  F  F31  1  0.54225599  0.85612349  0.68423839  1
  F  F32  1  0.14387651  -0.31386750  0.68423839  1
  F  F33  1  0.79107734  0.98053417  0.48242828  1
  F  F34  1  1.18945683  0.20892266  0.48242828  1
  F  F35  1  0.01946583  -0.18945683  0.48242828  1
  F  F36  1  0.01946583  0.20892266  -0.01757172  1
  F  F37  1  0.79107734  -0.18945683  -0.01757172  1
  F  F38  1  1.18945683  0.98053417  -0.01757172  1
  F  F39  1  0.54225599  -0.31386750  1.18423839  1
  F  F40  1  0.14387651  0.45774401  1.18423839  1
  F  F41  1  1.31386750  0.85612349  1.18423839  1
  F  F42  1  0.98053417  0.79107734  1.01757172  1
  F  F43  1  0.20892266  1.18945683  1.01757172  1
  F  F44  1  -0.18945683  0.01946583  1.01757172  1
  F  F45  1  0.45774401  1.31386750  0.81576161  1
  F  F46  1  0.85612349  0.54225599  0.81576161  1
  F  F47  1  -0.31386750  0.14387651  0.81576161  1
  F  F48  1  -0.31386750  0.54225599  0.31576161  1
  F  F49  1  0.45774401  0.14387651  0.31576161  1
  F  F50  1  0.85612349  1.31386750  0.31576161  1
  F  F51  1  0.20892266  0.01946583  1.51757172  1
  F  F52  1  -0.18945683  0.79107734  1.51757172  1
  F  F53  1  0.98053417  1.18945683  1.51757172  1
  F  F54  1  0.58107345  0.00000000  0.25000000  1
  F  F55  1  0.00000000  0.58107345  0.25000000  1
  F  F56  1  0.41892655  0.41892655  0.25000000  1
  F  F57  1  0.41892655  0.00000000  0.75000000  1
  F  F58  1  0.00000000  0.41892655  0.75000000  1
  F  F59  1  0.58107345  0.58107345  0.75000000  1
  F  F60  1  0.24774012  0.33333333  0.58333333  1
  F  F61  1  0.66666667  0.91440679  0.58333333  1
  F  F62  1  0.08559321  0.75225988  0.58333333  1
  F  F63  1  0.08559321  0.33333333  0.08333333  1
  F  F64  1  0.66666667  0.75225988  0.08333333  1
  F  F65  1  0.24774012  0.91440679  0.08333333  1
  F  F66  1  0.91440679  0.66666667  0.91666667  1
  F  F67  1  0.33333333  0.24774012  0.91666667  1
  F  F68  1  0.75225988  0.08559321  0.91666667  1
  F  F69  1  0.75225988  0.66666667  0.41666667  1
  F  F70  1  0.33333333  0.08559321  0.41666667  1
  F  F71  1  0.91440679  0.24774012  0.41666667  1
  Li  Li72  1  0.68347887  0.00000000  0.25000000  1
  Li  Li73  1  0.00000000  0.68347887  0.25000000  1
  Li  Li74  1  0.31652113  0.31652113  0.25000000  1
  Li  Li75  1  0.31652113  0.00000000  0.75000000  1
  Li  Li76  1  0.00000000  0.31652113  0.75000000  1
  Li  Li77  1  0.68347887  0.68347887  0.75000000  1
  Li  Li78  1  0.35014554  0.33333333  0.58333333  1
  Li  Li79  1  0.66666667  0.01681220  0.58333333  1
  Li  Li80  1  0.98318780  0.64985446  0.58333333  1
  Li  Li81  1  0.98318780  0.33333333  0.08333333  1
  Li  Li82  1  0.66666667  0.64985446  0.08333333  1
  Li  Li83  1  0.35014554  0.01681220  0.08333333  1
  Li  Li84  1  0.01681220  0.66666667  0.91666667  1
  Li  Li85  1  0.33333333  0.35014554  0.91666667  1
  Li  Li86  1  0.64985446  0.98318780  0.91666667  1
  Li  Li87  1  0.64985446  0.66666667  0.41666667  1
  Li  Li88  1  0.33333333  0.98318780  0.41666667  1
  Li  Li89  1  0.01681220  0.35014554  0.41666667  1
