# generated using pymatgen
data_Li2O
_symmetry_space_group_name_H-M   'P 1'
_cell_length_a   7.98387432
_cell_length_b   8.07862069
_cell_length_c   5.71280308
_cell_angle_alpha   90.00000000
_cell_angle_beta   90.00000000
_cell_angle_gamma   90.00000000
_symmetry_Int_Tables_number   1
_chemical_formula_structural   Li2O
_chemical_formula_sum   'Li16 O8'
_cell_volume   368.46832816
_cell_formula_units_Z   8
loop_
 _symmetry_equiv_pos_site_id
 _symmetry_equiv_pos_as_xyz
  1  'x, y, z'
loop_
 _atom_site_type_symbol
 _atom_site_label
 _atom_site_symmetry_multiplicity
 _atom_site_fract_x
 _atom_site_fract_y
 _atom_site_fract_z
 _atom_site_occupancy
  Li  Li0  1  0.18829436  0.56343412  0.27830464  1
  Li  Li1  1  -0.18829436  -0.56343412  0.27830464  1
  Li  Li2  1  0.31170564  1.06343412  -0.27830464  1
  Li  Li3  1  0.68829436  -0.06343412  -0.27830464  1
  Li  Li4  1  -0.18829436  -0.56343412  -0.27830464  1
  Li  Li5  1  0.18829436  0.56343412  -0.27830464  1
  Li  Li6  1  0.68829436  -0.06343412  0.27830464  1
  Li  Li7  1  0.31170564  1.06343412  0.27830464  1
  Li  Li8  1  0.56444785  0.09608004  0.00000000  1
  Li  Li9  1  0.43555215  0.90391996  0.00000000  1
  Li  Li10  1  0.93555215  0.59608004  0.00000000  1
  Li  Li11  1  0.06444785  0.40391996  0.00000000  1
  Li  Li12  1  0.00000000  0.00000000  0.19014466  1
  Li  Li13  1  0.50000000  0.50000000  0.80985534  1
  Li  Li14  1  0.00000000  0.00000000  0.80985534  1
  Li  Li15  1  0.50000000  0.50000000  0.19014466  1
  O  O16  1  0.00000000  0.50000000  0.50000000  1
  O  O17  1  0.50000000  0.00000000  0.50000000  1
  O  O18  1  0.00000000  0.50000000  0.18753974  1
  O  O19  1  0.50000000  0.00000000  0.81246026  1
  O  O20  1  0.00000000  0.50000000  0.81246026  1
  O  O21  1  0.50000000  0.00000000  0.18753974  1
  O  O22  1  0.00000000  0.00000000  0.50000000  1
  O  O23  1  0.50000000  0.50000000  0.50000000  1
