# generated using pymatgen
data_LiCl
_symmetry_space_group_name_H-M   'P 1'
_cell_length_a   28.66612829
_cell_length_b   28.66612829
_cell_length_c   3.92396053
_cell_angle_alpha   90.00000000
_cell_angle_beta   90.00000000
_cell_angle_gamma   120.00000000
_symmetry_Int_Tables_number   1
_chemical_formula_structural   LiCl
_chemical_formula_sum   'Li72 Cl72'
_cell_volume   2792.50103350
_cell_formula_units_Z   72
loop_
 _symmetry_equiv_pos_site_id
 _symmetry_equiv_pos_as_xyz
  1  'x, y, z'
loop_
 _atom_site_type_symbol
 _atom_site_label
 _atom_site_symmetry_multiplicity
 _atom_site_fract_x
 _atom_site_fract_y
 _atom_site_fract_z
 _atom_site_occupancy
  Cl  Cl0  1  0.81490971  0.22059181  0.54678938  1
  Cl  Cl1  1  -0.22059181  0.59431790  0.54678938  1
  Cl  Cl2  1  -0.59431790  -0.81490971  0.54678938  1
  Cl  Cl3  1  0.22059181  0.81490971  -0.04678938  1
  Cl  Cl4  1  0.59431790  -0.22059181  -0.04678938  1
  Cl  Cl5  1  -0.81490971  -0.59431790  -0.04678938  1
  Cl  Cl6  1  -0.81490971  -0.22059181  -0.54678938  1
  Cl  Cl7  1  0.22059181  -0.59431790  -0.54678938  1
  Cl  Cl8  1  0.59431790  0.81490971  -0.54678938  1
  Cl  Cl9  1  -0.22059181  -0.81490971  1.04678938  1
  Cl  Cl10  1  -0.59431790  0.22059181  1.04678938  1
  Cl  Cl11  1  0.81490971  0.59431790  1.04678938  1
  Cl  Cl12  1  1.48157638  0.55392514  0.88012271  1
  Cl  Cl13  1  0.44607486  0.92765123  0.88012271  1
  Cl  Cl14  1  0.07234877  -0.48157638  0.88012271  1
  Cl  Cl15  1  0.88725848  1.14824304  0.28654395  1
  Cl  Cl16  1  1.26098457  0.11274152  0.28654395  1
  Cl  Cl17  1  -0.14824304  -0.26098457  0.28654395  1
  Cl  Cl18  1  -0.14824304  0.11274152  -0.21345605  1
  Cl  Cl19  1  0.88725848  -0.26098457  -0.21345605  1
  Cl  Cl20  1  1.26098457  1.14824304  -0.21345605  1
  Cl  Cl21  1  0.44607486  -0.48157638  1.38012271  1
  Cl  Cl22  1  0.07234877  0.55392514  1.38012271  1
  Cl  Cl23  1  1.48157638  0.92765123  1.38012271  1
  Cl  Cl24  1  1.14824304  0.88725848  1.21345605  1
  Cl  Cl25  1  0.11274152  1.26098457  1.21345605  1
  Cl  Cl26  1  -0.26098457  -0.14824304  1.21345605  1
  Cl  Cl27  1  0.55392514  1.48157638  0.61987729  1
  Cl  Cl28  1  0.92765123  0.44607486  0.61987729  1
  Cl  Cl29  1  -0.48157638  0.07234877  0.61987729  1
  Cl  Cl30  1  -0.48157638  0.44607486  0.11987729  1
  Cl  Cl31  1  0.55392514  0.07234877  0.11987729  1
  Cl  Cl32  1  0.92765123  1.48157638  0.11987729  1
  Cl  Cl33  1  0.11274152  -0.14824304  1.71345605  1
  Cl  Cl34  1  -0.26098457  0.88725848  1.71345605  1
  Cl  Cl35  1  1.14824304  1.26098457  1.71345605  1
  Cl  Cl36  1  0.19752917  0.78300818  0.78753591  1
  Cl  Cl37  1  0.21699182  0.41452099  0.78753591  1
  Cl  Cl38  1  0.58547901  0.80247083  0.78753591  1
  Cl  Cl39  1  0.78300818  0.19752917  0.71246409  1
  Cl  Cl40  1  0.41452099  0.21699182  0.71246409  1
  Cl  Cl41  1  0.80247083  0.58547901  0.71246409  1
  Cl  Cl42  1  0.80247083  0.21699182  0.21246409  1
  Cl  Cl43  1  0.78300818  0.58547901  0.21246409  1
  Cl  Cl44  1  0.41452099  0.19752917  0.21246409  1
  Cl  Cl45  1  0.21699182  0.80247083  0.28753591  1
  Cl  Cl46  1  0.58547901  0.78300818  0.28753591  1
  Cl  Cl47  1  0.19752917  0.41452099  0.28753591  1
  Cl  Cl48  1  0.86419583  0.11634151  0.12086924  1
  Cl  Cl49  1  0.88365849  0.74785432  0.12086924  1
  Cl  Cl50  1  0.25214568  0.13580417  0.12086924  1
  Cl  Cl51  1  0.44967485  0.53086250  0.04579743  1
  Cl  Cl52  1  0.08118765  0.55032515  0.04579743  1
  Cl  Cl53  1  0.46913750  0.91881235  0.04579743  1
  Cl  Cl54  1  0.46913750  0.55032515  0.54579743  1
  Cl  Cl55  1  0.44967485  0.91881235  0.54579743  1
  Cl  Cl56  1  0.08118765  0.53086250  0.54579743  1
  Cl  Cl57  1  0.88365849  0.13580417  0.62086924  1
  Cl  Cl58  1  0.25214568  0.11634151  0.62086924  1
  Cl  Cl59  1  0.86419583  0.74785432  0.62086924  1
  Cl  Cl60  1  0.53086250  0.44967485  0.45420257  1
  Cl  Cl61  1  0.55032515  0.08118765  0.45420257  1
  Cl  Cl62  1  0.91881235  0.46913750  0.45420257  1
  Cl  Cl63  1  0.11634151  0.86419583  0.37913076  1
  Cl  Cl64  1  0.74785432  0.88365849  0.37913076  1
  Cl  Cl65  1  0.13580417  0.25214568  0.37913076  1
  Cl  Cl66  1  0.13580417  0.88365849  0.87913076  1
  Cl  Cl67  1  0.11634151  0.25214568  0.87913076  1
  Cl  Cl68  1  0.74785432  0.86419583  0.87913076  1
  Cl  Cl69  1  0.55032515  0.46913750  0.95420257  1
  Cl  Cl70  1  0.91881235  0.44967485  0.95420257  1
  Cl  Cl71  1  0.53086250  0.08118765  0.95420257  1
  Li  Li72  1  0.23631767  0.52153244  0.25480290  1
  Li  Li73  1  0.47846756  0.71478523  0.25480290  1
  Li  Li74  1  0.28521477  0.76368233  0.25480290  1
  Li  Li75  1  0.52153244  0.23631767  0.24519710  1
  Li  Li76  1  0.71478523  0.47846756  0.24519710  1
  Li  Li77  1  0.76368233  0.28521477  0.24519710  1
  Li  Li78  1  0.76368233  0.47846756  0.74519710  1
  Li  Li79  1  0.52153244  0.28521477  0.74519710  1
  Li  Li80  1  0.71478523  0.23631767  0.74519710  1
  Li  Li81  1  0.47846756  0.76368233  0.75480290  1
  Li  Li82  1  0.28521477  0.52153244  0.75480290  1
  Li  Li83  1  0.23631767  0.71478523  0.75480290  1
  Li  Li84  1  0.90298434  0.85486578  0.58813624  1
  Li  Li85  1  0.14513422  0.04811856  0.58813624  1
  Li  Li86  1  0.95188144  0.09701566  0.58813624  1
  Li  Li87  1  0.18819911  0.56965101  0.57853043  1
  Li  Li88  1  0.38145190  0.81180089  0.57853043  1
  Li  Li89  1  0.43034899  0.61854810  0.57853043  1
  Li  Li90  1  0.43034899  0.81180089  0.07853043  1
  Li  Li91  1  0.18819911  0.61854810  0.07853043  1
  Li  Li92  1  0.38145190  0.56965101  0.07853043  1
  Li  Li93  1  0.14513422  0.09701566  0.08813624  1
  Li  Li94  1  0.95188144  0.85486578  0.08813624  1
  Li  Li95  1  0.90298434  0.04811856  0.08813624  1
  Li  Li96  1  0.56965101  0.18819911  0.92146957  1
  Li  Li97  1  0.81180089  0.38145190  0.92146957  1
  Li  Li98  1  0.61854810  0.43034899  0.92146957  1
  Li  Li99  1  0.85486578  0.90298434  0.91186376  1
  Li  Li100  1  0.04811856  0.14513422  0.91186376  1
  Li  Li101  1  0.09701566  0.95188144  0.91186376  1
  Li  Li102  1  0.09701566  0.14513422  0.41186376  1
  Li  Li103  1  0.85486578  0.95188144  0.41186376  1
  Li  Li104  1  0.04811856  0.90298434  0.41186376  1
  Li  Li105  1  0.81180089  0.43034899  0.42146957  1
  Li  Li106  1  0.61854810  0.18819911  0.42146957  1
  Li  Li107  1  0.56965101  0.38145190  0.42146957  1
  Li  Li108  1  0.69522967  -0.00000000  0.25000000  1
  Li  Li109  1  0.00000000  0.69522967  0.25000000  1
  Li  Li110  1  0.30477033  0.30477033  0.25000000  1
  Li  Li111  1  0.30477033  -0.00000000  0.75000000  1
  Li  Li112  1  0.00000000  0.30477033  0.75000000  1
  Li  Li113  1  0.69522967  0.69522967  0.75000000  1
  Li  Li114  1  0.36189633  0.33333333  0.58333333  1
  Li  Li115  1  0.66666667  0.02856300  0.58333333  1
  Li  Li116  1  0.97143700  0.63810367  0.58333333  1
  Li  Li117  1  0.97143700  0.33333333  0.08333333  1
  Li  Li118  1  0.66666667  0.63810367  0.08333333  1
  Li  Li119  1  0.36189633  0.02856300  0.08333333  1
  Li  Li120  1  0.02856300  0.66666667  0.91666667  1
  Li  Li121  1  0.33333333  0.36189633  0.91666667  1
  Li  Li122  1  0.63810367  0.97143700  0.91666667  1
  Li  Li123  1  0.63810367  0.66666667  0.41666667  1
  Li  Li124  1  0.33333333  0.97143700  0.41666667  1
  Li  Li125  1  0.02856300  0.36189633  0.41666667  1
  Li  Li126  1  0.53668044  -0.00000000  0.25000000  1
  Li  Li127  1  0.00000000  0.53668044  0.25000000  1
  Li  Li128  1  0.46331956  0.46331956  0.25000000  1
  Li  Li129  1  0.46331956  -0.00000000  0.75000000  1
  Li  Li130  1  0.00000000  0.46331956  0.75000000  1
  Li  Li131  1  0.53668044  0.53668044  0.75000000  1
  Li  Li132  1  0.20334710  0.33333333  0.58333333  1
  Li  Li133  1  0.66666667  0.87001377  0.58333333  1
  Li  Li134  1  0.12998623  0.79665290  0.58333333  1
  Li  Li135  1  0.12998623  0.33333333  0.08333333  1
  Li  Li136  1  0.66666667  0.79665290  0.08333333  1
  Li  Li137  1  0.20334710  0.87001377  0.08333333  1
  Li  Li138  1  0.87001377  0.66666667  0.91666667  1
  Li  Li139  1  0.33333333  0.20334710  0.91666667  1
  Li  Li140  1  0.79665290  0.12998623  0.91666667  1
  Li  Li141  1  0.79665290  0.66666667  0.41666667  1
  Li  Li142  1  0.33333333  0.12998623  0.41666667  1
  Li  Li143  1  0.87001377  0.20334710  0.41666667  1
