# generated using pymatgen
data_LiF
_symmetry_space_group_name_H-M   'P 1'
_cell_length_a   11.11163876
_cell_length_b   12.49031252
_cell_length_c   16.01061243
_cell_angle_alpha   90.00000000
_cell_angle_beta   90.00000000
_cell_angle_gamma   90.00000000
_symmetry_Int_Tables_number   1
_chemical_formula_structural   LiF
_chemical_formula_sum   'Li56 F56'
_cell_volume   2222.07832658
_cell_formula_units_Z   56
loop_
 _symmetry_equiv_pos_site_id
 _symmetry_equiv_pos_as_xyz
  1  'x, y, z'
loop_
 _atom_site_type_symbol
 _atom_site_label
 _atom_site_symmetry_multiplicity
 _atom_site_fract_x
 _atom_site_fract_y
 _atom_site_fract_z
 _atom_site_occupancy
  F  F0  1  0.46509566  0.25000000  0.44784295  1
  F  F1  1  0.03490434  0.75000000  0.94784295  1
  F  F2  1  0.53490434  0.75000000  0.55215705  1
  F  F3  1  0.96509566  0.25000000  0.05215705  1
  F  F4  1  0.10013594  0.25000000  0.29118948  1
  F  F5  1  0.39986406  0.75000000  0.79118948  1
  F  F6  1  0.89986406  0.75000000  0.70881052  1
  F  F7  1  0.60013594  0.25000000  0.20881052  1
  F  F8  1  0.23689324  0.53181073  0.98746055  1
  F  F9  1  0.26310676  0.46818927  0.48746055  1
  F  F10  1  0.76310676  0.03181073  0.01253945  1
  F  F11  1  0.73689324  0.96818927  0.51253945  1
  F  F12  1  0.76310676  0.46818927  0.01253945  1
  F  F13  1  0.73689324  0.53181073  0.51253945  1
  F  F14  1  0.23689324  0.96818927  0.98746055  1
  F  F15  1  0.26310676  0.03181073  0.48746055  1
  F  F16  1  0.23652344  0.22366065  0.14677881  1
  F  F17  1  0.26347656  0.77633935  0.64677881  1
  F  F18  1  0.76347656  0.72366065  0.85322119  1
  F  F19  1  0.73652344  0.27633935  0.35322119  1
  F  F20  1  0.76347656  0.77633935  0.85322119  1
  F  F21  1  0.73652344  0.22366065  0.35322119  1
  F  F22  1  0.23652344  0.27633935  0.14677881  1
  F  F23  1  0.26347656  0.72366065  0.64677881  1
  F  F24  1  0.08538431  0.53981414  0.41583110  1
  F  F25  1  0.41461569  0.46018586  0.91583110  1
  F  F26  1  0.91461569  0.03981414  0.58416890  1
  F  F27  1  0.58538431  0.96018586  0.08416890  1
  F  F28  1  0.91461569  0.46018586  0.58416890  1
  F  F29  1  0.58538431  0.53981414  0.08416890  1
  F  F30  1  0.08538431  0.96018586  0.41583110  1
  F  F31  1  0.41461569  0.03981414  0.91583110  1
  F  F32  1  0.74590679  0.36374311  0.30636795  1
  F  F33  1  0.75409321  0.63625689  0.80636795  1
  F  F34  1  0.25409321  0.86374311  0.69363205  1
  F  F35  1  0.24590679  0.13625689  0.19363205  1
  F  F36  1  0.25409321  0.63625689  0.69363205  1
  F  F37  1  0.24590679  0.36374311  0.19363205  1
  F  F38  1  0.74590679  0.13625689  0.30636795  1
  F  F39  1  0.75409321  0.86374311  0.80636795  1
  F  F40  1  0.02339726  0.25000000  0.80405525  1
  F  F41  1  0.47660274  0.75000000  0.30405525  1
  F  F42  1  0.97660274  0.75000000  0.19594475  1
  F  F43  1  0.52339726  0.25000000  0.69594475  1
  F  F44  1  0.13359999  0.00318500  0.80521613  1
  F  F45  1  0.36640001  0.99681500  0.30521613  1
  F  F46  1  0.86640001  0.50318500  0.19478387  1
  F  F47  1  0.63359999  0.49681500  0.69478387  1
  F  F48  1  0.86640001  0.99681500  0.19478387  1
  F  F49  1  0.63359999  0.00318500  0.69478387  1
  F  F50  1  0.13359999  0.49681500  0.80521613  1
  F  F51  1  0.36640001  0.50318500  0.30521613  1
  F  F52  1  0.60486925  0.25000000  0.64887754  1
  F  F53  1  0.89513075  0.75000000  0.14887754  1
  F  F54  1  0.39513075  0.75000000  0.35112246  1
  F  F55  1  0.10486925  0.25000000  0.85112246  1
  Li  Li56  1  0.00000000  0.00000000  0.00000000  1
  Li  Li57  1  0.50000000  -0.00000000  0.50000000  1
  Li  Li58  1  0.00000000  0.50000000  -0.00000000  1
  Li  Li59  1  0.50000000  0.50000000  0.50000000  1
  Li  Li60  1  0.18548393  0.31078215  0.72750889  1
  Li  Li61  1  0.31451607  -0.31078215  1.22750889  1
  Li  Li62  1  -0.18548393  0.81078215  -0.72750889  1
  Li  Li63  1  0.68548393  0.18921785  -0.22750889  1
  Li  Li64  1  -0.18548393  -0.31078215  -0.72750889  1
  Li  Li65  1  0.68548393  0.31078215  -0.22750889  1
  Li  Li66  1  0.18548393  0.18921785  0.72750889  1
  Li  Li67  1  0.31451607  0.81078215  1.22750889  1
  Li  Li68  1  0.51313070  0.25000000  0.03940821  1
  Li  Li69  1  0.98686930  0.75000000  0.53940821  1
  Li  Li70  1  0.48686930  0.75000000  0.96059179  1
  Li  Li71  1  0.01313070  0.25000000  0.46059179  1
  Li  Li72  1  0.47054588  0.25000000  0.26227279  1
  Li  Li73  1  0.02945412  0.75000000  0.76227279  1
  Li  Li74  1  0.52945412  0.75000000  0.73772721  1
  Li  Li75  1  0.97054588  0.25000000  0.23772721  1
  Li  Li76  1  0.91970596  0.25000000  0.41265915  1
  Li  Li77  1  0.58029404  0.75000000  0.91265915  1
  Li  Li78  1  0.08029404  0.75000000  0.58734085  1
  Li  Li79  1  0.41970596  0.25000000  0.08734085  1
  Li  Li80  1  0.59571797  0.89439747  0.57889186  1
  Li  Li81  1  0.90428203  0.10560253  0.07889186  1
  Li  Li82  1  0.40428203  0.39439747  0.42110814  1
  Li  Li83  1  0.09571797  0.60560253  0.92110814  1
  Li  Li84  1  0.40428203  0.10560253  0.42110814  1
  Li  Li85  1  0.09571797  0.89439747  0.92110814  1
  Li  Li86  1  0.59571797  0.60560253  0.57889186  1
  Li  Li87  1  0.90428203  0.39439747  0.07889186  1
  Li  Li88  1  0.00000000  0.00000000  0.50000000  1
  Li  Li89  1  0.50000000  -0.00000000  -0.00000000  1
  Li  Li90  1  0.00000000  0.50000000  0.50000000  1
  Li  Li91  1  0.50000000  0.50000000  -0.00000000  1
  Li  Li92  1  0.12553579  0.34270705  0.36420135  1
  Li  Li93  1  0.37446421  0.65729295  0.86420135  1
  Li  Li94  1  0.87446421  0.84270705  0.63579865  1
  Li  Li95  1  0.62553579  0.15729295  0.13579865  1
  Li  Li96  1  0.87446421  0.65729295  0.63579865  1
  Li  Li97  1  0.62553579  0.34270705  0.13579865  1
  Li  Li98  1  0.12553579  0.15729295  0.36420135  1
  Li  Li99  1  0.37446421  0.84270705  0.86420135  1
  Li  Li100  1  0.73947783  0.25000000  0.19380337  1
  Li  Li101  1  0.76052217  0.75000000  0.69380337  1
  Li  Li102  1  0.26052217  0.75000000  0.80619663  1
  Li  Li103  1  0.23947783  0.25000000  0.30619663  1
  Li  Li104  1  0.45190123  0.61195271  0.54252494  1
  Li  Li105  1  0.04809877  0.38804729  0.04252494  1
  Li  Li106  1  0.54809877  0.11195271  0.45747506  1
  Li  Li107  1  0.95190123  0.88804729  0.95747506  1
  Li  Li108  1  0.54809877  0.38804729  0.45747506  1
  Li  Li109  1  0.95190123  0.61195271  0.95747506  1
  Li  Li110  1  0.45190123  0.88804729  0.54252494  1
  Li  Li111  1  0.04809877  0.11195271  0.04252494  1
