# generated using pymatgen
data_LiF
_symmetry_space_group_name_H-M   'P 1'
_cell_length_a   6.46996071
_cell_length_b   6.46996071
_cell_length_c   21.28907408
_cell_angle_alpha   90.00000000
_cell_angle_beta   90.00000000
_cell_angle_gamma   120.00000000
_symmetry_Int_Tables_number   1
_chemical_formula_structural   LiF
_chemical_formula_sum   'Li25 F25'
_cell_volume   771.77497304
_cell_formula_units_Z   25
loop_
 _symmetry_equiv_pos_site_id
 _symmetry_equiv_pos_as_xyz
  1  'x, y, z'
loop_
 _atom_site_type_symbol
 _atom_site_label
 _atom_site_symmetry_multiplicity
 _atom_site_fract_x
 _atom_site_fract_y
 _atom_site_fract_z
 _atom_site_occupancy
  F  F0  1  0.91136175  0.47495927  0.00000000  1
  F  F1  1  0.52504073  0.43640248  -0.00000000  1
  F  F2  1  0.56359752  0.08863825  0.00000000  1
  F  F3  1  0.47495927  0.91136175  0.00000000  1
  F  F4  1  0.43640248  0.52504073  -0.00000000  1
  F  F5  1  0.08863825  0.56359752  -0.00000000  1
  F  F6  1  0.85049215  0.73209349  0.28180952  1
  F  F7  1  0.26790651  0.11839866  0.28180952  1
  F  F8  1  0.88160134  0.14950785  0.28180952  1
  F  F9  1  0.85049215  0.73209349  0.71819048  1
  F  F10  1  0.26790651  0.11839866  0.71819048  1
  F  F11  1  0.88160134  0.14950785  0.71819048  1
  F  F12  1  0.73209349  0.85049215  0.71819048  1
  F  F13  1  0.11839866  0.26790651  0.71819048  1
  F  F14  1  0.14950785  0.88160134  0.71819048  1
  F  F15  1  0.73209349  0.85049215  0.28180952  1
  F  F16  1  0.11839866  0.26790651  0.28180952  1
  F  F17  1  0.14950785  0.88160134  0.28180952  1
  F  F18  1  0.60560466  0.37272214  0.50000000  1
  F  F19  1  0.62727786  0.23288252  0.50000000  1
  F  F20  1  0.76711748  0.39439534  0.50000000  1
  F  F21  1  0.37272214  0.60560466  0.50000000  1
  F  F22  1  0.23288252  0.62727786  0.50000000  1
  F  F23  1  0.39439534  0.76711748  0.50000000  1
  F  F24  1  0.00000000  0.00000000  0.50000000  1
  Li  Li25  1  0.54817558  0.00000000  0.67470993  1
  Li  Li26  1  0.00000000  0.54817558  0.67470993  1
  Li  Li27  1  0.45182442  0.45182442  0.67470993  1
  Li  Li28  1  0.54817558  0.00000000  0.32529007  1
  Li  Li29  1  0.00000000  0.54817558  0.32529007  1
  Li  Li30  1  0.45182442  0.45182442  0.32529007  1
  Li  Li31  1  0.84238307  0.57255952  0.96281774  1
  Li  Li32  1  -0.57255952  0.26982355  0.96281774  1
  Li  Li33  1  -0.26982355  -0.84238307  0.96281774  1
  Li  Li34  1  0.84238307  0.57255952  -0.96281774  1
  Li  Li35  1  -0.57255952  0.26982355  -0.96281774  1
  Li  Li36  1  -0.26982355  -0.84238307  -0.96281774  1
  Li  Li37  1  0.57255952  0.84238307  -0.96281774  1
  Li  Li38  1  0.26982355  -0.57255952  -0.96281774  1
  Li  Li39  1  -0.84238307  -0.26982355  -0.96281774  1
  Li  Li40  1  0.57255952  0.84238307  0.96281774  1
  Li  Li41  1  0.26982355  -0.57255952  0.96281774  1
  Li  Li42  1  -0.84238307  -0.26982355  0.96281774  1
  Li  Li43  1  0.00000000  0.00000000  0.33041513  1
  Li  Li44  1  0.00000000  0.00000000  0.66958487  1
  Li  Li45  1  0.33333333  0.66666667  0.93746360  1
  Li  Li46  1  0.33333333  0.66666667  0.06253640  1
  Li  Li47  1  0.66666667  0.33333333  0.06253640  1
  Li  Li48  1  0.66666667  0.33333333  0.93746360  1
  Li  Li49  1  0.00000000  0.00000000  0.00000000  1
