# generated using pymatgen
data_Li2O
_symmetry_space_group_name_H-M   'P 1'
_cell_length_a   8.51617596
_cell_length_b   8.51617596
_cell_length_c   13.06819884
_cell_angle_alpha   90.00000000
_cell_angle_beta   90.00000000
_cell_angle_gamma   120.00000000
_symmetry_Int_Tables_number   1
_chemical_formula_structural   Li2O
_chemical_formula_sum   'Li46 O23'
_cell_volume   820.79673139
_cell_formula_units_Z   23
loop_
 _symmetry_equiv_pos_site_id
 _symmetry_equiv_pos_as_xyz
  1  'x, y, z'
loop_
 _atom_site_type_symbol
 _atom_site_label
 _atom_site_symmetry_multiplicity
 _atom_site_fract_x
 _atom_site_fract_y
 _atom_site_fract_z
 _atom_site_occupancy
  Li  Li0  1  0.13201004  0.00000000  0.50000000  1
  Li  Li1  1  0.00000000  0.13201004  0.50000000  1
  Li  Li2  1  0.86798996  0.86798996  0.50000000  1
  Li  Li3  1  0.76141043  0.00000000  0.00000000  1
  Li  Li4  1  0.00000000  0.76141043  0.00000000  1
  Li  Li5  1  0.23858957  0.23858957  -0.00000000  1
  Li  Li6  1  0.33333333  0.66666667  0.00000000  1
  Li  Li7  1  0.66666667  0.33333333  0.00000000  1
  Li  Li8  1  0.18005748  0.00000000  0.15212505  1
  Li  Li9  1  0.00000000  0.18005748  0.15212505  1
  Li  Li10  1  0.81994252  0.81994252  0.15212505  1
  Li  Li11  1  0.18005748  0.00000000  0.84787495  1
  Li  Li12  1  0.00000000  0.18005748  0.84787495  1
  Li  Li13  1  0.81994252  0.81994252  0.84787495  1
  Li  Li14  1  0.72406574  0.84179303  0.24161755  1
  Li  Li15  1  -0.84179303  -0.11772729  0.24161755  1
  Li  Li16  1  0.11772729  -0.72406574  0.24161755  1
  Li  Li17  1  0.72406574  0.84179303  -0.24161755  1
  Li  Li18  1  -0.84179303  -0.11772729  -0.24161755  1
  Li  Li19  1  0.11772729  -0.72406574  -0.24161755  1
  Li  Li20  1  0.84179303  0.72406574  -0.24161755  1
  Li  Li21  1  -0.11772729  -0.84179303  -0.24161755  1
  Li  Li22  1  -0.72406574  0.11772729  -0.24161755  1
  Li  Li23  1  0.84179303  0.72406574  0.24161755  1
  Li  Li24  1  -0.11772729  -0.84179303  0.24161755  1
  Li  Li25  1  -0.72406574  0.11772729  0.24161755  1
  Li  Li26  1  0.17826387  0.45845841  0.50000000  1
  Li  Li27  1  0.54154159  0.71980546  0.50000000  1
  Li  Li28  1  0.28019454  0.82173613  0.50000000  1
  Li  Li29  1  0.45845841  0.17826387  0.50000000  1
  Li  Li30  1  0.71980546  0.54154159  0.50000000  1
  Li  Li31  1  0.82173613  0.28019454  0.50000000  1
  Li  Li32  1  0.74882951  0.00000000  0.88017731  1
  Li  Li33  1  0.00000000  0.74882951  0.88017731  1
  Li  Li34  1  0.25117049  0.25117049  0.88017731  1
  Li  Li35  1  0.74882951  0.00000000  0.11982269  1
  Li  Li36  1  0.00000000  0.74882951  0.11982269  1
  Li  Li37  1  0.25117049  0.25117049  0.11982269  1
  Li  Li38  1  0.91089339  0.51496540  0.50000000  1
  Li  Li39  1  0.48503460  0.39592799  0.50000000  1
  Li  Li40  1  0.60407201  0.08910661  0.50000000  1
  Li  Li41  1  0.51496540  0.91089339  0.50000000  1
  Li  Li42  1  0.39592799  0.48503460  0.50000000  1
  Li  Li43  1  0.08910661  0.60407201  0.50000000  1
  Li  Li44  1  0.33333333  0.66666667  0.50000000  1
  Li  Li45  1  0.66666667  0.33333333  0.50000000  1
  O  O46  1  0.13717162  0.87542895  0.37040834  1
  O  O47  1  0.12457105  0.26174267  0.37040834  1
  O  O48  1  0.73825733  0.86282838  0.37040834  1
  O  O49  1  0.13717162  0.87542895  0.62959166  1
  O  O50  1  0.12457105  0.26174267  0.62959166  1
  O  O51  1  0.73825733  0.86282838  0.62959166  1
  O  O52  1  0.87542895  0.13717162  0.62959166  1
  O  O53  1  0.26174267  0.12457105  0.62959166  1
  O  O54  1  0.86282838  0.73825733  0.62959166  1
  O  O55  1  0.87542895  0.13717162  0.37040834  1
  O  O56  1  0.26174267  0.12457105  0.37040834  1
  O  O57  1  0.86282838  0.73825733  0.37040834  1
  O  O58  1  0.00000000  0.00000000  0.00000000  1
  O  O59  1  0.57418030  0.00000000  0.00000000  1
  O  O60  1  0.00000000  0.57418030  0.00000000  1
  O  O61  1  0.42581970  0.42581970  -0.00000000  1
  O  O62  1  0.82006160  0.00000000  0.50000000  1
  O  O63  1  0.00000000  0.82006160  0.50000000  1
  O  O64  1  0.17993840  0.17993840  0.50000000  1
  O  O65  1  0.33333333  0.66666667  0.86587312  1
  O  O66  1  0.33333333  0.66666667  0.13412688  1
  O  O67  1  0.66666667  0.33333333  0.13412688  1
  O  O68  1  0.66666667  0.33333333  0.86587312  1
