# generated using pymatgen
data_Li4TeF2
_symmetry_space_group_name_H-M   'P 1'
_cell_length_a   21.66546900
_cell_length_b   21.66546900
_cell_length_c   7.20408147
_cell_angle_alpha   90.00000000
_cell_angle_beta   90.00000000
_cell_angle_gamma   90.00000000
_symmetry_Int_Tables_number   1
_chemical_formula_structural   Li4TeF2
_chemical_formula_sum   'Li96 Te24 F48'
_cell_volume   3381.54214868
_cell_formula_units_Z   24
loop_
 _symmetry_equiv_pos_site_id
 _symmetry_equiv_pos_as_xyz
  1  'x, y, z'
loop_
 _atom_site_type_symbol
 _atom_site_label
 _atom_site_symmetry_multiplicity
 _atom_site_fract_x
 _atom_site_fract_y
 _atom_site_fract_z
 _atom_site_occupancy
  F  F0  1  0.43476612  0.10525810  0.63565907  1
  F  F1  1  0.06523388  -0.10525810  1.13565907  1
  F  F2  1  0.14474190  1.18476612  0.88565907  1
  F  F3  1  0.35525810  -0.18476612  1.38565907  1
  F  F4  1  0.06523388  0.10525810  -0.63565907  1
  F  F5  1  0.43476612  -0.10525810  -0.13565907  1
  F  F6  1  0.35525810  1.18476612  0.11434093  1
  F  F7  1  0.14474190  -0.18476612  -0.38565907  1
  F  F8  1  -0.43476612  -0.10525810  -0.63565907  1
  F  F9  1  0.93476612  0.10525810  -0.13565907  1
  F  F10  1  0.85525810  -0.18476612  0.11434093  1
  F  F11  1  0.64474190  1.18476612  -0.38565907  1
  F  F12  1  0.93476612  -0.10525810  0.63565907  1
  F  F13  1  -0.43476612  0.10525810  1.13565907  1
  F  F14  1  0.64474190  -0.18476612  0.88565907  1
  F  F15  1  0.85525810  1.18476612  1.38565907  1
  F  F16  1  0.93476612  0.60525810  1.13565907  1
  F  F17  1  0.56523388  0.39474190  1.63565907  1
  F  F18  1  0.64474190  1.68476612  1.38565907  1
  F  F19  1  0.85525810  0.31523388  1.88565907  1
  F  F20  1  0.56523388  0.60525810  -0.13565907  1
  F  F21  1  0.93476612  0.39474190  0.36434093  1
  F  F22  1  0.85525810  1.68476612  0.61434093  1
  F  F23  1  0.64474190  0.31523388  0.11434093  1
  F  F24  1  0.06523388  0.39474190  -0.13565907  1
  F  F25  1  1.43476612  0.60525810  0.36434093  1
  F  F26  1  1.35525810  0.31523388  0.61434093  1
  F  F27  1  1.14474190  1.68476612  0.11434093  1
  F  F28  1  1.43476612  0.39474190  1.13565907  1
  F  F29  1  0.06523388  0.60525810  1.63565907  1
  F  F30  1  1.14474190  0.31523388  1.38565907  1
  F  F31  1  1.35525810  1.68476612  1.88565907  1
  F  F32  1  0.25606478  0.00000000  0.25000000  1
  F  F33  1  0.24393522  -0.00000000  0.75000000  1
  F  F34  1  0.25000000  0.00606478  0.50000000  1
  F  F35  1  0.25000000  0.99393522  0.00000000  1
  F  F36  1  0.74393522  -0.00000000  0.75000000  1
  F  F37  1  0.75606478  -0.00000000  0.25000000  1
  F  F38  1  0.75000000  0.99393522  0.50000000  1
  F  F39  1  0.75000000  0.00606478  0.00000000  1
  F  F40  1  0.75606478  0.50000000  0.75000000  1
  F  F41  1  0.74393522  0.50000000  0.25000000  1
  F  F42  1  0.75000000  0.50606478  -0.00000000  1
  F  F43  1  0.75000000  0.49393522  0.50000000  1
  F  F44  1  0.24393522  0.50000000  0.25000000  1
  F  F45  1  0.25606478  0.50000000  0.75000000  1
  F  F46  1  0.25000000  0.49393522  0.00000000  1
  F  F47  1  0.25000000  0.50606478  0.50000000  1
  Li  Li48  1  0.05212830  0.30212830  0.12500000  1
  Li  Li49  1  0.44787170  0.69787170  0.62500000  1
  Li  Li50  1  0.94787170  0.80212830  0.37500000  1
  Li  Li51  1  0.55212830  0.19787170  0.87500000  1
  Li  Li52  1  0.94787170  0.69787170  0.87500000  1
  Li  Li53  1  0.55212830  0.30212830  0.37500000  1
  Li  Li54  1  0.05212830  0.19787170  0.62500000  1
  Li  Li55  1  0.44787170  0.80212830  0.12500000  1
  Li  Li56  1  0.55212830  0.80212830  0.62500000  1
  Li  Li57  1  0.94787170  0.19787170  0.12500000  1
  Li  Li58  1  0.44787170  0.30212830  0.87500000  1
  Li  Li59  1  0.05212830  0.69787170  0.37500000  1
  Li  Li60  1  0.44787170  0.19787170  0.37500000  1
  Li  Li61  1  0.05212830  0.80212830  0.87500000  1
  Li  Li62  1  0.55212830  0.69787170  0.12500000  1
  Li  Li63  1  0.94787170  0.30212830  0.62500000  1
  Li  Li64  1  0.13385977  -0.00000000  0.25000000  1
  Li  Li65  1  0.36614023  -0.00000000  0.75000000  1
  Li  Li66  1  0.25000000  0.88385977  0.50000000  1
  Li  Li67  1  0.25000000  0.11614023  0.00000000  1
  Li  Li68  1  0.86614023  -0.00000000  0.75000000  1
  Li  Li69  1  0.63385977  -0.00000000  0.25000000  1
  Li  Li70  1  0.75000000  0.11614023  0.50000000  1
  Li  Li71  1  0.75000000  0.88385977  -0.00000000  1
  Li  Li72  1  0.63385977  0.50000000  0.75000000  1
  Li  Li73  1  0.86614023  0.50000000  0.25000000  1
  Li  Li74  1  0.75000000  0.38385977  -0.00000000  1
  Li  Li75  1  0.75000000  0.61614023  0.50000000  1
  Li  Li76  1  0.36614023  0.50000000  0.25000000  1
  Li  Li77  1  0.13385977  0.50000000  0.75000000  1
  Li  Li78  1  0.25000000  0.61614023  0.00000000  1
  Li  Li79  1  0.25000000  0.38385977  0.50000000  1
  Li  Li80  1  0.13973536  0.10061294  0.49139337  1
  Li  Li81  1  0.36026464  0.89938706  0.99139337  1
  Li  Li82  1  0.14938706  0.88973536  0.74139337  1
  Li  Li83  1  0.35061294  0.11026464  0.24139337  1
  Li  Li84  1  0.36026464  0.10061294  0.50860663  1
  Li  Li85  1  0.13973536  0.89938706  0.00860663  1
  Li  Li86  1  0.35061294  0.88973536  0.25860663  1
  Li  Li87  1  0.14938706  0.11026464  0.75860663  1
  Li  Li88  1  0.86026464  0.89938706  0.50860663  1
  Li  Li89  1  0.63973536  0.10061294  0.00860663  1
  Li  Li90  1  0.85061294  0.11026464  0.25860663  1
  Li  Li91  1  0.64938706  0.88973536  0.75860663  1
  Li  Li92  1  0.63973536  0.89938706  0.49139337  1
  Li  Li93  1  0.86026464  0.10061294  0.99139337  1
  Li  Li94  1  0.64938706  0.11026464  0.74139337  1
  Li  Li95  1  0.85061294  0.88973536  0.24139337  1
  Li  Li96  1  0.63973536  0.60061294  0.99139337  1
  Li  Li97  1  0.86026464  0.39938706  0.49139337  1
  Li  Li98  1  0.64938706  0.38973536  0.24139337  1
  Li  Li99  1  0.85061294  0.61026464  0.74139337  1
  Li  Li100  1  0.86026464  0.60061294  0.00860663  1
  Li  Li101  1  0.63973536  0.39938706  0.50860663  1
  Li  Li102  1  0.85061294  0.38973536  0.75860663  1
  Li  Li103  1  0.64938706  0.61026464  0.25860663  1
  Li  Li104  1  0.36026464  0.39938706  0.00860663  1
  Li  Li105  1  0.13973536  0.60061294  0.50860663  1
  Li  Li106  1  0.35061294  0.61026464  0.75860663  1
  Li  Li107  1  0.14938706  0.38973536  0.25860663  1
  Li  Li108  1  0.13973536  0.39938706  0.99139337  1
  Li  Li109  1  0.36026464  0.60061294  0.49139337  1
  Li  Li110  1  0.14938706  0.61026464  0.24139337  1
  Li  Li111  1  0.35061294  0.38973536  0.74139337  1
  Li  Li112  1  0.26299912  0.65410234  0.69031273  1
  Li  Li113  1  0.23700088  0.34589766  0.19031273  1
  Li  Li114  1  0.59589766  0.01299912  0.94031273  1
  Li  Li115  1  0.90410234  0.98700088  0.44031273  1
  Li  Li116  1  0.23700088  0.65410234  0.30968727  1
  Li  Li117  1  0.26299912  0.34589766  0.80968727  1
  Li  Li118  1  0.90410234  0.01299912  0.05968727  1
  Li  Li119  1  0.59589766  0.98700088  0.55968727  1
  Li  Li120  1  0.73700088  0.34589766  0.30968727  1
  Li  Li121  1  0.76299912  0.65410234  0.80968727  1
  Li  Li122  1  0.40410234  0.98700088  0.05968727  1
  Li  Li123  1  0.09589766  0.01299912  0.55968727  1
  Li  Li124  1  0.76299912  0.34589766  0.69031273  1
  Li  Li125  1  0.73700088  0.65410234  0.19031273  1
  Li  Li126  1  0.09589766  0.98700088  0.94031273  1
  Li  Li127  1  0.40410234  0.01299912  0.44031273  1
  Li  Li128  1  0.76299912  0.15410234  0.19031273  1
  Li  Li129  1  0.73700088  0.84589766  0.69031273  1
  Li  Li130  1  0.09589766  0.51299912  0.44031273  1
  Li  Li131  1  0.40410234  0.48700088  0.94031273  1
  Li  Li132  1  0.73700088  0.15410234  0.80968727  1
  Li  Li133  1  0.76299912  0.84589766  0.30968727  1
  Li  Li134  1  0.40410234  0.51299912  0.55968727  1
  Li  Li135  1  0.09589766  0.48700088  0.05968727  1
  Li  Li136  1  0.23700088  0.84589766  0.80968727  1
  Li  Li137  1  0.26299912  0.15410234  0.30968727  1
  Li  Li138  1  0.90410234  0.48700088  0.55968727  1
  Li  Li139  1  0.59589766  0.51299912  0.05968727  1
  Li  Li140  1  0.26299912  0.84589766  0.19031273  1
  Li  Li141  1  0.23700088  0.15410234  0.69031273  1
  Li  Li142  1  0.59589766  0.48700088  0.44031273  1
  Li  Li143  1  0.90410234  0.51299912  0.94031273  1
  Te  Te144  1  0.00000000  0.25000000  0.12500000  1
  Te  Te145  1  0.00000000  0.75000000  0.37500000  1
  Te  Te146  1  0.00000000  0.75000000  0.87500000  1
  Te  Te147  1  0.00000000  0.25000000  0.62500000  1
  Te  Te148  1  0.50000000  0.75000000  0.62500000  1
  Te  Te149  1  0.50000000  0.25000000  0.87500000  1
  Te  Te150  1  0.50000000  0.25000000  0.37500000  1
  Te  Te151  1  0.50000000  0.75000000  0.12500000  1
  Te  Te152  1  0.00000000  0.00000000  0.00000000  1
  Te  Te153  1  0.50000000  0.00000000  0.50000000  1
  Te  Te154  1  0.25000000  0.75000000  0.25000000  1
  Te  Te155  1  0.25000000  0.25000000  0.75000000  1
  Te  Te156  1  0.50000000  0.00000000  0.00000000  1
  Te  Te157  1  0.00000000  0.00000000  0.50000000  1
  Te  Te158  1  0.25000000  0.75000000  0.75000000  1
  Te  Te159  1  0.25000000  0.25000000  0.25000000  1
  Te  Te160  1  0.50000000  0.50000000  0.50000000  1
  Te  Te161  1  0.00000000  0.50000000  0.00000000  1
  Te  Te162  1  0.75000000  0.25000000  0.75000000  1
  Te  Te163  1  0.75000000  0.75000000  0.25000000  1
  Te  Te164  1  0.00000000  0.50000000  0.50000000  1
  Te  Te165  1  0.50000000  0.50000000  0.00000000  1
  Te  Te166  1  0.75000000  0.25000000  0.25000000  1
  Te  Te167  1  0.75000000  0.75000000  0.75000000  1
