# generated using pymatgen
data_LiF
_symmetry_space_group_name_H-M   'P 1'
_cell_length_a   12.13322548
_cell_length_b   12.13322548
_cell_length_c   12.13322548
_cell_angle_alpha   90.00000000
_cell_angle_beta   90.00000000
_cell_angle_gamma   90.00000000
_symmetry_Int_Tables_number   1
_chemical_formula_structural   LiF
_chemical_formula_sum   'Li48 F48'
_cell_volume   1786.19473776
_cell_formula_units_Z   48
loop_
 _symmetry_equiv_pos_site_id
 _symmetry_equiv_pos_as_xyz
  1  'x, y, z'
loop_
 _atom_site_type_symbol
 _atom_site_label
 _atom_site_symmetry_multiplicity
 _atom_site_fract_x
 _atom_site_fract_y
 _atom_site_fract_z
 _atom_site_occupancy
  F  F0  1  0.25013502  0.08428523  0.05272872  1
  F  F1  1  0.24986498  -0.08428523  0.55272872  1
  F  F2  1  -0.25013502  0.58428523  0.44727128  1
  F  F3  1  0.75013502  0.41571477  -0.05272872  1
  F  F4  1  0.05272872  0.25013502  0.08428523  1
  F  F5  1  0.55272872  0.24986498  -0.08428523  1
  F  F6  1  0.44727128  -0.25013502  0.58428523  1
  F  F7  1  -0.05272872  0.75013502  0.41571477  1
  F  F8  1  0.08428523  0.05272872  0.25013502  1
  F  F9  1  -0.08428523  0.55272872  0.24986498  1
  F  F10  1  0.58428523  0.44727128  -0.25013502  1
  F  F11  1  0.41571477  -0.05272872  0.75013502  1
  F  F12  1  0.83428523  0.50013502  0.19727128  1
  F  F13  1  0.66571477  0.49986498  0.69727128  1
  F  F14  1  0.33428523  -0.00013502  0.80272872  1
  F  F15  1  0.16571477  1.00013502  0.30272872  1
  F  F16  1  1.00013502  0.30272872  0.16571477  1
  F  F17  1  -0.00013502  0.80272872  0.33428523  1
  F  F18  1  0.49986498  0.69727128  0.66571477  1
  F  F19  1  0.50013502  0.19727128  0.83428523  1
  F  F20  1  0.80272872  0.33428523  -0.00013502  1
  F  F21  1  0.30272872  0.16571477  1.00013502  1
  F  F22  1  0.19727128  0.83428523  0.50013502  1
  F  F23  1  0.69727128  0.66571477  0.49986498  1
  F  F24  1  0.75013502  0.58428523  0.55272872  1
  F  F25  1  0.74986498  0.41571477  1.05272872  1
  F  F26  1  0.24986498  1.08428523  0.94727128  1
  F  F27  1  1.25013502  0.91571477  0.44727128  1
  F  F28  1  0.55272872  0.75013502  0.58428523  1
  F  F29  1  1.05272872  0.74986498  0.41571477  1
  F  F30  1  0.94727128  0.24986498  1.08428523  1
  F  F31  1  0.44727128  1.25013502  0.91571477  1
  F  F32  1  0.58428523  0.55272872  0.75013502  1
  F  F33  1  0.41571477  1.05272872  0.74986498  1
  F  F34  1  1.08428523  0.94727128  0.24986498  1
  F  F35  1  0.91571477  0.44727128  1.25013502  1
  F  F36  1  1.33428523  1.00013502  0.69727128  1
  F  F37  1  1.16571477  0.99986498  1.19727128  1
  F  F38  1  0.83428523  0.49986498  1.30272872  1
  F  F39  1  0.66571477  1.50013502  0.80272872  1
  F  F40  1  1.50013502  0.80272872  0.66571477  1
  F  F41  1  0.49986498  1.30272872  0.83428523  1
  F  F42  1  0.99986498  1.19727128  1.16571477  1
  F  F43  1  1.00013502  0.69727128  1.33428523  1
  F  F44  1  1.30272872  0.83428523  0.49986498  1
  F  F45  1  0.80272872  0.66571477  1.50013502  1
  F  F46  1  0.69727128  1.33428523  1.00013502  1
  F  F47  1  1.19727128  1.16571477  0.99986498  1
  Li  Li48  1  0.39475431  -0.00000000  0.25000000  1
  Li  Li49  1  0.10524569  -0.00000000  0.75000000  1
  Li  Li50  1  0.25000000  0.39475431  -0.00000000  1
  Li  Li51  1  0.75000000  0.10524569  -0.00000000  1
  Li  Li52  1  0.00000000  0.25000000  0.39475431  1
  Li  Li53  1  0.00000000  0.75000000  0.10524569  1
  Li  Li54  1  0.75000000  0.64475431  -0.00000000  1
  Li  Li55  1  0.75000000  0.35524569  0.50000000  1
  Li  Li56  1  0.14475431  0.50000000  0.25000000  1
  Li  Li57  1  0.85524569  -0.00000000  0.25000000  1
  Li  Li58  1  0.00000000  0.25000000  0.85524569  1
  Li  Li59  1  0.50000000  0.25000000  0.14475431  1
  Li  Li60  1  0.89475431  0.50000000  0.75000000  1
  Li  Li61  1  0.60524569  0.50000000  0.25000000  1
  Li  Li62  1  0.75000000  0.89475431  0.50000000  1
  Li  Li63  1  0.25000000  0.60524569  0.50000000  1
  Li  Li64  1  0.50000000  0.75000000  0.89475431  1
  Li  Li65  1  0.50000000  0.25000000  0.60524569  1
  Li  Li66  1  0.25000000  0.14475431  0.50000000  1
  Li  Li67  1  0.25000000  0.85524569  -0.00000000  1
  Li  Li68  1  0.64475431  -0.00000000  0.75000000  1
  Li  Li69  1  0.35524569  0.50000000  0.75000000  1
  Li  Li70  1  0.50000000  0.75000000  0.35524569  1
  Li  Li71  1  0.00000000  0.75000000  0.64475431  1
  Li  Li72  1  0.12500000  0.14039204  0.39039204  1
  Li  Li73  1  0.37500000  0.85960796  0.89039204  1
  Li  Li74  1  0.87500000  0.64039204  0.10960796  1
  Li  Li75  1  0.62500000  0.35960796  0.60960796  1
  Li  Li76  1  0.39039204  0.12500000  0.14039204  1
  Li  Li77  1  0.89039204  0.37500000  0.85960796  1
  Li  Li78  1  0.10960796  0.87500000  0.64039204  1
  Li  Li79  1  0.60960796  0.62500000  0.35960796  1
  Li  Li80  1  0.14039204  0.39039204  0.12500000  1
  Li  Li81  1  0.85960796  0.89039204  0.37500000  1
  Li  Li82  1  0.64039204  0.10960796  0.87500000  1
  Li  Li83  1  0.35960796  0.60960796  0.62500000  1
  Li  Li84  1  0.62500000  0.64039204  0.89039204  1
  Li  Li85  1  0.87500000  0.35960796  0.39039204  1
  Li  Li86  1  0.37500000  0.14039204  0.60960796  1
  Li  Li87  1  0.12500000  0.85960796  0.10960796  1
  Li  Li88  1  0.89039204  0.62500000  0.64039204  1
  Li  Li89  1  0.39039204  0.87500000  0.35960796  1
  Li  Li90  1  0.60960796  0.37500000  0.14039204  1
  Li  Li91  1  0.10960796  0.12500000  0.85960796  1
  Li  Li92  1  0.64039204  0.89039204  0.62500000  1
  Li  Li93  1  0.35960796  0.39039204  0.87500000  1
  Li  Li94  1  0.14039204  0.60960796  0.37500000  1
  Li  Li95  1  0.85960796  0.10960796  0.12500000  1
