# generated using pymatgen
data_Li3Y2As4P3Se
_symmetry_space_group_name_H-M   'P 1'
_cell_length_a   5.76770435
_cell_length_b   6.01578217
_cell_length_c   7.16736598
_cell_angle_alpha   92.60531320
_cell_angle_beta   96.07685274
_cell_angle_gamma   100.95113395
_symmetry_Int_Tables_number   1
_chemical_formula_structural   Li3Y2As4P3Se
_chemical_formula_sum   'Li3 Y2 As4 P3 Se1'
_cell_volume   242.23905314
_cell_formula_units_Z   1
loop_
 _symmetry_equiv_pos_site_id
 _symmetry_equiv_pos_as_xyz
  1  'x, y, z'
loop_
 _atom_site_type_symbol
 _atom_site_label
 _atom_site_symmetry_multiplicity
 _atom_site_fract_x
 _atom_site_fract_y
 _atom_site_fract_z
 _atom_site_occupancy
  Se  Se0  1  0.00000000  0.00000000  0.00000000  1
  P  P1  1  0.50000000  0.50000000  0.50000000  1
  P  P2  1  0.50000000  0.50000000  0.00000000  1
  P  P3  1  0.50000000  0.00000000  0.50000000  1
  As  As4  1  0.00000000  0.50000000  0.50000000  1
  As  As5  1  0.29852755  0.91795106  0.16723411  1
  As  As6  1  0.44209881  0.01830041  0.98230280  1
  As  As7  1  0.01173752  0.32953384  0.32145737  1
  Li  Li8  1  0.57016640  0.75129910  0.69410729  1
  Li  Li9  1  0.66692522  0.42682606  0.73297661  1
  Li  Li10  1  0.30932072  0.96970823  0.85009697  1
  Y  Y11  1  0.04537294  0.19902732  0.74840060  1
  Y  Y12  1  0.78840290  0.93496280  0.48284073  1
