# generated using pymatgen
data_LiF
_symmetry_space_group_name_H-M   'P 1'
_cell_length_a   14.99098737
_cell_length_b   14.99098737
_cell_length_c   14.45568308
_cell_angle_alpha   90.00000000
_cell_angle_beta   90.00000000
_cell_angle_gamma   120.00000000
_symmetry_Int_Tables_number   1
_chemical_formula_structural   LiF
_chemical_formula_sum   'Li108 F108'
_cell_volume   2813.38862244
_cell_formula_units_Z   108
loop_
 _symmetry_equiv_pos_site_id
 _symmetry_equiv_pos_as_xyz
  1  'x, y, z'
loop_
 _atom_site_type_symbol
 _atom_site_label
 _atom_site_symmetry_multiplicity
 _atom_site_fract_x
 _atom_site_fract_y
 _atom_site_fract_z
 _atom_site_occupancy
  F  F0  1  0.73765166  0.16022583  0.26888046  1
  F  F1  1  0.83977417  0.57742583  0.26888046  1
  F  F2  1  0.42257417  0.26234834  0.26888046  1
  F  F3  1  0.16022583  0.73765166  0.23111954  1
  F  F4  1  0.57742583  0.83977417  0.23111954  1
  F  F5  1  0.26234834  0.42257417  0.23111954  1
  F  F6  1  0.26234834  0.83977417  0.73111954  1
  F  F7  1  0.16022583  0.42257417  0.73111954  1
  F  F8  1  0.57742583  0.73765166  0.73111954  1
  F  F9  1  0.83977417  0.26234834  0.76888046  1
  F  F10  1  0.42257417  0.16022583  0.76888046  1
  F  F11  1  0.73765166  0.57742583  0.76888046  1
  F  F12  1  0.40431833  0.49355917  0.60221379  1
  F  F13  1  0.50644083  0.91075916  0.60221379  1
  F  F14  1  0.08924084  0.59568167  0.60221379  1
  F  F15  1  0.82689250  0.07098499  0.56445288  1
  F  F16  1  0.24409249  0.17310750  0.56445288  1
  F  F17  1  0.92901501  0.75590751  0.56445288  1
  F  F18  1  0.92901501  0.17310750  0.06445288  1
  F  F19  1  0.82689250  0.75590751  0.06445288  1
  F  F20  1  0.24409249  0.07098499  0.06445288  1
  F  F21  1  0.50644083  0.59568167  0.10221379  1
  F  F22  1  0.08924084  0.49355917  0.10221379  1
  F  F23  1  0.40431833  0.91075916  0.10221379  1
  F  F24  1  0.07098499  0.82689250  0.93554712  1
  F  F25  1  0.17310750  0.24409249  0.93554712  1
  F  F26  1  0.75590751  0.92901501  0.93554712  1
  F  F27  1  0.49355917  0.40431833  0.89778621  1
  F  F28  1  0.91075916  0.50644083  0.89778621  1
  F  F29  1  0.59568167  0.08924084  0.89778621  1
  F  F30  1  0.59568167  0.50644083  0.39778621  1
  F  F31  1  0.49355917  0.08924084  0.39778621  1
  F  F32  1  0.91075916  0.40431833  0.39778621  1
  F  F33  1  0.17310750  0.92901501  0.43554712  1
  F  F34  1  0.75590751  0.82689250  0.43554712  1
  F  F35  1  0.07098499  0.24409249  0.43554712  1
  F  F36  1  0.69437234  0.04541866  0.39481031  1
  F  F37  1  0.95458134  0.64895369  0.39481031  1
  F  F38  1  0.35104631  0.30562766  0.39481031  1
  F  F39  1  0.04541866  0.69437234  0.10518969  1
  F  F40  1  0.64895369  0.95458134  0.10518969  1
  F  F41  1  0.30562766  0.35104631  0.10518969  1
  F  F42  1  0.30562766  0.95458134  0.60518969  1
  F  F43  1  0.04541866  0.35104631  0.60518969  1
  F  F44  1  0.64895369  0.69437234  0.60518969  1
  F  F45  1  0.95458134  0.30562766  0.89481031  1
  F  F46  1  0.35104631  0.04541866  0.89481031  1
  F  F47  1  0.69437234  0.64895369  0.89481031  1
  F  F48  1  0.36103901  0.37875199  0.72814364  1
  F  F49  1  0.62124801  0.98228702  0.72814364  1
  F  F50  1  0.01771298  0.63896099  0.72814364  1
  F  F51  1  0.71208532  0.02770568  0.43852303  1
  F  F52  1  0.31562035  0.28791468  0.43852303  1
  F  F53  1  0.97229432  0.68437965  0.43852303  1
  F  F54  1  0.97229432  0.28791468  0.93852303  1
  F  F55  1  0.71208532  0.68437965  0.93852303  1
  F  F56  1  0.31562035  0.02770568  0.93852303  1
  F  F57  1  0.62124801  0.63896099  0.22814364  1
  F  F58  1  0.01771298  0.37875199  0.22814364  1
  F  F59  1  0.36103901  0.98228702  0.22814364  1
  F  F60  1  0.02770568  0.71208532  0.06147697  1
  F  F61  1  0.28791468  0.31562035  0.06147697  1
  F  F62  1  0.68437965  0.97229432  0.06147697  1
  F  F63  1  0.37875199  0.36103901  0.77185636  1
  F  F64  1  0.98228702  0.62124801  0.77185636  1
  F  F65  1  0.63896099  0.01771298  0.77185636  1
  F  F66  1  0.63896099  0.62124801  0.27185636  1
  F  F67  1  0.37875199  0.01771298  0.27185636  1
  F  F68  1  0.98228702  0.36103901  0.27185636  1
  F  F69  1  0.28791468  0.97229432  0.56147697  1
  F  F70  1  0.68437965  0.71208532  0.56147697  1
  F  F71  1  0.02770568  0.31562035  0.56147697  1
  F  F72  1  0.98352726  0.36986554  0.89897448  1
  F  F73  1  0.63013446  0.61366172  0.89897448  1
  F  F74  1  0.38633828  0.01647274  0.89897448  1
  F  F75  1  0.36986554  0.98352726  0.60102552  1
  F  F76  1  0.61366172  0.63013446  0.60102552  1
  F  F77  1  0.01647274  0.38633828  0.60102552  1
  F  F78  1  0.01647274  0.63013446  0.10102552  1
  F  F79  1  0.36986554  0.38633828  0.10102552  1
  F  F80  1  0.61366172  0.98352726  0.10102552  1
  F  F81  1  0.63013446  0.01647274  0.39897448  1
  F  F82  1  0.38633828  0.36986554  0.39897448  1
  F  F83  1  0.98352726  0.61366172  0.39897448  1
  F  F84  1  0.65019392  0.70319887  0.23230781  1
  F  F85  1  0.29680113  0.94699506  0.23230781  1
  F  F86  1  0.05300494  0.34980608  0.23230781  1
  F  F87  1  0.03653220  0.31686059  0.93435886  1
  F  F88  1  0.28032839  0.96346780  0.93435886  1
  F  F89  1  0.68313941  0.71967161  0.93435886  1
  F  F90  1  0.68313941  0.96346780  0.43435886  1
  F  F91  1  0.03653220  0.71967161  0.43435886  1
  F  F92  1  0.28032839  0.31686059  0.43435886  1
  F  F93  1  0.29680113  0.34980608  0.73230781  1
  F  F94  1  0.05300494  0.70319887  0.73230781  1
  F  F95  1  0.65019392  0.94699506  0.73230781  1
  F  F96  1  0.31686059  0.03653220  0.56564114  1
  F  F97  1  0.96346780  0.28032839  0.56564114  1
  F  F98  1  0.71967161  0.68313941  0.56564114  1
  F  F99  1  0.70319887  0.65019392  0.26769219  1
  F  F100  1  0.94699506  0.29680113  0.26769219  1
  F  F101  1  0.34980608  0.05300494  0.26769219  1
  F  F102  1  0.34980608  0.29680113  0.76769219  1
  F  F103  1  0.70319887  0.05300494  0.76769219  1
  F  F104  1  0.94699506  0.65019392  0.76769219  1
  F  F105  1  0.96346780  0.68313941  0.06564114  1
  F  F106  1  0.71967161  0.03653220  0.06564114  1
  F  F107  1  0.31686059  0.28032839  0.06564114  1
  Li  Li108  1  0.24354356  0.22715001  0.67712711  1
  Li  Li109  1  -0.22715001  0.01639355  0.67712711  1
  Li  Li110  1  -0.01639355  -0.24354356  0.67712711  1
  Li  Li111  1  0.22715001  0.24354356  -0.17712711  1
  Li  Li112  1  0.01639355  -0.22715001  -0.17712711  1
  Li  Li113  1  -0.24354356  -0.01639355  -0.17712711  1
  Li  Li114  1  -0.24354356  -0.22715001  -0.67712711  1
  Li  Li115  1  0.22715001  -0.01639355  -0.67712711  1
  Li  Li116  1  0.01639355  0.24354356  -0.67712711  1
  Li  Li117  1  -0.22715001  -0.24354356  1.17712711  1
  Li  Li118  1  -0.01639355  0.22715001  1.17712711  1
  Li  Li119  1  0.24354356  0.01639355  1.17712711  1
  Li  Li120  1  0.91021022  0.56048334  1.01046044  1
  Li  Li121  1  0.43951666  0.34972688  1.01046044  1
  Li  Li122  1  0.65027312  0.08978978  1.01046044  1
  Li  Li123  1  0.89381667  0.57687689  0.15620622  1
  Li  Li124  1  0.68306022  0.10618333  0.15620622  1
  Li  Li125  1  0.42312311  0.31693978  0.15620622  1
  Li  Li126  1  0.42312311  0.10618333  -0.34379378  1
  Li  Li127  1  0.89381667  0.31693978  -0.34379378  1
  Li  Li128  1  0.68306022  0.57687689  -0.34379378  1
  Li  Li129  1  0.43951666  0.08978978  1.51046044  1
  Li  Li130  1  0.65027312  0.56048334  1.51046044  1
  Li  Li131  1  0.91021022  0.34972688  1.51046044  1
  Li  Li132  1  0.57687689  0.89381667  1.34379378  1
  Li  Li133  1  0.10618333  0.68306022  1.34379378  1
  Li  Li134  1  0.31693978  0.42312311  1.34379378  1
  Li  Li135  1  0.56048334  0.91021022  0.48953956  1
  Li  Li136  1  0.34972688  0.43951666  0.48953956  1
  Li  Li137  1  0.08978978  0.65027312  0.48953956  1
  Li  Li138  1  0.08978978  0.43951666  -0.01046044  1
  Li  Li139  1  0.56048334  0.65027312  -0.01046044  1
  Li  Li140  1  0.34972688  0.91021022  -0.01046044  1
  Li  Li141  1  0.10618333  0.42312311  1.84379378  1
  Li  Li142  1  0.31693978  0.89381667  1.84379378  1
  Li  Li143  1  0.57687689  0.68306022  1.84379378  1
  Li  Li144  1  0.55935840  0.00000000  0.25000000  1
  Li  Li145  1  0.00000000  0.55935840  0.25000000  1
  Li  Li146  1  0.44064160  0.44064160  0.25000000  1
  Li  Li147  1  0.44064160  0.00000000  0.75000000  1
  Li  Li148  1  0.00000000  0.44064160  0.75000000  1
  Li  Li149  1  0.55935840  0.55935840  0.75000000  1
  Li  Li150  1  0.22602507  0.33333333  0.58333333  1
  Li  Li151  1  0.66666667  0.89269174  0.58333333  1
  Li  Li152  1  0.10730826  0.77397493  0.58333333  1
  Li  Li153  1  0.10730826  0.33333333  0.08333333  1
  Li  Li154  1  0.66666667  0.77397493  0.08333333  1
  Li  Li155  1  0.22602507  0.89269174  0.08333333  1
  Li  Li156  1  0.89269174  0.66666667  0.91666667  1
  Li  Li157  1  0.33333333  0.22602507  0.91666667  1
  Li  Li158  1  0.77397493  0.10730826  0.91666667  1
  Li  Li159  1  0.77397493  0.66666667  0.41666667  1
  Li  Li160  1  0.33333333  0.10730826  0.41666667  1
  Li  Li161  1  0.89269174  0.22602507  0.41666667  1
  Li  Li162  1  0.50000000  0.00000000  0.00000000  1
  Li  Li163  1  0.00000000  0.50000000  0.00000000  1
  Li  Li164  1  0.50000000  0.50000000  0.00000000  1
  Li  Li165  1  0.00000000  0.50000000  0.50000000  1
  Li  Li166  1  0.50000000  0.00000000  0.50000000  1
  Li  Li167  1  0.50000000  0.50000000  0.50000000  1
  Li  Li168  1  0.16666667  0.33333333  0.33333333  1
  Li  Li169  1  0.66666667  0.83333333  0.33333333  1
  Li  Li170  1  0.16666667  0.83333333  0.33333333  1
  Li  Li171  1  0.66666667  0.83333333  0.83333333  1
  Li  Li172  1  0.16666667  0.33333333  0.83333333  1
  Li  Li173  1  0.16666667  0.83333333  0.83333333  1
  Li  Li174  1  0.83333333  0.66666667  0.66666667  1
  Li  Li175  1  0.33333333  0.16666667  0.66666667  1
  Li  Li176  1  0.83333333  0.16666667  0.66666667  1
  Li  Li177  1  0.33333333  0.16666667  0.16666667  1
  Li  Li178  1  0.83333333  0.66666667  0.16666667  1
  Li  Li179  1  0.83333333  0.16666667  0.16666667  1
  Li  Li180  1  0.92012773  0.79736859  0.38380546  1
  Li  Li181  1  0.20263141  0.12275914  0.38380546  1
  Li  Li182  1  0.87724086  0.07987227  0.38380546  1
  Li  Li183  1  0.79736859  0.92012773  0.11619454  1
  Li  Li184  1  0.12275914  0.20263141  0.11619454  1
  Li  Li185  1  0.07987227  0.87724086  0.11619454  1
  Li  Li186  1  0.07987227  0.20263141  0.61619454  1
  Li  Li187  1  0.79736859  0.87724086  0.61619454  1
  Li  Li188  1  0.12275914  0.92012773  0.61619454  1
  Li  Li189  1  0.20263141  0.07987227  0.88380546  1
  Li  Li190  1  0.87724086  0.79736859  0.88380546  1
  Li  Li191  1  0.92012773  0.12275914  0.88380546  1
  Li  Li192  1  0.58679440  0.13070192  0.71713879  1
  Li  Li193  1  0.86929808  0.45609248  0.71713879  1
  Li  Li194  1  0.54390752  0.41320560  0.71713879  1
  Li  Li195  1  0.46403525  0.25346106  0.44952787  1
  Li  Li196  1  0.78942581  0.53596475  0.44952787  1
  Li  Li197  1  0.74653894  0.21057419  0.44952787  1
  Li  Li198  1  0.74653894  0.53596475  0.94952787  1
  Li  Li199  1  0.46403525  0.21057419  0.94952787  1
  Li  Li200  1  0.78942581  0.25346106  0.94952787  1
  Li  Li201  1  0.86929808  0.41320560  0.21713879  1
  Li  Li202  1  0.54390752  0.13070192  0.21713879  1
  Li  Li203  1  0.58679440  0.45609248  0.21713879  1
  Li  Li204  1  0.25346106  0.46403525  0.05047213  1
  Li  Li205  1  0.53596475  0.78942581  0.05047213  1
  Li  Li206  1  0.21057419  0.74653894  0.05047213  1
  Li  Li207  1  0.13070192  0.58679440  0.78286121  1
  Li  Li208  1  0.45609248  0.86929808  0.78286121  1
  Li  Li209  1  0.41320560  0.54390752  0.78286121  1
  Li  Li210  1  0.41320560  0.86929808  0.28286121  1
  Li  Li211  1  0.13070192  0.54390752  0.28286121  1
  Li  Li212  1  0.45609248  0.58679440  0.28286121  1
  Li  Li213  1  0.53596475  0.74653894  0.55047213  1
  Li  Li214  1  0.21057419  0.46403525  0.55047213  1
  Li  Li215  1  0.25346106  0.78942581  0.55047213  1
