# generated using pymatgen
data_LiY2Cu3P2Se
_symmetry_space_group_name_H-M   'P 1'
_cell_length_a   4.93309614
_cell_length_b   4.93786556
_cell_length_c   6.53398291
_cell_angle_alpha   94.32454036
_cell_angle_beta   96.85894481
_cell_angle_gamma   103.35676272
_symmetry_Int_Tables_number   1
_chemical_formula_structural   LiY2Cu3P2Se
_chemical_formula_sum   'Li1 Y2 Cu3 P2 Se1'
_cell_volume   152.87115286
_cell_formula_units_Z   1
loop_
 _symmetry_equiv_pos_site_id
 _symmetry_equiv_pos_as_xyz
  1  'x, y, z'
loop_
 _atom_site_type_symbol
 _atom_site_label
 _atom_site_symmetry_multiplicity
 _atom_site_fract_x
 _atom_site_fract_y
 _atom_site_fract_z
 _atom_site_occupancy
  Se  Se0  1  0.00000000  0.00000000  0.00000000  1
  Cu  Cu1  1  0.50000000  0.50000000  0.50000000  1
  Cu  Cu2  1  0.25000000  0.25000000  0.25000000  1
  Cu  Cu3  1  0.75000000  0.25000000  0.00000000  1
  Y  Y4  1  0.25000000  0.75000000  0.50000000  1
  Y  Y5  1  0.72243700  0.53514331  0.30344692  1
  P  P6  1  0.52938064  0.55970997  0.72795348  1
  P  P7  1  0.21103303  0.59504276  0.18330522  1
  Li  Li8  1  0.77345982  0.29033190  0.58378286  1
