# generated using pymatgen
data_LiF
_symmetry_space_group_name_H-M   'P 1'
_cell_length_a   6.14005988
_cell_length_b   4.16940291
_cell_length_c   5.20436035
_cell_angle_alpha   90.00000000
_cell_angle_beta   90.00000000
_cell_angle_gamma   90.00000000
_symmetry_Int_Tables_number   1
_chemical_formula_structural   LiF
_chemical_formula_sum   'Li4 F4'
_cell_volume   133.23362112
_cell_formula_units_Z   4
loop_
 _symmetry_equiv_pos_site_id
 _symmetry_equiv_pos_as_xyz
  1  'x, y, z'
loop_
 _atom_site_type_symbol
 _atom_site_label
 _atom_site_symmetry_multiplicity
 _atom_site_fract_x
 _atom_site_fract_y
 _atom_site_fract_z
 _atom_site_occupancy
  F  F0  1  0.77500755  0.80045272  -0.00000000  1
  F  F1  1  -0.77500755  -0.80045272  0.00000000  1
  F  F2  1  -0.27500755  1.30045272  0.00000000  1
  F  F3  1  1.27500755  -0.30045272  -0.00000000  1
  Li  Li4  1  0.00000000  0.00000000  0.33749303  1
  Li  Li5  1  0.50000000  0.50000000  0.66250697  1
  Li  Li6  1  0.00000000  0.00000000  0.66250697  1
  Li  Li7  1  0.50000000  0.50000000  0.33749303  1
