# generated using pymatgen
data_Li2Si4Te3F12
_symmetry_space_group_name_H-M   'P 1'
_cell_length_a   6.41621925
_cell_length_b   13.12494534
_cell_length_c   13.85460425
_cell_angle_alpha   90.00000000
_cell_angle_beta   90.00000000
_cell_angle_gamma   90.00000000
_symmetry_Int_Tables_number   1
_chemical_formula_structural   Li2Si4Te3F12
_chemical_formula_sum   'Li8 Si16 Te12 F48'
_cell_volume   1166.73123367
_cell_formula_units_Z   4
loop_
 _symmetry_equiv_pos_site_id
 _symmetry_equiv_pos_as_xyz
  1  'x, y, z'
loop_
 _atom_site_type_symbol
 _atom_site_label
 _atom_site_symmetry_multiplicity
 _atom_site_fract_x
 _atom_site_fract_y
 _atom_site_fract_z
 _atom_site_occupancy
  F  F0  1  0.28673387  0.56357186  0.43816534  1
  F  F1  1  0.71326613  0.43642814  0.43816534  1
  F  F2  1  0.21326613  0.06357186  0.56183466  1
  F  F3  1  0.78673387  0.93642814  0.56183466  1
  F  F4  1  0.71326613  0.43642814  0.56183466  1
  F  F5  1  0.28673387  0.56357186  0.56183466  1
  F  F6  1  0.78673387  0.93642814  0.43816534  1
  F  F7  1  0.21326613  0.06357186  0.43816534  1
  F  F8  1  0.91998537  0.25338688  0.09390283  1
  F  F9  1  0.08001463  0.74661312  0.09390283  1
  F  F10  1  0.58001463  0.75338688  0.90609717  1
  F  F11  1  0.41998537  0.24661312  0.90609717  1
  F  F12  1  0.08001463  0.74661312  0.90609717  1
  F  F13  1  0.91998537  0.25338688  0.90609717  1
  F  F14  1  0.41998537  0.24661312  0.09390283  1
  F  F15  1  0.58001463  0.75338688  0.09390283  1
  F  F16  1  0.24738130  0.23643453  0.86544110  1
  F  F17  1  0.75261870  0.76356547  0.86544110  1
  F  F18  1  0.25261870  0.73643453  0.13455890  1
  F  F19  1  0.74738130  0.26356547  0.13455890  1
  F  F20  1  0.75261870  0.76356547  0.13455890  1
  F  F21  1  0.24738130  0.23643453  0.13455890  1
  F  F22  1  0.74738130  0.26356547  0.86544110  1
  F  F23  1  0.25261870  0.73643453  0.86544110  1
  F  F24  1  0.18686067  0.21151563  0.23196262  1
  F  F25  1  0.81313933  0.78848437  0.23196262  1
  F  F26  1  0.31313933  0.71151563  0.76803738  1
  F  F27  1  0.68686067  0.28848437  0.76803738  1
  F  F28  1  0.81313933  0.78848437  0.76803738  1
  F  F29  1  0.18686067  0.21151563  0.76803738  1
  F  F30  1  0.68686067  0.28848437  0.23196262  1
  F  F31  1  0.31313933  0.71151563  0.23196262  1
  F  F32  1  0.37458282  0.96977837  0.14399912  1
  F  F33  1  0.62541718  0.03022163  0.14399912  1
  F  F34  1  0.12541718  0.46977837  0.85600088  1
  F  F35  1  0.87458282  0.53022163  0.85600088  1
  F  F36  1  0.62541718  0.03022163  0.85600088  1
  F  F37  1  0.37458282  0.96977837  0.85600088  1
  F  F38  1  0.87458282  0.53022163  0.14399912  1
  F  F39  1  0.12541718  0.46977837  0.14399912  1
  F  F40  1  0.00000000  0.50000000  0.00000000  1
  F  F41  1  0.50000000  0.00000000  0.00000000  1
  F  F42  1  0.00000000  0.00000000  0.50000000  1
  F  F43  1  0.50000000  0.50000000  0.50000000  1
  F  F44  1  0.88818830  0.96438037  0.50000000  1
  F  F45  1  0.11181170  0.03561963  0.50000000  1
  F  F46  1  0.61181170  0.46438037  0.50000000  1
  F  F47  1  0.38818830  0.53561963  0.50000000  1
  Li  Li48  1  0.67647123  0.20312000  0.00000000  1
  Li  Li49  1  0.32352877  0.79688000  0.00000000  1
  Li  Li50  1  0.82352877  0.70312000  0.00000000  1
  Li  Li51  1  0.17647123  0.29688000  -0.00000000  1
  Li  Li52  1  0.00000000  0.50000000  0.39888300  1
  Li  Li53  1  0.50000000  0.00000000  0.60111700  1
  Li  Li54  1  0.00000000  0.50000000  0.60111700  1
  Li  Li55  1  0.50000000  0.00000000  0.39888300  1
  Si  Si56  1  0.00000000  0.00000000  0.00000000  1
  Si  Si57  1  0.50000000  0.50000000  0.00000000  1
  Si  Si58  1  0.16745836  0.36274772  0.35672453  1
  Si  Si59  1  -0.16745836  -0.36274772  0.35672453  1
  Si  Si60  1  0.33254164  0.86274772  -0.35672453  1
  Si  Si61  1  0.66745836  0.13725228  -0.35672453  1
  Si  Si62  1  -0.16745836  -0.36274772  -0.35672453  1
  Si  Si63  1  0.16745836  0.36274772  -0.35672453  1
  Si  Si64  1  0.66745836  0.13725228  0.35672453  1
  Si  Si65  1  0.33254164  0.86274772  0.35672453  1
  Si  Si66  1  0.78461800  0.46903238  0.00000000  1
  Si  Si67  1  0.21538200  0.53096762  -0.00000000  1
  Si  Si68  1  0.71538200  0.96903238  0.00000000  1
  Si  Si69  1  0.28461800  0.03096762  0.00000000  1
  Si  Si70  1  0.00000000  0.50000000  0.50000000  1
  Si  Si71  1  0.50000000  0.00000000  0.50000000  1
  Te  Te72  1  0.51839255  0.81992573  0.50000000  1
  Te  Te73  1  0.48160745  0.18007427  0.50000000  1
  Te  Te74  1  0.98160745  0.31992573  0.50000000  1
  Te  Te75  1  0.01839255  0.68007427  0.50000000  1
  Te  Te76  1  0.44963086  0.79508598  0.79800675  1
  Te  Te77  1  0.55036914  0.20491402  0.79800675  1
  Te  Te78  1  0.05036914  0.29508598  0.20199325  1
  Te  Te79  1  0.94963086  0.70491402  0.20199325  1
  Te  Te80  1  0.55036914  0.20491402  0.20199325  1
  Te  Te81  1  0.44963086  0.79508598  0.20199325  1
  Te  Te82  1  0.94963086  0.70491402  0.79800675  1
  Te  Te83  1  0.05036914  0.29508598  0.79800675  1
