# generated using pymatgen
data_LiF
_symmetry_space_group_name_H-M   'P 1'
_cell_length_a   7.52426839
_cell_length_b   5.26541454
_cell_length_c   5.40046405
_cell_angle_alpha   90.00000000
_cell_angle_beta   90.00000000
_cell_angle_gamma   90.00000000
_symmetry_Int_Tables_number   1
_chemical_formula_structural   LiF
_chemical_formula_sum   'Li14 F14'
_cell_volume   213.95770255
_cell_formula_units_Z   14
loop_
 _symmetry_equiv_pos_site_id
 _symmetry_equiv_pos_as_xyz
  1  'x, y, z'
loop_
 _atom_site_type_symbol
 _atom_site_label
 _atom_site_symmetry_multiplicity
 _atom_site_fract_x
 _atom_site_fract_y
 _atom_site_fract_z
 _atom_site_occupancy
  F  F0  1  0.71581467  0.90801097  0.38114180  1
  F  F1  1  -0.71581467  -0.90801097  0.38114180  1
  F  F2  1  -0.21581467  1.40801097  -0.38114180  1
  F  F3  1  1.21581467  -0.40801097  -0.38114180  1
  F  F4  1  -0.71581467  -0.90801097  -0.38114180  1
  F  F5  1  0.71581467  0.90801097  -0.38114180  1
  F  F6  1  1.21581467  -0.40801097  0.38114180  1
  F  F7  1  -0.21581467  1.40801097  0.38114180  1
  F  F8  1  0.00000000  0.50000000  0.00000000  1
  F  F9  1  0.50000000  -0.00000000  -0.00000000  1
  F  F10  1  0.38639937  0.90450118  0.00000000  1
  F  F11  1  0.61360063  0.09549882  -0.00000000  1
  F  F12  1  0.11360063  0.40450118  0.00000000  1
  F  F13  1  0.88639937  0.59549882  -0.00000000  1
  Li  Li14  1  0.22994557  0.83388275  0.50000000  1
  Li  Li15  1  0.77005443  0.16611725  0.50000000  1
  Li  Li16  1  0.27005443  0.33388275  0.50000000  1
  Li  Li17  1  0.72994557  0.66611725  0.50000000  1
  Li  Li18  1  0.88252905  0.10774695  0.70317900  1
  Li  Li19  1  0.11747095  0.89225305  0.70317900  1
  Li  Li20  1  0.61747095  0.60774695  0.29682100  1
  Li  Li21  1  0.38252905  0.39225305  0.29682100  1
  Li  Li22  1  0.11747095  0.89225305  0.29682100  1
  Li  Li23  1  0.88252905  0.10774695  0.29682100  1
  Li  Li24  1  0.38252905  0.39225305  0.70317900  1
  Li  Li25  1  0.61747095  0.60774695  0.70317900  1
  Li  Li26  1  0.00000000  0.00000000  0.00000000  1
  Li  Li27  1  0.50000000  0.50000000  -0.00000000  1
