# generated using pymatgen
data_LiF
_symmetry_space_group_name_H-M   'P 1'
_cell_length_a   9.23688836
_cell_length_b   9.23688836
_cell_length_c   12.70662254
_cell_angle_alpha   90.00000000
_cell_angle_beta   90.00000000
_cell_angle_gamma   120.00000000
_symmetry_Int_Tables_number   1
_chemical_formula_structural   LiF
_chemical_formula_sum   'Li24 F24'
_cell_volume   938.88445732
_cell_formula_units_Z   24
loop_
 _symmetry_equiv_pos_site_id
 _symmetry_equiv_pos_as_xyz
  1  'x, y, z'
loop_
 _atom_site_type_symbol
 _atom_site_label
 _atom_site_symmetry_multiplicity
 _atom_site_fract_x
 _atom_site_fract_y
 _atom_site_fract_z
 _atom_site_occupancy
  F  F0  1  0.97886701  0.02136568  0.52764252  1
  F  F1  1  -0.02136568  0.95750132  0.52764252  1
  F  F2  1  -0.95750132  -0.97886701  0.52764252  1
  F  F3  1  -0.97886701  -0.02136568  1.02764252  1
  F  F4  1  0.02136568  -0.95750132  1.02764252  1
  F  F5  1  0.95750132  0.97886701  1.02764252  1
  F  F6  1  -0.97886701  -0.02136568  -0.52764252  1
  F  F7  1  0.02136568  -0.95750132  -0.52764252  1
  F  F8  1  0.95750132  0.97886701  -0.52764252  1
  F  F9  1  0.97886701  0.02136568  -0.02764252  1
  F  F10  1  -0.02136568  0.95750132  -0.02764252  1
  F  F11  1  -0.95750132  -0.97886701  -0.02764252  1
  F  F12  1  0.30137018  0.28875387  0.09004477  1
  F  F13  1  0.71124613  0.01261631  0.09004477  1
  F  F14  1  0.98738369  0.69862982  0.09004477  1
  F  F15  1  0.69862982  0.71124613  0.59004477  1
  F  F16  1  0.28875387  0.98738369  0.59004477  1
  F  F17  1  0.01261631  0.30137018  0.59004477  1
  F  F18  1  0.69862982  0.71124613  0.90995523  1
  F  F19  1  0.28875387  0.98738369  0.90995523  1
  F  F20  1  0.01261631  0.30137018  0.90995523  1
  F  F21  1  0.30137018  0.28875387  0.40995523  1
  F  F22  1  0.71124613  0.01261631  0.40995523  1
  F  F23  1  0.98738369  0.69862982  0.40995523  1
  Li  Li24  1  0.26193422  0.85483512  0.93174626  1
  Li  Li25  1  0.14516488  0.40709910  0.93174626  1
  Li  Li26  1  0.59290090  0.73806578  0.93174626  1
  Li  Li27  1  0.73806578  0.14516488  0.43174626  1
  Li  Li28  1  0.85483512  0.59290090  0.43174626  1
  Li  Li29  1  0.40709910  0.26193422  0.43174626  1
  Li  Li30  1  0.73806578  0.14516488  0.06825374  1
  Li  Li31  1  0.85483512  0.59290090  0.06825374  1
  Li  Li32  1  0.40709910  0.26193422  0.06825374  1
  Li  Li33  1  0.26193422  0.85483512  0.56825374  1
  Li  Li34  1  0.14516488  0.40709910  0.56825374  1
  Li  Li35  1  0.59290090  0.73806578  0.56825374  1
  Li  Li36  1  0.33333333  0.66666667  0.87511846  1
  Li  Li37  1  0.66666667  0.33333333  0.37511846  1
  Li  Li38  1  0.66666667  0.33333333  0.12488154  1
  Li  Li39  1  0.33333333  0.66666667  0.62488154  1
  Li  Li40  1  0.63234722  0.47250850  0.25000000  1
  Li  Li41  1  0.52749150  0.15983873  0.25000000  1
  Li  Li42  1  0.84016127  0.36765278  0.25000000  1
  Li  Li43  1  0.36765278  0.52749150  0.75000000  1
  Li  Li44  1  0.47250850  0.84016127  0.75000000  1
  Li  Li45  1  0.15983873  0.63234722  0.75000000  1
  Li  Li46  1  0.33333333  0.66666667  0.25000000  1
  Li  Li47  1  0.66666667  0.33333333  0.75000000  1
