# generated using pymatgen
data_LiF
_symmetry_space_group_name_H-M   'P 1'
_cell_length_a   8.33600265
_cell_length_b   8.33600265
_cell_length_c   6.11973441
_cell_angle_alpha   90.00000000
_cell_angle_beta   90.00000000
_cell_angle_gamma   90.00000000
_symmetry_Int_Tables_number   1
_chemical_formula_structural   LiF
_chemical_formula_sum   'Li20 F20'
_cell_volume   425.25385806
_cell_formula_units_Z   20
loop_
 _symmetry_equiv_pos_site_id
 _symmetry_equiv_pos_as_xyz
  1  'x, y, z'
loop_
 _atom_site_type_symbol
 _atom_site_label
 _atom_site_symmetry_multiplicity
 _atom_site_fract_x
 _atom_site_fract_y
 _atom_site_fract_z
 _atom_site_occupancy
  F  F0  1  0.37748542  0.73445755  0.18916982  1
  F  F1  1  -0.37748542  -0.73445755  0.18916982  1
  F  F2  1  -0.73445755  0.37748542  0.18916982  1
  F  F3  1  0.73445755  -0.37748542  0.18916982  1
  F  F4  1  -0.37748542  0.73445755  -0.18916982  1
  F  F5  1  0.37748542  -0.73445755  -0.18916982  1
  F  F6  1  0.73445755  0.37748542  -0.18916982  1
  F  F7  1  -0.73445755  -0.37748542  -0.18916982  1
  F  F8  1  -0.37748542  -0.73445755  -0.18916982  1
  F  F9  1  0.37748542  0.73445755  -0.18916982  1
  F  F10  1  0.73445755  -0.37748542  -0.18916982  1
  F  F11  1  -0.73445755  0.37748542  -0.18916982  1
  F  F12  1  0.37748542  -0.73445755  0.18916982  1
  F  F13  1  -0.37748542  0.73445755  0.18916982  1
  F  F14  1  -0.73445755  -0.37748542  0.18916982  1
  F  F15  1  0.73445755  0.37748542  0.18916982  1
  F  F16  1  0.71015532  -0.00000000  -0.00000000  1
  F  F17  1  0.28984468  -0.00000000  -0.00000000  1
  F  F18  1  0.00000000  0.71015532  -0.00000000  1
  F  F19  1  0.00000000  0.28984468  -0.00000000  1
  Li  Li20  1  0.36912881  0.50000000  0.50000000  1
  Li  Li21  1  0.63087119  0.50000000  0.50000000  1
  Li  Li22  1  0.50000000  0.36912881  0.50000000  1
  Li  Li23  1  0.50000000  0.63087119  0.50000000  1
  Li  Li24  1  0.00000000  0.00000000  0.00000000  1
  Li  Li25  1  0.00000000  0.50000000  0.50000000  1
  Li  Li26  1  0.50000000  0.00000000  0.50000000  1
  Li  Li27  1  0.24613691  0.50000000  -0.00000000  1
  Li  Li28  1  0.75386309  0.50000000  -0.00000000  1
  Li  Li29  1  0.50000000  0.24613691  -0.00000000  1
  Li  Li30  1  0.50000000  0.75386309  -0.00000000  1
  Li  Li31  1  0.38919767  0.19239608  0.50000000  1
  Li  Li32  1  0.61080233  0.80760392  0.50000000  1
  Li  Li33  1  0.80760392  0.38919767  0.50000000  1
  Li  Li34  1  0.19239608  0.61080233  0.50000000  1
  Li  Li35  1  0.61080233  0.19239608  0.50000000  1
  Li  Li36  1  0.38919767  0.80760392  0.50000000  1
  Li  Li37  1  0.19239608  0.38919767  0.50000000  1
  Li  Li38  1  0.80760392  0.61080233  0.50000000  1
  Li  Li39  1  0.50000000  0.50000000  -0.00000000  1
