# generated using pymatgen
data_LiYAs2PSe
_symmetry_space_group_name_H-M   'P 1'
_cell_length_a   5.34038422
_cell_length_b   5.47062604
_cell_length_c   7.02528575
_cell_angle_alpha   94.01695683
_cell_angle_beta   98.44320588
_cell_angle_gamma   105.65636931
_symmetry_Int_Tables_number   1
_chemical_formula_structural   LiYAs2PSe
_chemical_formula_sum   'Li2 Y2 As4 P2 Se2'
_cell_volume   194.18802397
_cell_formula_units_Z   2
loop_
 _symmetry_equiv_pos_site_id
 _symmetry_equiv_pos_as_xyz
  1  'x, y, z'
loop_
 _atom_site_type_symbol
 _atom_site_label
 _atom_site_symmetry_multiplicity
 _atom_site_fract_x
 _atom_site_fract_y
 _atom_site_fract_z
 _atom_site_occupancy
  Se  Se0  1  0.00000000  0.00000000  0.00000000  1
  Se  Se1  1  0.50000000  0.50000000  0.50000000  1
  Y  Y2  1  0.50000000  0.50000000  0.00000000  1
  Y  Y3  1  0.50000000  0.00000000  0.50000000  1
  P  P4  1  0.00000000  0.50000000  0.50000000  1
  P  P5  1  0.37729273  0.31945251  0.29493210  1
  As  As6  1  0.57668970  0.94107845  0.54433135  1
  As  As7  1  0.49907807  0.12251647  0.67884354  1
  As  As8  1  0.46636257  0.52380057  0.13309534  1
  As  As9  1  0.15259218  0.71176874  0.18237443  1
  Li  Li10  1  0.47610729  0.55388844  0.16455402  1
  Li  Li11  1  0.33681107  0.14446121  0.52103553  1
