# generated using pymatgen
data_LiTiO
_symmetry_space_group_name_H-M   'P 1'
_cell_length_a   3.65275455
_cell_length_b   3.57983129
_cell_length_c   4.30483516
_cell_angle_alpha   99.11018136
_cell_angle_beta   98.72884331
_cell_angle_gamma   95.40632893
_symmetry_Int_Tables_number   1
_chemical_formula_structural   LiTiO
_chemical_formula_sum   'Li1 Ti1 O1'
_cell_volume   54.53251744
_cell_formula_units_Z   1
loop_
 _symmetry_equiv_pos_site_id
 _symmetry_equiv_pos_as_xyz
  1  'x, y, z'
loop_
 _atom_site_type_symbol
 _atom_site_label
 _atom_site_symmetry_multiplicity
 _atom_site_fract_x
 _atom_site_fract_y
 _atom_site_fract_z
 _atom_site_occupancy
  Li  Li0  1  0.12500000  0.12500000  0.12500000  1
  O  O1  1  0.50000000  0.50000000  0.50000000  1
  Ti  Ti2  1  0.25000000  0.25000000  0.25000000  1
