# generated using pymatgen
data_LiZrTiO
_symmetry_space_group_name_H-M   'P 1'
_cell_length_a   3.05360411
_cell_length_b   2.72867462
_cell_length_c   5.81474077
_cell_angle_alpha   98.61779176
_cell_angle_beta   110.36199829
_cell_angle_gamma   111.63846310
_symmetry_Int_Tables_number   1
_chemical_formula_structural   LiZrTiO
_chemical_formula_sum   'Li1 Zr1 Ti1 O1'
_cell_volume   40.01319464
_cell_formula_units_Z   1
loop_
 _symmetry_equiv_pos_site_id
 _symmetry_equiv_pos_as_xyz
  1  'x, y, z'
loop_
 _atom_site_type_symbol
 _atom_site_label
 _atom_site_symmetry_multiplicity
 _atom_site_fract_x
 _atom_site_fract_y
 _atom_site_fract_z
 _atom_site_occupancy
  Zr  Zr0  1  0.00000000  0.00000000  0.00000000  1
  Li  Li1  1  0.33300000  0.66700000  0.25000000  1
  O  O2  1  0.66700000  0.33300000  0.50000000  1
  Ti  Ti3  1  0.00000000  0.00000000  0.75000000  1
