# generated using pymatgen
data_Li2TiSF
_symmetry_space_group_name_H-M   'P 1'
_cell_length_a   3.31072029
_cell_length_b   2.93916859
_cell_length_c   4.27448592
_cell_angle_alpha   91.15887521
_cell_angle_beta   96.03777820
_cell_angle_gamma   99.50502452
_symmetry_Int_Tables_number   1
_chemical_formula_structural   Li2TiSF
_chemical_formula_sum   'Li2 Ti1 S1 F1'
_cell_volume   40.76543529
_cell_formula_units_Z   1
loop_
 _symmetry_equiv_pos_site_id
 _symmetry_equiv_pos_as_xyz
  1  'x, y, z'
loop_
 _atom_site_type_symbol
 _atom_site_label
 _atom_site_symmetry_multiplicity
 _atom_site_fract_x
 _atom_site_fract_y
 _atom_site_fract_z
 _atom_site_occupancy
  F  F0  1  0.00000000  0.00000000  0.00000000  1
  S  S1  1  0.50000000  0.50000000  0.50000000  1
  Ti  Ti2  1  0.25000000  0.25000000  0.25000000  1
  Li  Li3  1  0.75000000  0.25000000  0.00000000  1
  Li  Li4  1  0.25000000  0.75000000  0.50000000  1
