# generated using pymatgen
data_LiF
_symmetry_space_group_name_H-M   'P 1'
_cell_length_a   13.78151972
_cell_length_b   7.04005985
_cell_length_c   8.19674917
_cell_angle_alpha   90.00000000
_cell_angle_beta   90.00000000
_cell_angle_gamma   90.00000000
_symmetry_Int_Tables_number   1
_chemical_formula_structural   LiF
_chemical_formula_sum   'Li24 F24'
_cell_volume   795.27092949
_cell_formula_units_Z   24
loop_
 _symmetry_equiv_pos_site_id
 _symmetry_equiv_pos_as_xyz
  1  'x, y, z'
loop_
 _atom_site_type_symbol
 _atom_site_label
 _atom_site_symmetry_multiplicity
 _atom_site_fract_x
 _atom_site_fract_y
 _atom_site_fract_z
 _atom_site_occupancy
  F  F0  1  0.00000000  0.00000000  0.50000000  1
  F  F1  1  0.50000000  0.00000000  0.00000000  1
  F  F2  1  0.00000000  0.50000000  0.50000000  1
  F  F3  1  0.50000000  0.50000000  0.00000000  1
  F  F4  1  0.32799803  0.41374711  0.29263100  1
  F  F5  1  0.17200197  0.58625289  0.79263100  1
  F  F6  1  0.67200197  0.91374711  0.70736900  1
  F  F7  1  0.82799803  0.08625289  0.20736900  1
  F  F8  1  0.67200197  0.58625289  0.70736900  1
  F  F9  1  0.82799803  0.41374711  0.20736900  1
  F  F10  1  0.32799803  0.08625289  0.29263100  1
  F  F11  1  0.17200197  0.91374711  0.79263100  1
  F  F12  1  0.51857741  0.84108414  0.41658663  1
  F  F13  1  0.98142259  0.15891586  0.91658663  1
  F  F14  1  0.48142259  0.34108414  0.58341337  1
  F  F15  1  0.01857741  0.65891586  0.08341337  1
  F  F16  1  0.48142259  0.15891586  0.58341337  1
  F  F17  1  0.01857741  0.84108414  0.08341337  1
  F  F18  1  0.51857741  0.65891586  0.41658663  1
  F  F19  1  0.98142259  0.34108414  0.91658663  1
  F  F20  1  0.85372619  0.25000000  0.12761763  1
  F  F21  1  0.64627381  0.75000000  0.62761763  1
  F  F22  1  0.14627381  0.75000000  0.87238237  1
  F  F23  1  0.35372619  0.25000000  0.37238237  1
  Li  Li24  1  0.44917831  0.85785834  0.62070963  1
  Li  Li25  1  0.05082169  -0.85785834  1.12070963  1
  Li  Li26  1  -0.44917831  1.35785834  -0.62070963  1
  Li  Li27  1  0.94917831  -0.35785834  -0.12070963  1
  Li  Li28  1  -0.44917831  -0.85785834  -0.62070963  1
  Li  Li29  1  0.94917831  0.85785834  -0.12070963  1
  Li  Li30  1  0.44917831  -0.35785834  0.62070963  1
  Li  Li31  1  0.05082169  1.35785834  1.12070963  1
  Li  Li32  1  0.80326759  0.99717336  0.87315708  1
  Li  Li33  1  0.69673241  0.00282664  0.37315708  1
  Li  Li34  1  0.19673241  0.49717336  0.12684292  1
  Li  Li35  1  0.30326759  0.50282664  0.62684292  1
  Li  Li36  1  0.19673241  0.00282664  0.12684292  1
  Li  Li37  1  0.30326759  0.99717336  0.62684292  1
  Li  Li38  1  0.80326759  0.50282664  0.87315708  1
  Li  Li39  1  0.69673241  0.49717336  0.37315708  1
  Li  Li40  1  0.19970800  0.25000000  0.72091398  1
  Li  Li41  1  0.30029200  0.75000000  0.22091398  1
  Li  Li42  1  0.80029200  0.75000000  0.27908602  1
  Li  Li43  1  0.69970800  0.25000000  0.77908602  1
  Li  Li44  1  0.00000000  0.00000000  0.00000000  1
  Li  Li45  1  0.50000000  0.00000000  0.50000000  1
  Li  Li46  1  0.00000000  0.50000000  0.00000000  1
  Li  Li47  1  0.50000000  0.50000000  0.50000000  1
