# generated using pymatgen
data_Li2Sb2As(PPb)2
_symmetry_space_group_name_H-M   'P 1'
_cell_length_a   5.15286054
_cell_length_b   5.18174782
_cell_length_c   7.21856332
_cell_angle_alpha   95.15697222
_cell_angle_beta   100.78765524
_cell_angle_gamma   108.55990289
_symmetry_Int_Tables_number   1
_chemical_formula_structural   Li2Sb2As(PPb)2
_chemical_formula_sum   'Li2 Sb2 As1 P2 Pb2'
_cell_volume   177.16151311
_cell_formula_units_Z   1
loop_
 _symmetry_equiv_pos_site_id
 _symmetry_equiv_pos_as_xyz
  1  'x, y, z'
loop_
 _atom_site_type_symbol
 _atom_site_label
 _atom_site_symmetry_multiplicity
 _atom_site_fract_x
 _atom_site_fract_y
 _atom_site_fract_z
 _atom_site_occupancy
  P  P0  1  0.12500000  0.00000000  0.25000000  1
  P  P1  1  0.00000000  0.00000000  0.00000000  1
  Pb  Pb2  1  0.37500000  0.00000000  0.25000000  1
  Pb  Pb3  1  0.25000000  0.25000000  0.25000000  1
  As  As4  1  0.00000000  0.25000000  0.12500000  1
  Li  Li5  1  0.00047702  0.94048502  0.31623142  1
  Li  Li6  1  0.56720608  0.21317092  0.09370992  1
  Sb  Sb7  1  0.21179933  0.15573328  0.48645362  1
  Sb  Sb8  1  0.89245335  0.24288265  0.09431152  1
