# generated using pymatgen
data_Li2Y2As4P3
_symmetry_space_group_name_H-M   'P 1'
_cell_length_a   4.20967156
_cell_length_b   4.39857677
_cell_length_c   6.76806474
_cell_angle_alpha   96.12506159
_cell_angle_beta   103.33911076
_cell_angle_gamma   114.60193804
_symmetry_Int_Tables_number   1
_chemical_formula_structural   Li2Y2As4P3
_chemical_formula_sum   'Li2 Y2 As4 P3'
_cell_volume   107.92008267
_cell_formula_units_Z   1
loop_
 _symmetry_equiv_pos_site_id
 _symmetry_equiv_pos_as_xyz
  1  'x, y, z'
loop_
 _atom_site_type_symbol
 _atom_site_label
 _atom_site_symmetry_multiplicity
 _atom_site_fract_x
 _atom_site_fract_y
 _atom_site_fract_z
 _atom_site_occupancy
  P  P0  1  0.12500000  0.12500000  0.12500000  1
  P  P1  1  0.50000000  0.50000000  0.50000000  1
  P  P2  1  0.25000000  0.25000000  0.25000000  1
  As  As3  1  0.75000000  0.75000000  0.75000000  1
  As  As4  1  0.92689067  0.68356328  0.24549539  1
  As  As5  1  0.59829514  0.81759111  0.54064799  1
  As  As6  1  0.06219093  0.60337065  0.87976754  1
  Li  Li7  1  0.91797326  0.11055693  0.20899903  1
  Li  Li8  1  0.20343041  0.73940670  0.10702490  1
  Y  Y9  1  0.39980157  0.13340256  0.03309803  1
  Y  Y10  1  0.48343755  0.88750123  0.49686135  1
