# generated using pymatgen
data_LiF
_symmetry_space_group_name_H-M   'P 1'
_cell_length_a   12.27238969
_cell_length_b   12.27238969
_cell_length_c   3.09035176
_cell_angle_alpha   90.00000000
_cell_angle_beta   90.00000000
_cell_angle_gamma   120.00000000
_symmetry_Int_Tables_number   1
_chemical_formula_structural   LiF
_chemical_formula_sum   'Li14 F14'
_cell_volume   403.08517140
_cell_formula_units_Z   14
loop_
 _symmetry_equiv_pos_site_id
 _symmetry_equiv_pos_as_xyz
  1  'x, y, z'
loop_
 _atom_site_type_symbol
 _atom_site_label
 _atom_site_symmetry_multiplicity
 _atom_site_fract_x
 _atom_site_fract_y
 _atom_site_fract_z
 _atom_site_occupancy
  F  F0  1  0.89340936  0.10659064  0.50000000  1
  F  F1  1  0.89340936  0.78681872  0.50000000  1
  F  F2  1  0.21318128  0.10659064  0.50000000  1
  F  F3  1  0.94053974  0.05946026  0.50000000  1
  F  F4  1  0.94053974  0.88107949  0.50000000  1
  F  F5  1  0.11892051  0.05946026  0.50000000  1
  F  F6  1  0.84847057  0.02683427  0.84108644  1
  F  F7  1  0.97316573  0.82163630  0.84108644  1
  F  F8  1  0.17836370  0.15152943  0.84108644  1
  F  F9  1  0.97316573  0.15152943  0.15891356  1
  F  F10  1  0.17836370  0.02683427  0.15891356  1
  F  F11  1  0.84847057  0.82163630  0.15891356  1
  F  F12  1  0.33333333  0.66666667  0.65319688  1
  F  F13  1  0.33333333  0.66666667  0.34680312  1
  Li  Li14  1  0.74114952  0.25885048  0.50000000  1
  Li  Li15  1  0.74114952  0.48229904  0.50000000  1
  Li  Li16  1  0.51770096  0.25885048  0.50000000  1
  Li  Li17  1  0.95541349  0.64584846  0.87873889  1
  Li  Li18  1  -0.64584846  0.30956503  0.87873889  1
  Li  Li19  1  -0.30956503  -0.95541349  0.87873889  1
  Li  Li20  1  -0.64584846  -0.95541349  -0.87873889  1
  Li  Li21  1  -0.30956503  0.64584846  -0.87873889  1
  Li  Li22  1  0.95541349  0.30956503  -0.87873889  1
  Li  Li23  1  0.11843752  0.88156248  0.00000000  1
  Li  Li24  1  0.11843752  0.23687503  0.00000000  1
  Li  Li25  1  0.76312497  0.88156248  0.00000000  1
  Li  Li26  1  0.00000000  0.00000000  0.25711136  1
  Li  Li27  1  0.00000000  0.00000000  0.74288864  1
