# generated using pymatgen
data_LiF
_symmetry_space_group_name_H-M   'P 1'
_cell_length_a   9.10707623
_cell_length_b   9.10707623
_cell_length_c   13.75760248
_cell_angle_alpha   90.00000000
_cell_angle_beta   90.00000000
_cell_angle_gamma   120.00000000
_symmetry_Int_Tables_number   1
_chemical_formula_structural   LiF
_chemical_formula_sum   'Li30 F30'
_cell_volume   988.16924104
_cell_formula_units_Z   30
loop_
 _symmetry_equiv_pos_site_id
 _symmetry_equiv_pos_as_xyz
  1  'x, y, z'
loop_
 _atom_site_type_symbol
 _atom_site_label
 _atom_site_symmetry_multiplicity
 _atom_site_fract_x
 _atom_site_fract_y
 _atom_site_fract_z
 _atom_site_occupancy
  F  F0  1  0.71655493  0.05101474  0.46535737  1
  F  F1  1  -0.05101474  0.66554019  0.46535737  1
  F  F2  1  -0.66554019  -0.71655493  0.46535737  1
  F  F3  1  -0.71655493  -0.05101474  0.96535737  1
  F  F4  1  0.05101474  -0.66554019  0.96535737  1
  F  F5  1  0.66554019  0.71655493  0.96535737  1
  F  F6  1  -0.71655493  -0.05101474  -0.46535737  1
  F  F7  1  0.05101474  -0.66554019  -0.46535737  1
  F  F8  1  0.66554019  0.71655493  -0.46535737  1
  F  F9  1  0.71655493  0.05101474  0.03464263  1
  F  F10  1  -0.05101474  0.66554019  0.03464263  1
  F  F11  1  -0.66554019  -0.71655493  0.03464263  1
  F  F12  1  0.48589453  0.48956202  0.25000000  1
  F  F13  1  0.51043798  0.99633251  0.25000000  1
  F  F14  1  0.00366749  0.51410547  0.25000000  1
  F  F15  1  0.51410547  0.51043798  0.75000000  1
  F  F16  1  0.48956202  0.00366749  0.75000000  1
  F  F17  1  0.99633251  0.48589453  0.75000000  1
  F  F18  1  0.97624376  0.86203487  0.13829895  1
  F  F19  1  0.13796513  0.11420890  0.13829895  1
  F  F20  1  0.88579110  0.02375624  0.13829895  1
  F  F21  1  0.02375624  0.13796513  0.63829895  1
  F  F22  1  0.86203487  0.88579110  0.63829895  1
  F  F23  1  0.11420890  0.97624376  0.63829895  1
  F  F24  1  0.02375624  0.13796513  0.86170105  1
  F  F25  1  0.86203487  0.88579110  0.86170105  1
  F  F26  1  0.11420890  0.97624376  0.86170105  1
  F  F27  1  0.97624376  0.86203487  0.36170105  1
  F  F28  1  0.13796513  0.11420890  0.36170105  1
  F  F29  1  0.88579110  0.02375624  0.36170105  1
  Li  Li30  1  0.00000000  0.00000000  0.25000000  1
  Li  Li31  1  0.00000000  0.00000000  0.75000000  1
  Li  Li32  1  0.86963707  0.24201107  0.41851114  1
  Li  Li33  1  0.75798893  0.62762600  0.41851114  1
  Li  Li34  1  0.37237400  0.13036293  0.41851114  1
  Li  Li35  1  0.13036293  0.75798893  0.91851114  1
  Li  Li36  1  0.24201107  0.37237400  0.91851114  1
  Li  Li37  1  0.62762600  0.86963707  0.91851114  1
  Li  Li38  1  0.13036293  0.75798893  0.58148886  1
  Li  Li39  1  0.24201107  0.37237400  0.58148886  1
  Li  Li40  1  0.62762600  0.86963707  0.58148886  1
  Li  Li41  1  0.86963707  0.24201107  0.08148886  1
  Li  Li42  1  0.75798893  0.62762600  0.08148886  1
  Li  Li43  1  0.37237400  0.13036293  0.08148886  1
  Li  Li44  1  0.33333333  0.66666667  0.25000000  1
  Li  Li45  1  0.66666667  0.33333333  0.75000000  1
  Li  Li46  1  0.89673531  0.48050957  0.38816194  1
  Li  Li47  1  0.51949043  0.41622575  0.38816194  1
  Li  Li48  1  0.58377425  0.10326469  0.38816194  1
  Li  Li49  1  0.10326469  0.51949043  0.88816194  1
  Li  Li50  1  0.48050957  0.58377425  0.88816194  1
  Li  Li51  1  0.41622575  0.89673531  0.88816194  1
  Li  Li52  1  0.10326469  0.51949043  0.61183806  1
  Li  Li53  1  0.48050957  0.58377425  0.61183806  1
  Li  Li54  1  0.41622575  0.89673531  0.61183806  1
  Li  Li55  1  0.89673531  0.48050957  0.11183806  1
  Li  Li56  1  0.51949043  0.41622575  0.11183806  1
  Li  Li57  1  0.58377425  0.10326469  0.11183806  1
  Li  Li58  1  0.00000000  0.00000000  0.00000000  1
  Li  Li59  1  0.00000000  0.00000000  0.50000000  1
