# generated using pymatgen
data_Li2Si4Te3F12
_symmetry_space_group_name_H-M   'P 1'
_cell_length_a   6.65518477
_cell_length_b   9.15842675
_cell_length_c   23.35930853
_cell_angle_alpha   90.00000000
_cell_angle_beta   90.00000000
_cell_angle_gamma   90.00000000
_symmetry_Int_Tables_number   1
_chemical_formula_structural   Li2Si4Te3F12
_chemical_formula_sum   'Li8 Si16 Te12 F48'
_cell_volume   1423.77373298
_cell_formula_units_Z   4
loop_
 _symmetry_equiv_pos_site_id
 _symmetry_equiv_pos_as_xyz
  1  'x, y, z'
loop_
 _atom_site_type_symbol
 _atom_site_label
 _atom_site_symmetry_multiplicity
 _atom_site_fract_x
 _atom_site_fract_y
 _atom_site_fract_z
 _atom_site_occupancy
  F  F0  1  0.00000000  0.00000000  0.00000000  1
  F  F1  1  0.50000000  0.50000000  0.00000000  1
  F  F2  1  0.22548032  0.90548445  0.72754497  1
  F  F3  1  0.77451968  0.09451555  0.72754497  1
  F  F4  1  0.27451968  0.40548445  0.27245503  1
  F  F5  1  0.72548032  0.59451555  0.27245503  1
  F  F6  1  0.77451968  0.09451555  0.27245503  1
  F  F7  1  0.22548032  0.90548445  0.27245503  1
  F  F8  1  0.72548032  0.59451555  0.72754497  1
  F  F9  1  0.27451968  0.40548445  0.72754497  1
  F  F10  1  0.30537330  0.06507658  0.81750706  1
  F  F11  1  0.69462670  0.93492342  0.81750706  1
  F  F12  1  0.19462670  0.56507658  0.18249294  1
  F  F13  1  0.80537330  0.43492342  0.18249294  1
  F  F14  1  0.69462670  0.93492342  0.18249294  1
  F  F15  1  0.30537330  0.06507658  0.18249294  1
  F  F16  1  0.80537330  0.43492342  0.81750706  1
  F  F17  1  0.19462670  0.56507658  0.81750706  1
  F  F18  1  0.01859290  0.40477904  0.50000000  1
  F  F19  1  0.98140710  0.59522096  0.50000000  1
  F  F20  1  0.48140710  0.90477904  0.50000000  1
  F  F21  1  0.51859290  0.09522096  0.50000000  1
  F  F22  1  0.00000000  0.00000000  0.56529023  1
  F  F23  1  0.50000000  0.50000000  0.43470977  1
  F  F24  1  0.00000000  0.00000000  0.43470977  1
  F  F25  1  0.50000000  0.50000000  0.56529023  1
  F  F26  1  0.00000000  0.00000000  0.34948253  1
  F  F27  1  0.50000000  0.50000000  0.65051747  1
  F  F28  1  0.00000000  0.00000000  0.65051747  1
  F  F29  1  0.50000000  0.50000000  0.34948253  1
  F  F30  1  0.74168404  0.06227559  0.35957027  1
  F  F31  1  0.25831596  0.93772441  0.35957027  1
  F  F32  1  0.75831596  0.56227559  0.64042973  1
  F  F33  1  0.24168404  0.43772441  0.64042973  1
  F  F34  1  0.25831596  0.93772441  0.64042973  1
  F  F35  1  0.74168404  0.06227559  0.64042973  1
  F  F36  1  0.24168404  0.43772441  0.35957027  1
  F  F37  1  0.75831596  0.56227559  0.35957027  1
  F  F38  1  0.63653252  0.29827165  0.41010614  1
  F  F39  1  0.36346748  0.70172835  0.41010614  1
  F  F40  1  0.86346748  0.79827165  0.58989386  1
  F  F41  1  0.13653252  0.20172835  0.58989386  1
  F  F42  1  0.36346748  0.70172835  0.58989386  1
  F  F43  1  0.63653252  0.29827165  0.58989386  1
  F  F44  1  0.13653252  0.20172835  0.41010614  1
  F  F45  1  0.86346748  0.79827165  0.41010614  1
  F  F46  1  0.00000000  0.00000000  0.50000000  1
  F  F47  1  0.50000000  0.50000000  0.50000000  1
  Li  Li48  1  0.38788491  0.15637558  0.50000000  1
  Li  Li49  1  0.61211509  0.84362442  0.50000000  1
  Li  Li50  1  0.11211509  0.65637558  0.50000000  1
  Li  Li51  1  0.88788491  0.34362442  0.50000000  1
  Li  Li52  1  0.00000000  0.50000000  0.40455674  1
  Li  Li53  1  0.50000000  0.00000000  0.59544326  1
  Li  Li54  1  0.00000000  0.50000000  0.59544326  1
  Li  Li55  1  0.50000000  0.00000000  0.40455674  1
  Si  Si56  1  0.09401557  0.76218323  0.12508073  1
  Si  Si57  1  -0.09401557  -0.76218323  0.12508073  1
  Si  Si58  1  0.40598443  1.26218323  -0.12508073  1
  Si  Si59  1  0.59401557  -0.26218323  -0.12508073  1
  Si  Si60  1  -0.09401557  -0.76218323  -0.12508073  1
  Si  Si61  1  0.09401557  0.76218323  -0.12508073  1
  Si  Si62  1  0.59401557  -0.26218323  0.12508073  1
  Si  Si63  1  0.40598443  1.26218323  0.12508073  1
  Si  Si64  1  0.00000000  0.50000000  0.94888899  1
  Si  Si65  1  0.50000000  0.00000000  0.05111101  1
  Si  Si66  1  0.00000000  0.50000000  0.05111101  1
  Si  Si67  1  0.50000000  0.00000000  0.94888899  1
  Si  Si68  1  0.00000000  0.00000000  0.06277192  1
  Si  Si69  1  0.50000000  0.50000000  0.93722808  1
  Si  Si70  1  0.00000000  0.00000000  0.93722808  1
  Si  Si71  1  0.50000000  0.50000000  0.06277192  1
  Te  Te72  1  0.72136502  0.90987423  0.32065229  1
  Te  Te73  1  0.27863498  0.09012577  0.32065229  1
  Te  Te74  1  0.77863498  0.40987423  0.67934771  1
  Te  Te75  1  0.22136502  0.59012577  0.67934771  1
  Te  Te76  1  0.27863498  0.09012577  0.67934771  1
  Te  Te77  1  0.72136502  0.90987423  0.67934771  1
  Te  Te78  1  0.22136502  0.59012577  0.32065229  1
  Te  Te79  1  0.77863498  0.40987423  0.32065229  1
  Te  Te80  1  0.88348789  0.73745797  0.00000000  1
  Te  Te81  1  0.11651211  0.26254203  0.00000000  1
  Te  Te82  1  0.61651211  0.23745797  -0.00000000  1
  Te  Te83  1  0.38348789  0.76254203  0.00000000  1
