# generated using pymatgen
data_Li2YMoP3Se2
_symmetry_space_group_name_H-M   'P 1'
_cell_length_a   5.52630627
_cell_length_b   5.60722838
_cell_length_c   7.37550037
_cell_angle_alpha   94.47747788
_cell_angle_beta   99.75101597
_cell_angle_gamma   107.98424910
_symmetry_Int_Tables_number   1
_chemical_formula_structural   Li2YMoP3Se2
_chemical_formula_sum   'Li2 Y1 Mo1 P3 Se2'
_cell_volume   212.15788955
_cell_formula_units_Z   1
loop_
 _symmetry_equiv_pos_site_id
 _symmetry_equiv_pos_as_xyz
  1  'x, y, z'
loop_
 _atom_site_type_symbol
 _atom_site_label
 _atom_site_symmetry_multiplicity
 _atom_site_fract_x
 _atom_site_fract_y
 _atom_site_fract_z
 _atom_site_occupancy
  P  P0  1  0.00000000  0.00000000  0.00000000  1
  P  P1  1  0.50000000  0.50000000  0.50000000  1
  P  P2  1  0.50000000  0.50000000  0.00000000  1
  Mo  Mo3  1  0.50000000  0.00000000  0.50000000  1
  Se  Se4  1  0.00000000  0.50000000  0.50000000  1
  Se  Se5  1  0.54393658  0.89441591  0.22452238  1
  Li  Li6  1  0.42134521  0.57706115  0.03574753  1
  Li  Li7  1  0.69755896  0.78507142  0.86671629  1
  Y  Y8  1  0.26483942  0.22289876  0.17060493  1
