# generated using pymatgen
data_LiF
_symmetry_space_group_name_H-M   'P 1'
_cell_length_a   10.05591430
_cell_length_b   5.48620056
_cell_length_c   10.32641999
_cell_angle_alpha   90.00000000
_cell_angle_beta   90.00000000
_cell_angle_gamma   90.00000000
_symmetry_Int_Tables_number   1
_chemical_formula_structural   LiF
_chemical_formula_sum   'Li24 F24'
_cell_volume   569.69581369
_cell_formula_units_Z   24
loop_
 _symmetry_equiv_pos_site_id
 _symmetry_equiv_pos_as_xyz
  1  'x, y, z'
loop_
 _atom_site_type_symbol
 _atom_site_label
 _atom_site_symmetry_multiplicity
 _atom_site_fract_x
 _atom_site_fract_y
 _atom_site_fract_z
 _atom_site_occupancy
  F  F0  1  0.00000000  0.00000000  0.50000000  1
  F  F1  1  0.50000000  0.50000000  0.50000000  1
  F  F2  1  0.32371557  0.49330067  -0.00000000  1
  F  F3  1  0.67628443  0.50669933  -0.00000000  1
  F  F4  1  0.17628443  0.99330067  -0.00000000  1
  F  F5  1  0.82371557  0.00669933  -0.00000000  1
  F  F6  1  0.91024344  0.68164383  0.13525152  1
  F  F7  1  0.08975656  0.31835617  0.13525152  1
  F  F8  1  0.58975656  0.18164383  0.86474848  1
  F  F9  1  0.41024344  0.81835617  0.86474848  1
  F  F10  1  0.08975656  0.31835617  0.86474848  1
  F  F11  1  0.91024344  0.68164383  0.86474848  1
  F  F12  1  0.41024344  0.81835617  0.13525152  1
  F  F13  1  0.58975656  0.18164383  0.13525152  1
  F  F14  1  0.39234361  0.77161706  0.42490220  1
  F  F15  1  0.60765639  0.22838294  0.42490220  1
  F  F16  1  0.10765639  0.27161706  0.57509780  1
  F  F17  1  0.89234361  0.72838294  0.57509780  1
  F  F18  1  0.60765639  0.22838294  0.57509780  1
  F  F19  1  0.39234361  0.77161706  0.57509780  1
  F  F20  1  0.89234361  0.72838294  0.42490220  1
  F  F21  1  0.10765639  0.27161706  0.42490220  1
  F  F22  1  0.00000000  0.50000000  0.50000000  1
  F  F23  1  0.50000000  0.00000000  0.50000000  1
  Li  Li24  1  0.00000000  0.00000000  0.32718556  1
  Li  Li25  1  0.50000000  0.50000000  0.67281444  1
  Li  Li26  1  0.00000000  0.00000000  0.67281444  1
  Li  Li27  1  0.50000000  0.50000000  0.32718556  1
  Li  Li28  1  0.20016691  0.67135575  0.91250527  1
  Li  Li29  1  -0.20016691  -0.67135575  0.91250527  1
  Li  Li30  1  0.29983309  1.17135575  -0.91250527  1
  Li  Li31  1  0.70016691  -0.17135575  -0.91250527  1
  Li  Li32  1  -0.20016691  -0.67135575  -0.91250527  1
  Li  Li33  1  0.20016691  0.67135575  -0.91250527  1
  Li  Li34  1  0.70016691  -0.17135575  0.91250527  1
  Li  Li35  1  0.29983309  1.17135575  0.91250527  1
  Li  Li36  1  0.00000000  0.50000000  0.00000000  1
  Li  Li37  1  0.50000000  0.00000000  0.00000000  1
  Li  Li38  1  0.51857496  0.19409143  0.50000000  1
  Li  Li39  1  0.48142504  0.80590857  0.50000000  1
  Li  Li40  1  0.98142504  0.69409143  0.50000000  1
  Li  Li41  1  0.01857496  0.30590857  0.50000000  1
  Li  Li42  1  0.00000000  0.00000000  0.00000000  1
  Li  Li43  1  0.50000000  0.50000000  0.00000000  1
  Li  Li44  1  0.00000000  0.50000000  0.21951958  1
  Li  Li45  1  0.50000000  0.00000000  0.78048042  1
  Li  Li46  1  0.00000000  0.50000000  0.78048042  1
  Li  Li47  1  0.50000000  0.00000000  0.21951958  1
