# generated using pymatgen
data_LiF
_symmetry_space_group_name_H-M   'P 1'
_cell_length_a   8.25881115
_cell_length_b   9.42683523
_cell_length_c   9.06292441
_cell_angle_alpha   90.00000000
_cell_angle_beta   90.00000000
_cell_angle_gamma   90.00000000
_symmetry_Int_Tables_number   1
_chemical_formula_structural   LiF
_chemical_formula_sum   'Li24 F24'
_cell_volume   705.58901235
_cell_formula_units_Z   24
loop_
 _symmetry_equiv_pos_site_id
 _symmetry_equiv_pos_as_xyz
  1  'x, y, z'
loop_
 _atom_site_type_symbol
 _atom_site_label
 _atom_site_symmetry_multiplicity
 _atom_site_fract_x
 _atom_site_fract_y
 _atom_site_fract_z
 _atom_site_occupancy
  F  F0  1  0.55105247  0.81111388  0.65655798  1
  F  F1  1  0.94894753  0.18888612  0.15655798  1
  F  F2  1  0.44894753  0.31111388  0.34344202  1
  F  F3  1  0.05105247  0.68888612  0.84344202  1
  F  F4  1  0.44894753  0.18888612  0.34344202  1
  F  F5  1  0.05105247  0.81111388  0.84344202  1
  F  F6  1  0.55105247  0.68888612  0.65655798  1
  F  F7  1  0.94894753  0.31111388  0.15655798  1
  F  F8  1  0.15935816  0.98936364  0.92571729  1
  F  F9  1  0.34064184  0.01063636  0.42571729  1
  F  F10  1  0.84064184  0.48936364  0.07428271  1
  F  F11  1  0.65935816  0.51063636  0.57428271  1
  F  F12  1  0.84064184  0.01063636  0.07428271  1
  F  F13  1  0.65935816  0.98936364  0.57428271  1
  F  F14  1  0.15935816  0.51063636  0.92571729  1
  F  F15  1  0.34064184  0.48936364  0.42571729  1
  F  F16  1  0.82690322  0.47635894  0.24885467  1
  F  F17  1  0.67309678  0.52364106  0.74885467  1
  F  F18  1  0.17309678  0.97635894  0.75114533  1
  F  F19  1  0.32690322  0.02364106  0.25114533  1
  F  F20  1  0.17309678  0.52364106  0.75114533  1
  F  F21  1  0.32690322  0.47635894  0.25114533  1
  F  F22  1  0.82690322  0.02364106  0.24885467  1
  F  F23  1  0.67309678  0.97635894  0.74885467  1
  Li  Li24  1  0.00000000  0.00000000  0.50000000  1
  Li  Li25  1  0.50000000  0.00000000  0.00000000  1
  Li  Li26  1  0.00000000  0.50000000  0.50000000  1
  Li  Li27  1  0.50000000  0.50000000  0.00000000  1
  Li  Li28  1  0.03767765  0.35799632  0.74129231  1
  Li  Li29  1  0.46232235  -0.35799632  1.24129231  1
  Li  Li30  1  -0.03767765  0.85799632  -0.74129231  1
  Li  Li31  1  0.53767765  0.14200368  -0.24129231  1
  Li  Li32  1  -0.03767765  -0.35799632  -0.74129231  1
  Li  Li33  1  0.53767765  0.35799632  -0.24129231  1
  Li  Li34  1  0.03767765  0.14200368  0.74129231  1
  Li  Li35  1  0.46232235  0.85799632  1.24129231  1
  Li  Li36  1  0.86827089  0.85042741  0.97387411  1
  Li  Li37  1  0.63172911  0.14957259  0.47387411  1
  Li  Li38  1  0.13172911  0.35042741  0.02612589  1
  Li  Li39  1  0.36827089  0.64957259  0.52612589  1
  Li  Li40  1  0.13172911  0.14957259  0.02612589  1
  Li  Li41  1  0.36827089  0.85042741  0.52612589  1
  Li  Li42  1  0.86827089  0.64957259  0.97387411  1
  Li  Li43  1  0.63172911  0.35042741  0.47387411  1
  Li  Li44  1  0.37974372  0.25000000  0.02927918  1
  Li  Li45  1  0.12025628  0.75000000  0.52927918  1
  Li  Li46  1  0.62025628  0.75000000  0.97072082  1
  Li  Li47  1  0.87974372  0.25000000  0.47072082  1
