# generated using pymatgen
data_Li2Si4Te3F12
_symmetry_space_group_name_H-M   'P 1'
_cell_length_a   8.73551477
_cell_length_b   8.73551477
_cell_length_c   16.80369205
_cell_angle_alpha   90.00000000
_cell_angle_beta   90.00000000
_cell_angle_gamma   90.00000000
_symmetry_Int_Tables_number   1
_chemical_formula_structural   Li2Si4Te3F12
_chemical_formula_sum   'Li8 Si16 Te12 F48'
_cell_volume   1282.27660362
_cell_formula_units_Z   4
loop_
 _symmetry_equiv_pos_site_id
 _symmetry_equiv_pos_as_xyz
  1  'x, y, z'
loop_
 _atom_site_type_symbol
 _atom_site_label
 _atom_site_symmetry_multiplicity
 _atom_site_fract_x
 _atom_site_fract_y
 _atom_site_fract_z
 _atom_site_occupancy
  F  F0  1  0.59227178  0.57590708  0.59452732  1
  F  F1  1  -0.09227178  -0.57590708  1.09452732  1
  F  F2  1  -0.32590708  1.34227178  0.84452732  1
  F  F3  1  0.82590708  -0.34227178  1.34452732  1
  F  F4  1  -0.09227178  0.57590708  -0.09452732  1
  F  F5  1  0.59227178  -0.57590708  -0.59452732  1
  F  F6  1  0.82590708  1.34227178  -0.34452732  1
  F  F7  1  -0.32590708  -0.34227178  0.15547268  1
  F  F8  1  -0.59227178  -0.57590708  -0.59452732  1
  F  F9  1  1.09227178  0.57590708  -0.09452732  1
  F  F10  1  1.32590708  -0.34227178  0.15547268  1
  F  F11  1  0.17409292  1.34227178  -0.34452732  1
  F  F12  1  1.09227178  -0.57590708  1.09452732  1
  F  F13  1  -0.59227178  0.57590708  0.59452732  1
  F  F14  1  0.17409292  -0.34227178  1.34452732  1
  F  F15  1  1.32590708  1.34227178  0.84452732  1
  F  F16  1  1.09227178  1.07590708  1.09452732  1
  F  F17  1  0.40772822  -0.07590708  1.59452732  1
  F  F18  1  0.17409292  1.84227178  1.34452732  1
  F  F19  1  1.32590708  0.15772822  1.84452732  1
  F  F20  1  0.40772822  1.07590708  0.40547268  1
  F  F21  1  1.09227178  -0.07590708  -0.09452732  1
  F  F22  1  1.32590708  1.84227178  0.15547268  1
  F  F23  1  0.17409292  0.15772822  0.65547268  1
  F  F24  1  -0.09227178  -0.07590708  -0.09452732  1
  F  F25  1  1.59227178  1.07590708  0.40547268  1
  F  F26  1  1.82590708  0.15772822  0.65547268  1
  F  F27  1  0.67409292  1.84227178  0.15547268  1
  F  F28  1  1.59227178  -0.07590708  1.59452732  1
  F  F29  1  -0.09227178  1.07590708  1.09452732  1
  F  F30  1  0.67409292  0.15772822  1.84452732  1
  F  F31  1  1.82590708  1.84227178  1.34452732  1
  F  F32  1  0.00000000  0.00000000  0.50000000  1
  F  F33  1  0.50000000  0.00000000  0.00000000  1
  F  F34  1  0.25000000  0.75000000  0.75000000  1
  F  F35  1  0.25000000  0.25000000  0.25000000  1
  F  F36  1  0.50000000  0.50000000  0.00000000  1
  F  F37  1  0.00000000  0.50000000  0.50000000  1
  F  F38  1  0.75000000  0.25000000  0.25000000  1
  F  F39  1  0.75000000  0.75000000  0.75000000  1
  F  F40  1  0.00000000  0.25000000  0.46065768  1
  F  F41  1  0.00000000  0.75000000  0.71065768  1
  F  F42  1  0.50000000  0.25000000  0.03934232  1
  F  F43  1  0.50000000  0.75000000  0.78934232  1
  F  F44  1  0.50000000  0.75000000  0.96065768  1
  F  F45  1  0.50000000  0.25000000  0.21065768  1
  F  F46  1  0.00000000  0.75000000  0.53934232  1
  F  F47  1  0.00000000  0.25000000  0.28934232  1
  Li  Li48  1  0.00000000  0.25000000  0.59865791  1
  Li  Li49  1  0.00000000  0.75000000  0.84865791  1
  Li  Li50  1  0.50000000  0.25000000  0.90134209  1
  Li  Li51  1  0.50000000  0.75000000  0.65134209  1
  Li  Li52  1  0.50000000  0.75000000  0.09865791  1
  Li  Li53  1  0.50000000  0.25000000  0.34865791  1
  Li  Li54  1  0.00000000  0.75000000  0.40134209  1
  Li  Li55  1  0.00000000  0.25000000  0.15134209  1
  Si  Si56  1  0.00000000  0.46797628  0.80612979  1
  Si  Si57  1  0.50000000  0.53202372  0.30612979  1
  Si  Si58  1  0.78202372  0.75000000  0.05612979  1
  Si  Si59  1  0.71797628  0.25000000  0.55612979  1
  Si  Si60  1  0.50000000  0.46797628  0.69387021  1
  Si  Si61  1  0.00000000  0.53202372  0.19387021  1
  Si  Si62  1  0.71797628  0.75000000  0.44387021  1
  Si  Si63  1  0.78202372  0.25000000  0.94387021  1
  Si  Si64  1  0.50000000  0.96797628  0.30612979  1
  Si  Si65  1  0.00000000  0.03202372  0.80612979  1
  Si  Si66  1  0.28202372  0.25000000  0.55612979  1
  Si  Si67  1  0.21797628  0.75000000  0.05612979  1
  Si  Si68  1  0.00000000  0.96797628  0.19387021  1
  Si  Si69  1  0.50000000  0.03202372  0.69387021  1
  Si  Si70  1  0.21797628  0.25000000  0.94387021  1
  Si  Si71  1  0.28202372  0.75000000  0.44387021  1
  Te  Te72  1  0.00000000  0.00000000  0.00000000  1
  Te  Te73  1  0.50000000  0.00000000  0.50000000  1
  Te  Te74  1  0.25000000  0.75000000  0.25000000  1
  Te  Te75  1  0.25000000  0.25000000  0.75000000  1
  Te  Te76  1  0.50000000  0.50000000  0.50000000  1
  Te  Te77  1  0.00000000  0.50000000  0.00000000  1
  Te  Te78  1  0.75000000  0.25000000  0.75000000  1
  Te  Te79  1  0.75000000  0.75000000  0.25000000  1
  Te  Te80  1  0.00000000  0.25000000  0.37500000  1
  Te  Te81  1  0.00000000  0.75000000  0.62500000  1
  Te  Te82  1  0.50000000  0.75000000  0.87500000  1
  Te  Te83  1  0.50000000  0.25000000  0.12500000  1
