# generated using pymatgen
data_LiF
_symmetry_space_group_name_H-M   'P 1'
_cell_length_a   7.06974286
_cell_length_b   8.75661856
_cell_length_c   7.80829621
_cell_angle_alpha   90.00000000
_cell_angle_beta   90.00000000
_cell_angle_gamma   90.00000000
_symmetry_Int_Tables_number   1
_chemical_formula_structural   LiF
_chemical_formula_sum   'Li24 F24'
_cell_volume   483.38851787
_cell_formula_units_Z   24
loop_
 _symmetry_equiv_pos_site_id
 _symmetry_equiv_pos_as_xyz
  1  'x, y, z'
loop_
 _atom_site_type_symbol
 _atom_site_label
 _atom_site_symmetry_multiplicity
 _atom_site_fract_x
 _atom_site_fract_y
 _atom_site_fract_z
 _atom_site_occupancy
  F  F0  1  0.34651162  0.94708223  0.71977936  1
  F  F1  1  0.15348838  0.05291777  0.21977936  1
  F  F2  1  0.65348838  0.44708223  0.28022064  1
  F  F3  1  0.84651162  0.55291777  0.78022064  1
  F  F4  1  0.65348838  0.05291777  0.28022064  1
  F  F5  1  0.84651162  0.94708223  0.78022064  1
  F  F6  1  0.34651162  0.55291777  0.71977936  1
  F  F7  1  0.15348838  0.44708223  0.21977936  1
  F  F8  1  0.12445813  0.25000000  0.67076586  1
  F  F9  1  0.37554187  0.75000000  0.17076586  1
  F  F10  1  0.87554187  0.75000000  0.32923414  1
  F  F11  1  0.62445813  0.25000000  0.82923414  1
  F  F12  1  0.31979775  0.34542723  0.45316657  1
  F  F13  1  0.18020225  0.65457277  0.95316657  1
  F  F14  1  0.68020225  0.84542723  0.54683343  1
  F  F15  1  0.81979775  0.15457277  0.04683343  1
  F  F16  1  0.68020225  0.65457277  0.54683343  1
  F  F17  1  0.81979775  0.34542723  0.04683343  1
  F  F18  1  0.31979775  0.15457277  0.45316657  1
  F  F19  1  0.18020225  0.84542723  0.95316657  1
  F  F20  1  0.00000000  0.00000000  0.50000000  1
  F  F21  1  0.50000000  0.00000000  0.00000000  1
  F  F22  1  0.00000000  0.50000000  0.50000000  1
  F  F23  1  0.50000000  0.50000000  -0.00000000  1
  Li  Li24  1  0.96592082  0.25000000  0.18692368  1
  Li  Li25  1  0.53407918  0.75000000  0.68692368  1
  Li  Li26  1  0.03407918  0.75000000  0.81307632  1
  Li  Li27  1  0.46592082  0.25000000  0.31307632  1
  Li  Li28  1  0.95963361  0.66862998  0.57879879  1
  Li  Li29  1  -0.45963361  -0.66862998  1.07879879  1
  Li  Li30  1  -0.95963361  1.16862998  -0.57879879  1
  Li  Li31  1  1.45963361  -0.16862998  -0.07879879  1
  Li  Li32  1  -0.95963361  -0.66862998  -0.57879879  1
  Li  Li33  1  1.45963361  0.66862998  -0.07879879  1
  Li  Li34  1  0.95963361  -0.16862998  0.57879879  1
  Li  Li35  1  -0.45963361  1.16862998  1.07879879  1
  Li  Li36  1  0.71260781  0.25000000  0.18986502  1
  Li  Li37  1  0.78739219  0.75000000  0.68986502  1
  Li  Li38  1  0.28739219  0.75000000  0.81013498  1
  Li  Li39  1  0.21260781  0.25000000  0.31013498  1
  Li  Li40  1  0.00000000  0.00000000  0.00000000  1
  Li  Li41  1  0.50000000  0.00000000  0.50000000  1
  Li  Li42  1  0.00000000  0.50000000  0.00000000  1
  Li  Li43  1  0.50000000  0.50000000  0.50000000  1
  Li  Li44  1  0.83085587  0.25000000  0.59141264  1
  Li  Li45  1  0.66914413  0.75000000  0.09141264  1
  Li  Li46  1  0.16914413  0.75000000  0.40858736  1
  Li  Li47  1  0.33085587  0.25000000  0.90858736  1
