# generated using pymatgen
data_Li2Si4Te3F12
_symmetry_space_group_name_H-M   'P 1'
_cell_length_a   8.38873480
_cell_length_b   15.19117608
_cell_length_c   8.93470195
_cell_angle_alpha   90.00000000
_cell_angle_beta   90.00000000
_cell_angle_gamma   90.00000000
_symmetry_Int_Tables_number   1
_chemical_formula_structural   Li2Si4Te3F12
_chemical_formula_sum   'Li8 Si16 Te12 F48'
_cell_volume   1138.59148607
_cell_formula_units_Z   4
loop_
 _symmetry_equiv_pos_site_id
 _symmetry_equiv_pos_as_xyz
  1  'x, y, z'
loop_
 _atom_site_type_symbol
 _atom_site_label
 _atom_site_symmetry_multiplicity
 _atom_site_fract_x
 _atom_site_fract_y
 _atom_site_fract_z
 _atom_site_occupancy
  F  F0  1  0.91932072  0.25651912  0.00000000  1
  F  F1  1  0.08067928  0.74348088  -0.00000000  1
  F  F2  1  0.58067928  0.75651912  0.50000000  1
  F  F3  1  0.41932072  0.24348088  0.50000000  1
  F  F4  1  0.00000000  0.00000000  0.00000000  1
  F  F5  1  0.50000000  0.50000000  0.50000000  1
  F  F6  1  0.00000000  0.50000000  0.81827201  1
  F  F7  1  0.50000000  0.00000000  0.68172799  1
  F  F8  1  0.00000000  0.50000000  0.18172799  1
  F  F9  1  0.50000000  0.00000000  0.31827201  1
  F  F10  1  0.54606720  0.17890464  -0.00000000  1
  F  F11  1  0.45393280  0.82109536  -0.00000000  1
  F  F12  1  0.95393280  0.67890464  0.50000000  1
  F  F13  1  0.04606720  0.32109536  0.50000000  1
  F  F14  1  0.17137440  0.19005258  0.53330551  1
  F  F15  1  0.82862560  0.80994742  0.53330551  1
  F  F16  1  0.32862560  0.69005258  0.96669449  1
  F  F17  1  0.67137440  0.30994742  0.96669449  1
  F  F18  1  0.82862560  0.80994742  0.46669449  1
  F  F19  1  0.17137440  0.19005258  0.46669449  1
  F  F20  1  0.67137440  0.30994742  0.03330551  1
  F  F21  1  0.32862560  0.69005258  0.03330551  1
  F  F22  1  0.93788744  0.79016384  0.17284758  1
  F  F23  1  0.06211256  0.20983616  0.17284758  1
  F  F24  1  0.56211256  0.29016384  0.32715242  1
  F  F25  1  0.43788744  0.70983616  0.32715242  1
  F  F26  1  0.06211256  0.20983616  0.82715242  1
  F  F27  1  0.93788744  0.79016384  0.82715242  1
  F  F28  1  0.43788744  0.70983616  0.67284758  1
  F  F29  1  0.56211256  0.29016384  0.67284758  1
  F  F30  1  0.15951123  0.99553989  0.63757485  1
  F  F31  1  0.84048877  0.00446011  0.63757485  1
  F  F32  1  0.34048877  0.49553989  0.86242515  1
  F  F33  1  0.65951123  0.50446011  0.86242515  1
  F  F34  1  0.84048877  0.00446011  0.36242515  1
  F  F35  1  0.15951123  0.99553989  0.36242515  1
  F  F36  1  0.65951123  0.50446011  0.13757485  1
  F  F37  1  0.34048877  0.49553989  0.13757485  1
  F  F38  1  0.54343479  0.18649888  0.39041779  1
  F  F39  1  0.45656521  0.81350112  0.39041779  1
  F  F40  1  0.95656521  0.68649888  0.10958221  1
  F  F41  1  0.04343479  0.31350112  0.10958221  1
  F  F42  1  0.45656521  0.81350112  0.60958221  1
  F  F43  1  0.54343479  0.18649888  0.60958221  1
  F  F44  1  0.04343479  0.31350112  0.89041779  1
  F  F45  1  0.95656521  0.68649888  0.89041779  1
  F  F46  1  0.00000000  0.00000000  0.50000000  1
  F  F47  1  0.50000000  0.50000000  0.00000000  1
  Li  Li48  1  0.15943963  0.48128376  0.88672623  1
  Li  Li49  1  0.84056037  0.51871624  0.88672623  1
  Li  Li50  1  0.34056037  0.98128376  0.61327377  1
  Li  Li51  1  0.65943963  0.01871624  0.61327377  1
  Li  Li52  1  0.84056037  0.51871624  0.11327377  1
  Li  Li53  1  0.15943963  0.48128376  0.11327377  1
  Li  Li54  1  0.65943963  0.01871624  0.38672623  1
  Li  Li55  1  0.34056037  0.98128376  0.38672623  1
  Si  Si56  1  0.86932222  0.16534039  -0.00000000  1
  Si  Si57  1  0.13067778  0.83465961  0.00000000  1
  Si  Si58  1  0.63067778  0.66534039  0.50000000  1
  Si  Si59  1  0.36932222  0.33465961  0.50000000  1
  Si  Si60  1  0.46441793  0.44618982  0.35512318  1
  Si  Si61  1  -0.46441793  -0.44618982  0.35512318  1
  Si  Si62  1  0.03558207  0.94618982  0.14487682  1
  Si  Si63  1  0.96441793  0.05381018  0.14487682  1
  Si  Si64  1  -0.46441793  -0.44618982  -0.35512318  1
  Si  Si65  1  0.46441793  0.44618982  -0.35512318  1
  Si  Si66  1  0.96441793  0.05381018  0.85512318  1
  Si  Si67  1  0.03558207  0.94618982  0.85512318  1
  Si  Si68  1  0.00000000  0.50000000  0.42991931  1
  Si  Si69  1  0.50000000  0.00000000  0.07008069  1
  Si  Si70  1  0.00000000  0.50000000  0.57008069  1
  Si  Si71  1  0.50000000  0.00000000  0.92991931  1
  Te  Te72  1  0.14120793  0.67506536  0.00000000  1
  Te  Te73  1  0.85879207  0.32493464  -0.00000000  1
  Te  Te74  1  0.35879207  0.17506536  0.50000000  1
  Te  Te75  1  0.64120793  0.82493464  0.50000000  1
  Te  Te76  1  0.56847255  0.73622459  0.33102553  1
  Te  Te77  1  0.43152745  0.26377541  0.33102553  1
  Te  Te78  1  0.93152745  0.23622459  0.16897447  1
  Te  Te79  1  0.06847255  0.76377541  0.16897447  1
  Te  Te80  1  0.43152745  0.26377541  0.66897447  1
  Te  Te81  1  0.56847255  0.73622459  0.66897447  1
  Te  Te82  1  0.06847255  0.76377541  0.83102553  1
  Te  Te83  1  0.93152745  0.23622459  0.83102553  1
