# generated using pymatgen
data_LiF
_symmetry_space_group_name_H-M   'P 1'
_cell_length_a   7.45220443
_cell_length_b   9.88753131
_cell_length_c   7.27309015
_cell_angle_alpha   90.00000000
_cell_angle_beta   90.00000000
_cell_angle_gamma   90.00000000
_symmetry_Int_Tables_number   1
_chemical_formula_structural   LiF
_chemical_formula_sum   'Li28 F28'
_cell_volume   535.90968160
_cell_formula_units_Z   28
loop_
 _symmetry_equiv_pos_site_id
 _symmetry_equiv_pos_as_xyz
  1  'x, y, z'
loop_
 _atom_site_type_symbol
 _atom_site_label
 _atom_site_symmetry_multiplicity
 _atom_site_fract_x
 _atom_site_fract_y
 _atom_site_fract_z
 _atom_site_occupancy
  F  F0  1  0.00000000  0.00000000  0.95294878  1
  F  F1  1  0.50000000  0.50000000  0.04705122  1
  F  F2  1  0.00000000  0.00000000  0.04705122  1
  F  F3  1  0.50000000  0.50000000  0.95294878  1
  F  F4  1  0.54971211  0.91313652  0.54171776  1
  F  F5  1  -0.54971211  -0.91313652  0.54171776  1
  F  F6  1  -0.04971211  1.41313652  -0.54171776  1
  F  F7  1  1.04971211  -0.41313652  -0.54171776  1
  F  F8  1  -0.54971211  -0.91313652  -0.54171776  1
  F  F9  1  0.54971211  0.91313652  -0.54171776  1
  F  F10  1  1.04971211  -0.41313652  0.54171776  1
  F  F11  1  -0.04971211  1.41313652  0.54171776  1
  F  F12  1  0.86303205  0.84114143  0.50000000  1
  F  F13  1  0.13696795  0.15885857  0.50000000  1
  F  F14  1  0.63696795  0.34114143  0.50000000  1
  F  F15  1  0.36303205  0.65885857  0.50000000  1
  F  F16  1  0.07577684  0.35217602  0.07915799  1
  F  F17  1  0.92422316  0.64782398  0.07915799  1
  F  F18  1  0.42422316  0.85217602  0.92084201  1
  F  F19  1  0.57577684  0.14782398  0.92084201  1
  F  F20  1  0.92422316  0.64782398  0.92084201  1
  F  F21  1  0.07577684  0.35217602  0.92084201  1
  F  F22  1  0.57577684  0.14782398  0.07915799  1
  F  F23  1  0.42422316  0.85217602  0.07915799  1
  F  F24  1  0.99267089  0.23094422  0.50000000  1
  F  F25  1  0.00732911  0.76905578  0.50000000  1
  F  F26  1  0.50732911  0.73094422  0.50000000  1
  F  F27  1  0.49267089  0.26905578  0.50000000  1
  Li  Li28  1  0.99192743  0.18965638  0.69681815  1
  Li  Li29  1  0.00807257  0.81034362  0.69681815  1
  Li  Li30  1  0.50807257  0.68965638  0.30318185  1
  Li  Li31  1  0.49192743  0.31034362  0.30318185  1
  Li  Li32  1  0.00807257  0.81034362  0.30318185  1
  Li  Li33  1  0.99192743  0.18965638  0.30318185  1
  Li  Li34  1  0.49192743  0.31034362  0.69681815  1
  Li  Li35  1  0.50807257  0.68965638  0.69681815  1
  Li  Li36  1  0.27373868  0.83792925  0.21667813  1
  Li  Li37  1  0.72626132  0.16207075  0.21667813  1
  Li  Li38  1  0.22626132  0.33792925  0.78332187  1
  Li  Li39  1  0.77373868  0.66207075  0.78332187  1
  Li  Li40  1  0.72626132  0.16207075  0.78332187  1
  Li  Li41  1  0.27373868  0.83792925  0.78332187  1
  Li  Li42  1  0.77373868  0.66207075  0.21667813  1
  Li  Li43  1  0.22626132  0.33792925  0.21667813  1
  Li  Li44  1  0.00000000  0.50000000  0.19878584  1
  Li  Li45  1  0.50000000  -0.00000000  0.80121416  1
  Li  Li46  1  0.00000000  0.50000000  0.80121416  1
  Li  Li47  1  0.50000000  -0.00000000  0.19878584  1
  Li  Li48  1  0.04154606  0.74287573  0.00000000  1
  Li  Li49  1  0.95845394  0.25712427  -0.00000000  1
  Li  Li50  1  0.45845394  0.24287573  -0.00000000  1
  Li  Li51  1  0.54154606  0.75712427  0.00000000  1
  Li  Li52  1  0.27625774  0.72620576  0.00000000  1
  Li  Li53  1  0.72374226  0.27379424  -0.00000000  1
  Li  Li54  1  0.22374226  0.22620576  -0.00000000  1
  Li  Li55  1  0.77625774  0.77379424  -0.00000000  1
