# generated using pymatgen
data_LiF
_symmetry_space_group_name_H-M   'P 1'
_cell_length_a   15.37184787
_cell_length_b   15.37184787
_cell_length_c   8.66009784
_cell_angle_alpha   90.00000000
_cell_angle_beta   90.00000000
_cell_angle_gamma   120.00000000
_symmetry_Int_Tables_number   1
_chemical_formula_structural   LiF
_chemical_formula_sum   'Li58 F58'
_cell_volume   1772.17083866
_cell_formula_units_Z   58
loop_
 _symmetry_equiv_pos_site_id
 _symmetry_equiv_pos_as_xyz
  1  'x, y, z'
loop_
 _atom_site_type_symbol
 _atom_site_label
 _atom_site_symmetry_multiplicity
 _atom_site_fract_x
 _atom_site_fract_y
 _atom_site_fract_z
 _atom_site_occupancy
  F  F0  1  0.39039752  0.17348132  0.75798581  1
  F  F1  1  0.82651868  0.21691620  0.75798581  1
  F  F2  1  0.78308380  0.60960248  0.75798581  1
  F  F3  1  0.82651868  0.60960248  0.24201419  1
  F  F4  1  0.78308380  0.17348132  0.24201419  1
  F  F5  1  0.39039752  0.21691620  0.24201419  1
  F  F6  1  0.13007336  0.17056993  0.00311056  1
  F  F7  1  0.82943007  0.95950344  0.00311056  1
  F  F8  1  0.04049656  0.86992664  0.00311056  1
  F  F9  1  0.82943007  0.86992664  0.99688944  1
  F  F10  1  0.04049656  0.17056993  0.99688944  1
  F  F11  1  0.13007336  0.95950344  0.99688944  1
  F  F12  1  0.98386599  0.49811751  0.17248428  1
  F  F13  1  0.50188249  0.48574849  0.17248428  1
  F  F14  1  0.51425151  0.01613401  0.17248428  1
  F  F15  1  0.50188249  0.01613401  0.82751572  1
  F  F16  1  0.51425151  0.49811751  0.82751572  1
  F  F17  1  0.98386599  0.48574849  0.82751572  1
  F  F18  1  0.99229536  0.33450032  0.92095605  1
  F  F19  1  0.66549968  0.65779505  0.92095605  1
  F  F20  1  0.34220495  0.00770464  0.92095605  1
  F  F21  1  0.66549968  0.00770464  0.07904395  1
  F  F22  1  0.34220495  0.33450032  0.07904395  1
  F  F23  1  0.99229536  0.65779505  0.07904395  1
  F  F24  1  0.26664473  0.73335527  0.50000000  1
  F  F25  1  0.26664473  0.53328947  0.50000000  1
  F  F26  1  0.46671053  0.73335527  0.50000000  1
  F  F27  1  0.90114918  0.27253571  0.75843135  1
  F  F28  1  0.72746429  0.62861347  0.75843135  1
  F  F29  1  0.37138653  0.09885082  0.75843135  1
  F  F30  1  0.72746429  0.09885082  0.24156865  1
  F  F31  1  0.37138653  0.27253571  0.24156865  1
  F  F32  1  0.90114918  0.62861347  0.24156865  1
  F  F33  1  0.45416672  0.48281050  0.55646149  1
  F  F34  1  0.51718950  0.97135622  0.55646149  1
  F  F35  1  0.02864378  0.54583328  0.55646149  1
  F  F36  1  0.51718950  0.54583328  0.44353851  1
  F  F37  1  0.02864378  0.48281050  0.44353851  1
  F  F38  1  0.45416672  0.97135622  0.44353851  1
  F  F39  1  0.73174828  0.26825172  0.50000000  1
  F  F40  1  0.73174828  0.46349656  0.50000000  1
  F  F41  1  0.53650344  0.26825172  0.50000000  1
  F  F42  1  0.58678773  0.96030732  0.74446724  1
  F  F43  1  0.03969268  0.62648041  0.74446724  1
  F  F44  1  0.37351959  0.41321227  0.74446724  1
  F  F45  1  0.03969268  0.41321227  0.25553276  1
  F  F46  1  0.37351959  0.96030732  0.25553276  1
  F  F47  1  0.58678773  0.62648041  0.25553276  1
  F  F48  1  0.18037648  0.98894020  0.58433669  1
  F  F49  1  0.01105980  0.19143628  0.58433669  1
  F  F50  1  0.80856372  0.81962352  0.58433669  1
  F  F51  1  0.01105980  0.81962352  0.41566331  1
  F  F52  1  0.80856372  0.98894020  0.41566331  1
  F  F53  1  0.18037648  0.19143628  0.41566331  1
  F  F54  1  0.45672415  0.54327585  0.50000000  1
  F  F55  1  0.45672415  0.91344830  0.50000000  1
  F  F56  1  0.08655170  0.54327585  0.50000000  1
  F  F57  1  0.33333333  0.66666667  0.00000000  1
  Li  Li58  1  0.56332751  0.94938129  0.06739541  1
  Li  Li59  1  -0.94938129  -0.38605379  0.06739541  1
  Li  Li60  1  0.38605379  -0.56332751  0.06739541  1
  Li  Li61  1  -0.94938129  -0.56332751  -0.06739541  1
  Li  Li62  1  0.38605379  0.94938129  -0.06739541  1
  Li  Li63  1  0.56332751  -0.38605379  -0.06739541  1
  Li  Li64  1  0.70517366  0.89322153  0.85037812  1
  Li  Li65  1  0.10677847  0.81195214  0.85037812  1
  Li  Li66  1  0.18804786  0.29482634  0.85037812  1
  Li  Li67  1  0.10677847  0.29482634  0.14962188  1
  Li  Li68  1  0.18804786  0.89322153  0.14962188  1
  Li  Li69  1  0.70517366  0.81195214  0.14962188  1
  Li  Li70  1  0.22407964  0.68355707  0.71828664  1
  Li  Li71  1  0.31644293  0.54052257  0.71828664  1
  Li  Li72  1  0.45947743  0.77592036  0.71828664  1
  Li  Li73  1  0.31644293  0.77592036  0.28171336  1
  Li  Li74  1  0.45947743  0.68355707  0.28171336  1
  Li  Li75  1  0.22407964  0.54052257  0.28171336  1
  Li  Li76  1  0.20645749  0.94492015  0.80944285  1
  Li  Li77  1  0.05507985  0.26153733  0.80944285  1
  Li  Li78  1  0.73846267  0.79354251  0.80944285  1
  Li  Li79  1  0.05507985  0.79354251  0.19055715  1
  Li  Li80  1  0.73846267  0.94492015  0.19055715  1
  Li  Li81  1  0.20645749  0.26153733  0.19055715  1
  Li  Li82  1  0.17215902  0.78185722  0.58963411  1
  Li  Li83  1  0.21814278  0.39030180  0.58963411  1
  Li  Li84  1  0.60969820  0.82784098  0.58963411  1
  Li  Li85  1  0.21814278  0.82784098  0.41036589  1
  Li  Li86  1  0.60969820  0.78185722  0.41036589  1
  Li  Li87  1  0.17215902  0.39030180  0.41036589  1
  Li  Li88  1  0.88649169  0.13050399  0.91301935  1
  Li  Li89  1  0.86949601  0.75598770  0.91301935  1
  Li  Li90  1  0.24401230  0.11350831  0.91301935  1
  Li  Li91  1  0.86949601  0.11350831  0.08698065  1
  Li  Li92  1  0.24401230  0.13050399  0.08698065  1
  Li  Li93  1  0.88649169  0.75598770  0.08698065  1
  Li  Li94  1  0.47665026  0.52334974  0.00000000  1
  Li  Li95  1  0.47665026  0.95330053  0.00000000  1
  Li  Li96  1  0.04669947  0.52334974  0.00000000  1
  Li  Li97  1  0.82193411  0.10790852  0.23839042  1
  Li  Li98  1  0.89209148  0.71402559  0.23839042  1
  Li  Li99  1  0.28597441  0.17806589  0.23839042  1
  Li  Li100  1  0.89209148  0.17806589  0.76160958  1
  Li  Li101  1  0.28597441  0.10790852  0.76160958  1
  Li  Li102  1  0.82193411  0.71402559  0.76160958  1
  Li  Li103  1  0.33333333  0.66666667  0.50000000  1
  Li  Li104  1  0.66666667  0.33333333  0.00000000  1
  Li  Li105  1  0.45072473  0.02738664  0.57330181  1
  Li  Li106  1  0.97261336  0.42333809  0.57330181  1
  Li  Li107  1  0.57666191  0.54927527  0.57330181  1
  Li  Li108  1  0.97261336  0.54927527  0.42669819  1
  Li  Li109  1  0.57666191  0.02738664  0.42669819  1
  Li  Li110  1  0.45072473  0.42333809  0.42669819  1
  Li  Li111  1  0.66666667  0.33333333  0.50000000  1
  Li  Li112  1  0.15967468  0.84032532  0.00000000  1
  Li  Li113  1  0.15967468  0.31934936  0.00000000  1
  Li  Li114  1  0.68065064  0.84032532  0.00000000  1
  Li  Li115  1  0.00000000  0.00000000  0.00000000  1
