# generated using pymatgen
data_LiF
_symmetry_space_group_name_H-M   'P 1'
_cell_length_a   8.75027333
_cell_length_b   4.71539891
_cell_length_c   7.20610569
_cell_angle_alpha   90.00000000
_cell_angle_beta   90.00000000
_cell_angle_gamma   90.00000000
_symmetry_Int_Tables_number   1
_chemical_formula_structural   LiF
_chemical_formula_sum   'Li12 F12'
_cell_volume   297.33133800
_cell_formula_units_Z   12
loop_
 _symmetry_equiv_pos_site_id
 _symmetry_equiv_pos_as_xyz
  1  'x, y, z'
loop_
 _atom_site_type_symbol
 _atom_site_label
 _atom_site_symmetry_multiplicity
 _atom_site_fract_x
 _atom_site_fract_y
 _atom_site_fract_z
 _atom_site_occupancy
  F  F0  1  0.00000000  0.50000000  0.50000000  1
  F  F1  1  0.50000000  0.00000000  0.50000000  1
  F  F2  1  0.98937714  0.83761149  0.50000000  1
  F  F3  1  0.01062286  0.16238851  0.50000000  1
  F  F4  1  0.51062286  0.33761149  0.50000000  1
  F  F5  1  0.48937714  0.66238851  0.50000000  1
  F  F6  1  0.00000000  0.00000000  0.58671448  1
  F  F7  1  0.50000000  0.50000000  0.41328552  1
  F  F8  1  0.00000000  0.00000000  0.41328552  1
  F  F9  1  0.50000000  0.50000000  0.58671448  1
  F  F10  1  0.00000000  0.00000000  0.50000000  1
  F  F11  1  0.50000000  0.50000000  0.50000000  1
  Li  Li12  1  0.30272134  0.26221731  0.38864248  1
  Li  Li13  1  -0.30272134  -0.26221731  0.38864248  1
  Li  Li14  1  0.19727866  0.76221731  -0.38864248  1
  Li  Li15  1  0.80272134  0.23778269  -0.38864248  1
  Li  Li16  1  -0.30272134  -0.26221731  -0.38864248  1
  Li  Li17  1  0.30272134  0.26221731  -0.38864248  1
  Li  Li18  1  0.80272134  0.23778269  0.38864248  1
  Li  Li19  1  0.19727866  0.76221731  0.38864248  1
  Li  Li20  1  0.00000000  0.50000000  0.32656801  1
  Li  Li21  1  0.50000000  0.00000000  0.67343199  1
  Li  Li22  1  0.00000000  0.50000000  0.67343199  1
  Li  Li23  1  0.50000000  0.00000000  0.32656801  1
