# generated using pymatgen
data_LiF
_symmetry_space_group_name_H-M   'P 1'
_cell_length_a   14.73568769
_cell_length_b   14.73568769
_cell_length_c   12.36990815
_cell_angle_alpha   90.00000000
_cell_angle_beta   90.00000000
_cell_angle_gamma   120.00000000
_symmetry_Int_Tables_number   1
_chemical_formula_structural   LiF
_chemical_formula_sum   'Li79 F79'
_cell_volume   2326.15110798
_cell_formula_units_Z   79
loop_
 _symmetry_equiv_pos_site_id
 _symmetry_equiv_pos_as_xyz
  1  'x, y, z'
loop_
 _atom_site_type_symbol
 _atom_site_label
 _atom_site_symmetry_multiplicity
 _atom_site_fract_x
 _atom_site_fract_y
 _atom_site_fract_z
 _atom_site_occupancy
  F  F0  1  0.51647484  0.65606414  0.57218734  1
  F  F1  1  0.34393586  0.86041071  0.57218734  1
  F  F2  1  0.13958929  0.48352516  0.57218734  1
  F  F3  1  0.34393586  0.48352516  0.42781266  1
  F  F4  1  0.13958929  0.65606414  0.42781266  1
  F  F5  1  0.51647484  0.86041071  0.42781266  1
  F  F6  1  0.54426188  0.08847559  0.17787776  1
  F  F7  1  0.91152441  0.45578629  0.17787776  1
  F  F8  1  0.54421371  0.45573812  0.17787776  1
  F  F9  1  0.91152441  0.45573812  0.82212224  1
  F  F10  1  0.54421371  0.08847559  0.82212224  1
  F  F11  1  0.54426188  0.45578629  0.82212224  1
  F  F12  1  0.56134210  0.19773899  0.43337847  1
  F  F13  1  0.80226101  0.36360311  0.43337847  1
  F  F14  1  0.63639689  0.43865790  0.43337847  1
  F  F15  1  0.80226101  0.43865790  0.56662153  1
  F  F16  1  0.63639689  0.19773899  0.56662153  1
  F  F17  1  0.56134210  0.36360311  0.56662153  1
  F  F18  1  0.33333333  0.66666667  0.37493155  1
  F  F19  1  0.33333333  0.66666667  0.62506845  1
  F  F20  1  0.33333333  0.66666667  0.00000000  1
  F  F21  1  0.33333333  0.66666667  0.20411680  1
  F  F22  1  0.33333333  0.66666667  0.79588320  1
  F  F23  1  0.39926202  0.39049162  0.99145255  1
  F  F24  1  0.60950838  0.00877039  0.99145255  1
  F  F25  1  0.99122961  0.60073798  0.99145255  1
  F  F26  1  0.60950838  0.60073798  0.00854745  1
  F  F27  1  0.99122961  0.39049162  0.00854745  1
  F  F28  1  0.39926202  0.00877039  0.00854745  1
  F  F29  1  0.78733852  0.70824704  0.46681846  1
  F  F30  1  0.29175296  0.07909148  0.46681846  1
  F  F31  1  0.92090852  0.21266148  0.46681846  1
  F  F32  1  0.29175296  0.21266148  0.53318154  1
  F  F33  1  0.92090852  0.70824704  0.53318154  1
  F  F34  1  0.78733852  0.07909148  0.53318154  1
  F  F35  1  0.34252092  0.24971768  0.22653896  1
  F  F36  1  0.75028232  0.09280324  0.22653896  1
  F  F37  1  0.90719676  0.65747908  0.22653896  1
  F  F38  1  0.75028232  0.65747908  0.77346104  1
  F  F39  1  0.90719676  0.24971768  0.77346104  1
  F  F40  1  0.34252092  0.09280324  0.77346104  1
  F  F41  1  0.11529421  0.23616776  0.65865933  1
  F  F42  1  0.76383224  0.87912645  0.65865933  1
  F  F43  1  0.12087355  0.88470579  0.65865933  1
  F  F44  1  0.76383224  0.88470579  0.34134067  1
  F  F45  1  0.12087355  0.23616776  0.34134067  1
  F  F46  1  0.11529421  0.87912645  0.34134067  1
  F  F47  1  0.39850160  0.60149840  0.00000000  1
  F  F48  1  0.39850160  0.79700321  0.00000000  1
  F  F49  1  0.20299679  0.60149840  0.00000000  1
  F  F50  1  0.67481239  0.07834555  0.28415880  1
  F  F51  1  0.92165445  0.59646684  0.28415880  1
  F  F52  1  0.40353316  0.32518761  0.28415880  1
  F  F53  1  0.92165445  0.32518761  0.71584120  1
  F  F54  1  0.40353316  0.07834555  0.71584120  1
  F  F55  1  0.67481239  0.59646684  0.71584120  1
  F  F56  1  0.33333333  0.66666667  0.85406078  1
  F  F57  1  0.33333333  0.66666667  0.14593922  1
  F  F58  1  0.80300967  0.52577187  0.18214956  1
  F  F59  1  0.47422813  0.27723780  0.18214956  1
  F  F60  1  0.72276220  0.19699033  0.18214956  1
  F  F61  1  0.47422813  0.19699033  0.81785044  1
  F  F62  1  0.72276220  0.52577187  0.81785044  1
  F  F63  1  0.80300967  0.27723780  0.81785044  1
  F  F64  1  0.37804413  0.62195587  0.50000000  1
  F  F65  1  0.37804413  0.75608825  0.50000000  1
  F  F66  1  0.24391175  0.62195587  0.50000000  1
  F  F67  1  0.66666667  0.33333333  0.29971571  1
  F  F68  1  0.66666667  0.33333333  0.70028429  1
  F  F69  1  0.33664377  0.72761643  0.06099344  1
  F  F70  1  0.27238357  0.60902734  0.06099344  1
  F  F71  1  0.39097266  0.66335623  0.06099344  1
  F  F72  1  0.27238357  0.66335623  0.93900656  1
  F  F73  1  0.39097266  0.72761643  0.93900656  1
  F  F74  1  0.33664377  0.60902734  0.93900656  1
  F  F75  1  0.54322490  0.45677510  0.00000000  1
  F  F76  1  0.54322490  0.08644979  -0.00000000  1
  F  F77  1  0.91355021  0.45677510  -0.00000000  1
  F  F78  1  0.00000000  0.00000000  0.50000000  1
  Li  Li79  1  0.00139049  0.16802698  0.78413398  1
  Li  Li80  1  -0.16802698  -0.16663648  0.78413398  1
  Li  Li81  1  0.16663648  -0.00139049  0.78413398  1
  Li  Li82  1  -0.16802698  -0.00139049  -0.78413398  1
  Li  Li83  1  0.16663648  0.16802698  -0.78413398  1
  Li  Li84  1  0.00139049  -0.16663648  -0.78413398  1
  Li  Li85  1  0.11660531  0.88339469  0.00000000  1
  Li  Li86  1  0.11660531  0.23321062  0.00000000  1
  Li  Li87  1  0.76678938  0.88339469  -0.00000000  1
  Li  Li88  1  0.66666667  0.33333333  0.00000000  1
  Li  Li89  1  0.13652845  0.75271080  0.18943986  1
  Li  Li90  1  0.24728920  0.38381766  0.18943986  1
  Li  Li91  1  0.61618234  0.86347155  0.18943986  1
  Li  Li92  1  0.24728920  0.86347155  0.81056014  1
  Li  Li93  1  0.61618234  0.75271080  0.81056014  1
  Li  Li94  1  0.13652845  0.38381766  0.81056014  1
  Li  Li95  1  0.41979657  0.41191592  0.19619546  1
  Li  Li96  1  0.58808408  0.00788065  0.19619546  1
  Li  Li97  1  0.99211935  0.58020343  0.19619546  1
  Li  Li98  1  0.58808408  0.58020343  0.80380454  1
  Li  Li99  1  0.99211935  0.41191592  0.80380454  1
  Li  Li100  1  0.41979657  0.00788065  0.80380454  1
  Li  Li101  1  0.33333333  0.66666667  0.50000000  1
  Li  Li102  1  0.62041941  0.48480661  0.58389673  1
  Li  Li103  1  0.51519339  0.13561280  0.58389673  1
  Li  Li104  1  0.86438720  0.37958059  0.58389673  1
  Li  Li105  1  0.51519339  0.37958059  0.41610327  1
  Li  Li106  1  0.86438720  0.48480661  0.41610327  1
  Li  Li107  1  0.62041941  0.13561280  0.41610327  1
  Li  Li108  1  0.00000000  0.00000000  0.84088952  1
  Li  Li109  1  0.00000000  0.00000000  0.15911048  1
  Li  Li110  1  0.97717992  0.29205499  0.57109291  1
  Li  Li111  1  0.70794501  0.68512493  0.57109291  1
  Li  Li112  1  0.31487507  0.02282008  0.57109291  1
  Li  Li113  1  0.70794501  0.02282008  0.42890709  1
  Li  Li114  1  0.31487507  0.29205499  0.42890709  1
  Li  Li115  1  0.97717992  0.68512493  0.42890709  1
  Li  Li116  1  0.00000000  0.00000000  0.00000000  1
  Li  Li117  1  0.51948146  0.48051854  0.50000000  1
  Li  Li118  1  0.51948146  0.03896292  0.50000000  1
  Li  Li119  1  0.96103708  0.48051854  0.50000000  1
  Li  Li120  1  0.47015255  0.52984745  0.00000000  1
  Li  Li121  1  0.47015255  0.94030511  -0.00000000  1
  Li  Li122  1  0.05969489  0.52984745  0.00000000  1
  Li  Li123  1  0.20305390  0.38037480  0.88133164  1
  Li  Li124  1  0.61962520  0.82267910  0.88133164  1
  Li  Li125  1  0.17732090  0.79694610  0.88133164  1
  Li  Li126  1  0.61962520  0.79694610  0.11866836  1
  Li  Li127  1  0.17732090  0.38037480  0.11866836  1
  Li  Li128  1  0.20305390  0.82267910  0.11866836  1
  Li  Li129  1  0.22202496  0.00006325  0.29307826  1
  Li  Li130  1  0.99993675  0.22196172  0.29307826  1
  Li  Li131  1  0.77803828  0.77797504  0.29307826  1
  Li  Li132  1  0.99993675  0.77797504  0.70692174  1
  Li  Li133  1  0.77803828  0.00006325  0.70692174  1
  Li  Li134  1  0.22202496  0.22196172  0.70692174  1
  Li  Li135  1  0.23903545  0.76096455  0.00000000  1
  Li  Li136  1  0.23903545  0.47807090  0.00000000  1
  Li  Li137  1  0.52192910  0.76096455  0.00000000  1
  Li  Li138  1  0.66666667  0.33333333  0.50000000  1
  Li  Li139  1  0.51484269  0.21918922  0.29749199  1
  Li  Li140  1  0.78081078  0.29565347  0.29749199  1
  Li  Li141  1  0.70434653  0.48515731  0.29749199  1
  Li  Li142  1  0.78081078  0.48515731  0.70250801  1
  Li  Li143  1  0.70434653  0.21918922  0.70250801  1
  Li  Li144  1  0.51484269  0.29565347  0.70250801  1
  Li  Li145  1  0.66666667  0.33333333  0.20773309  1
  Li  Li146  1  0.66666667  0.33333333  0.79226691  1
  Li  Li147  1  0.72496275  0.17937078  0.49943097  1
  Li  Li148  1  0.82062922  0.54559196  0.49943097  1
  Li  Li149  1  0.45440804  0.27503725  0.49943097  1
  Li  Li150  1  0.82062922  0.27503725  0.50056903  1
  Li  Li151  1  0.45440804  0.17937078  0.50056903  1
  Li  Li152  1  0.72496275  0.54559196  0.50056903  1
  Li  Li153  1  0.89714931  0.10285069  0.00000000  1
  Li  Li154  1  0.89714931  0.79429862  0.00000000  1
  Li  Li155  1  0.20570138  0.10285069  0.00000000  1
  Li  Li156  1  0.00000000  0.00000000  0.27531658  1
  Li  Li157  1  0.00000000  0.00000000  0.72468342  1
