# generated using pymatgen
data_Li2Y2P2Se
_symmetry_space_group_name_H-M   'P 1'
_cell_length_a   5.37954257
_cell_length_b   5.54532572
_cell_length_c   6.91819273
_cell_angle_alpha   93.98684201
_cell_angle_beta   97.80142142
_cell_angle_gamma   103.89266067
_symmetry_Int_Tables_number   1
_chemical_formula_structural   Li2Y2P2Se
_chemical_formula_sum   'Li2 Y2 P2 Se1'
_cell_volume   197.36533112
_cell_formula_units_Z   1
loop_
 _symmetry_equiv_pos_site_id
 _symmetry_equiv_pos_as_xyz
  1  'x, y, z'
loop_
 _atom_site_type_symbol
 _atom_site_label
 _atom_site_symmetry_multiplicity
 _atom_site_fract_x
 _atom_site_fract_y
 _atom_site_fract_z
 _atom_site_occupancy
  Se  Se0  1  0.12500000  0.00000000  0.25000000  1
  Y  Y1  1  0.00000000  0.00000000  0.00000000  1
  Y  Y2  1  0.37500000  0.00000000  0.25000000  1
  P  P3  1  0.25000000  0.25000000  0.25000000  1
  P  P4  1  0.00000000  0.25000000  0.12500000  1
  Li  Li5  1  0.76933301  0.33668782  0.31230146  1
  Li  Li6  1  0.06185752  0.74819202  0.79849801  1
