# generated using pymatgen
data_LiF
_symmetry_space_group_name_H-M   'P 1'
_cell_length_a   5.99352121
_cell_length_b   5.99352121
_cell_length_c   7.08795545
_cell_angle_alpha   90.00000000
_cell_angle_beta   90.00000000
_cell_angle_gamma   120.00000000
_symmetry_Int_Tables_number   1
_chemical_formula_structural   LiF
_chemical_formula_sum   'Li7 F7'
_cell_volume   220.50360965
_cell_formula_units_Z   7
loop_
 _symmetry_equiv_pos_site_id
 _symmetry_equiv_pos_as_xyz
  1  'x, y, z'
loop_
 _atom_site_type_symbol
 _atom_site_label
 _atom_site_symmetry_multiplicity
 _atom_site_fract_x
 _atom_site_fract_y
 _atom_site_fract_z
 _atom_site_occupancy
  F  F0  1  0.39274305  0.40796368  0.94423616  1
  F  F1  1  0.59203632  0.98477936  0.94423616  1
  F  F2  1  0.01522064  0.60725695  0.94423616  1
  F  F3  1  0.59203632  0.60725695  0.05576384  1
  F  F4  1  0.01522064  0.40796368  0.05576384  1
  F  F5  1  0.39274305  0.98477936  0.05576384  1
  F  F6  1  0.33333333  0.66666667  0.50000000  1
  Li  Li7  1  0.80850919  0.84465569  0.82518683  1
  Li  Li8  1  -0.84465569  -0.03614650  0.82518683  1
  Li  Li9  1  0.03614650  -0.80850919  0.82518683  1
  Li  Li10  1  -0.84465569  -0.80850919  -0.82518683  1
  Li  Li11  1  0.03614650  0.84465569  -0.82518683  1
  Li  Li12  1  0.80850919  -0.03614650  -0.82518683  1
  Li  Li13  1  0.00000000  0.00000000  0.00000000  1
