# generated using pymatgen
data_Li2Cu3MoP2Se
_symmetry_space_group_name_H-M   'P 1'
_cell_length_a   4.92654310
_cell_length_b   5.28128475
_cell_length_c   6.54622512
_cell_angle_alpha   93.84645664
_cell_angle_beta   97.26730064
_cell_angle_gamma   103.57157042
_symmetry_Int_Tables_number   1
_chemical_formula_structural   Li2Cu3MoP2Se
_chemical_formula_sum   'Li2 Cu3 Mo1 P2 Se1'
_cell_volume   163.40786379
_cell_formula_units_Z   1
loop_
 _symmetry_equiv_pos_site_id
 _symmetry_equiv_pos_as_xyz
  1  'x, y, z'
loop_
 _atom_site_type_symbol
 _atom_site_label
 _atom_site_symmetry_multiplicity
 _atom_site_fract_x
 _atom_site_fract_y
 _atom_site_fract_z
 _atom_site_occupancy
  Se  Se0  1  0.12500000  0.00000000  0.25000000  1
  Cu  Cu1  1  0.00000000  0.00000000  0.00000000  1
  Cu  Cu2  1  0.37500000  0.00000000  0.25000000  1
  Cu  Cu3  1  0.25000000  0.25000000  0.25000000  1
  P  P4  1  0.00000000  0.25000000  0.12500000  1
  P  P5  1  0.84231249  0.58090369  0.71133713  1
  Mo  Mo6  1  0.15377674  0.16908249  0.39240448  1
  Li  Li7  1  0.53997498  0.65795973  0.51134193  1
  Li  Li8  1  0.53636548  0.92012603  0.00403257  1
