# generated using pymatgen
data_LiF
_symmetry_space_group_name_H-M   'P 1'
_cell_length_a   6.34175459
_cell_length_b   15.20593285
_cell_length_c   10.05099411
_cell_angle_alpha   90.00000000
_cell_angle_beta   90.00000000
_cell_angle_gamma   90.00000000
_symmetry_Int_Tables_number   1
_chemical_formula_structural   LiF
_chemical_formula_sum   'Li32 F32'
_cell_volume   969.24042296
_cell_formula_units_Z   32
loop_
 _symmetry_equiv_pos_site_id
 _symmetry_equiv_pos_as_xyz
  1  'x, y, z'
loop_
 _atom_site_type_symbol
 _atom_site_label
 _atom_site_symmetry_multiplicity
 _atom_site_fract_x
 _atom_site_fract_y
 _atom_site_fract_z
 _atom_site_occupancy
  F  F0  1  0.88453589  0.68445520  0.69561532  1
  F  F1  1  0.61546411  0.31554480  0.19561532  1
  F  F2  1  0.11546411  0.18445520  0.30438468  1
  F  F3  1  0.38453589  0.81554480  0.80438468  1
  F  F4  1  0.11546411  0.31554480  0.30438468  1
  F  F5  1  0.38453589  0.68445520  0.80438468  1
  F  F6  1  0.88453589  0.81554480  0.69561532  1
  F  F7  1  0.61546411  0.18445520  0.19561532  1
  F  F8  1  0.78275031  0.72476466  0.34347175  1
  F  F9  1  0.71724969  0.27523534  0.84347175  1
  F  F10  1  0.21724969  0.22476466  0.65652825  1
  F  F11  1  0.28275031  0.77523534  0.15652825  1
  F  F12  1  0.21724969  0.27523534  0.65652825  1
  F  F13  1  0.28275031  0.72476466  0.15652825  1
  F  F14  1  0.78275031  0.77523534  0.34347175  1
  F  F15  1  0.71724969  0.22476466  0.84347175  1
  F  F16  1  0.00000000  0.00000000  0.50000000  1
  F  F17  1  0.50000000  0.00000000  0.00000000  1
  F  F18  1  0.00000000  0.50000000  0.50000000  1
  F  F19  1  0.50000000  0.50000000  0.00000000  1
  F  F20  1  0.03459843  0.25000000  0.51790409  1
  F  F21  1  0.46540157  0.75000000  0.01790409  1
  F  F22  1  0.96540157  0.75000000  0.48209591  1
  F  F23  1  0.53459843  0.25000000  0.98209591  1
  F  F24  1  0.89112763  0.86660601  0.93201416  1
  F  F25  1  0.60887237  0.13339399  0.43201416  1
  F  F26  1  0.10887237  0.36660601  0.06798584  1
  F  F27  1  0.39112763  0.63339399  0.56798584  1
  F  F28  1  0.10887237  0.13339399  0.06798584  1
  F  F29  1  0.39112763  0.86660601  0.56798584  1
  F  F30  1  0.89112763  0.63339399  0.93201416  1
  F  F31  1  0.60887237  0.36660601  0.43201416  1
  Li  Li32  1  0.91624954  0.83532871  0.59741476  1
  Li  Li33  1  -0.41624954  -0.83532871  1.09741476  1
  Li  Li34  1  -0.91624954  1.33532871  -0.59741476  1
  Li  Li35  1  1.41624954  -0.33532871  -0.09741476  1
  Li  Li36  1  -0.91624954  -0.83532871  -0.59741476  1
  Li  Li37  1  1.41624954  0.83532871  -0.09741476  1
  Li  Li38  1  0.91624954  -0.33532871  0.59741476  1
  Li  Li39  1  -0.41624954  1.33532871  1.09741476  1
  Li  Li40  1  0.87364968  0.43145067  0.41027322  1
  Li  Li41  1  0.62635032  0.56854933  0.91027322  1
  Li  Li42  1  0.12635032  0.93145067  0.58972678  1
  Li  Li43  1  0.37364968  0.06854933  0.08972678  1
  Li  Li44  1  0.12635032  0.56854933  0.58972678  1
  Li  Li45  1  0.37364968  0.43145067  0.08972678  1
  Li  Li46  1  0.87364968  0.06854933  0.41027322  1
  Li  Li47  1  0.62635032  0.93145067  0.91027322  1
  Li  Li48  1  0.10399211  0.63300856  0.30398248  1
  Li  Li49  1  0.39600789  0.36699144  0.80398248  1
  Li  Li50  1  0.89600789  0.13300856  0.69601752  1
  Li  Li51  1  0.60399211  0.86699144  0.19601752  1
  Li  Li52  1  0.89600789  0.36699144  0.69601752  1
  Li  Li53  1  0.60399211  0.63300856  0.19601752  1
  Li  Li54  1  0.10399211  0.86699144  0.30398248  1
  Li  Li55  1  0.39600789  0.13300856  0.80398248  1
  Li  Li56  1  0.79644128  0.25000000  0.94115822  1
  Li  Li57  1  0.70355872  0.75000000  0.44115822  1
  Li  Li58  1  0.20355872  0.75000000  0.05884178  1
  Li  Li59  1  0.29644128  0.25000000  0.55884178  1
  Li  Li60  1  0.88172212  0.25000000  0.13643360  1
  Li  Li61  1  0.61827788  0.75000000  0.63643360  1
  Li  Li62  1  0.11827788  0.75000000  0.86356640  1
  Li  Li63  1  0.38172212  0.25000000  0.36356640  1
