# generated using pymatgen
data_LiF
_symmetry_space_group_name_H-M   'P 1'
_cell_length_a   13.39117388
_cell_length_b   13.39117388
_cell_length_c   13.38747726
_cell_angle_alpha   90.00000000
_cell_angle_beta   90.00000000
_cell_angle_gamma   120.00000000
_symmetry_Int_Tables_number   1
_chemical_formula_structural   LiF
_chemical_formula_sum   'Li75 F75'
_cell_volume   2079.05834152
_cell_formula_units_Z   75
loop_
 _symmetry_equiv_pos_site_id
 _symmetry_equiv_pos_as_xyz
  1  'x, y, z'
loop_
 _atom_site_type_symbol
 _atom_site_label
 _atom_site_symmetry_multiplicity
 _atom_site_fract_x
 _atom_site_fract_y
 _atom_site_fract_z
 _atom_site_occupancy
  F  F0  1  0.00000000  0.00000000  0.70695622  1
  F  F1  1  0.00000000  0.00000000  0.29304378  1
  F  F2  1  0.33333333  0.66666667  0.50000000  1
  F  F3  1  0.98192066  0.16042819  0.49498994  1
  F  F4  1  0.83957181  0.82149247  0.49498994  1
  F  F5  1  0.17850753  0.01807934  0.49498994  1
  F  F6  1  0.83957181  0.01807934  0.50501006  1
  F  F7  1  0.17850753  0.16042819  0.50501006  1
  F  F8  1  0.98192066  0.82149247  0.50501006  1
  F  F9  1  0.60369652  0.21635263  0.18253656  1
  F  F10  1  0.78364737  0.38734389  0.18253656  1
  F  F11  1  0.61265611  0.39630348  0.18253656  1
  F  F12  1  0.78364737  0.39630348  0.81746344  1
  F  F13  1  0.61265611  0.21635263  0.81746344  1
  F  F14  1  0.60369652  0.38734389  0.81746344  1
  F  F15  1  0.68233289  0.86948922  0.47914078  1
  F  F16  1  0.13051078  0.81284367  0.47914078  1
  F  F17  1  0.18715633  0.31766711  0.47914078  1
  F  F18  1  0.13051078  0.31766711  0.52085922  1
  F  F19  1  0.18715633  0.86948922  0.52085922  1
  F  F20  1  0.68233289  0.81284367  0.52085922  1
  F  F21  1  0.04287829  0.47341741  0.94685934  1
  F  F22  1  0.52658259  0.56946088  0.94685934  1
  F  F23  1  0.43053912  0.95712171  0.94685934  1
  F  F24  1  0.52658259  0.95712171  0.05314066  1
  F  F25  1  0.43053912  0.47341741  0.05314066  1
  F  F26  1  0.04287829  0.56946088  0.05314066  1
  F  F27  1  0.63315169  0.94904127  0.07709307  1
  F  F28  1  0.05095873  0.68411042  0.07709307  1
  F  F29  1  0.31588958  0.36684831  0.07709307  1
  F  F30  1  0.05095873  0.36684831  0.92290693  1
  F  F31  1  0.31588958  0.94904127  0.92290693  1
  F  F32  1  0.63315169  0.68411042  0.92290693  1
  F  F33  1  0.92792672  0.18732392  0.50601714  1
  F  F34  1  0.81267608  0.74060279  0.50601714  1
  F  F35  1  0.25939721  0.07207328  0.50601714  1
  F  F36  1  0.81267608  0.07207328  0.49398286  1
  F  F37  1  0.25939721  0.18732392  0.49398286  1
  F  F38  1  0.92792672  0.74060279  0.49398286  1
  F  F39  1  0.00000000  0.00000000  0.83709155  1
  F  F40  1  0.00000000  0.00000000  0.16290845  1
  F  F41  1  0.58341171  0.96812821  0.12301821  1
  F  F42  1  0.03187179  0.61528350  0.12301821  1
  F  F43  1  0.38471650  0.41658829  0.12301821  1
  F  F44  1  0.03187179  0.41658829  0.87698179  1
  F  F45  1  0.38471650  0.96812821  0.87698179  1
  F  F46  1  0.58341171  0.61528350  0.87698179  1
  F  F47  1  0.21078127  0.88314077  0.27832045  1
  F  F48  1  0.11685923  0.32764050  0.27832045  1
  F  F49  1  0.67235950  0.78921873  0.27832045  1
  F  F50  1  0.11685923  0.78921873  0.72167955  1
  F  F51  1  0.67235950  0.88314077  0.72167955  1
  F  F52  1  0.21078127  0.32764050  0.72167955  1
  F  F53  1  0.30623667  0.24422843  0.21525631  1
  F  F54  1  0.75577157  0.06200824  0.21525631  1
  F  F55  1  0.93799176  0.69376333  0.21525631  1
  F  F56  1  0.75577157  0.69376333  0.78474369  1
  F  F57  1  0.93799176  0.24422843  0.78474369  1
  F  F58  1  0.30623667  0.06200824  0.78474369  1
  F  F59  1  0.00000000  0.00000000  0.50000000  1
  F  F60  1  0.00884685  0.87169624  0.82688983  1
  F  F61  1  0.12830376  0.13715062  0.82688983  1
  F  F62  1  0.86284938  0.99115315  0.82688983  1
  F  F63  1  0.12830376  0.99115315  0.17311017  1
  F  F64  1  0.86284938  0.87169624  0.17311017  1
  F  F65  1  0.00884685  0.13715062  0.17311017  1
  F  F66  1  0.00000000  0.00000000  0.43256706  1
  F  F67  1  0.00000000  0.00000000  0.56743294  1
  F  F68  1  0.18431422  0.44179589  0.87356140  1
  F  F69  1  0.55820411  0.74251833  0.87356140  1
  F  F70  1  0.25748167  0.81568578  0.87356140  1
  F  F71  1  0.55820411  0.81568578  0.12643860  1
  F  F72  1  0.25748167  0.44179589  0.12643860  1
  F  F73  1  0.18431422  0.74251833  0.12643860  1
  F  F74  1  0.00000000  0.00000000  0.00000000  1
  Li  Li75  1  0.63946960  0.09103484  0.40646980  1
  Li  Li76  1  -0.09103484  0.54843476  0.40646980  1
  Li  Li77  1  -0.54843476  -0.63946960  0.40646980  1
  Li  Li78  1  -0.09103484  -0.63946960  -0.40646980  1
  Li  Li79  1  -0.54843476  0.09103484  -0.40646980  1
  Li  Li80  1  0.63946960  0.54843476  -0.40646980  1
  Li  Li81  1  0.98656915  0.62925804  0.18914916  1
  Li  Li82  1  0.37074196  0.35731111  0.18914916  1
  Li  Li83  1  0.64268889  0.01343085  0.18914916  1
  Li  Li84  1  0.37074196  0.01343085  0.81085084  1
  Li  Li85  1  0.64268889  0.62925804  0.81085084  1
  Li  Li86  1  0.98656915  0.35731111  0.81085084  1
  Li  Li87  1  0.66666667  0.33333333  0.50000000  1
  Li  Li88  1  0.77518405  0.37421993  0.07309149  1
  Li  Li89  1  0.62578007  0.40096411  0.07309149  1
  Li  Li90  1  0.59903589  0.22481595  0.07309149  1
  Li  Li91  1  0.62578007  0.22481595  0.92690851  1
  Li  Li92  1  0.59903589  0.37421993  0.92690851  1
  Li  Li93  1  0.77518405  0.40096411  0.92690851  1
  Li  Li94  1  0.55092340  0.44907660  0.00000000  1
  Li  Li95  1  0.55092340  0.10184680  0.00000000  1
  Li  Li96  1  0.89815320  0.44907660  0.00000000  1
  Li  Li97  1  0.33333333  0.66666667  0.00000000  1
  Li  Li98  1  0.28964408  0.14793977  0.11175545  1
  Li  Li99  1  0.85206023  0.14170432  0.11175545  1
  Li  Li100  1  0.85829568  0.71035592  0.11175545  1
  Li  Li101  1  0.85206023  0.71035592  0.88824455  1
  Li  Li102  1  0.85829568  0.14793977  0.88824455  1
  Li  Li103  1  0.28964408  0.14170432  0.88824455  1
  Li  Li104  1  0.69970683  0.91861545  0.79820653  1
  Li  Li105  1  0.08138455  0.78109138  0.79820653  1
  Li  Li106  1  0.21890862  0.30029317  0.79820653  1
  Li  Li107  1  0.08138455  0.30029317  0.20179347  1
  Li  Li108  1  0.21890862  0.91861545  0.20179347  1
  Li  Li109  1  0.69970683  0.78109138  0.20179347  1
  Li  Li110  1  0.71970640  0.70681220  0.36349619  1
  Li  Li111  1  0.29318780  0.01289420  0.36349619  1
  Li  Li112  1  0.98710580  0.28029360  0.36349619  1
  Li  Li113  1  0.29318780  0.28029360  0.63650381  1
  Li  Li114  1  0.98710580  0.70681220  0.63650381  1
  Li  Li115  1  0.71970640  0.01289420  0.63650381  1
  Li  Li116  1  0.42163257  0.76814879  0.81322735  1
  Li  Li117  1  0.23185121  0.65348378  0.81322735  1
  Li  Li118  1  0.34651622  0.57836743  0.81322735  1
  Li  Li119  1  0.23185121  0.57836743  0.18677265  1
  Li  Li120  1  0.34651622  0.76814879  0.18677265  1
  Li  Li121  1  0.42163257  0.65348378  0.18677265  1
  Li  Li122  1  0.68761213  0.19081959  0.32532574  1
  Li  Li123  1  0.80918041  0.49679255  0.32532574  1
  Li  Li124  1  0.50320745  0.31238787  0.32532574  1
  Li  Li125  1  0.80918041  0.31238787  0.67467426  1
  Li  Li126  1  0.50320745  0.19081959  0.67467426  1
  Li  Li127  1  0.68761213  0.49679255  0.67467426  1
  Li  Li128  1  0.02049283  0.64484467  0.78739530  1
  Li  Li129  1  0.35515533  0.37564816  0.78739530  1
  Li  Li130  1  0.62435184  0.97950717  0.78739530  1
  Li  Li131  1  0.35515533  0.97950717  0.21260470  1
  Li  Li132  1  0.62435184  0.64484467  0.21260470  1
  Li  Li133  1  0.02049283  0.37564816  0.21260470  1
  Li  Li134  1  0.05960405  0.94039595  0.50000000  1
  Li  Li135  1  0.05960405  0.11920811  0.50000000  1
  Li  Li136  1  0.88079189  0.94039595  0.50000000  1
  Li  Li137  1  0.66666667  0.33333333  0.00000000  1
  Li  Li138  1  0.24554034  0.57476185  0.35043400  1
  Li  Li139  1  0.42523815  0.67077849  0.35043400  1
  Li  Li140  1  0.32922151  0.75445966  0.35043400  1
  Li  Li141  1  0.42523815  0.75445966  0.64956600  1
  Li  Li142  1  0.32922151  0.57476185  0.64956600  1
  Li  Li143  1  0.24554034  0.67077849  0.64956600  1
  Li  Li144  1  0.41401557  0.89375798  0.22423691  1
  Li  Li145  1  0.10624202  0.52025759  0.22423691  1
  Li  Li146  1  0.47974241  0.58598443  0.22423691  1
  Li  Li147  1  0.10624202  0.58598443  0.77576309  1
  Li  Li148  1  0.47974241  0.89375798  0.77576309  1
  Li  Li149  1  0.41401557  0.52025759  0.77576309  1
