# generated using pymatgen
data_LiF
_symmetry_space_group_name_H-M   'P 1'
_cell_length_a   10.49446885
_cell_length_b   10.49446885
_cell_length_c   19.87309333
_cell_angle_alpha   90.00000000
_cell_angle_beta   90.00000000
_cell_angle_gamma   120.00000000
_symmetry_Int_Tables_number   1
_chemical_formula_structural   LiF
_chemical_formula_sum   'Li64 F64'
_cell_volume   1895.47049835
_cell_formula_units_Z   64
loop_
 _symmetry_equiv_pos_site_id
 _symmetry_equiv_pos_as_xyz
  1  'x, y, z'
loop_
 _atom_site_type_symbol
 _atom_site_label
 _atom_site_symmetry_multiplicity
 _atom_site_fract_x
 _atom_site_fract_y
 _atom_site_fract_z
 _atom_site_occupancy
  F  F0  1  0.83644462  0.62318587  0.62675995  1
  F  F1  1  -0.62318587  0.21325875  0.62675995  1
  F  F2  1  -0.21325875  -0.83644462  0.62675995  1
  F  F3  1  -0.62318587  -0.83644462  -0.62675995  1
  F  F4  1  -0.21325875  0.62318587  -0.62675995  1
  F  F5  1  0.83644462  0.21325875  -0.62675995  1
  F  F6  1  0.49248469  0.55976750  0.63041883  1
  F  F7  1  0.44023250  0.93271719  0.63041883  1
  F  F8  1  0.06728281  0.50751531  0.63041883  1
  F  F9  1  0.44023250  0.50751531  0.36958117  1
  F  F10  1  0.06728281  0.55976750  0.36958117  1
  F  F11  1  0.49248469  0.93271719  0.36958117  1
  F  F12  1  0.33333333  0.66666667  0.15776616  1
  F  F13  1  0.33333333  0.66666667  0.84223384  1
  F  F14  1  0.43866928  0.56133072  0.50000000  1
  F  F15  1  0.43866928  0.87733856  0.50000000  1
  F  F16  1  0.12266144  0.56133072  0.50000000  1
  F  F17  1  0.70360363  0.71983371  0.69725396  1
  F  F18  1  0.28016629  0.98376993  0.69725396  1
  F  F19  1  0.01623007  0.29639637  0.69725396  1
  F  F20  1  0.28016629  0.29639637  0.30274604  1
  F  F21  1  0.01623007  0.71983371  0.30274604  1
  F  F22  1  0.70360363  0.98376993  0.30274604  1
  F  F23  1  0.66666667  0.33333333  0.94129592  1
  F  F24  1  0.66666667  0.33333333  0.05870408  1
  F  F25  1  0.87253946  0.25141206  0.54100449  1
  F  F26  1  0.74858794  0.62112740  0.54100449  1
  F  F27  1  0.37887260  0.12746054  0.54100449  1
  F  F28  1  0.74858794  0.12746054  0.45899551  1
  F  F29  1  0.37887260  0.25141206  0.45899551  1
  F  F30  1  0.87253946  0.62112740  0.45899551  1
  F  F31  1  0.56180874  0.17229967  0.55338320  1
  F  F32  1  0.82770033  0.38950907  0.55338320  1
  F  F33  1  0.61049093  0.43819126  0.55338320  1
  F  F34  1  0.82770033  0.43819126  0.44661680  1
  F  F35  1  0.61049093  0.17229967  0.44661680  1
  F  F36  1  0.56180874  0.38950907  0.44661680  1
  F  F37  1  0.00000000  0.00000000  0.00000000  1
  F  F38  1  0.86463141  0.92674509  0.91509633  1
  F  F39  1  0.07325491  0.93788632  0.91509633  1
  F  F40  1  0.06211368  0.13536859  0.91509633  1
  F  F41  1  0.07325491  0.13536859  0.08490367  1
  F  F42  1  0.06211368  0.92674509  0.08490367  1
  F  F43  1  0.86463141  0.93788632  0.08490367  1
  F  F44  1  0.33333333  0.66666667  0.50000000  1
  F  F45  1  0.46660431  0.34246458  0.89266605  1
  F  F46  1  0.65753542  0.12413974  0.89266605  1
  F  F47  1  0.87586026  0.53339569  0.89266605  1
  F  F48  1  0.65753542  0.53339569  0.10733395  1
  F  F49  1  0.87586026  0.34246458  0.10733395  1
  F  F50  1  0.46660431  0.12413974  0.10733395  1
  F  F51  1  0.33333333  0.66666667  0.37459440  1
  F  F52  1  0.33333333  0.66666667  0.62540560  1
  F  F53  1  0.66666667  0.33333333  0.50000000  1
  F  F54  1  0.00000000  0.00000000  0.50000000  1
  F  F55  1  0.72459810  0.36586764  0.58490277  1
  F  F56  1  0.63413236  0.35873046  0.58490277  1
  F  F57  1  0.64126954  0.27540190  0.58490277  1
  F  F58  1  0.63413236  0.27540190  0.41509723  1
  F  F59  1  0.64126954  0.36586764  0.41509723  1
  F  F60  1  0.72459810  0.35873046  0.41509723  1
  F  F61  1  0.08734316  0.91265684  0.50000000  1
  F  F62  1  0.08734316  0.17468631  0.50000000  1
  F  F63  1  0.82531369  0.91265684  0.50000000  1
  Li  Li64  1  0.53044553  0.15800382  0.85714426  1
  Li  Li65  1  0.84199618  0.37244171  0.85714426  1
  Li  Li66  1  0.62755829  0.46955447  0.85714426  1
  Li  Li67  1  0.84199618  0.46955447  0.14285574  1
  Li  Li68  1  0.62755829  0.15800382  0.14285574  1
  Li  Li69  1  0.53044553  0.37244171  0.14285574  1
  Li  Li70  1  0.54461447  0.55991126  0.39775202  1
  Li  Li71  1  0.44008874  0.98470322  0.39775202  1
  Li  Li72  1  0.01529678  0.45538553  0.39775202  1
  Li  Li73  1  0.44008874  0.45538553  0.60224798  1
  Li  Li74  1  0.01529678  0.55991126  0.60224798  1
  Li  Li75  1  0.54461447  0.98470322  0.60224798  1
  Li  Li76  1  0.82841343  0.02561260  0.34382025  1
  Li  Li77  1  0.97438740  0.80280084  0.34382025  1
  Li  Li78  1  0.19719916  0.17158657  0.34382025  1
  Li  Li79  1  0.97438740  0.17158657  0.65617975  1
  Li  Li80  1  0.19719916  0.02561260  0.65617975  1
  Li  Li81  1  0.82841343  0.80280084  0.65617975  1
  Li  Li82  1  0.36662603  0.23456935  0.74821317  1
  Li  Li83  1  0.76543065  0.13205667  0.74821317  1
  Li  Li84  1  0.86794333  0.63337397  0.74821317  1
  Li  Li85  1  0.76543065  0.63337397  0.25178683  1
  Li  Li86  1  0.86794333  0.23456935  0.25178683  1
  Li  Li87  1  0.36662603  0.13205667  0.25178683  1
  Li  Li88  1  0.95287963  0.62417443  0.22615908  1
  Li  Li89  1  0.37582557  0.32870520  0.22615908  1
  Li  Li90  1  0.67129480  0.04712037  0.22615908  1
  Li  Li91  1  0.37582557  0.04712037  0.77384092  1
  Li  Li92  1  0.67129480  0.62417443  0.77384092  1
  Li  Li93  1  0.95287963  0.32870520  0.77384092  1
  Li  Li94  1  0.93495697  0.06504303  0.00000000  1
  Li  Li95  1  0.93495697  0.86991394  -0.00000000  1
  Li  Li96  1  0.13008606  0.06504303  0.00000000  1
  Li  Li97  1  0.34647165  0.21203217  0.11926013  1
  Li  Li98  1  0.78796783  0.13443948  0.11926013  1
  Li  Li99  1  0.86556052  0.65352835  0.11926013  1
  Li  Li100  1  0.78796783  0.65352835  0.88073987  1
  Li  Li101  1  0.86556052  0.21203217  0.88073987  1
  Li  Li102  1  0.34647165  0.13443948  0.88073987  1
  Li  Li103  1  0.66666667  0.33333333  0.00000000  1
  Li  Li104  1  0.02172279  0.89766467  0.66500578  1
  Li  Li105  1  0.10233533  0.12405812  0.66500578  1
  Li  Li106  1  0.87594188  0.97827721  0.66500578  1
  Li  Li107  1  0.10233533  0.97827721  0.33499422  1
  Li  Li108  1  0.87594188  0.89766467  0.33499422  1
  Li  Li109  1  0.02172279  0.12405812  0.33499422  1
  Li  Li110  1  0.75372464  0.29230179  0.45470100  1
  Li  Li111  1  0.70769821  0.46142286  0.45470100  1
  Li  Li112  1  0.53857714  0.24627536  0.45470100  1
  Li  Li113  1  0.70769821  0.24627536  0.54529900  1
  Li  Li114  1  0.53857714  0.29230179  0.54529900  1
  Li  Li115  1  0.75372464  0.46142286  0.54529900  1
  Li  Li116  1  0.60275961  0.77151663  0.66421825  1
  Li  Li117  1  0.22848337  0.83124299  0.66421825  1
  Li  Li118  1  0.16875701  0.39724039  0.66421825  1
  Li  Li119  1  0.22848337  0.39724039  0.33578175  1
  Li  Li120  1  0.16875701  0.77151663  0.33578175  1
  Li  Li121  1  0.60275961  0.83124299  0.33578175  1
  Li  Li122  1  0.41857485  0.81783521  0.36349916  1
  Li  Li123  1  0.18216479  0.60073964  0.36349916  1
  Li  Li124  1  0.39926036  0.58142515  0.36349916  1
  Li  Li125  1  0.18216479  0.58142515  0.63650084  1
  Li  Li126  1  0.39926036  0.81783521  0.63650084  1
  Li  Li127  1  0.41857485  0.60073964  0.63650084  1
