# generated using pymatgen
data_LiAlSe2
_symmetry_space_group_name_H-M   'P 1'
_cell_length_a   10.27990008
_cell_length_b   10.27990008
_cell_length_c   17.95178358
_cell_angle_alpha   90.00000000
_cell_angle_beta   90.00000000
_cell_angle_gamma   120.00000000
_symmetry_Int_Tables_number   1
_chemical_formula_structural   LiAlSe2
_chemical_formula_sum   'Li24 Al24 Se48'
_cell_volume   1642.91850881
_cell_formula_units_Z   24
loop_
 _symmetry_equiv_pos_site_id
 _symmetry_equiv_pos_as_xyz
  1  'x, y, z'
loop_
 _atom_site_type_symbol
 _atom_site_label
 _atom_site_symmetry_multiplicity
 _atom_site_fract_x
 _atom_site_fract_y
 _atom_site_fract_z
 _atom_site_occupancy
  Al  Al0  1  0.17599107  0.66897888  0.05883720  1
  Al  Al1  1  -0.66897888  -0.49298780  0.05883720  1
  Al  Al2  1  0.49298780  -0.17599107  0.05883720  1
  Al  Al3  1  -0.17599107  -0.66897888  0.55883720  1
  Al  Al4  1  0.66897888  0.49298780  0.55883720  1
  Al  Al5  1  -0.49298780  0.17599107  0.55883720  1
  Al  Al6  1  -0.17599107  -0.66897888  -0.05883720  1
  Al  Al7  1  0.66897888  0.49298780  -0.05883720  1
  Al  Al8  1  -0.49298780  0.17599107  -0.05883720  1
  Al  Al9  1  0.17599107  0.66897888  0.44116280  1
  Al  Al10  1  -0.66897888  -0.49298780  0.44116280  1
  Al  Al11  1  0.49298780  -0.17599107  0.44116280  1
  Al  Al12  1  0.23376727  0.40808553  0.15797215  1
  Al  Al13  1  0.59191447  0.82568174  0.15797215  1
  Al  Al14  1  0.17431826  0.76623273  0.15797215  1
  Al  Al15  1  0.76623273  0.59191447  0.65797215  1
  Al  Al16  1  0.40808553  0.17431826  0.65797215  1
  Al  Al17  1  0.82568174  0.23376727  0.65797215  1
  Al  Al18  1  0.76623273  0.59191447  0.84202785  1
  Al  Al19  1  0.40808553  0.17431826  0.84202785  1
  Al  Al20  1  0.82568174  0.23376727  0.84202785  1
  Al  Al21  1  0.23376727  0.40808553  0.34202785  1
  Al  Al22  1  0.59191447  0.82568174  0.34202785  1
  Al  Al23  1  0.17431826  0.76623273  0.34202785  1
  Li  Li24  1  0.50000000  0.00000000  0.00000000  1
  Li  Li25  1  0.00000000  0.50000000  0.00000000  1
  Li  Li26  1  0.50000000  0.50000000  0.00000000  1
  Li  Li27  1  0.50000000  0.00000000  0.50000000  1
  Li  Li28  1  0.00000000  0.50000000  0.50000000  1
  Li  Li29  1  0.50000000  0.50000000  0.50000000  1
  Li  Li30  1  0.76728749  0.32504899  0.33321271  1
  Li  Li31  1  0.67495101  0.44223850  0.33321271  1
  Li  Li32  1  0.55776150  0.23271251  0.33321271  1
  Li  Li33  1  0.23271251  0.67495101  0.83321271  1
  Li  Li34  1  0.32504899  0.55776150  0.83321271  1
  Li  Li35  1  0.44223850  0.76728749  0.83321271  1
  Li  Li36  1  0.23271251  0.67495101  0.66678729  1
  Li  Li37  1  0.32504899  0.55776150  0.66678729  1
  Li  Li38  1  0.44223850  0.76728749  0.66678729  1
  Li  Li39  1  0.76728749  0.32504899  0.16678729  1
  Li  Li40  1  0.67495101  0.44223850  0.16678729  1
  Li  Li41  1  0.55776150  0.23271251  0.16678729  1
  Li  Li42  1  0.00000000  0.00000000  0.00000000  1
  Li  Li43  1  0.00000000  0.00000000  0.50000000  1
  Li  Li44  1  0.00000000  0.00000000  0.21000352  1
  Li  Li45  1  0.00000000  0.00000000  0.71000352  1
  Li  Li46  1  0.00000000  0.00000000  0.78999648  1
  Li  Li47  1  0.00000000  0.00000000  0.28999648  1
  Se  Se48  1  0.78304170  0.77836806  0.86251966  1
  Se  Se49  1  0.22163194  0.00467364  0.86251966  1
  Se  Se50  1  0.99532636  0.21695830  0.86251966  1
  Se  Se51  1  0.21695830  0.22163194  0.36251966  1
  Se  Se52  1  0.77836806  0.99532636  0.36251966  1
  Se  Se53  1  0.00467364  0.78304170  0.36251966  1
  Se  Se54  1  0.21695830  0.22163194  0.13748034  1
  Se  Se55  1  0.77836806  0.99532636  0.13748034  1
  Se  Se56  1  0.00467364  0.78304170  0.13748034  1
  Se  Se57  1  0.78304170  0.77836806  0.63748034  1
  Se  Se58  1  0.22163194  0.00467364  0.63748034  1
  Se  Se59  1  0.99532636  0.21695830  0.63748034  1
  Se  Se60  1  0.58163913  0.99516810  0.60767940  1
  Se  Se61  1  0.00483190  0.58647103  0.60767940  1
  Se  Se62  1  0.41352897  0.41836087  0.60767940  1
  Se  Se63  1  0.41836087  0.00483190  0.10767940  1
  Se  Se64  1  0.99516810  0.41352897  0.10767940  1
  Se  Se65  1  0.58647103  0.58163913  0.10767940  1
  Se  Se66  1  0.41836087  0.00483190  0.39232060  1
  Se  Se67  1  0.99516810  0.41352897  0.39232060  1
  Se  Se68  1  0.58647103  0.58163913  0.39232060  1
  Se  Se69  1  0.58163913  0.99516810  0.89232060  1
  Se  Se70  1  0.00483190  0.58647103  0.89232060  1
  Se  Se71  1  0.41352897  0.41836087  0.89232060  1
  Se  Se72  1  0.66666667  0.33333333  0.25000000  1
  Se  Se73  1  0.33333333  0.66666667  0.75000000  1
  Se  Se74  1  0.21378895  0.03399863  0.02635296  1
  Se  Se75  1  0.96600137  0.17979032  0.02635296  1
  Se  Se76  1  0.82020968  0.78621105  0.02635296  1
  Se  Se77  1  0.78621105  0.96600137  0.52635296  1
  Se  Se78  1  0.03399863  0.82020968  0.52635296  1
  Se  Se79  1  0.17979032  0.21378895  0.52635296  1
  Se  Se80  1  0.78621105  0.96600137  0.97364704  1
  Se  Se81  1  0.03399863  0.82020968  0.97364704  1
  Se  Se82  1  0.17979032  0.21378895  0.97364704  1
  Se  Se83  1  0.21378895  0.03399863  0.47364704  1
  Se  Se84  1  0.96600137  0.17979032  0.47364704  1
  Se  Se85  1  0.82020968  0.78621105  0.47364704  1
  Se  Se86  1  0.61666338  0.72472453  0.25000000  1
  Se  Se87  1  0.27527547  0.89193885  0.25000000  1
  Se  Se88  1  0.10806115  0.38333662  0.25000000  1
  Se  Se89  1  0.38333662  0.27527547  0.75000000  1
  Se  Se90  1  0.72472453  0.10806115  0.75000000  1
  Se  Se91  1  0.89193885  0.61666338  0.75000000  1
  Se  Se92  1  0.00000000  0.00000000  0.40031417  1
  Se  Se93  1  0.00000000  0.00000000  0.90031417  1
  Se  Se94  1  0.00000000  0.00000000  0.59968583  1
  Se  Se95  1  0.00000000  0.00000000  0.09968583  1
