# generated using pymatgen
data_SrLi6Si(OF2)3
_symmetry_space_group_name_H-M   'P 1'
_cell_length_a   11.26769443
_cell_length_b   11.26769443
_cell_length_c   9.09480577
_cell_angle_alpha   90.00000000
_cell_angle_beta   90.00000000
_cell_angle_gamma   120.00000000
_symmetry_Int_Tables_number   1
_chemical_formula_structural   SrLi6Si(OF2)3
_chemical_formula_sum   'Sr4 Li24 Si4 O12 F24'
_cell_volume   999.98660303
_cell_formula_units_Z   4
loop_
 _symmetry_equiv_pos_site_id
 _symmetry_equiv_pos_as_xyz
  1  'x, y, z'
loop_
 _atom_site_type_symbol
 _atom_site_label
 _atom_site_symmetry_multiplicity
 _atom_site_fract_x
 _atom_site_fract_y
 _atom_site_fract_z
 _atom_site_occupancy
  F  F0  1  0.29932129  0.63521802  0.64767487  1
  F  F1  1  -0.63521802  -0.33589673  0.64767487  1
  F  F2  1  0.33589673  -0.29932129  0.64767487  1
  F  F3  1  -0.29932129  -0.63521802  1.14767487  1
  F  F4  1  0.63521802  0.33589673  1.14767487  1
  F  F5  1  -0.33589673  0.29932129  1.14767487  1
  F  F6  1  -0.29932129  -0.63521802  -0.64767487  1
  F  F7  1  0.63521802  0.33589673  -0.64767487  1
  F  F8  1  -0.33589673  0.29932129  -0.64767487  1
  F  F9  1  0.29932129  0.63521802  -0.14767487  1
  F  F10  1  -0.63521802  -0.33589673  -0.14767487  1
  F  F11  1  0.33589673  -0.29932129  -0.14767487  1
  F  F12  1  0.63017385  0.34064444  0.59367783  1
  F  F13  1  0.65935556  0.28952940  0.59367783  1
  F  F14  1  0.71047060  0.36982615  0.59367783  1
  F  F15  1  0.36982615  0.65935556  0.09367783  1
  F  F16  1  0.34064444  0.71047060  0.09367783  1
  F  F17  1  0.28952940  0.63017385  0.09367783  1
  F  F18  1  0.36982615  0.65935556  0.40632217  1
  F  F19  1  0.34064444  0.71047060  0.40632217  1
  F  F20  1  0.28952940  0.63017385  0.40632217  1
  F  F21  1  0.63017385  0.34064444  0.90632217  1
  F  F22  1  0.65935556  0.28952940  0.90632217  1
  F  F23  1  0.71047060  0.36982615  0.90632217  1
  Li  Li24  1  0.26330321  0.38413126  0.58413861  1
  Li  Li25  1  0.61586874  0.87917195  0.58413861  1
  Li  Li26  1  0.12082805  0.73669679  0.58413861  1
  Li  Li27  1  0.73669679  0.61586874  0.08413861  1
  Li  Li28  1  0.38413126  0.12082805  0.08413861  1
  Li  Li29  1  0.87917195  0.26330321  0.08413861  1
  Li  Li30  1  0.73669679  0.61586874  0.41586139  1
  Li  Li31  1  0.38413126  0.12082805  0.41586139  1
  Li  Li32  1  0.87917195  0.26330321  0.41586139  1
  Li  Li33  1  0.26330321  0.38413126  0.91586139  1
  Li  Li34  1  0.61586874  0.87917195  0.91586139  1
  Li  Li35  1  0.12082805  0.73669679  0.91586139  1
  Li  Li36  1  0.74263048  0.90407838  0.83733753  1
  Li  Li37  1  0.09592162  0.83855210  0.83733753  1
  Li  Li38  1  0.16144790  0.25736952  0.83733753  1
  Li  Li39  1  0.25736952  0.09592162  0.33733753  1
  Li  Li40  1  0.90407838  0.16144790  0.33733753  1
  Li  Li41  1  0.83855210  0.74263048  0.33733753  1
  Li  Li42  1  0.25736952  0.09592162  0.16266247  1
  Li  Li43  1  0.90407838  0.16144790  0.16266247  1
  Li  Li44  1  0.83855210  0.74263048  0.16266247  1
  Li  Li45  1  0.74263048  0.90407838  0.66266247  1
  Li  Li46  1  0.09592162  0.83855210  0.66266247  1
  Li  Li47  1  0.16144790  0.25736952  0.66266247  1
  O  O48  1  0.10700887  0.44282548  0.25000000  1
  O  O49  1  0.55717452  0.66418339  0.25000000  1
  O  O50  1  0.33581661  0.89299113  0.25000000  1
  O  O51  1  0.89299113  0.55717452  0.75000000  1
  O  O52  1  0.44282548  0.33581661  0.75000000  1
  O  O53  1  0.66418339  0.10700887  0.75000000  1
  O  O54  1  0.25381329  0.95550211  0.25000000  1
  O  O55  1  0.04449789  0.29831117  0.25000000  1
  O  O56  1  0.70168883  0.74618671  0.25000000  1
  O  O57  1  0.74618671  0.04449789  0.75000000  1
  O  O58  1  0.95550211  0.70168883  0.75000000  1
  O  O59  1  0.29831117  0.25381329  0.75000000  1
  Si  Si60  1  0.33333333  0.66666667  0.96374896  1
  Si  Si61  1  0.66666667  0.33333333  0.46374896  1
  Si  Si62  1  0.66666667  0.33333333  0.03625104  1
  Si  Si63  1  0.33333333  0.66666667  0.53625104  1
  Sr  Sr64  1  0.33333333  0.66666667  0.25000000  1
  Sr  Sr65  1  0.66666667  0.33333333  0.75000000  1
  Sr  Sr66  1  0.00000000  0.00000000  0.00000000  1
  Sr  Sr67  1  0.00000000  0.00000000  0.50000000  1
