# generated using pymatgen
data_LiF
_symmetry_space_group_name_H-M   'P 1'
_cell_length_a   12.28646221
_cell_length_b   12.28646221
_cell_length_c   6.17749135
_cell_angle_alpha   90.00000000
_cell_angle_beta   90.00000000
_cell_angle_gamma   120.00000000
_symmetry_Int_Tables_number   1
_chemical_formula_structural   LiF
_chemical_formula_sum   'Li22 F22'
_cell_volume   807.60030841
_cell_formula_units_Z   22
loop_
 _symmetry_equiv_pos_site_id
 _symmetry_equiv_pos_as_xyz
  1  'x, y, z'
loop_
 _atom_site_type_symbol
 _atom_site_label
 _atom_site_symmetry_multiplicity
 _atom_site_fract_x
 _atom_site_fract_y
 _atom_site_fract_z
 _atom_site_occupancy
  F  F0  1  0.80274686  0.84879244  0.39551655  1
  F  F1  1  -0.84879244  -0.04604558  0.39551655  1
  F  F2  1  0.04604558  -0.80274686  0.39551655  1
  F  F3  1  0.80274686  0.84879244  -0.39551655  1
  F  F4  1  -0.84879244  -0.04604558  -0.39551655  1
  F  F5  1  0.04604558  -0.80274686  -0.39551655  1
  F  F6  1  0.84879244  0.80274686  -0.39551655  1
  F  F7  1  -0.04604558  -0.84879244  -0.39551655  1
  F  F8  1  -0.80274686  0.04604558  -0.39551655  1
  F  F9  1  0.84879244  0.80274686  0.39551655  1
  F  F10  1  -0.04604558  -0.84879244  0.39551655  1
  F  F11  1  -0.80274686  0.04604558  0.39551655  1
  F  F12  1  0.58516745  0.00000000  0.90194748  1
  F  F13  1  0.00000000  0.58516745  0.90194748  1
  F  F14  1  0.41483255  0.41483255  0.90194748  1
  F  F15  1  0.58516745  0.00000000  0.09805252  1
  F  F16  1  0.00000000  0.58516745  0.09805252  1
  F  F17  1  0.41483255  0.41483255  0.09805252  1
  F  F18  1  0.00000000  0.00000000  0.00000000  1
  F  F19  1  0.80367496  0.00000000  0.00000000  1
  F  F20  1  0.00000000  0.80367496  -0.00000000  1
  F  F21  1  0.19632504  0.19632504  0.00000000  1
  Li  Li22  1  0.80106673  0.00000000  0.75098498  1
  Li  Li23  1  0.00000000  0.80106673  0.75098498  1
  Li  Li24  1  0.19893327  0.19893327  0.75098498  1
  Li  Li25  1  0.80106673  0.00000000  0.24901502  1
  Li  Li26  1  0.00000000  0.80106673  0.24901502  1
  Li  Li27  1  0.19893327  0.19893327  0.24901502  1
  Li  Li28  1  0.00000000  0.00000000  0.50000000  1
  Li  Li29  1  0.57488066  0.81201448  0.00000000  1
  Li  Li30  1  0.18798552  0.76286618  -0.00000000  1
  Li  Li31  1  0.23713382  0.42511934  0.00000000  1
  Li  Li32  1  0.81201448  0.57488066  0.00000000  1
  Li  Li33  1  0.76286618  0.18798552  0.00000000  1
  Li  Li34  1  0.42511934  0.23713382  0.00000000  1
  Li  Li35  1  0.44572383  0.00000000  0.69222537  1
  Li  Li36  1  0.00000000  0.44572383  0.69222537  1
  Li  Li37  1  0.55427617  0.55427617  0.69222537  1
  Li  Li38  1  0.44572383  0.00000000  0.30777463  1
  Li  Li39  1  0.00000000  0.44572383  0.30777463  1
  Li  Li40  1  0.55427617  0.55427617  0.30777463  1
  Li  Li41  1  0.62753224  0.00000000  0.50000000  1
  Li  Li42  1  0.00000000  0.62753224  0.50000000  1
  Li  Li43  1  0.37246776  0.37246776  0.50000000  1
