# generated using pymatgen
data_Li2Si4Te3F12
_symmetry_space_group_name_H-M   'P 1'
_cell_length_a   12.85628537
_cell_length_b   12.01757915
_cell_length_c   8.72740302
_cell_angle_alpha   90.00000000
_cell_angle_beta   90.00000000
_cell_angle_gamma   90.00000000
_symmetry_Int_Tables_number   1
_chemical_formula_structural   Li2Si4Te3F12
_chemical_formula_sum   'Li8 Si16 Te12 F48'
_cell_volume   1348.39621928
_cell_formula_units_Z   4
loop_
 _symmetry_equiv_pos_site_id
 _symmetry_equiv_pos_as_xyz
  1  'x, y, z'
loop_
 _atom_site_type_symbol
 _atom_site_label
 _atom_site_symmetry_multiplicity
 _atom_site_fract_x
 _atom_site_fract_y
 _atom_site_fract_z
 _atom_site_occupancy
  F  F0  1  0.00000000  0.00000000  0.09593351  1
  F  F1  1  0.50000000  0.50000000  0.40406649  1
  F  F2  1  0.00000000  0.00000000  0.90406649  1
  F  F3  1  0.50000000  0.50000000  0.59593351  1
  F  F4  1  0.48818056  0.30137955  0.17468906  1
  F  F5  1  0.51181944  0.69862045  0.17468906  1
  F  F6  1  0.01181944  0.80137955  0.32531094  1
  F  F7  1  0.98818056  0.19862045  0.32531094  1
  F  F8  1  0.51181944  0.69862045  0.82531094  1
  F  F9  1  0.48818056  0.30137955  0.82531094  1
  F  F10  1  0.98818056  0.19862045  0.67468906  1
  F  F11  1  0.01181944  0.80137955  0.67468906  1
  F  F12  1  0.71739107  0.05862638  0.78435557  1
  F  F13  1  0.28260893  0.94137362  0.78435557  1
  F  F14  1  0.78260893  0.55862638  0.71564443  1
  F  F15  1  0.21739107  0.44137362  0.71564443  1
  F  F16  1  0.28260893  0.94137362  0.21564443  1
  F  F17  1  0.71739107  0.05862638  0.21564443  1
  F  F18  1  0.21739107  0.44137362  0.28435557  1
  F  F19  1  0.78260893  0.55862638  0.28435557  1
  F  F20  1  0.89506578  0.21854104  0.00000000  1
  F  F21  1  0.10493422  0.78145896  -0.00000000  1
  F  F22  1  0.60493422  0.71854104  0.50000000  1
  F  F23  1  0.39506578  0.28145896  0.50000000  1
  F  F24  1  0.00000000  0.50000000  0.00000000  1
  F  F25  1  0.50000000  0.00000000  0.50000000  1
  F  F26  1  0.15083727  0.10058828  0.82170151  1
  F  F27  1  0.84916273  0.89941172  0.82170151  1
  F  F28  1  0.34916273  0.60058828  0.67829849  1
  F  F29  1  0.65083727  0.39941172  0.67829849  1
  F  F30  1  0.84916273  0.89941172  0.17829849  1
  F  F31  1  0.15083727  0.10058828  0.17829849  1
  F  F32  1  0.65083727  0.39941172  0.32170151  1
  F  F33  1  0.34916273  0.60058828  0.32170151  1
  F  F34  1  0.84240993  0.97942648  0.45024885  1
  F  F35  1  0.15759007  0.02057352  0.45024885  1
  F  F36  1  0.65759007  0.47942648  0.04975115  1
  F  F37  1  0.34240993  0.52057352  0.04975115  1
  F  F38  1  0.15759007  0.02057352  0.54975115  1
  F  F39  1  0.84240993  0.97942648  0.54975115  1
  F  F40  1  0.34240993  0.52057352  0.95024885  1
  F  F41  1  0.65759007  0.47942648  0.95024885  1
  F  F42  1  0.53217313  0.23501705  -0.00000000  1
  F  F43  1  0.46782687  0.76498295  -0.00000000  1
  F  F44  1  0.96782687  0.73501705  0.50000000  1
  F  F45  1  0.03217313  0.26498295  0.50000000  1
  F  F46  1  0.00000000  0.00000000  0.50000000  1
  F  F47  1  0.50000000  0.50000000  0.00000000  1
  Li  Li48  1  0.00000000  0.50000000  0.37437516  1
  Li  Li49  1  0.50000000  0.00000000  0.12562484  1
  Li  Li50  1  0.00000000  0.50000000  0.62562484  1
  Li  Li51  1  0.50000000  0.00000000  0.87437516  1
  Li  Li52  1  0.60659275  0.60651583  -0.00000000  1
  Li  Li53  1  0.39340725  0.39348417  -0.00000000  1
  Li  Li54  1  0.89340725  0.10651583  0.50000000  1
  Li  Li55  1  0.10659275  0.89348417  0.50000000  1
  Si  Si56  1  0.01126929  0.94303374  -0.00000000  1
  Si  Si57  1  0.98873071  0.05696626  0.00000000  1
  Si  Si58  1  0.48873071  0.44303374  0.50000000  1
  Si  Si59  1  0.51126929  0.55696626  0.50000000  1
  Si  Si60  1  0.48493258  0.09230439  0.38485419  1
  Si  Si61  1  -0.48493258  -0.09230439  0.38485419  1
  Si  Si62  1  0.01506742  0.59230439  0.11514581  1
  Si  Si63  1  0.98493258  0.40769561  0.11514581  1
  Si  Si64  1  -0.48493258  -0.09230439  -0.38485419  1
  Si  Si65  1  0.48493258  0.09230439  -0.38485419  1
  Si  Si66  1  0.98493258  0.40769561  0.88485419  1
  Si  Si67  1  0.01506742  0.59230439  0.88485419  1
  Si  Si68  1  0.00000000  0.50000000  0.88848111  1
  Si  Si69  1  0.50000000  0.00000000  0.61151889  1
  Si  Si70  1  0.00000000  0.50000000  0.11151889  1
  Si  Si71  1  0.50000000  0.00000000  0.38848111  1
  Te  Te72  1  0.30598845  0.37712231  0.65912391  1
  Te  Te73  1  0.69401155  0.62287769  0.65912391  1
  Te  Te74  1  0.19401155  0.87712231  0.84087609  1
  Te  Te75  1  0.80598845  0.12287769  0.84087609  1
  Te  Te76  1  0.69401155  0.62287769  0.34087609  1
  Te  Te77  1  0.30598845  0.37712231  0.34087609  1
  Te  Te78  1  0.80598845  0.12287769  0.15912391  1
  Te  Te79  1  0.19401155  0.87712231  0.15912391  1
  Te  Te80  1  0.71667187  0.41318774  -0.00000000  1
  Te  Te81  1  0.28332813  0.58681226  0.00000000  1
  Te  Te82  1  0.78332813  0.91318774  0.50000000  1
  Te  Te83  1  0.21667187  0.08681226  0.50000000  1
