# generated using pymatgen
data_Li2O
_symmetry_space_group_name_H-M   'P 1'
_cell_length_a   21.52697110
_cell_length_b   6.26154001
_cell_length_c   12.31232369
_cell_angle_alpha   90.00000000
_cell_angle_beta   90.00000000
_cell_angle_gamma   90.00000000
_symmetry_Int_Tables_number   1
_chemical_formula_structural   Li2O
_chemical_formula_sum   'Li64 O32'
_cell_volume   1659.60262180
_cell_formula_units_Z   32
loop_
 _symmetry_equiv_pos_site_id
 _symmetry_equiv_pos_as_xyz
  1  'x, y, z'
loop_
 _atom_site_type_symbol
 _atom_site_label
 _atom_site_symmetry_multiplicity
 _atom_site_fract_x
 _atom_site_fract_y
 _atom_site_fract_z
 _atom_site_occupancy
  Li  Li0  1  0.82536590  0.39230177  0.32372124  1
  Li  Li1  1  -0.82536590  -0.39230177  0.32372124  1
  Li  Li2  1  -0.32536590  0.89230177  0.17627876  1
  Li  Li3  1  1.32536590  0.10769823  0.17627876  1
  Li  Li4  1  -0.82536590  -0.39230177  -0.32372124  1
  Li  Li5  1  0.82536590  0.39230177  -0.32372124  1
  Li  Li6  1  1.32536590  0.10769823  0.82372124  1
  Li  Li7  1  -0.32536590  0.89230177  0.82372124  1
  Li  Li8  1  0.00000000  0.50000000  0.50000000  1
  Li  Li9  1  0.50000000  0.00000000  0.00000000  1
  Li  Li10  1  0.79453271  0.95037658  0.09231034  1
  Li  Li11  1  0.20546729  0.04962342  0.09231034  1
  Li  Li12  1  0.70546729  0.45037658  0.40768966  1
  Li  Li13  1  0.29453271  0.54962342  0.40768966  1
  Li  Li14  1  0.20546729  0.04962342  0.90768966  1
  Li  Li15  1  0.79453271  0.95037658  0.90768966  1
  Li  Li16  1  0.29453271  0.54962342  0.59231034  1
  Li  Li17  1  0.70546729  0.45037658  0.59231034  1
  Li  Li18  1  0.03110231  0.59616492  -0.00000000  1
  Li  Li19  1  0.96889769  0.40383508  0.00000000  1
  Li  Li20  1  0.46889769  0.09616492  0.50000000  1
  Li  Li21  1  0.53110231  0.90383508  0.50000000  1
  Li  Li22  1  0.10191153  0.91315261  0.74175128  1
  Li  Li23  1  0.89808847  0.08684739  0.74175128  1
  Li  Li24  1  0.39808847  0.41315261  0.75824872  1
  Li  Li25  1  0.60191153  0.58684739  0.75824872  1
  Li  Li26  1  0.89808847  0.08684739  0.25824872  1
  Li  Li27  1  0.10191153  0.91315261  0.25824872  1
  Li  Li28  1  0.60191153  0.58684739  0.24175128  1
  Li  Li29  1  0.39808847  0.41315261  0.24175128  1
  Li  Li30  1  0.88229229  0.31575711  0.00000000  1
  Li  Li31  1  0.11770771  0.68424289  0.00000000  1
  Li  Li32  1  0.61770771  0.81575711  0.50000000  1
  Li  Li33  1  0.38229229  0.18424289  0.50000000  1
  Li  Li34  1  0.41919064  0.96105622  0.18882843  1
  Li  Li35  1  0.58080936  0.03894378  0.18882843  1
  Li  Li36  1  0.08080936  0.46105622  0.31117157  1
  Li  Li37  1  0.91919064  0.53894378  0.31117157  1
  Li  Li38  1  0.58080936  0.03894378  0.81117157  1
  Li  Li39  1  0.41919064  0.96105622  0.81117157  1
  Li  Li40  1  0.91919064  0.53894378  0.68882843  1
  Li  Li41  1  0.08080936  0.46105622  0.68882843  1
  Li  Li42  1  0.45488968  0.42594694  0.00000000  1
  Li  Li43  1  0.54511032  0.57405306  0.00000000  1
  Li  Li44  1  0.04511032  0.92594694  0.50000000  1
  Li  Li45  1  0.95488968  0.07405306  0.50000000  1
  Li  Li46  1  0.23989664  0.15664703  0.00000000  1
  Li  Li47  1  0.76010336  0.84335297  0.00000000  1
  Li  Li48  1  0.26010336  0.65664703  0.50000000  1
  Li  Li49  1  0.73989664  0.34335297  0.50000000  1
  Li  Li50  1  0.43762061  0.69306243  0.88050256  1
  Li  Li51  1  0.56237939  0.30693757  0.88050256  1
  Li  Li52  1  0.06237939  0.19306243  0.61949744  1
  Li  Li53  1  0.93762061  0.80693757  0.61949744  1
  Li  Li54  1  0.56237939  0.30693757  0.11949744  1
  Li  Li55  1  0.43762061  0.69306243  0.11949744  1
  Li  Li56  1  0.93762061  0.80693757  0.38050256  1
  Li  Li57  1  0.06237939  0.19306243  0.38050256  1
  Li  Li58  1  0.00000000  0.00000000  0.15500944  1
  Li  Li59  1  0.50000000  0.50000000  0.34499056  1
  Li  Li60  1  0.00000000  0.00000000  0.84499056  1
  Li  Li61  1  0.50000000  0.50000000  0.65500944  1
  Li  Li62  1  0.00000000  0.00000000  0.00000000  1
  Li  Li63  1  0.50000000  0.50000000  0.50000000  1
  O  O64  1  0.67420594  0.84848003  0.70102833  1
  O  O65  1  0.32579406  0.15151997  0.70102833  1
  O  O66  1  0.82579406  0.34848003  0.79897167  1
  O  O67  1  0.17420594  0.65151997  0.79897167  1
  O  O68  1  0.32579406  0.15151997  0.29897167  1
  O  O69  1  0.67420594  0.84848003  0.29897167  1
  O  O70  1  0.17420594  0.65151997  0.20102833  1
  O  O71  1  0.82579406  0.34848003  0.20102833  1
  O  O72  1  0.25817884  0.52724646  0.71500694  1
  O  O73  1  0.74182116  0.47275354  0.71500694  1
  O  O74  1  0.24182116  0.02724646  0.78499306  1
  O  O75  1  0.75817884  0.97275354  0.78499306  1
  O  O76  1  0.74182116  0.47275354  0.28499306  1
  O  O77  1  0.25817884  0.52724646  0.28499306  1
  O  O78  1  0.75817884  0.97275354  0.21500694  1
  O  O79  1  0.24182116  0.02724646  0.21500694  1
  O  O80  1  0.60648668  0.26560907  0.79121551  1
  O  O81  1  0.39351332  0.73439093  0.79121551  1
  O  O82  1  0.89351332  0.76560907  0.70878449  1
  O  O83  1  0.10648668  0.23439093  0.70878449  1
  O  O84  1  0.39351332  0.73439093  0.20878449  1
  O  O85  1  0.60648668  0.26560907  0.20878449  1
  O  O86  1  0.10648668  0.23439093  0.29121551  1
  O  O87  1  0.89351332  0.76560907  0.29121551  1
  O  O88  1  0.31811337  0.88085945  0.00000000  1
  O  O89  1  0.68188663  0.11914055  0.00000000  1
  O  O90  1  0.18188663  0.38085945  0.50000000  1
  O  O91  1  0.81811337  0.61914055  0.50000000  1
  O  O92  1  0.60750177  0.93618607  0.00000000  1
  O  O93  1  0.39249823  0.06381393  0.00000000  1
  O  O94  1  0.89249823  0.43618607  0.50000000  1
  O  O95  1  0.10750177  0.56381393  0.50000000  1
