# generated using pymatgen
data_LiF
_symmetry_space_group_name_H-M   'P 1'
_cell_length_a   14.97623095
_cell_length_b   14.97623095
_cell_length_c   3.86159283
_cell_angle_alpha   90.00000000
_cell_angle_beta   90.00000000
_cell_angle_gamma   120.00000000
_symmetry_Int_Tables_number   1
_chemical_formula_structural   LiF
_chemical_formula_sum   'Li27 F27'
_cell_volume   750.07064393
_cell_formula_units_Z   27
loop_
 _symmetry_equiv_pos_site_id
 _symmetry_equiv_pos_as_xyz
  1  'x, y, z'
loop_
 _atom_site_type_symbol
 _atom_site_label
 _atom_site_symmetry_multiplicity
 _atom_site_fract_x
 _atom_site_fract_y
 _atom_site_fract_z
 _atom_site_occupancy
  F  F0  1  0.84014734  0.63797153  0.50000000  1
  F  F1  1  0.36202847  0.20217581  0.50000000  1
  F  F2  1  0.79782419  0.15985266  0.50000000  1
  F  F3  1  0.63797153  0.84014734  0.50000000  1
  F  F4  1  0.20217581  0.36202847  0.50000000  1
  F  F5  1  0.15985266  0.79782419  0.50000000  1
  F  F6  1  0.83946861  0.80576907  0.67191846  1
  F  F7  1  -0.80576907  0.03369954  0.67191846  1
  F  F8  1  -0.03369954  -0.83946861  0.67191846  1
  F  F9  1  0.83946861  0.80576907  -0.67191846  1
  F  F10  1  -0.80576907  0.03369954  -0.67191846  1
  F  F11  1  -0.03369954  -0.83946861  -0.67191846  1
  F  F12  1  0.80576907  0.83946861  -0.67191846  1
  F  F13  1  0.03369954  -0.80576907  -0.67191846  1
  F  F14  1  -0.83946861  -0.03369954  -0.67191846  1
  F  F15  1  0.80576907  0.83946861  0.67191846  1
  F  F16  1  0.03369954  -0.80576907  0.67191846  1
  F  F17  1  -0.83946861  -0.03369954  0.67191846  1
  F  F18  1  0.15876764  0.03915989  0.00000000  1
  F  F19  1  0.96084011  0.11960775  0.00000000  1
  F  F20  1  0.88039225  0.84123236  -0.00000000  1
  F  F21  1  0.03915989  0.15876764  -0.00000000  1
  F  F22  1  0.11960775  0.96084011  0.00000000  1
  F  F23  1  0.84123236  0.88039225  -0.00000000  1
  F  F24  1  0.33333333  0.66666667  0.00000000  1
  F  F25  1  0.66666667  0.33333333  0.00000000  1
  F  F26  1  0.00000000  0.00000000  0.50000000  1
  Li  Li27  1  0.68957591  0.00000000  0.50000000  1
  Li  Li28  1  0.00000000  0.68957591  0.50000000  1
  Li  Li29  1  0.31042409  0.31042409  0.50000000  1
  Li  Li30  1  0.82941397  0.00000000  0.50000000  1
  Li  Li31  1  0.00000000  0.82941397  0.50000000  1
  Li  Li32  1  0.17058603  0.17058603  0.50000000  1
  Li  Li33  1  0.00000000  0.00000000  0.00000000  1
  Li  Li34  1  0.26985085  0.74852362  -0.00000000  1
  Li  Li35  1  0.25147638  0.52132723  -0.00000000  1
  Li  Li36  1  0.47867277  0.73014915  0.00000000  1
  Li  Li37  1  0.74852362  0.26985085  -0.00000000  1
  Li  Li38  1  0.52132723  0.25147638  -0.00000000  1
  Li  Li39  1  0.73014915  0.47867277  0.00000000  1
  Li  Li40  1  0.81385301  0.07284714  -0.00000000  1
  Li  Li41  1  0.92715286  0.74100586  -0.00000000  1
  Li  Li42  1  0.25899414  0.18614699  0.00000000  1
  Li  Li43  1  0.07284714  0.81385301  -0.00000000  1
  Li  Li44  1  0.74100586  0.92715286  -0.00000000  1
  Li  Li45  1  0.18614699  0.25899414  -0.00000000  1
  Li  Li46  1  0.53242672  0.00000000  -0.00000000  1
  Li  Li47  1  0.00000000  0.53242672  -0.00000000  1
  Li  Li48  1  0.46757328  0.46757328  -0.00000000  1
  Li  Li49  1  0.33333333  0.66666667  0.50000000  1
  Li  Li50  1  0.66666667  0.33333333  0.50000000  1
  Li  Li51  1  0.87940790  0.00000000  -0.00000000  1
  Li  Li52  1  0.00000000  0.87940790  -0.00000000  1
  Li  Li53  1  0.12059210  0.12059210  0.00000000  1
