# generated using pymatgen
data_LiF
_symmetry_space_group_name_H-M   'P 1'
_cell_length_a   5.73229912
_cell_length_b   9.11771815
_cell_length_c   11.41365282
_cell_angle_alpha   90.00000000
_cell_angle_beta   90.00000000
_cell_angle_gamma   90.00000000
_symmetry_Int_Tables_number   1
_chemical_formula_structural   LiF
_chemical_formula_sum   'Li18 F18'
_cell_volume   596.54013108
_cell_formula_units_Z   18
loop_
 _symmetry_equiv_pos_site_id
 _symmetry_equiv_pos_as_xyz
  1  'x, y, z'
loop_
 _atom_site_type_symbol
 _atom_site_label
 _atom_site_symmetry_multiplicity
 _atom_site_fract_x
 _atom_site_fract_y
 _atom_site_fract_z
 _atom_site_occupancy
  F  F0  1  0.00000000  0.50000000  0.50000000  1
  F  F1  1  0.50000000  0.00000000  0.50000000  1
  F  F2  1  0.21955001  0.67890988  0.00000000  1
  F  F3  1  0.78044999  0.32109012  0.00000000  1
  F  F4  1  0.28044999  0.17890988  0.00000000  1
  F  F5  1  0.71955001  0.82109012  0.00000000  1
  F  F6  1  0.51390234  0.10832571  0.27630271  1
  F  F7  1  -0.51390234  -0.10832571  0.27630271  1
  F  F8  1  -0.01390234  0.60832571  -0.27630271  1
  F  F9  1  1.01390234  0.39167429  -0.27630271  1
  F  F10  1  -0.51390234  -0.10832571  -0.27630271  1
  F  F11  1  0.51390234  0.10832571  -0.27630271  1
  F  F12  1  1.01390234  0.39167429  0.27630271  1
  F  F13  1  -0.01390234  0.60832571  0.27630271  1
  F  F14  1  0.00000000  0.00000000  0.35561900  1
  F  F15  1  0.50000000  0.50000000  0.64438100  1
  F  F16  1  0.00000000  0.00000000  0.64438100  1
  F  F17  1  0.50000000  0.50000000  0.35561900  1
  Li  Li18  1  0.00000000  0.00000000  0.00000000  1
  Li  Li19  1  0.50000000  0.50000000  0.00000000  1
  Li  Li20  1  0.70648749  0.88601214  0.28216543  1
  Li  Li21  1  0.29351251  0.11398786  0.28216543  1
  Li  Li22  1  0.79351251  0.38601214  0.71783457  1
  Li  Li23  1  0.20648749  0.61398786  0.71783457  1
  Li  Li24  1  0.29351251  0.11398786  0.71783457  1
  Li  Li25  1  0.70648749  0.88601214  0.71783457  1
  Li  Li26  1  0.20648749  0.61398786  0.28216543  1
  Li  Li27  1  0.79351251  0.38601214  0.28216543  1
  Li  Li28  1  0.00000000  0.00000000  0.50000000  1
  Li  Li29  1  0.50000000  0.50000000  0.50000000  1
  Li  Li30  1  0.41371198  0.74569852  0.00000000  1
  Li  Li31  1  0.58628802  0.25430148  0.00000000  1
  Li  Li32  1  0.08628802  0.24569852  0.00000000  1
  Li  Li33  1  0.91371198  0.75430148  0.00000000  1
  Li  Li34  1  0.00000000  0.50000000  0.00000000  1
  Li  Li35  1  0.50000000  0.00000000  0.00000000  1
