# generated using pymatgen
data_Li3Y2MoP3Se2
_symmetry_space_group_name_H-M   'P 1'
_cell_length_a   4.87326676
_cell_length_b   5.20455818
_cell_length_c   7.08211481
_cell_angle_alpha   94.95355683
_cell_angle_beta   100.52222703
_cell_angle_gamma   108.60578808
_symmetry_Int_Tables_number   1
_chemical_formula_structural   Li3Y2MoP3Se2
_chemical_formula_sum   'Li3 Y2 Mo1 P3 Se2'
_cell_volume   165.34651440
_cell_formula_units_Z   1
loop_
 _symmetry_equiv_pos_site_id
 _symmetry_equiv_pos_as_xyz
  1  'x, y, z'
loop_
 _atom_site_type_symbol
 _atom_site_label
 _atom_site_symmetry_multiplicity
 _atom_site_fract_x
 _atom_site_fract_y
 _atom_site_fract_z
 _atom_site_occupancy
  Se  Se0  1  0.12500000  0.00000000  0.25000000  1
  Se  Se1  1  0.00000000  0.00000000  0.00000000  1
  Y  Y2  1  0.37500000  0.00000000  0.25000000  1
  Y  Y3  1  0.25000000  0.25000000  0.25000000  1
  P  P4  1  0.00000000  0.25000000  0.12500000  1
  P  P5  1  0.36237069  0.96505551  0.36155717  1
  P  P6  1  0.41974863  0.85472467  0.55070991  1
  Mo  Mo7  1  0.79710306  0.55194510  0.72859509  1
  Li  Li8  1  0.39042952  0.94091707  0.84804410  1
  Li  Li9  1  0.52578861  0.45512433  0.01973258  1
  Li  Li10  1  0.23132088  0.93501021  0.28038907  1
