# generated using pymatgen
data_K4Li6Ti(Se2F3)2
_symmetry_space_group_name_H-M   'P 1'
_cell_length_a   10.83700459
_cell_length_b   15.19257741
_cell_length_c   11.42023878
_cell_angle_alpha   90.00000000
_cell_angle_beta   90.00000000
_cell_angle_gamma   90.00000000
_symmetry_Int_Tables_number   1
_chemical_formula_structural   K4Li6Ti(Se2F3)2
_chemical_formula_sum   'K16 Li24 Ti4 Se16 F24'
_cell_volume   1880.25130938
_cell_formula_units_Z   4
loop_
 _symmetry_equiv_pos_site_id
 _symmetry_equiv_pos_as_xyz
  1  'x, y, z'
loop_
 _atom_site_type_symbol
 _atom_site_label
 _atom_site_symmetry_multiplicity
 _atom_site_fract_x
 _atom_site_fract_y
 _atom_site_fract_z
 _atom_site_occupancy
  F  F0  1  0.82744064  0.58157805  0.86293452  1
  F  F1  1  0.67255936  0.41842195  0.36293452  1
  F  F2  1  0.17255936  0.08157805  0.13706548  1
  F  F3  1  0.32744064  0.91842195  0.63706548  1
  F  F4  1  0.17255936  0.41842195  0.13706548  1
  F  F5  1  0.32744064  0.58157805  0.63706548  1
  F  F6  1  0.82744064  0.91842195  0.86293452  1
  F  F7  1  0.67255936  0.08157805  0.36293452  1
  F  F8  1  0.69746000  0.25000000  0.52249535  1
  F  F9  1  0.80254000  0.75000000  0.02249535  1
  F  F10  1  0.30254000  0.75000000  0.47750465  1
  F  F11  1  0.19746000  0.25000000  0.97750465  1
  F  F12  1  0.88069361  0.03014584  0.04964574  1
  F  F13  1  0.61930639  0.96985416  0.54964574  1
  F  F14  1  0.11930639  0.53014584  0.95035426  1
  F  F15  1  0.38069361  0.46985416  0.45035426  1
  F  F16  1  0.11930639  0.96985416  0.95035426  1
  F  F17  1  0.38069361  0.03014584  0.45035426  1
  F  F18  1  0.88069361  0.46985416  0.04964574  1
  F  F19  1  0.61930639  0.53014584  0.54964574  1
  F  F20  1  0.00000000  0.00000000  0.00000000  1
  F  F21  1  0.50000000  -0.00000000  0.50000000  1
  F  F22  1  0.00000000  0.50000000  0.00000000  1
  F  F23  1  0.50000000  0.50000000  0.50000000  1
  K  K24  1  0.83452622  0.01007150  0.61090096  1
  K  K25  1  0.66547378  0.98992850  0.11090096  1
  K  K26  1  0.16547378  0.51007150  0.38909904  1
  K  K27  1  0.33452622  0.48992850  0.88909904  1
  K  K28  1  0.16547378  0.98992850  0.38909904  1
  K  K29  1  0.33452622  0.01007150  0.88909904  1
  K  K30  1  0.83452622  0.48992850  0.61090096  1
  K  K31  1  0.66547378  0.51007150  0.11090096  1
  K  K32  1  0.37043706  0.25000000  0.62531071  1
  K  K33  1  0.12956294  0.75000000  0.12531071  1
  K  K34  1  0.62956294  0.75000000  0.37468929  1
  K  K35  1  0.87043706  0.25000000  0.87468929  1
  K  K36  1  0.69578951  0.25000000  0.40137387  1
  K  K37  1  0.80421049  0.75000000  0.90137387  1
  K  K38  1  0.30421049  0.75000000  0.59862613  1
  K  K39  1  0.19578951  0.25000000  0.09862613  1
  Li  Li40  1  0.97733000  0.70039206  0.74080134  1
  Li  Li41  1  -0.47733000  -0.70039206  1.24080134  1
  Li  Li42  1  -0.97733000  1.20039206  -0.74080134  1
  Li  Li43  1  1.47733000  -0.20039206  -0.24080134  1
  Li  Li44  1  -0.97733000  -0.70039206  -0.74080134  1
  Li  Li45  1  1.47733000  0.70039206  -0.24080134  1
  Li  Li46  1  0.97733000  -0.20039206  0.74080134  1
  Li  Li47  1  -0.47733000  1.20039206  1.24080134  1
  Li  Li48  1  0.47532298  0.25000000  0.48209485  1
  Li  Li49  1  0.02467702  0.75000000  0.98209485  1
  Li  Li50  1  0.52467702  0.75000000  0.51790515  1
  Li  Li51  1  0.97532298  0.25000000  0.01790515  1
  Li  Li52  1  0.00000000  0.00000000  0.50000000  1
  Li  Li53  1  0.50000000  -0.00000000  0.00000000  1
  Li  Li54  1  0.00000000  0.50000000  0.50000000  1
  Li  Li55  1  0.50000000  0.50000000  0.00000000  1
  Li  Li56  1  0.96442053  0.81705573  0.26519562  1
  Li  Li57  1  0.53557947  0.18294427  0.76519562  1
  Li  Li58  1  0.03557947  0.31705573  0.73480438  1
  Li  Li59  1  0.46442053  0.68294427  0.23480438  1
  Li  Li60  1  0.03557947  0.18294427  0.73480438  1
  Li  Li61  1  0.46442053  0.81705573  0.23480438  1
  Li  Li62  1  0.96442053  0.68294427  0.26519562  1
  Li  Li63  1  0.53557947  0.31705573  0.76519562  1
  Se  Se64  1  0.01736242  0.48690356  0.20871104  1
  Se  Se65  1  0.48263758  0.51309644  0.70871104  1
  Se  Se66  1  0.98263758  0.98690356  0.79128896  1
  Se  Se67  1  0.51736242  0.01309644  0.29128896  1
  Se  Se68  1  0.98263758  0.51309644  0.79128896  1
  Se  Se69  1  0.51736242  0.48690356  0.29128896  1
  Se  Se70  1  0.01736242  0.01309644  0.20871104  1
  Se  Se71  1  0.48263758  0.98690356  0.70871104  1
  Se  Se72  1  0.35247526  0.17470865  0.84781513  1
  Se  Se73  1  0.14752474  0.82529135  0.34781513  1
  Se  Se74  1  0.64752474  0.67470865  0.15218487  1
  Se  Se75  1  0.85247526  0.32529135  0.65218487  1
  Se  Se76  1  0.64752474  0.82529135  0.15218487  1
  Se  Se77  1  0.85247526  0.17470865  0.65218487  1
  Se  Se78  1  0.35247526  0.32529135  0.84781513  1
  Se  Se79  1  0.14752474  0.67470865  0.34781513  1
  Ti  Ti80  1  0.81050181  0.25000000  0.04289153  1
  Ti  Ti81  1  0.68949819  0.75000000  0.54289153  1
  Ti  Ti82  1  0.18949819  0.75000000  0.95710847  1
  Ti  Ti83  1  0.31050181  0.25000000  0.45710847  1
