# generated using pymatgen
data_LiF
_symmetry_space_group_name_H-M   'P 1'
_cell_length_a   7.73063125
_cell_length_b   7.73063125
_cell_length_c   4.05786668
_cell_angle_alpha   90.00000000
_cell_angle_beta   90.00000000
_cell_angle_gamma   120.00000000
_symmetry_Int_Tables_number   1
_chemical_formula_structural   LiF
_chemical_formula_sum   'Li10 F10'
_cell_volume   210.01887196
_cell_formula_units_Z   10
loop_
 _symmetry_equiv_pos_site_id
 _symmetry_equiv_pos_as_xyz
  1  'x, y, z'
loop_
 _atom_site_type_symbol
 _atom_site_label
 _atom_site_symmetry_multiplicity
 _atom_site_fract_x
 _atom_site_fract_y
 _atom_site_fract_z
 _atom_site_occupancy
  F  F0  1  0.94051968  0.30329309  0.88928304  1
  F  F1  1  -0.30329309  0.63722660  0.88928304  1
  F  F2  1  -0.63722660  -0.94051968  0.88928304  1
  F  F3  1  -0.30329309  -0.94051968  -0.88928304  1
  F  F4  1  -0.63722660  0.30329309  -0.88928304  1
  F  F5  1  0.94051968  0.63722660  -0.88928304  1
  F  F6  1  0.86956279  0.13043721  0.00000000  1
  F  F7  1  0.86956279  0.73912559  -0.00000000  1
  F  F8  1  0.26087441  0.13043721  -0.00000000  1
  F  F9  1  0.33333333  0.66666667  0.50000000  1
  Li  Li10  1  0.00000000  0.00000000  0.50000000  1
  Li  Li11  1  0.26239357  0.73760643  0.50000000  1
  Li  Li12  1  0.26239357  0.52478714  0.50000000  1
  Li  Li13  1  0.47521286  0.73760643  0.50000000  1
  Li  Li14  1  0.82016025  0.17983975  0.50000000  1
  Li  Li15  1  0.82016025  0.64032050  0.50000000  1
  Li  Li16  1  0.35967950  0.17983975  0.50000000  1
  Li  Li17  1  0.15852326  0.84147674  0.50000000  1
  Li  Li18  1  0.15852326  0.31704653  0.50000000  1
  Li  Li19  1  0.68295347  0.84147674  0.50000000  1
