# generated using pymatgen
data_Li3TiIOF
_symmetry_space_group_name_H-M   'P 1'
_cell_length_a   3.61354978
_cell_length_b   3.17045489
_cell_length_c   4.76416993
_cell_angle_alpha   93.97436167
_cell_angle_beta   100.02693251
_cell_angle_gamma   94.23628344
_symmetry_Int_Tables_number   1
_chemical_formula_structural   Li3TiIOF
_chemical_formula_sum   'Li3 Ti1 I1 O1 F1'
_cell_volume   53.41268604
_cell_formula_units_Z   1
loop_
 _symmetry_equiv_pos_site_id
 _symmetry_equiv_pos_as_xyz
  1  'x, y, z'
loop_
 _atom_site_type_symbol
 _atom_site_label
 _atom_site_symmetry_multiplicity
 _atom_site_fract_x
 _atom_site_fract_y
 _atom_site_fract_z
 _atom_site_occupancy
  F  F0  1  0.00000000  0.00000000  0.00000000  1
  O  O1  1  0.50000000  0.50000000  0.50000000  1
  Ti  Ti2  1  0.25000000  0.25000000  0.25000000  1
  I  I3  1  0.75000000  0.25000000  0.00000000  1
  Li  Li4  1  0.25000000  0.75000000  0.50000000  1
  Li  Li5  1  0.82820788  0.39731090  0.47092677  1
  Li  Li6  1  0.77749672  0.17787464  0.75580085  1
