# generated using pymatgen
data_Li2Y2As2P4Se
_symmetry_space_group_name_H-M   'P 1'
_cell_length_a   4.57986897
_cell_length_b   4.72570195
_cell_length_c   7.08876668
_cell_angle_alpha   95.53926429
_cell_angle_beta   102.06336603
_cell_angle_gamma   112.24902312
_symmetry_Int_Tables_number   1
_chemical_formula_structural   Li2Y2As2P4Se
_chemical_formula_sum   'Li2 Y2 As2 P4 Se1'
_cell_volume   136.22398795
_cell_formula_units_Z   1
loop_
 _symmetry_equiv_pos_site_id
 _symmetry_equiv_pos_as_xyz
  1  'x, y, z'
loop_
 _atom_site_type_symbol
 _atom_site_label
 _atom_site_symmetry_multiplicity
 _atom_site_fract_x
 _atom_site_fract_y
 _atom_site_fract_z
 _atom_site_occupancy
  Se  Se0  1  0.12500000  0.00000000  0.25000000  1
  Y  Y1  1  0.00000000  0.00000000  0.00000000  1
  Y  Y2  1  0.37500000  0.00000000  0.25000000  1
  P  P3  1  0.25000000  0.25000000  0.25000000  1
  P  P4  1  0.00000000  0.25000000  0.12500000  1
  P  P5  1  0.40968828  0.60238148  0.40156990  1
  P  P6  1  0.31180498  0.27463718  0.88915889  1
  As  As7  1  0.78516462  0.35144628  0.03446247  1
  As  As8  1  0.89680701  0.35047128  0.09041023  1
  Li  Li9  1  0.14582096  0.31124164  0.57251567  1
  Li  Li10  1  0.82383217  0.45933838  0.29129171  1
