# generated using pymatgen
data_Li3Y2As4P2Se
_symmetry_space_group_name_H-M   'P 1'
_cell_length_a   5.62489991
_cell_length_b   5.76288887
_cell_length_c   7.01347733
_cell_angle_alpha   92.72709554
_cell_angle_beta   96.41394341
_cell_angle_gamma   101.52706903
_symmetry_Int_Tables_number   1
_chemical_formula_structural   Li3Y2As4P2Se
_chemical_formula_sum   'Li3 Y2 As4 P2 Se1'
_cell_volume   220.79560224
_cell_formula_units_Z   1
loop_
 _symmetry_equiv_pos_site_id
 _symmetry_equiv_pos_as_xyz
  1  'x, y, z'
loop_
 _atom_site_type_symbol
 _atom_site_label
 _atom_site_symmetry_multiplicity
 _atom_site_fract_x
 _atom_site_fract_y
 _atom_site_fract_z
 _atom_site_occupancy
  Y  Y0  1  0.12500000  0.00000000  0.25000000  1
  Y  Y1  1  0.00000000  0.00000000  0.00000000  1
  P  P2  1  0.37500000  0.00000000  0.25000000  1
  P  P3  1  0.25000000  0.25000000  0.25000000  1
  Se  Se4  1  0.00000000  0.25000000  0.12500000  1
  As  As5  1  0.50515662  0.42313323  0.69487457  1
  As  As6  1  0.19956465  0.59078482  0.55343843  1
  As  As7  1  0.80651567  0.47616322  0.35323815  1
  As  As8  1  0.67800249  0.92023171  0.29821364  1
  Li  Li9  1  0.56918503  0.27126167  0.39634354  1
  Li  Li10  1  0.88362490  0.37896681  0.48951101  1
  Li  Li11  1  0.27115041  0.08107176  0.45928951  1
