# generated using pymatgen
data_Li3Y2P3Se
_symmetry_space_group_name_H-M   'P 1'
_cell_length_a   5.43656285
_cell_length_b   5.55489151
_cell_length_c   6.96434210
_cell_angle_alpha   93.37001087
_cell_angle_beta   97.64457605
_cell_angle_gamma   103.90473886
_symmetry_Int_Tables_number   1
_chemical_formula_structural   Li3Y2P3Se
_chemical_formula_sum   'Li3 Y2 P3 Se1'
_cell_volume   201.43997274
_cell_formula_units_Z   1
loop_
 _symmetry_equiv_pos_site_id
 _symmetry_equiv_pos_as_xyz
  1  'x, y, z'
loop_
 _atom_site_type_symbol
 _atom_site_label
 _atom_site_symmetry_multiplicity
 _atom_site_fract_x
 _atom_site_fract_y
 _atom_site_fract_z
 _atom_site_occupancy
  Se  Se0  1  0.12500000  0.00000000  0.25000000  1
  P  P1  1  0.00000000  0.00000000  0.00000000  1
  P  P2  1  0.37500000  0.00000000  0.25000000  1
  P  P3  1  0.25000000  0.25000000  0.25000000  1
  Li  Li4  1  0.00000000  0.25000000  0.12500000  1
  Li  Li5  1  0.04037009  0.57129762  0.48918254  1
  Li  Li6  1  0.71013219  0.28230356  0.27256486  1
  Y  Y7  1  0.18895004  0.47109898  0.25215882  1
  Y  Y8  1  0.44027275  0.77477639  0.56654796  1
