# generated using pymatgen
data_Li2Y2As2P3Se
_symmetry_space_group_name_H-M   'P 1'
_cell_length_a   5.27696337
_cell_length_b   5.46253834
_cell_length_c   6.80611428
_cell_angle_alpha   93.80863382
_cell_angle_beta   96.49889516
_cell_angle_gamma   102.48192171
_symmetry_Int_Tables_number   1
_chemical_formula_structural   Li2Y2As2P3Se
_chemical_formula_sum   'Li2 Y2 As2 P3 Se1'
_cell_volume   189.48527288
_cell_formula_units_Z   1
loop_
 _symmetry_equiv_pos_site_id
 _symmetry_equiv_pos_as_xyz
  1  'x, y, z'
loop_
 _atom_site_type_symbol
 _atom_site_label
 _atom_site_symmetry_multiplicity
 _atom_site_fract_x
 _atom_site_fract_y
 _atom_site_fract_z
 _atom_site_occupancy
  Se  Se0  1  0.00000000  0.00000000  0.00000000  1
  Y  Y1  1  0.50000000  0.50000000  0.50000000  1
  Y  Y2  1  0.50000000  0.50000000  0.00000000  1
  P  P3  1  0.50000000  0.00000000  0.50000000  1
  P  P4  1  0.00000000  0.50000000  0.50000000  1
  P  P5  1  0.04753504  0.81300668  0.31292455  1
  As  As6  1  0.96157179  0.61562178  0.68086939  1
  As  As7  1  0.58873101  0.31881711  0.75800210  1
  Li  Li8  1  0.13969448  0.12545750  0.71729343  1
  Li  Li9  1  0.70008783  0.52681484  0.43202720  1
