# generated using pymatgen
data_LiF
_symmetry_space_group_name_H-M   'P 1'
_cell_length_a   9.16456116
_cell_length_b   9.16456116
_cell_length_c   22.54059282
_cell_angle_alpha   90.00000000
_cell_angle_beta   90.00000000
_cell_angle_gamma   120.00000000
_symmetry_Int_Tables_number   1
_chemical_formula_structural   LiF
_chemical_formula_sum   'Li44 F44'
_cell_volume   1639.52979355
_cell_formula_units_Z   44
loop_
 _symmetry_equiv_pos_site_id
 _symmetry_equiv_pos_as_xyz
  1  'x, y, z'
loop_
 _atom_site_type_symbol
 _atom_site_label
 _atom_site_symmetry_multiplicity
 _atom_site_fract_x
 _atom_site_fract_y
 _atom_site_fract_z
 _atom_site_occupancy
  F  F0  1  0.33333333  0.66666667  0.25000000  1
  F  F1  1  0.66666667  0.33333333  0.75000000  1
  F  F2  1  0.70894160  0.41788320  0.16797260  1
  F  F3  1  0.58211680  0.29105840  0.16797260  1
  F  F4  1  0.70894160  0.29105840  0.16797260  1
  F  F5  1  0.29105840  0.58211680  0.66797260  1
  F  F6  1  0.41788320  0.70894160  0.66797260  1
  F  F7  1  0.29105840  0.70894160  0.66797260  1
  F  F8  1  0.41788320  0.70894160  0.83202740  1
  F  F9  1  0.29105840  0.58211680  0.83202740  1
  F  F10  1  0.29105840  0.70894160  0.83202740  1
  F  F11  1  0.58211680  0.29105840  0.33202740  1
  F  F12  1  0.70894160  0.41788320  0.33202740  1
  F  F13  1  0.70894160  0.29105840  0.33202740  1
  F  F14  1  0.82761564  0.87740515  0.68193256  1
  F  F15  1  0.12259485  0.95021049  0.68193256  1
  F  F16  1  0.04978951  0.17238436  0.68193256  1
  F  F17  1  0.17238436  0.12259485  0.18193256  1
  F  F18  1  0.87740515  0.04978951  0.18193256  1
  F  F19  1  0.95021049  0.82761564  0.18193256  1
  F  F20  1  0.87740515  0.82761564  0.31806744  1
  F  F21  1  0.95021049  0.12259485  0.31806744  1
  F  F22  1  0.17238436  0.04978951  0.31806744  1
  F  F23  1  0.12259485  0.17238436  0.81806744  1
  F  F24  1  0.04978951  0.87740515  0.81806744  1
  F  F25  1  0.82761564  0.95021049  0.81806744  1
  F  F26  1  0.17238436  0.12259485  0.31806744  1
  F  F27  1  0.87740515  0.04978951  0.31806744  1
  F  F28  1  0.95021049  0.82761564  0.31806744  1
  F  F29  1  0.82761564  0.87740515  0.81806744  1
  F  F30  1  0.12259485  0.95021049  0.81806744  1
  F  F31  1  0.04978951  0.17238436  0.81806744  1
  F  F32  1  0.12259485  0.17238436  0.68193256  1
  F  F33  1  0.04978951  0.87740515  0.68193256  1
  F  F34  1  0.82761564  0.95021049  0.68193256  1
  F  F35  1  0.87740515  0.82761564  0.18193256  1
  F  F36  1  0.95021049  0.12259485  0.18193256  1
  F  F37  1  0.17238436  0.04978951  0.18193256  1
  F  F38  1  0.82690524  0.65381048  0.25000000  1
  F  F39  1  0.34618952  0.17309476  0.25000000  1
  F  F40  1  0.82690524  0.17309476  0.25000000  1
  F  F41  1  0.17309476  0.34618952  0.75000000  1
  F  F42  1  0.65381048  0.82690524  0.75000000  1
  F  F43  1  0.17309476  0.82690524  0.75000000  1
  Li  Li44  1  0.33333333  0.66666667  0.75000000  1
  Li  Li45  1  0.66666667  0.33333333  0.25000000  1
  Li  Li46  1  0.88796145  0.32452480  0.42923107  1
  Li  Li47  1  -0.32452480  0.56343665  0.42923107  1
  Li  Li48  1  -0.56343665  -0.88796145  0.42923107  1
  Li  Li49  1  -0.88796145  -0.32452480  0.92923107  1
  Li  Li50  1  0.32452480  -0.56343665  0.92923107  1
  Li  Li51  1  0.56343665  0.88796145  0.92923107  1
  Li  Li52  1  0.32452480  0.88796145  -0.42923107  1
  Li  Li53  1  0.56343665  -0.32452480  -0.42923107  1
  Li  Li54  1  -0.88796145  -0.56343665  -0.42923107  1
  Li  Li55  1  -0.32452480  -0.88796145  0.07076893  1
  Li  Li56  1  -0.56343665  0.32452480  0.07076893  1
  Li  Li57  1  0.88796145  0.56343665  0.07076893  1
  Li  Li58  1  -0.88796145  -0.32452480  -0.42923107  1
  Li  Li59  1  0.32452480  -0.56343665  -0.42923107  1
  Li  Li60  1  0.56343665  0.88796145  -0.42923107  1
  Li  Li61  1  0.88796145  0.32452480  0.07076893  1
  Li  Li62  1  -0.32452480  0.56343665  0.07076893  1
  Li  Li63  1  -0.56343665  -0.88796145  0.07076893  1
  Li  Li64  1  -0.32452480  -0.88796145  0.42923107  1
  Li  Li65  1  -0.56343665  0.32452480  0.42923107  1
  Li  Li66  1  0.88796145  0.56343665  0.42923107  1
  Li  Li67  1  0.32452480  0.88796145  0.92923107  1
  Li  Li68  1  0.56343665  -0.32452480  0.92923107  1
  Li  Li69  1  -0.88796145  -0.56343665  0.92923107  1
  Li  Li70  1  0.17776267  -0.00000000  -0.00000000  1
  Li  Li71  1  0.00000000  0.17776267  -0.00000000  1
  Li  Li72  1  0.82223733  0.82223733  -0.00000000  1
  Li  Li73  1  0.82223733  -0.00000000  0.50000000  1
  Li  Li74  1  0.00000000  0.82223733  0.50000000  1
  Li  Li75  1  0.17776267  0.17776267  0.50000000  1
  Li  Li76  1  0.82223733  -0.00000000  -0.00000000  1
  Li  Li77  1  0.00000000  0.82223733  -0.00000000  1
  Li  Li78  1  0.17776267  0.17776267  -0.00000000  1
  Li  Li79  1  0.17776267  -0.00000000  0.50000000  1
  Li  Li80  1  0.00000000  0.17776267  0.50000000  1
  Li  Li81  1  0.82223733  0.82223733  0.50000000  1
  Li  Li82  1  0.00000000  0.00000000  0.80095251  1
  Li  Li83  1  0.00000000  0.00000000  0.30095251  1
  Li  Li84  1  0.00000000  0.00000000  0.19904749  1
  Li  Li85  1  0.00000000  0.00000000  0.69904749  1
  Li  Li86  1  0.00000000  0.00000000  0.00000000  1
  Li  Li87  1  0.00000000  0.00000000  0.50000000  1
