# generated using pymatgen
data_LiF
_symmetry_space_group_name_H-M   'P 1'
_cell_length_a   5.53774123
_cell_length_b   5.53774123
_cell_length_c   42.35407720
_cell_angle_alpha   90.00000000
_cell_angle_beta   90.00000000
_cell_angle_gamma   120.00000000
_symmetry_Int_Tables_number   1
_chemical_formula_structural   LiF
_chemical_formula_sum   'Li41 F41'
_cell_volume   1124.84108604
_cell_formula_units_Z   41
loop_
 _symmetry_equiv_pos_site_id
 _symmetry_equiv_pos_as_xyz
  1  'x, y, z'
loop_
 _atom_site_type_symbol
 _atom_site_label
 _atom_site_symmetry_multiplicity
 _atom_site_fract_x
 _atom_site_fract_y
 _atom_site_fract_z
 _atom_site_occupancy
  F  F0  1  0.51807509  0.43989605  0.13078331  1
  F  F1  1  0.56010395  0.07817904  0.13078331  1
  F  F2  1  0.92182096  0.48192491  0.13078331  1
  F  F3  1  0.56010395  0.48192491  0.86921669  1
  F  F4  1  0.92182096  0.43989605  0.86921669  1
  F  F5  1  0.51807509  0.07817904  0.86921669  1
  F  F6  1  0.56532388  0.43467612  0.50000000  1
  F  F7  1  0.56532388  0.13064775  0.50000000  1
  F  F8  1  0.86935225  0.43467612  0.50000000  1
  F  F9  1  0.00000000  0.00000000  0.50000000  1
  F  F10  1  0.00000000  0.00000000  0.98432161  1
  F  F11  1  0.00000000  0.00000000  0.01567839  1
  F  F12  1  0.66666667  0.33333333  0.18930952  1
  F  F13  1  0.66666667  0.33333333  0.81069048  1
  F  F14  1  0.09338698  0.48048105  0.72950647  1
  F  F15  1  0.51951895  0.61290593  0.72950647  1
  F  F16  1  0.38709407  0.90661302  0.72950647  1
  F  F17  1  0.51951895  0.90661302  0.27049353  1
  F  F18  1  0.38709407  0.48048105  0.27049353  1
  F  F19  1  0.09338698  0.61290593  0.27049353  1
  F  F20  1  0.87898869  0.12101131  0.50000000  1
  F  F21  1  0.87898869  0.75797738  0.50000000  1
  F  F22  1  0.24202262  0.12101131  0.50000000  1
  F  F23  1  0.27793879  0.76549375  0.80855296  1
  F  F24  1  0.23450625  0.51244504  0.80855296  1
  F  F25  1  0.48755496  0.72206121  0.80855296  1
  F  F26  1  0.23450625  0.72206121  0.19144704  1
  F  F27  1  0.48755496  0.76549375  0.19144704  1
  F  F28  1  0.27793879  0.51244504  0.19144704  1
  F  F29  1  0.17829853  0.07496115  0.17233358  1
  F  F30  1  0.92503885  0.10333737  0.17233358  1
  F  F31  1  0.89666263  0.82170147  0.17233358  1
  F  F32  1  0.92503885  0.82170147  0.82766642  1
  F  F33  1  0.89666263  0.07496115  0.82766642  1
  F  F34  1  0.17829853  0.10333737  0.82766642  1
  F  F35  1  0.03722464  0.61541809  0.10382221  1
  F  F36  1  0.38458191  0.42180655  0.10382221  1
  F  F37  1  0.57819345  0.96277536  0.10382221  1
  F  F38  1  0.38458191  0.96277536  0.89617779  1
  F  F39  1  0.57819345  0.61541809  0.89617779  1
  F  F40  1  0.03722464  0.42180655  0.89617779  1
  Li  Li41  1  0.66666667  0.33333333  0.89653558  1
  Li  Li42  1  0.66666667  0.33333333  0.10346442  1
  Li  Li43  1  0.08052464  0.90393533  0.73054617  1
  Li  Li44  1  -0.90393533  -0.82341069  0.73054617  1
  Li  Li45  1  0.82341069  -0.08052464  0.73054617  1
  Li  Li46  1  -0.90393533  -0.08052464  -0.73054617  1
  Li  Li47  1  0.82341069  0.90393533  -0.73054617  1
  Li  Li48  1  0.08052464  -0.82341069  -0.73054617  1
  Li  Li49  1  0.00000000  0.00000000  0.61130466  1
  Li  Li50  1  0.00000000  0.00000000  0.38869534  1
  Li  Li51  1  0.14486055  0.73453881  0.83024902  1
  Li  Li52  1  0.26546119  0.41032174  0.83024902  1
  Li  Li53  1  0.58967826  0.85513945  0.83024902  1
  Li  Li54  1  0.26546119  0.85513945  0.16975098  1
  Li  Li55  1  0.58967826  0.73453881  0.16975098  1
  Li  Li56  1  0.14486055  0.41032174  0.16975098  1
  Li  Li57  1  0.82072339  0.34225530  0.65813776  1
  Li  Li58  1  0.65774470  0.47846809  0.65813776  1
  Li  Li59  1  0.52153191  0.17927661  0.65813776  1
  Li  Li60  1  0.65774470  0.17927661  0.34186224  1
  Li  Li61  1  0.52153191  0.34225530  0.34186224  1
  Li  Li62  1  0.82072339  0.47846809  0.34186224  1
  Li  Li63  1  0.54893917  0.84999540  0.33962505  1
  Li  Li64  1  0.15000460  0.69894377  0.33962505  1
  Li  Li65  1  0.30105623  0.45106083  0.33962505  1
  Li  Li66  1  0.15000460  0.45106083  0.66037495  1
  Li  Li67  1  0.30105623  0.84999540  0.66037495  1
  Li  Li68  1  0.54893917  0.69894377  0.66037495  1
  Li  Li69  1  0.25548885  0.11148352  0.95368184  1
  Li  Li70  1  0.88851648  0.14400533  0.95368184  1
  Li  Li71  1  0.85599467  0.74451115  0.95368184  1
  Li  Li72  1  0.88851648  0.74451115  0.04631816  1
  Li  Li73  1  0.85599467  0.11148352  0.04631816  1
  Li  Li74  1  0.25548885  0.14400533  0.04631816  1
  Li  Li75  1  0.33333333  0.66666667  0.50000000  1
  Li  Li76  1  0.84725022  0.15274978  0.00000000  1
  Li  Li77  1  0.84725022  0.69450044  0.00000000  1
  Li  Li78  1  0.30549956  0.15274978  0.00000000  1
  Li  Li79  1  0.66666667  0.33333333  0.78163510  1
  Li  Li80  1  0.66666667  0.33333333  0.21836490  1
  Li  Li81  1  0.66666667  0.33333333  0.50000000  1
