# generated using pymatgen
data_Li2Y2As4P3Se
_symmetry_space_group_name_H-M   'P 1'
_cell_length_a   4.36849556
_cell_length_b   4.60698264
_cell_length_c   6.53823536
_cell_angle_alpha   95.28148924
_cell_angle_beta   100.90900781
_cell_angle_gamma   110.20985815
_symmetry_Int_Tables_number   1
_chemical_formula_structural   Li2Y2As4P3Se
_chemical_formula_sum   'Li2 Y2 As4 P3 Se1'
_cell_volume   119.47042443
_cell_formula_units_Z   1
loop_
 _symmetry_equiv_pos_site_id
 _symmetry_equiv_pos_as_xyz
  1  'x, y, z'
loop_
 _atom_site_type_symbol
 _atom_site_label
 _atom_site_symmetry_multiplicity
 _atom_site_fract_x
 _atom_site_fract_y
 _atom_site_fract_z
 _atom_site_occupancy
  Y  Y0  1  0.12500000  0.00000000  0.25000000  1
  Y  Y1  1  0.00000000  0.00000000  0.00000000  1
  P  P2  1  0.37500000  0.00000000  0.25000000  1
  P  P3  1  0.25000000  0.25000000  0.25000000  1
  P  P4  1  0.00000000  0.25000000  0.12500000  1
  Se  Se5  1  0.57082020  0.86218122  0.32934908  1
  As  As6  1  0.89368378  0.54591663  0.58751585  1
  As  As7  1  0.09945291  0.72302398  0.35864101  1
  As  As8  1  0.77829511  0.08096828  0.52347990  1
  As  As9  1  0.99137918  0.80165701  0.06461805  1
  Li  Li10  1  0.69493957  0.19089250  0.00765503  1
  Li  Li11  1  0.94090359  0.84651057  0.32053412  1
