# generated using pymatgen
data_LiF
_symmetry_space_group_name_H-M   'P 1'
_cell_length_a   9.65443028
_cell_length_b   9.65443028
_cell_length_c   15.35724143
_cell_angle_alpha   90.00000000
_cell_angle_beta   90.00000000
_cell_angle_gamma   90.00000000
_symmetry_Int_Tables_number   1
_chemical_formula_structural   LiF
_chemical_formula_sum   'Li40 F40'
_cell_volume   1431.41812719
_cell_formula_units_Z   40
loop_
 _symmetry_equiv_pos_site_id
 _symmetry_equiv_pos_as_xyz
  1  'x, y, z'
loop_
 _atom_site_type_symbol
 _atom_site_label
 _atom_site_symmetry_multiplicity
 _atom_site_fract_x
 _atom_site_fract_y
 _atom_site_fract_z
 _atom_site_occupancy
  F  F0  1  0.89940298  0.50480438  0.27880793  1
  F  F1  1  0.60059702  0.49519562  0.77880793  1
  F  F2  1  0.74519562  0.64940298  0.52880793  1
  F  F3  1  0.75480438  0.35059702  0.02880793  1
  F  F4  1  0.60059702  0.50480438  0.72119207  1
  F  F5  1  0.89940298  0.49519562  0.22119207  1
  F  F6  1  0.75480438  0.64940298  0.47119207  1
  F  F7  1  0.74519562  0.35059702  0.97119207  1
  F  F8  1  0.10059702  0.49519562  0.72119207  1
  F  F9  1  0.39940298  0.50480438  0.22119207  1
  F  F10  1  0.25480438  0.35059702  0.47119207  1
  F  F11  1  0.24519562  0.64940298  0.97119207  1
  F  F12  1  0.39940298  0.49519562  0.27880793  1
  F  F13  1  0.10059702  0.50480438  0.77880793  1
  F  F14  1  0.24519562  0.35059702  0.52880793  1
  F  F15  1  0.25480438  0.64940298  0.02880793  1
  F  F16  1  0.39940298  0.00480438  0.77880793  1
  F  F17  1  0.10059702  0.99519562  0.27880793  1
  F  F18  1  0.24519562  0.14940298  0.02880793  1
  F  F19  1  0.25480438  0.85059702  0.52880793  1
  F  F20  1  0.10059702  0.00480438  0.22119207  1
  F  F21  1  0.39940298  0.99519562  0.72119207  1
  F  F22  1  0.25480438  0.14940298  0.97119207  1
  F  F23  1  0.24519562  0.85059702  0.47119207  1
  F  F24  1  0.60059702  0.99519562  0.22119207  1
  F  F25  1  0.89940298  0.00480438  0.72119207  1
  F  F26  1  0.75480438  0.85059702  0.97119207  1
  F  F27  1  0.74519562  0.14940298  0.47119207  1
  F  F28  1  0.89940298  0.99519562  0.77880793  1
  F  F29  1  0.60059702  0.00480438  0.27880793  1
  F  F30  1  0.74519562  0.85059702  0.02880793  1
  F  F31  1  0.75480438  0.14940298  0.52880793  1
  F  F32  1  0.00000000  0.25000000  0.12500000  1
  F  F33  1  0.00000000  0.75000000  0.37500000  1
  F  F34  1  0.00000000  0.75000000  0.87500000  1
  F  F35  1  0.00000000  0.25000000  0.62500000  1
  F  F36  1  0.50000000  0.75000000  0.62500000  1
  F  F37  1  0.50000000  0.25000000  0.87500000  1
  F  F38  1  0.50000000  0.25000000  0.37500000  1
  F  F39  1  0.50000000  0.75000000  0.12500000  1
  Li  Li40  1  0.29345085  0.94478302  0.27750018  1
  Li  Li41  1  0.20654915  -0.94478302  0.77750018  1
  Li  Li42  1  -0.69478302  1.04345085  0.52750018  1
  Li  Li43  1  1.19478302  -0.04345085  1.02750018  1
  Li  Li44  1  0.20654915  0.94478302  -0.27750018  1
  Li  Li45  1  0.29345085  -0.94478302  0.22249982  1
  Li  Li46  1  1.19478302  1.04345085  0.47249982  1
  Li  Li47  1  -0.69478302  -0.04345085  -0.02750018  1
  Li  Li48  1  -0.29345085  -0.94478302  -0.27750018  1
  Li  Li49  1  0.79345085  0.94478302  0.22249982  1
  Li  Li50  1  1.69478302  -0.04345085  0.47249982  1
  Li  Li51  1  -0.19478302  1.04345085  -0.02750018  1
  Li  Li52  1  0.79345085  -0.94478302  0.27750018  1
  Li  Li53  1  -0.29345085  0.94478302  0.77750018  1
  Li  Li54  1  -0.19478302  -0.04345085  0.52750018  1
  Li  Li55  1  1.69478302  1.04345085  1.02750018  1
  Li  Li56  1  0.79345085  1.44478302  0.77750018  1
  Li  Li57  1  0.70654915  -0.44478302  1.27750018  1
  Li  Li58  1  -0.19478302  1.54345085  1.02750018  1
  Li  Li59  1  1.69478302  0.45654915  1.52750018  1
  Li  Li60  1  0.70654915  1.44478302  0.22249982  1
  Li  Li61  1  0.79345085  -0.44478302  0.72249982  1
  Li  Li62  1  1.69478302  1.54345085  0.97249982  1
  Li  Li63  1  -0.19478302  0.45654915  0.47249982  1
  Li  Li64  1  0.20654915  -0.44478302  0.22249982  1
  Li  Li65  1  1.29345085  1.44478302  0.72249982  1
  Li  Li66  1  2.19478302  0.45654915  0.97249982  1
  Li  Li67  1  0.30521698  1.54345085  0.47249982  1
  Li  Li68  1  1.29345085  -0.44478302  0.77750018  1
  Li  Li69  1  0.20654915  1.44478302  1.27750018  1
  Li  Li70  1  0.30521698  0.45654915  1.02750018  1
  Li  Li71  1  2.19478302  1.54345085  1.52750018  1
  Li  Li72  1  0.00000000  0.25000000  0.37500000  1
  Li  Li73  1  0.00000000  0.75000000  0.62500000  1
  Li  Li74  1  0.50000000  0.25000000  0.62500000  1
  Li  Li75  1  0.50000000  0.75000000  0.37500000  1
  Li  Li76  1  0.50000000  0.75000000  0.87500000  1
  Li  Li77  1  0.50000000  0.25000000  0.12500000  1
  Li  Li78  1  0.00000000  0.75000000  0.12500000  1
  Li  Li79  1  0.00000000  0.25000000  0.87500000  1
