# generated using pymatgen
data_LiYAsP2
_symmetry_space_group_name_H-M   'P 1'
_cell_length_a   4.47818910
_cell_length_b   4.66489086
_cell_length_c   7.03022220
_cell_angle_alpha   95.70088107
_cell_angle_beta   102.41533378
_cell_angle_gamma   112.89817349
_symmetry_Int_Tables_number   1
_chemical_formula_structural   LiYAsP2
_chemical_formula_sum   'Li2 Y2 As2 P4'
_cell_volume   129.36428466
_cell_formula_units_Z   2
loop_
 _symmetry_equiv_pos_site_id
 _symmetry_equiv_pos_as_xyz
  1  'x, y, z'
loop_
 _atom_site_type_symbol
 _atom_site_label
 _atom_site_symmetry_multiplicity
 _atom_site_fract_x
 _atom_site_fract_y
 _atom_site_fract_z
 _atom_site_occupancy
  P  P0  1  0.12500000  0.12500000  0.12500000  1
  P  P1  1  0.50000000  0.50000000  0.50000000  1
  P  P2  1  0.25000000  0.25000000  0.25000000  1
  P  P3  1  0.75000000  0.75000000  0.75000000  1
  As  As4  1  0.81375084  0.47148838  0.37698203  1
  As  As5  1  0.38083727  0.15049703  0.18295555  1
  Li  Li6  1  0.34843018  0.04835965  0.15998009  1
  Li  Li7  1  0.73534187  0.42564733  0.09149657  1
  Y  Y8  1  0.77109233  0.27914258  0.94858368  1
  Y  Y9  1  0.92447838  0.82558350  0.15993970  1
