# generated using pymatgen
data_LiF
_symmetry_space_group_name_H-M   'P 1'
_cell_length_a   13.60733675
_cell_length_b   10.77751716
_cell_length_c   9.41321182
_cell_angle_alpha   90.00000000
_cell_angle_beta   90.00000000
_cell_angle_gamma   90.00000000
_symmetry_Int_Tables_number   1
_chemical_formula_structural   LiF
_chemical_formula_sum   'Li76 F76'
_cell_volume   1380.47862771
_cell_formula_units_Z   76
loop_
 _symmetry_equiv_pos_site_id
 _symmetry_equiv_pos_as_xyz
  1  'x, y, z'
loop_
 _atom_site_type_symbol
 _atom_site_label
 _atom_site_symmetry_multiplicity
 _atom_site_fract_x
 _atom_site_fract_y
 _atom_site_fract_z
 _atom_site_occupancy
  F  F0  1  0.66645586  0.12341146  0.65385975  1
  F  F1  1  0.83354414  0.87658854  0.15385975  1
  F  F2  1  0.33354414  0.62341146  0.34614025  1
  F  F3  1  0.16645586  0.37658854  0.84614025  1
  F  F4  1  0.33354414  0.87658854  0.34614025  1
  F  F5  1  0.16645586  0.12341146  0.84614025  1
  F  F6  1  0.66645586  0.37658854  0.65385975  1
  F  F7  1  0.83354414  0.62341146  0.15385975  1
  F  F8  1  0.94471743  0.02191438  0.40360932  1
  F  F9  1  0.55528257  0.97808562  0.90360932  1
  F  F10  1  0.05528257  0.52191438  0.59639068  1
  F  F11  1  0.44471743  0.47808562  0.09639068  1
  F  F12  1  0.05528257  0.97808562  0.59639068  1
  F  F13  1  0.44471743  0.02191438  0.09639068  1
  F  F14  1  0.94471743  0.47808562  0.40360932  1
  F  F15  1  0.55528257  0.52191438  0.90360932  1
  F  F16  1  0.08989533  0.33839343  0.89079895  1
  F  F17  1  0.41010467  0.66160657  0.39079895  1
  F  F18  1  0.91010467  0.83839343  0.10920105  1
  F  F19  1  0.58989533  0.16160657  0.60920105  1
  F  F20  1  0.91010467  0.66160657  0.10920105  1
  F  F21  1  0.58989533  0.33839343  0.60920105  1
  F  F22  1  0.08989533  0.16160657  0.89079895  1
  F  F23  1  0.41010467  0.83839343  0.39079895  1
  F  F24  1  0.78806466  0.31876834  0.90858820  1
  F  F25  1  0.71193534  0.68123166  0.40858820  1
  F  F26  1  0.21193534  0.81876834  0.09141180  1
  F  F27  1  0.28806466  0.18123166  0.59141180  1
  F  F28  1  0.21193534  0.68123166  0.09141180  1
  F  F29  1  0.28806466  0.31876834  0.59141180  1
  F  F30  1  0.78806466  0.18123166  0.90858820  1
  F  F31  1  0.71193534  0.81876834  0.40858820  1
  F  F32  1  0.85813078  0.47828482  0.90643880  1
  F  F33  1  0.64186922  0.52171518  0.40643880  1
  F  F34  1  0.14186922  0.97828482  0.09356120  1
  F  F35  1  0.35813078  0.02171518  0.59356120  1
  F  F36  1  0.14186922  0.52171518  0.09356120  1
  F  F37  1  0.35813078  0.47828482  0.59356120  1
  F  F38  1  0.85813078  0.02171518  0.90643880  1
  F  F39  1  0.64186922  0.97828482  0.40643880  1
  F  F40  1  0.00000000  0.00000000  0.00000000  1
  F  F41  1  0.50000000  0.00000000  0.50000000  1
  F  F42  1  0.00000000  0.50000000  0.00000000  1
  F  F43  1  0.50000000  0.50000000  0.50000000  1
  F  F44  1  0.83299577  0.20970025  0.83335568  1
  F  F45  1  0.66700423  0.79029975  0.33335568  1
  F  F46  1  0.16700423  0.70970025  0.16664432  1
  F  F47  1  0.33299577  0.29029975  0.66664432  1
  F  F48  1  0.16700423  0.79029975  0.16664432  1
  F  F49  1  0.33299577  0.20970025  0.66664432  1
  F  F50  1  0.83299577  0.29029975  0.83335568  1
  F  F51  1  0.66700423  0.70970025  0.33335568  1
  F  F52  1  0.60221972  0.25000000  0.75000455  1
  F  F53  1  0.89778028  0.75000000  0.25000455  1
  F  F54  1  0.39778028  0.75000000  0.24999545  1
  F  F55  1  0.10221972  0.25000000  0.74999545  1
  F  F56  1  0.61846604  0.13881604  0.80033670  1
  F  F57  1  0.88153396  0.86118396  0.30033670  1
  F  F58  1  0.38153396  0.63881604  0.19966330  1
  F  F59  1  0.11846604  0.36118396  0.69966330  1
  F  F60  1  0.38153396  0.86118396  0.19966330  1
  F  F61  1  0.11846604  0.13881604  0.69966330  1
  F  F62  1  0.61846604  0.36118396  0.80033670  1
  F  F63  1  0.88153396  0.63881604  0.30033670  1
  F  F64  1  0.39798342  0.25000000  0.80263612  1
  F  F65  1  0.10201658  0.75000000  0.30263612  1
  F  F66  1  0.60201658  0.75000000  0.19736388  1
  F  F67  1  0.89798342  0.25000000  0.69736388  1
  F  F68  1  0.10107894  0.01874737  0.04218523  1
  F  F69  1  0.39892106  0.98125263  0.54218523  1
  F  F70  1  0.89892106  0.51874737  0.95781477  1
  F  F71  1  0.60107894  0.48125263  0.45781477  1
  F  F72  1  0.89892106  0.98125263  0.95781477  1
  F  F73  1  0.60107894  0.01874737  0.45781477  1
  F  F74  1  0.10107894  0.48125263  0.04218523  1
  F  F75  1  0.39892106  0.51874737  0.54218523  1
  Li  Li76  1  0.48486611  0.33522141  0.22635523  1
  Li  Li77  1  0.01513389  -0.33522141  0.72635523  1
  Li  Li78  1  -0.48486611  0.83522141  -0.22635523  1
  Li  Li79  1  0.98486611  0.16477859  0.27364477  1
  Li  Li80  1  -0.48486611  -0.33522141  -0.22635523  1
  Li  Li81  1  0.98486611  0.33522141  0.27364477  1
  Li  Li82  1  0.48486611  0.16477859  0.22635523  1
  Li  Li83  1  0.01513389  0.83522141  0.72635523  1
  Li  Li84  1  0.14542209  0.51672804  0.67763899  1
  Li  Li85  1  0.35457791  0.48327196  0.17763899  1
  Li  Li86  1  0.85457791  0.01672804  0.32236101  1
  Li  Li87  1  0.64542209  0.98327196  0.82236101  1
  Li  Li88  1  0.85457791  0.48327196  0.32236101  1
  Li  Li89  1  0.64542209  0.51672804  0.82236101  1
  Li  Li90  1  0.14542209  0.98327196  0.67763899  1
  Li  Li91  1  0.35457791  0.01672804  0.17763899  1
  Li  Li92  1  0.51153362  0.95417961  0.63542637  1
  Li  Li93  1  0.98846638  0.04582039  0.13542637  1
  Li  Li94  1  0.48846638  0.45417961  0.36457363  1
  Li  Li95  1  0.01153362  0.54582039  0.86457363  1
  Li  Li96  1  0.48846638  0.04582039  0.36457363  1
  Li  Li97  1  0.01153362  0.95417961  0.86457363  1
  Li  Li98  1  0.51153362  0.54582039  0.63542637  1
  Li  Li99  1  0.98846638  0.45417961  0.13542637  1
  Li  Li100  1  0.91448830  0.25000000  0.11061807  1
  Li  Li101  1  0.58551170  0.75000000  0.61061807  1
  Li  Li102  1  0.08551170  0.75000000  0.88938193  1
  Li  Li103  1  0.41448830  0.25000000  0.38938193  1
  Li  Li104  1  0.45644808  0.11056814  0.48909670  1
  Li  Li105  1  0.04355192  0.88943186  0.98909670  1
  Li  Li106  1  0.54355192  0.61056814  0.51090330  1
  Li  Li107  1  0.95644808  0.38943186  0.01090330  1
  Li  Li108  1  0.54355192  0.88943186  0.51090330  1
  Li  Li109  1  0.95644808  0.11056814  0.01090330  1
  Li  Li110  1  0.45644808  0.38943186  0.48909670  1
  Li  Li111  1  0.04355192  0.61056814  0.98909670  1
  Li  Li112  1  0.04659700  0.25000000  0.91880330  1
  Li  Li113  1  0.45340300  0.75000000  0.41880330  1
  Li  Li114  1  0.95340300  0.75000000  0.08119670  1
  Li  Li115  1  0.54659700  0.25000000  0.58119670  1
  Li  Li116  1  0.63288750  0.12806764  0.05851548  1
  Li  Li117  1  0.86711250  0.87193236  0.55851548  1
  Li  Li118  1  0.36711250  0.62806764  0.94148452  1
  Li  Li119  1  0.13288750  0.37193236  0.44148452  1
  Li  Li120  1  0.36711250  0.87193236  0.94148452  1
  Li  Li121  1  0.13288750  0.12806764  0.44148452  1
  Li  Li122  1  0.63288750  0.37193236  0.05851548  1
  Li  Li123  1  0.86711250  0.62806764  0.55851548  1
  Li  Li124  1  0.33096025  0.25000000  0.78279421  1
  Li  Li125  1  0.16903975  0.75000000  0.28279421  1
  Li  Li126  1  0.66903975  0.75000000  0.21720579  1
  Li  Li127  1  0.83096025  0.25000000  0.71720579  1
  Li  Li128  1  0.39951766  0.65791678  0.61196443  1
  Li  Li129  1  0.10048234  0.34208322  0.11196443  1
  Li  Li130  1  0.60048234  0.15791678  0.38803557  1
  Li  Li131  1  0.89951766  0.84208322  0.88803557  1
  Li  Li132  1  0.60048234  0.34208322  0.38803557  1
  Li  Li133  1  0.89951766  0.65791678  0.88803557  1
  Li  Li134  1  0.39951766  0.84208322  0.61196443  1
  Li  Li135  1  0.10048234  0.15791678  0.11196443  1
  Li  Li136  1  0.00000000  0.00000000  0.50000000  1
  Li  Li137  1  0.50000000  0.00000000  0.00000000  1
  Li  Li138  1  0.00000000  0.50000000  0.50000000  1
  Li  Li139  1  0.50000000  0.50000000  0.00000000  1
  Li  Li140  1  0.98126757  0.25000000  0.53767172  1
  Li  Li141  1  0.51873243  0.75000000  0.03767172  1
  Li  Li142  1  0.01873243  0.75000000  0.46232828  1
  Li  Li143  1  0.48126757  0.25000000  0.96232828  1
  Li  Li144  1  0.58040015  0.46670394  0.30726751  1
  Li  Li145  1  0.91959985  0.53329606  0.80726751  1
  Li  Li146  1  0.41959985  0.96670394  0.69273249  1
  Li  Li147  1  0.08040015  0.03329606  0.19273249  1
  Li  Li148  1  0.41959985  0.53329606  0.69273249  1
  Li  Li149  1  0.08040015  0.46670394  0.19273249  1
  Li  Li150  1  0.58040015  0.03329606  0.30726751  1
  Li  Li151  1  0.91959985  0.96670394  0.80726751  1
