# generated using pymatgen
data_LiY2Sb2As4P
_symmetry_space_group_name_H-M   'P 1'
_cell_length_a   4.73908243
_cell_length_b   4.77623217
_cell_length_c   6.19129729
_cell_angle_alpha   94.55893767
_cell_angle_beta   97.42885756
_cell_angle_gamma   104.39146770
_symmetry_Int_Tables_number   1
_chemical_formula_structural   LiY2Sb2As4P
_chemical_formula_sum   'Li1 Y2 Sb2 As4 P1'
_cell_volume   133.69078949
_cell_formula_units_Z   1
loop_
 _symmetry_equiv_pos_site_id
 _symmetry_equiv_pos_as_xyz
  1  'x, y, z'
loop_
 _atom_site_type_symbol
 _atom_site_label
 _atom_site_symmetry_multiplicity
 _atom_site_fract_x
 _atom_site_fract_y
 _atom_site_fract_z
 _atom_site_occupancy
  Y  Y0  1  0.00000000  0.00000000  0.00000000  1
  Y  Y1  1  0.50000000  0.50000000  0.50000000  1
  P  P2  1  0.25000000  0.25000000  0.25000000  1
  As  As3  1  0.75000000  0.25000000  0.00000000  1
  As  As4  1  0.25000000  0.75000000  0.50000000  1
  As  As5  1  0.31312442  0.59255751  0.43636177  1
  As  As6  1  0.96157239  0.59957294  0.63414042  1
  Li  Li7  1  0.84350843  0.29138105  0.23704704  1
  Sb  Sb8  1  0.52057615  0.21131720  0.31027578  1
  Sb  Sb9  1  0.22419571  0.11850034  0.22713117  1
