# generated using pymatgen
data_Li4TeF2
_symmetry_space_group_name_H-M   'P 1'
_cell_length_a   15.52231972
_cell_length_b   15.52231972
_cell_length_c   15.52231972
_cell_angle_alpha   90.00000000
_cell_angle_beta   90.00000000
_cell_angle_gamma   90.00000000
_symmetry_Int_Tables_number   1
_chemical_formula_structural   Li4TeF2
_chemical_formula_sum   'Li96 Te24 F48'
_cell_volume   3739.98511224
_cell_formula_units_Z   24
loop_
 _symmetry_equiv_pos_site_id
 _symmetry_equiv_pos_as_xyz
  1  'x, y, z'
loop_
 _atom_site_type_symbol
 _atom_site_label
 _atom_site_symmetry_multiplicity
 _atom_site_fract_x
 _atom_site_fract_y
 _atom_site_fract_z
 _atom_site_occupancy
  F  F0  1  0.85851141  0.96856690  0.34731906  1
  F  F1  1  -0.35851141  -0.96856690  0.84731906  1
  F  F2  1  -0.85851141  1.46856690  0.15268094  1
  F  F3  1  1.35851141  -0.46856690  -0.34731906  1
  F  F4  1  0.34731906  0.85851141  0.96856690  1
  F  F5  1  0.84731906  -0.35851141  -0.96856690  1
  F  F6  1  0.15268094  -0.85851141  1.46856690  1
  F  F7  1  -0.34731906  1.35851141  -0.46856690  1
  F  F8  1  0.96856690  0.34731906  0.85851141  1
  F  F9  1  -0.96856690  0.84731906  -0.35851141  1
  F  F10  1  1.46856690  0.15268094  -0.85851141  1
  F  F11  1  -0.46856690  -0.34731906  1.35851141  1
  F  F12  1  1.71856690  1.10851141  -0.09731906  1
  F  F13  1  -0.21856690  -0.10851141  0.40268094  1
  F  F14  1  1.21856690  -0.60851141  1.09731906  1
  F  F15  1  -0.71856690  1.60851141  0.59731906  1
  F  F16  1  1.60851141  0.59731906  -0.71856690  1
  F  F17  1  -0.60851141  1.09731906  1.21856690  1
  F  F18  1  -0.10851141  0.40268094  -0.21856690  1
  F  F19  1  1.10851141  -0.09731906  1.71856690  1
  F  F20  1  1.09731906  1.21856690  -0.60851141  1
  F  F21  1  0.59731906  -0.71856690  1.60851141  1
  F  F22  1  -0.09731906  1.71856690  1.10851141  1
  F  F23  1  0.40268094  -0.21856690  -0.10851141  1
  F  F24  1  1.35851141  1.46856690  0.84731906  1
  F  F25  1  0.14148859  -0.46856690  1.34731906  1
  F  F26  1  -0.35851141  1.96856690  0.65268094  1
  F  F27  1  1.85851141  0.03143310  0.15268094  1
  F  F28  1  0.84731906  1.35851141  1.46856690  1
  F  F29  1  1.34731906  0.14148859  -0.46856690  1
  F  F30  1  0.65268094  -0.35851141  1.96856690  1
  F  F31  1  0.15268094  1.85851141  0.03143310  1
  F  F32  1  1.46856690  0.84731906  1.35851141  1
  F  F33  1  -0.46856690  1.34731906  0.14148859  1
  F  F34  1  1.96856690  0.65268094  -0.35851141  1
  F  F35  1  0.03143310  0.15268094  1.85851141  1
  F  F36  1  2.21856690  1.60851141  0.40268094  1
  F  F37  1  0.28143310  0.39148859  0.90268094  1
  F  F38  1  1.71856690  -0.10851141  1.59731906  1
  F  F39  1  -0.21856690  2.10851141  1.09731906  1
  F  F40  1  2.10851141  1.09731906  -0.21856690  1
  F  F41  1  -0.10851141  1.59731906  1.71856690  1
  F  F42  1  0.39148859  0.90268094  0.28143310  1
  F  F43  1  1.60851141  0.40268094  2.21856690  1
  F  F44  1  1.59731906  1.71856690  -0.10851141  1
  F  F45  1  1.09731906  -0.21856690  2.10851141  1
  F  F46  1  0.40268094  2.21856690  1.60851141  1
  F  F47  1  0.90268094  0.28143310  0.39148859  1
  Li  Li48  1  0.12500000  0.44428915  0.80571085  1
  Li  Li49  1  0.37500000  0.55571085  0.30571085  1
  Li  Li50  1  0.87500000  0.94428915  0.69428915  1
  Li  Li51  1  0.62500000  0.05571085  0.19428915  1
  Li  Li52  1  0.80571085  0.12500000  0.44428915  1
  Li  Li53  1  0.30571085  0.37500000  0.55571085  1
  Li  Li54  1  0.69428915  0.87500000  0.94428915  1
  Li  Li55  1  0.19428915  0.62500000  0.05571085  1
  Li  Li56  1  0.44428915  0.80571085  0.12500000  1
  Li  Li57  1  0.55571085  0.30571085  0.37500000  1
  Li  Li58  1  0.94428915  0.69428915  0.87500000  1
  Li  Li59  1  0.05571085  0.19428915  0.62500000  1
  Li  Li60  1  0.62500000  0.94428915  0.30571085  1
  Li  Li61  1  0.87500000  0.05571085  0.80571085  1
  Li  Li62  1  0.37500000  0.44428915  0.19428915  1
  Li  Li63  1  0.12500000  0.55571085  0.69428915  1
  Li  Li64  1  0.30571085  0.62500000  0.94428915  1
  Li  Li65  1  0.80571085  0.87500000  0.05571085  1
  Li  Li66  1  0.19428915  0.37500000  0.44428915  1
  Li  Li67  1  0.69428915  0.12500000  0.55571085  1
  Li  Li68  1  0.94428915  0.30571085  0.62500000  1
  Li  Li69  1  0.05571085  0.80571085  0.87500000  1
  Li  Li70  1  0.44428915  0.19428915  0.37500000  1
  Li  Li71  1  0.55571085  0.69428915  0.12500000  1
  Li  Li72  1  0.12500000  0.68889510  0.56110490  1
  Li  Li73  1  0.37500000  0.31110490  0.06110490  1
  Li  Li74  1  0.87500000  0.18889510  0.93889510  1
  Li  Li75  1  0.62500000  0.81110490  0.43889510  1
  Li  Li76  1  0.56110490  0.12500000  0.68889510  1
  Li  Li77  1  0.06110490  0.37500000  0.31110490  1
  Li  Li78  1  0.93889510  0.87500000  0.18889510  1
  Li  Li79  1  0.43889510  0.62500000  0.81110490  1
  Li  Li80  1  0.68889510  0.56110490  0.12500000  1
  Li  Li81  1  0.31110490  0.06110490  0.37500000  1
  Li  Li82  1  0.18889510  0.93889510  0.87500000  1
  Li  Li83  1  0.81110490  0.43889510  0.62500000  1
  Li  Li84  1  0.62500000  0.18889510  0.06110490  1
  Li  Li85  1  0.87500000  0.81110490  0.56110490  1
  Li  Li86  1  0.37500000  0.68889510  0.43889510  1
  Li  Li87  1  0.12500000  0.31110490  0.93889510  1
  Li  Li88  1  0.06110490  0.62500000  0.18889510  1
  Li  Li89  1  0.56110490  0.87500000  0.81110490  1
  Li  Li90  1  0.43889510  0.37500000  0.68889510  1
  Li  Li91  1  0.93889510  0.12500000  0.31110490  1
  Li  Li92  1  0.18889510  0.06110490  0.62500000  1
  Li  Li93  1  0.81110490  0.56110490  0.87500000  1
  Li  Li94  1  0.68889510  0.43889510  0.37500000  1
  Li  Li95  1  0.31110490  0.93889510  0.12500000  1
  Li  Li96  1  0.62885054  0.35720382  0.46396313  1
  Li  Li97  1  0.87114946  0.64279618  0.96396313  1
  Li  Li98  1  0.37114946  0.85720382  0.03603687  1
  Li  Li99  1  0.12885054  0.14279618  0.53603687  1
  Li  Li100  1  0.46396313  0.62885054  0.35720382  1
  Li  Li101  1  0.96396313  0.87114946  0.64279618  1
  Li  Li102  1  0.03603687  0.37114946  0.85720382  1
  Li  Li103  1  0.53603687  0.12885054  0.14279618  1
  Li  Li104  1  0.35720382  0.46396313  0.62885054  1
  Li  Li105  1  0.64279618  0.96396313  0.87114946  1
  Li  Li106  1  0.85720382  0.03603687  0.37114946  1
  Li  Li107  1  0.14279618  0.53603687  0.12885054  1
  Li  Li108  1  0.10720382  0.87885054  0.78603687  1
  Li  Li109  1  0.39279618  0.12114946  0.28603687  1
  Li  Li110  1  0.60720382  0.62114946  0.21396313  1
  Li  Li111  1  0.89279618  0.37885054  0.71396313  1
  Li  Li112  1  0.37885054  0.71396313  0.89279618  1
  Li  Li113  1  0.62114946  0.21396313  0.60720382  1
  Li  Li114  1  0.12114946  0.28603687  0.39279618  1
  Li  Li115  1  0.87885054  0.78603687  0.10720382  1
  Li  Li116  1  0.21396313  0.60720382  0.62114946  1
  Li  Li117  1  0.71396313  0.89279618  0.37885054  1
  Li  Li118  1  0.78603687  0.10720382  0.87885054  1
  Li  Li119  1  0.28603687  0.39279618  0.12114946  1
  Li  Li120  1  0.12885054  0.85720382  0.96396313  1
  Li  Li121  1  0.37114946  0.14279618  0.46396313  1
  Li  Li122  1  0.87114946  0.35720382  0.53603687  1
  Li  Li123  1  0.62885054  0.64279618  0.03603687  1
  Li  Li124  1  0.96396313  0.12885054  0.85720382  1
  Li  Li125  1  0.46396313  0.37114946  0.14279618  1
  Li  Li126  1  0.53603687  0.87114946  0.35720382  1
  Li  Li127  1  0.03603687  0.62885054  0.64279618  1
  Li  Li128  1  0.85720382  0.96396313  0.12885054  1
  Li  Li129  1  0.14279618  0.46396313  0.37114946  1
  Li  Li130  1  0.35720382  0.53603687  0.87114946  1
  Li  Li131  1  0.64279618  0.03603687  0.62885054  1
  Li  Li132  1  0.60720382  0.37885054  0.28603687  1
  Li  Li133  1  0.89279618  0.62114946  0.78603687  1
  Li  Li134  1  0.10720382  0.12114946  0.71396313  1
  Li  Li135  1  0.39279618  0.87885054  0.21396313  1
  Li  Li136  1  0.87885054  0.21396313  0.39279618  1
  Li  Li137  1  0.12114946  0.71396313  0.10720382  1
  Li  Li138  1  0.62114946  0.78603687  0.89279618  1
  Li  Li139  1  0.37885054  0.28603687  0.60720382  1
  Li  Li140  1  0.71396313  0.10720382  0.12114946  1
  Li  Li141  1  0.21396313  0.39279618  0.87885054  1
  Li  Li142  1  0.28603687  0.60720382  0.37885054  1
  Li  Li143  1  0.78603687  0.89279618  0.62114946  1
  Te  Te144  1  0.87500000  0.87500000  0.87500000  1
  Te  Te145  1  0.62500000  0.12500000  0.37500000  1
  Te  Te146  1  0.12500000  0.37500000  0.62500000  1
  Te  Te147  1  0.37500000  0.62500000  0.12500000  1
  Te  Te148  1  0.37500000  0.37500000  0.37500000  1
  Te  Te149  1  0.12500000  0.62500000  0.87500000  1
  Te  Te150  1  0.62500000  0.87500000  0.12500000  1
  Te  Te151  1  0.87500000  0.12500000  0.62500000  1
  Te  Te152  1  0.22316870  0.22316870  0.22316870  1
  Te  Te153  1  0.27683130  0.77683130  0.72316870  1
  Te  Te154  1  0.77683130  0.72316870  0.27683130  1
  Te  Te155  1  0.72316870  0.27683130  0.77683130  1
  Te  Te156  1  0.97316870  0.47316870  0.02683130  1
  Te  Te157  1  0.52683130  0.52683130  0.52683130  1
  Te  Te158  1  0.47316870  0.02683130  0.97316870  1
  Te  Te159  1  0.02683130  0.97316870  0.47316870  1
  Te  Te160  1  0.72316870  0.72316870  0.72316870  1
  Te  Te161  1  0.77683130  0.27683130  0.22316870  1
  Te  Te162  1  0.27683130  0.22316870  0.77683130  1
  Te  Te163  1  0.22316870  0.77683130  0.27683130  1
  Te  Te164  1  0.47316870  0.97316870  0.52683130  1
  Te  Te165  1  0.02683130  0.02683130  0.02683130  1
  Te  Te166  1  0.97316870  0.52683130  0.47316870  1
  Te  Te167  1  0.52683130  0.47316870  0.97316870  1
