# generated using pymatgen
data_Li2Y(P2Se)2
_symmetry_space_group_name_H-M   'P 1'
_cell_length_a   5.80885599
_cell_length_b   5.87703553
_cell_length_c   7.73971914
_cell_angle_alpha   94.58185174
_cell_angle_beta   99.97832053
_cell_angle_gamma   108.40347740
_symmetry_Int_Tables_number   1
_chemical_formula_structural   Li2Y(P2Se)2
_chemical_formula_sum   'Li2 Y1 P4 Se2'
_cell_volume   244.34521183
_cell_formula_units_Z   1
loop_
 _symmetry_equiv_pos_site_id
 _symmetry_equiv_pos_as_xyz
  1  'x, y, z'
loop_
 _atom_site_type_symbol
 _atom_site_label
 _atom_site_symmetry_multiplicity
 _atom_site_fract_x
 _atom_site_fract_y
 _atom_site_fract_z
 _atom_site_occupancy
  P  P0  1  0.12500000  0.00000000  0.25000000  1
  P  P1  1  0.00000000  0.00000000  0.00000000  1
  P  P2  1  0.37500000  0.00000000  0.25000000  1
  P  P3  1  0.25000000  0.25000000  0.25000000  1
  Se  Se4  1  0.00000000  0.25000000  0.12500000  1
  Se  Se5  1  0.56649362  0.50920782  0.98581208  1
  Li  Li6  1  0.01727109  0.73977091  0.85584058  1
  Li  Li7  1  0.22534478  0.59759883  0.29104388  1
  Y  Y8  1  0.02442931  0.51570107  0.51401135  1
