# generated using pymatgen
data_Li2TiAlClO
_symmetry_space_group_name_H-M   'P 1'
_cell_length_a   3.55025870
_cell_length_b   3.46284593
_cell_length_c   5.64206684
_cell_angle_alpha   101.78660431
_cell_angle_beta   113.44174103
_cell_angle_gamma   107.64933572
_symmetry_Int_Tables_number   1
_chemical_formula_structural   Li2TiAlClO
_chemical_formula_sum   'Li2 Ti1 Al1 Cl1 O1'
_cell_volume   56.30072140
_cell_formula_units_Z   1
loop_
 _symmetry_equiv_pos_site_id
 _symmetry_equiv_pos_as_xyz
  1  'x, y, z'
loop_
 _atom_site_type_symbol
 _atom_site_label
 _atom_site_symmetry_multiplicity
 _atom_site_fract_x
 _atom_site_fract_y
 _atom_site_fract_z
 _atom_site_occupancy
  Al  Al0  1  0.12500000  0.00000000  0.25000000  1
  O  O1  1  0.00000000  0.00000000  0.00000000  1
  Cl  Cl2  1  0.37500000  0.00000000  0.25000000  1
  Li  Li3  1  0.25000000  0.25000000  0.25000000  1
  Li  Li4  1  0.00000000  0.25000000  0.12500000  1
  Ti  Ti5  1  0.78292862  0.22888595  0.90031607  1
