# generated using pymatgen
data_LiF
_symmetry_space_group_name_H-M   'P 1'
_cell_length_a   15.77012750
_cell_length_b   15.77012750
_cell_length_c   9.15318696
_cell_angle_alpha   90.00000000
_cell_angle_beta   90.00000000
_cell_angle_gamma   90.00000000
_symmetry_Int_Tables_number   1
_chemical_formula_structural   LiF
_chemical_formula_sum   'Li64 F64'
_cell_volume   2276.36941717
_cell_formula_units_Z   64
loop_
 _symmetry_equiv_pos_site_id
 _symmetry_equiv_pos_as_xyz
  1  'x, y, z'
loop_
 _atom_site_type_symbol
 _atom_site_label
 _atom_site_symmetry_multiplicity
 _atom_site_fract_x
 _atom_site_fract_y
 _atom_site_fract_z
 _atom_site_occupancy
  F  F0  1  0.77853680  0.06394275  0.37819418  1
  F  F1  1  0.72146320  0.93605725  0.87819418  1
  F  F2  1  0.18605725  0.52853680  0.62819418  1
  F  F3  1  0.31394275  0.47146320  0.12819418  1
  F  F4  1  0.72146320  0.06394275  0.62180582  1
  F  F5  1  0.77853680  0.93605725  0.12180582  1
  F  F6  1  0.31394275  0.52853680  0.37180582  1
  F  F7  1  0.18605725  0.47146320  0.87180582  1
  F  F8  1  0.22146320  0.93605725  0.62180582  1
  F  F9  1  0.27853680  0.06394275  0.12180582  1
  F  F10  1  0.81394275  0.47146320  0.37180582  1
  F  F11  1  0.68605725  0.52853680  0.87180582  1
  F  F12  1  0.27853680  0.93605725  0.37819418  1
  F  F13  1  0.22146320  0.06394275  0.87819418  1
  F  F14  1  0.68605725  0.47146320  0.62819418  1
  F  F15  1  0.81394275  0.52853680  0.12819418  1
  F  F16  1  0.27853680  0.56394275  0.87819418  1
  F  F17  1  0.22146320  0.43605725  0.37819418  1
  F  F18  1  0.68605725  0.02853680  0.12819418  1
  F  F19  1  0.81394275  0.97146320  0.62819418  1
  F  F20  1  0.22146320  0.56394275  0.12180582  1
  F  F21  1  0.27853680  0.43605725  0.62180582  1
  F  F22  1  0.81394275  0.02853680  0.87180582  1
  F  F23  1  0.68605725  0.97146320  0.37180582  1
  F  F24  1  0.72146320  0.43605725  0.12180582  1
  F  F25  1  0.77853680  0.56394275  0.62180582  1
  F  F26  1  0.31394275  0.97146320  0.87180582  1
  F  F27  1  0.18605725  0.02853680  0.37180582  1
  F  F28  1  0.77853680  0.43605725  0.87819418  1
  F  F29  1  0.72146320  0.56394275  0.37819418  1
  F  F30  1  0.18605725  0.97146320  0.12819418  1
  F  F31  1  0.31394275  0.02853680  0.62819418  1
  F  F32  1  0.33376587  0.00000000  0.25000000  1
  F  F33  1  0.16623413  0.00000000  0.75000000  1
  F  F34  1  0.25000000  0.08376587  0.50000000  1
  F  F35  1  0.25000000  0.91623413  -0.00000000  1
  F  F36  1  0.66623413  0.00000000  0.75000000  1
  F  F37  1  0.83376587  0.00000000  0.25000000  1
  F  F38  1  0.75000000  0.91623413  0.50000000  1
  F  F39  1  0.75000000  0.08376587  0.00000000  1
  F  F40  1  0.83376587  0.50000000  0.75000000  1
  F  F41  1  0.66623413  0.50000000  0.25000000  1
  F  F42  1  0.75000000  0.58376587  0.00000000  1
  F  F43  1  0.75000000  0.41623413  0.50000000  1
  F  F44  1  0.16623413  0.50000000  0.25000000  1
  F  F45  1  0.33376587  0.50000000  0.75000000  1
  F  F46  1  0.25000000  0.41623413  0.00000000  1
  F  F47  1  0.25000000  0.58376587  0.50000000  1
  F  F48  1  0.00000000  0.25000000  0.98599435  1
  F  F49  1  0.00000000  0.75000000  0.23599435  1
  F  F50  1  0.50000000  0.25000000  0.01400565  1
  F  F51  1  0.50000000  0.75000000  0.76400565  1
  F  F52  1  0.00000000  0.75000000  0.01400565  1
  F  F53  1  0.00000000  0.25000000  0.76400565  1
  F  F54  1  0.50000000  0.75000000  0.98599435  1
  F  F55  1  0.50000000  0.25000000  0.23599435  1
  F  F56  1  0.50000000  0.75000000  0.48599435  1
  F  F57  1  0.50000000  0.25000000  0.73599435  1
  F  F58  1  0.00000000  0.75000000  0.51400565  1
  F  F59  1  0.00000000  0.25000000  0.26400565  1
  F  F60  1  0.50000000  0.25000000  0.51400565  1
  F  F61  1  0.50000000  0.75000000  0.26400565  1
  F  F62  1  0.00000000  0.25000000  0.48599435  1
  F  F63  1  0.00000000  0.75000000  0.73599435  1
  Li  Li64  1  0.65199127  0.30019553  0.73185662  1
  Li  Li65  1  -0.15199127  -0.30019553  1.23185662  1
  Li  Li66  1  -0.05019553  1.40199127  0.98185662  1
  Li  Li67  1  0.55019553  -0.40199127  1.48185662  1
  Li  Li68  1  -0.15199127  0.30019553  -0.73185662  1
  Li  Li69  1  0.65199127  -0.30019553  -0.23185662  1
  Li  Li70  1  0.55019553  1.40199127  0.01814338  1
  Li  Li71  1  -0.05019553  -0.40199127  -0.48185662  1
  Li  Li72  1  -0.65199127  -0.30019553  -0.73185662  1
  Li  Li73  1  1.15199127  0.30019553  -0.23185662  1
  Li  Li74  1  1.05019553  -0.40199127  0.01814338  1
  Li  Li75  1  0.44980447  1.40199127  -0.48185662  1
  Li  Li76  1  1.15199127  -0.30019553  0.73185662  1
  Li  Li77  1  -0.65199127  0.30019553  1.23185662  1
  Li  Li78  1  0.44980447  -0.40199127  0.98185662  1
  Li  Li79  1  1.05019553  1.40199127  1.48185662  1
  Li  Li80  1  1.15199127  0.80019553  1.23185662  1
  Li  Li81  1  0.34800873  0.19980447  1.73185662  1
  Li  Li82  1  0.44980447  1.90199127  1.48185662  1
  Li  Li83  1  1.05019553  0.09800873  1.98185662  1
  Li  Li84  1  0.34800873  0.80019553  -0.23185662  1
  Li  Li85  1  1.15199127  0.19980447  0.26814338  1
  Li  Li86  1  1.05019553  1.90199127  0.51814338  1
  Li  Li87  1  0.44980447  0.09800873  0.01814338  1
  Li  Li88  1  -0.15199127  0.19980447  -0.23185662  1
  Li  Li89  1  1.65199127  0.80019553  0.26814338  1
  Li  Li90  1  1.55019553  0.09800873  0.51814338  1
  Li  Li91  1  0.94980447  1.90199127  0.01814338  1
  Li  Li92  1  1.65199127  0.19980447  1.23185662  1
  Li  Li93  1  -0.15199127  0.80019553  1.73185662  1
  Li  Li94  1  0.94980447  0.09800873  1.48185662  1
  Li  Li95  1  1.55019553  1.90199127  1.98185662  1
  Li  Li96  1  0.79692698  0.79419610  0.43221673  1
  Li  Li97  1  0.70307302  0.20580390  0.93221673  1
  Li  Li98  1  0.45580390  0.54692698  0.68221673  1
  Li  Li99  1  0.04419610  0.45307302  0.18221673  1
  Li  Li100  1  0.70307302  0.79419610  0.56778327  1
  Li  Li101  1  0.79692698  0.20580390  0.06778327  1
  Li  Li102  1  0.04419610  0.54692698  0.31778327  1
  Li  Li103  1  0.45580390  0.45307302  0.81778327  1
  Li  Li104  1  0.20307302  0.20580390  0.56778327  1
  Li  Li105  1  0.29692698  0.79419610  0.06778327  1
  Li  Li106  1  0.54419610  0.45307302  0.31778327  1
  Li  Li107  1  0.95580390  0.54692698  0.81778327  1
  Li  Li108  1  0.29692698  0.20580390  0.43221673  1
  Li  Li109  1  0.20307302  0.79419610  0.93221673  1
  Li  Li110  1  0.95580390  0.45307302  0.68221673  1
  Li  Li111  1  0.54419610  0.54692698  0.18221673  1
  Li  Li112  1  0.29692698  0.29419610  0.93221673  1
  Li  Li113  1  0.20307302  0.70580390  0.43221673  1
  Li  Li114  1  0.95580390  0.04692698  0.18221673  1
  Li  Li115  1  0.54419610  0.95307302  0.68221673  1
  Li  Li116  1  0.20307302  0.29419610  0.06778327  1
  Li  Li117  1  0.29692698  0.70580390  0.56778327  1
  Li  Li118  1  0.54419610  0.04692698  0.81778327  1
  Li  Li119  1  0.95580390  0.95307302  0.31778327  1
  Li  Li120  1  0.70307302  0.70580390  0.06778327  1
  Li  Li121  1  0.79692698  0.29419610  0.56778327  1
  Li  Li122  1  0.04419610  0.95307302  0.81778327  1
  Li  Li123  1  0.45580390  0.04692698  0.31778327  1
  Li  Li124  1  0.79692698  0.70580390  0.93221673  1
  Li  Li125  1  0.70307302  0.29419610  0.43221673  1
  Li  Li126  1  0.45580390  0.95307302  0.18221673  1
  Li  Li127  1  0.04419610  0.04692698  0.68221673  1
