# generated using pymatgen
data_Li2YMoP3Se2
_symmetry_space_group_name_H-M   'P 1'
_cell_length_a   5.34011289
_cell_length_b   5.42457798
_cell_length_c   7.51256855
_cell_angle_alpha   95.28740004
_cell_angle_beta   101.51485805
_cell_angle_gamma   111.23738451
_symmetry_Int_Tables_number   1
_chemical_formula_structural   Li2YMoP3Se2
_chemical_formula_sum   'Li2 Y1 Mo1 P3 Se2'
_cell_volume   195.51216759
_cell_formula_units_Z   1
loop_
 _symmetry_equiv_pos_site_id
 _symmetry_equiv_pos_as_xyz
  1  'x, y, z'
loop_
 _atom_site_type_symbol
 _atom_site_label
 _atom_site_symmetry_multiplicity
 _atom_site_fract_x
 _atom_site_fract_y
 _atom_site_fract_z
 _atom_site_occupancy
  Se  Se0  1  0.00000000  0.00000000  0.00000000  1
  Se  Se1  1  0.50000000  0.50000000  0.50000000  1
  P  P2  1  0.50000000  0.50000000  0.00000000  1
  P  P3  1  0.50000000  0.00000000  0.50000000  1
  P  P4  1  0.00000000  0.50000000  0.50000000  1
  Mo  Mo5  1  0.72083739  0.38048771  0.87716479  1
  Li  Li6  1  0.84278226  0.37958682  0.18508695  1
  Li  Li7  1  0.73622888  0.69993118  0.05369722  1
  Y  Y8  1  0.64212254  0.20510798  0.79227055  1
