# generated using pymatgen
data_Li3Y2P3
_symmetry_space_group_name_H-M   'P 1'
_cell_length_a   5.09991333
_cell_length_b   5.24037547
_cell_length_c   7.03627124
_cell_angle_alpha   94.52338417
_cell_angle_beta   99.85099032
_cell_angle_gamma   108.16863641
_symmetry_Int_Tables_number   1
_chemical_formula_structural   Li3Y2P3
_chemical_formula_sum   'Li3 Y2 P3'
_cell_volume   174.27320282
_cell_formula_units_Z   1
loop_
 _symmetry_equiv_pos_site_id
 _symmetry_equiv_pos_as_xyz
  1  'x, y, z'
loop_
 _atom_site_type_symbol
 _atom_site_label
 _atom_site_symmetry_multiplicity
 _atom_site_fract_x
 _atom_site_fract_y
 _atom_site_fract_z
 _atom_site_occupancy
  P  P0  1  0.00000000  0.00000000  0.00000000  1
  P  P1  1  0.50000000  0.50000000  0.50000000  1
  P  P2  1  0.50000000  0.50000000  0.00000000  1
  Li  Li3  1  0.50000000  0.00000000  0.50000000  1
  Li  Li4  1  0.00000000  0.50000000  0.50000000  1
  Li  Li5  1  0.94069954  0.46377790  0.03306016  1
  Y  Y6  1  0.70037358  0.36792037  0.26044719  1
  Y  Y7  1  0.84784146  0.01287430  0.25712174  1
