# generated using pymatgen
data_LiF
_symmetry_space_group_name_H-M   'P 1'
_cell_length_a   13.38478321
_cell_length_b   13.38478321
_cell_length_c   6.17412414
_cell_angle_alpha   90.00000000
_cell_angle_beta   90.00000000
_cell_angle_gamma   120.00000000
_symmetry_Int_Tables_number   1
_chemical_formula_structural   LiF
_chemical_formula_sum   'Li30 F30'
_cell_volume   957.91874505
_cell_formula_units_Z   30
loop_
 _symmetry_equiv_pos_site_id
 _symmetry_equiv_pos_as_xyz
  1  'x, y, z'
loop_
 _atom_site_type_symbol
 _atom_site_label
 _atom_site_symmetry_multiplicity
 _atom_site_fract_x
 _atom_site_fract_y
 _atom_site_fract_z
 _atom_site_occupancy
  F  F0  1  0.57790951  0.17593558  0.88652849  1
  F  F1  1  0.82406442  0.40197393  0.88652849  1
  F  F2  1  0.59802607  0.42209049  0.88652849  1
  F  F3  1  0.57790951  0.17593558  0.11347151  1
  F  F4  1  0.82406442  0.40197393  0.11347151  1
  F  F5  1  0.59802607  0.42209049  0.11347151  1
  F  F6  1  0.17593558  0.57790951  0.11347151  1
  F  F7  1  0.40197393  0.82406442  0.11347151  1
  F  F8  1  0.42209049  0.59802607  0.11347151  1
  F  F9  1  0.17593558  0.57790951  0.88652849  1
  F  F10  1  0.40197393  0.82406442  0.88652849  1
  F  F11  1  0.42209049  0.59802607  0.88652849  1
  F  F12  1  0.17448506  0.82227035  -0.00000000  1
  F  F13  1  0.17772965  0.35221471  -0.00000000  1
  F  F14  1  0.64778529  0.82551494  0.00000000  1
  F  F15  1  0.82227035  0.17448506  0.00000000  1
  F  F16  1  0.35221471  0.17772965  0.00000000  1
  F  F17  1  0.82551494  0.64778529  -0.00000000  1
  F  F18  1  0.33333333  0.66666667  0.50000000  1
  F  F19  1  0.66666667  0.33333333  0.50000000  1
  F  F20  1  0.28641284  0.00000000  0.14681426  1
  F  F21  1  0.00000000  0.28641284  0.14681426  1
  F  F22  1  0.71358716  0.71358716  0.14681426  1
  F  F23  1  0.28641284  0.00000000  0.85318574  1
  F  F24  1  0.00000000  0.28641284  0.85318574  1
  F  F25  1  0.71358716  0.71358716  0.85318574  1
  F  F26  1  0.86609150  0.00000000  0.00000000  1
  F  F27  1  0.00000000  0.86609150  -0.00000000  1
  F  F28  1  0.13390850  0.13390850  -0.00000000  1
  F  F29  1  0.00000000  0.00000000  0.00000000  1
  Li  Li30  1  0.25990204  0.38685148  0.00000000  1
  Li  Li31  1  0.61314852  0.87305055  0.00000000  1
  Li  Li32  1  0.12694945  0.74009796  0.00000000  1
  Li  Li33  1  0.38685148  0.25990204  0.00000000  1
  Li  Li34  1  0.87305055  0.61314852  0.00000000  1
  Li  Li35  1  0.74009796  0.12694945  0.00000000  1
  Li  Li36  1  0.06379267  0.82899972  0.15369129  1
  Li  Li37  1  -0.82899972  -0.76520705  0.15369129  1
  Li  Li38  1  0.76520705  -0.06379267  0.15369129  1
  Li  Li39  1  0.06379267  0.82899972  -0.15369129  1
  Li  Li40  1  -0.82899972  -0.76520705  -0.15369129  1
  Li  Li41  1  0.76520705  -0.06379267  -0.15369129  1
  Li  Li42  1  0.82899972  0.06379267  -0.15369129  1
  Li  Li43  1  -0.76520705  -0.82899972  -0.15369129  1
  Li  Li44  1  -0.06379267  0.76520705  -0.15369129  1
  Li  Li45  1  0.82899972  0.06379267  0.15369129  1
  Li  Li46  1  -0.76520705  -0.82899972  0.15369129  1
  Li  Li47  1  -0.06379267  0.76520705  0.15369129  1
  Li  Li48  1  0.73919540  0.52776040  0.50000000  1
  Li  Li49  1  0.47223960  0.21143499  0.50000000  1
  Li  Li50  1  0.78856501  0.26080460  0.50000000  1
  Li  Li51  1  0.52776040  0.73919540  0.50000000  1
  Li  Li52  1  0.21143499  0.47223960  0.50000000  1
  Li  Li53  1  0.26080460  0.78856501  0.50000000  1
  Li  Li54  1  0.55098460  0.07122131  0.00000000  1
  Li  Li55  1  0.92877869  0.47976330  -0.00000000  1
  Li  Li56  1  0.52023670  0.44901540  0.00000000  1
  Li  Li57  1  0.07122131  0.55098460  0.00000000  1
  Li  Li58  1  0.47976330  0.92877869  0.00000000  1
  Li  Li59  1  0.44901540  0.52023670  0.00000000  1
