# generated using pymatgen
data_Li2Si4Te3F12
_symmetry_space_group_name_H-M   'P 1'
_cell_length_a   12.13116999
_cell_length_b   12.13116999
_cell_length_c   9.01051891
_cell_angle_alpha   90.00000000
_cell_angle_beta   90.00000000
_cell_angle_gamma   90.00000000
_symmetry_Int_Tables_number   1
_chemical_formula_structural   Li2Si4Te3F12
_chemical_formula_sum   'Li8 Si16 Te12 F48'
_cell_volume   1326.03558604
_cell_formula_units_Z   4
loop_
 _symmetry_equiv_pos_site_id
 _symmetry_equiv_pos_as_xyz
  1  'x, y, z'
loop_
 _atom_site_type_symbol
 _atom_site_label
 _atom_site_symmetry_multiplicity
 _atom_site_fract_x
 _atom_site_fract_y
 _atom_site_fract_z
 _atom_site_occupancy
  F  F0  1  0.00000000  0.00000000  0.50000000  1
  F  F1  1  0.50000000  0.00000000  0.00000000  1
  F  F2  1  0.25000000  0.75000000  0.75000000  1
  F  F3  1  0.25000000  0.25000000  0.25000000  1
  F  F4  1  0.50000000  0.50000000  0.00000000  1
  F  F5  1  0.00000000  0.50000000  0.50000000  1
  F  F6  1  0.75000000  0.25000000  0.25000000  1
  F  F7  1  0.75000000  0.75000000  0.75000000  1
  F  F8  1  0.19559047  0.04257263  0.53417041  1
  F  F9  1  0.30440953  -0.04257263  1.03417041  1
  F  F10  1  0.20742737  0.94559047  0.78417041  1
  F  F11  1  0.29257263  0.05440953  1.28417041  1
  F  F12  1  0.30440953  0.04257263  -0.03417041  1
  F  F13  1  0.19559047  -0.04257263  -0.53417041  1
  F  F14  1  0.29257263  0.94559047  -0.28417041  1
  F  F15  1  0.20742737  0.05440953  0.21582959  1
  F  F16  1  -0.19559047  -0.04257263  -0.53417041  1
  F  F17  1  0.69559047  0.04257263  -0.03417041  1
  F  F18  1  0.79257263  0.05440953  0.21582959  1
  F  F19  1  0.70742737  0.94559047  -0.28417041  1
  F  F20  1  0.69559047  -0.04257263  1.03417041  1
  F  F21  1  -0.19559047  0.04257263  0.53417041  1
  F  F22  1  0.70742737  0.05440953  1.28417041  1
  F  F23  1  0.79257263  0.94559047  0.78417041  1
  F  F24  1  0.69559047  0.54257263  1.03417041  1
  F  F25  1  0.80440953  0.45742737  1.53417041  1
  F  F26  1  0.70742737  1.44559047  1.28417041  1
  F  F27  1  0.79257263  0.55440953  1.78417041  1
  F  F28  1  0.80440953  0.54257263  0.46582959  1
  F  F29  1  0.69559047  0.45742737  -0.03417041  1
  F  F30  1  0.79257263  1.44559047  0.21582959  1
  F  F31  1  0.70742737  0.55440953  0.71582959  1
  F  F32  1  0.30440953  0.45742737  -0.03417041  1
  F  F33  1  1.19559047  0.54257263  0.46582959  1
  F  F34  1  1.29257263  0.55440953  0.71582959  1
  F  F35  1  1.20742737  1.44559047  0.21582959  1
  F  F36  1  1.19559047  0.45742737  1.53417041  1
  F  F37  1  0.30440953  0.54257263  1.03417041  1
  F  F38  1  1.20742737  0.55440953  1.78417041  1
  F  F39  1  1.29257263  1.44559047  1.28417041  1
  F  F40  1  0.00000000  0.25000000  0.28452321  1
  F  F41  1  0.00000000  0.75000000  0.53452321  1
  F  F42  1  0.50000000  0.25000000  0.21547679  1
  F  F43  1  0.50000000  0.75000000  0.96547679  1
  F  F44  1  0.50000000  0.75000000  0.78452321  1
  F  F45  1  0.50000000  0.25000000  0.03452321  1
  F  F46  1  0.00000000  0.75000000  0.71547679  1
  F  F47  1  0.00000000  0.25000000  0.46547679  1
  Li  Li48  1  0.00000000  0.25000000  0.69130452  1
  Li  Li49  1  0.00000000  0.75000000  0.94130452  1
  Li  Li50  1  0.50000000  0.25000000  0.80869548  1
  Li  Li51  1  0.50000000  0.75000000  0.55869548  1
  Li  Li52  1  0.50000000  0.75000000  0.19130452  1
  Li  Li53  1  0.50000000  0.25000000  0.44130452  1
  Li  Li54  1  0.00000000  0.75000000  0.30869548  1
  Li  Li55  1  0.00000000  0.25000000  0.05869548  1
  Si  Si56  1  0.16346286  0.41346286  0.87500000  1
  Si  Si57  1  0.33653714  0.58653714  0.37500000  1
  Si  Si58  1  0.83653714  0.91346286  0.12500000  1
  Si  Si59  1  0.66346286  0.08653714  0.62500000  1
  Si  Si60  1  0.83653714  0.58653714  0.12500000  1
  Si  Si61  1  0.66346286  0.41346286  0.62500000  1
  Si  Si62  1  0.16346286  0.08653714  0.87500000  1
  Si  Si63  1  0.33653714  0.91346286  0.37500000  1
  Si  Si64  1  0.66346286  0.91346286  0.37500000  1
  Si  Si65  1  0.83653714  0.08653714  0.87500000  1
  Si  Si66  1  0.33653714  0.41346286  0.62500000  1
  Si  Si67  1  0.16346286  0.58653714  0.12500000  1
  Si  Si68  1  0.33653714  0.08653714  0.62500000  1
  Si  Si69  1  0.16346286  0.91346286  0.12500000  1
  Si  Si70  1  0.66346286  0.58653714  0.37500000  1
  Si  Si71  1  0.83653714  0.41346286  0.87500000  1
  Te  Te72  1  0.00000000  0.75000000  0.12500000  1
  Te  Te73  1  0.50000000  0.75000000  0.37500000  1
  Te  Te74  1  0.50000000  0.25000000  0.62500000  1
  Te  Te75  1  0.00000000  0.25000000  0.87500000  1
  Te  Te76  1  0.00000000  0.00000000  0.00000000  1
  Te  Te77  1  0.50000000  0.00000000  0.50000000  1
  Te  Te78  1  0.25000000  0.75000000  0.25000000  1
  Te  Te79  1  0.25000000  0.25000000  0.75000000  1
  Te  Te80  1  0.50000000  0.50000000  0.50000000  1
  Te  Te81  1  0.00000000  0.50000000  0.00000000  1
  Te  Te82  1  0.75000000  0.25000000  0.75000000  1
  Te  Te83  1  0.75000000  0.75000000  0.25000000  1
