# generated using pymatgen
data_Li2Si4Te3F12
_symmetry_space_group_name_H-M   'P 1'
_cell_length_a   12.14610838
_cell_length_b   10.84300178
_cell_length_c   9.46868171
_cell_angle_alpha   90.00000000
_cell_angle_beta   90.00000000
_cell_angle_gamma   90.00000000
_symmetry_Int_Tables_number   1
_chemical_formula_structural   Li2Si4Te3F12
_chemical_formula_sum   'Li8 Si16 Te12 F48'
_cell_volume   1247.02798318
_cell_formula_units_Z   4
loop_
 _symmetry_equiv_pos_site_id
 _symmetry_equiv_pos_as_xyz
  1  'x, y, z'
loop_
 _atom_site_type_symbol
 _atom_site_label
 _atom_site_symmetry_multiplicity
 _atom_site_fract_x
 _atom_site_fract_y
 _atom_site_fract_z
 _atom_site_occupancy
  F  F0  1  0.00000000  0.00000000  0.50000000  1
  F  F1  1  0.50000000  0.50000000  0.50000000  1
  F  F2  1  0.01758433  0.86726391  0.00000000  1
  F  F3  1  0.98241567  0.13273609  0.00000000  1
  F  F4  1  0.48241567  0.36726391  0.00000000  1
  F  F5  1  0.51758433  0.63273609  0.00000000  1
  F  F6  1  0.90502279  0.56677101  0.50000000  1
  F  F7  1  0.09497721  0.43322899  0.50000000  1
  F  F8  1  0.59497721  0.06677101  0.50000000  1
  F  F9  1  0.40502279  0.93322899  0.50000000  1
  F  F10  1  0.34841636  0.50219732  0.67746378  1
  F  F11  1  0.65158364  0.49780268  0.67746378  1
  F  F12  1  0.15158364  0.00219732  0.32253622  1
  F  F13  1  0.84841636  0.99780268  0.32253622  1
  F  F14  1  0.65158364  0.49780268  0.32253622  1
  F  F15  1  0.34841636  0.50219732  0.32253622  1
  F  F16  1  0.84841636  0.99780268  0.67746378  1
  F  F17  1  0.15158364  0.00219732  0.67746378  1
  F  F18  1  0.00000000  0.50000000  0.50000000  1
  F  F19  1  0.50000000  0.00000000  0.50000000  1
  F  F20  1  0.00000000  0.50000000  0.00000000  1
  F  F21  1  0.50000000  0.00000000  0.00000000  1
  F  F22  1  0.53294245  0.78222471  0.94955806  1
  F  F23  1  0.46705755  0.21777529  0.94955806  1
  F  F24  1  0.96705755  0.28222471  0.05044194  1
  F  F25  1  0.03294245  0.71777529  0.05044194  1
  F  F26  1  0.46705755  0.21777529  0.05044194  1
  F  F27  1  0.53294245  0.78222471  0.05044194  1
  F  F28  1  0.03294245  0.71777529  0.94955806  1
  F  F29  1  0.96705755  0.28222471  0.94955806  1
  F  F30  1  0.00000000  0.50000000  0.08454867  1
  F  F31  1  0.50000000  0.00000000  0.91545133  1
  F  F32  1  0.00000000  0.50000000  0.91545133  1
  F  F33  1  0.50000000  0.00000000  0.08454867  1
  F  F34  1  0.02514926  0.04441986  0.30735147  1
  F  F35  1  0.97485074  0.95558014  0.30735147  1
  F  F36  1  0.47485074  0.54441986  0.69264853  1
  F  F37  1  0.52514926  0.45558014  0.69264853  1
  F  F38  1  0.97485074  0.95558014  0.69264853  1
  F  F39  1  0.02514926  0.04441986  0.69264853  1
  F  F40  1  0.52514926  0.45558014  0.30735147  1
  F  F41  1  0.47485074  0.54441986  0.30735147  1
  F  F42  1  0.94914385  0.17047980  -0.00000000  1
  F  F43  1  0.05085615  0.82952020  0.00000000  1
  F  F44  1  0.55085615  0.67047980  0.00000000  1
  F  F45  1  0.44914385  0.32952020  0.00000000  1
  F  F46  1  0.00000000  0.00000000  0.00000000  1
  F  F47  1  0.50000000  0.50000000  0.00000000  1
  Li  Li48  1  0.66007661  0.40184281  0.35291269  1
  Li  Li49  1  0.33992339  0.59815719  0.35291269  1
  Li  Li50  1  0.83992339  0.90184281  0.64708731  1
  Li  Li51  1  0.16007661  0.09815719  0.64708731  1
  Li  Li52  1  0.33992339  0.59815719  0.64708731  1
  Li  Li53  1  0.66007661  0.40184281  0.64708731  1
  Li  Li54  1  0.16007661  0.09815719  0.35291269  1
  Li  Li55  1  0.83992339  0.90184281  0.35291269  1
  Si  Si56  1  0.28153866  0.39015735  0.40550108  1
  Si  Si57  1  -0.28153866  -0.39015735  0.40550108  1
  Si  Si58  1  0.21846134  0.89015735  -0.40550108  1
  Si  Si59  1  0.78153866  0.10984265  -0.40550108  1
  Si  Si60  1  -0.28153866  -0.39015735  -0.40550108  1
  Si  Si61  1  0.28153866  0.39015735  -0.40550108  1
  Si  Si62  1  0.78153866  0.10984265  0.40550108  1
  Si  Si63  1  0.21846134  0.89015735  0.40550108  1
  Si  Si64  1  0.99239108  0.79570224  0.26085705  1
  Si  Si65  1  0.00760892  0.20429776  0.26085705  1
  Si  Si66  1  0.50760892  0.29570224  0.73914295  1
  Si  Si67  1  0.49239108  0.70429776  0.73914295  1
  Si  Si68  1  0.00760892  0.20429776  0.73914295  1
  Si  Si69  1  0.99239108  0.79570224  0.73914295  1
  Si  Si70  1  0.49239108  0.70429776  0.26085705  1
  Si  Si71  1  0.50760892  0.29570224  0.26085705  1
  Te  Te72  1  0.81142994  0.20333994  0.50000000  1
  Te  Te73  1  0.18857006  0.79666006  0.50000000  1
  Te  Te74  1  0.68857006  0.70333994  0.50000000  1
  Te  Te75  1  0.31142994  0.29666006  0.50000000  1
  Te  Te76  1  0.56985272  0.84404078  0.18270217  1
  Te  Te77  1  0.43014728  0.15595922  0.18270217  1
  Te  Te78  1  0.93014728  0.34404078  0.81729783  1
  Te  Te79  1  0.06985272  0.65595922  0.81729783  1
  Te  Te80  1  0.43014728  0.15595922  0.81729783  1
  Te  Te81  1  0.56985272  0.84404078  0.81729783  1
  Te  Te82  1  0.06985272  0.65595922  0.18270217  1
  Te  Te83  1  0.93014728  0.34404078  0.18270217  1
