# generated using pymatgen
data_LiF
_symmetry_space_group_name_H-M   'P 1'
_cell_length_a   12.84326051
_cell_length_b   6.33194509
_cell_length_c   8.48847616
_cell_angle_alpha   90.00000000
_cell_angle_beta   90.00000000
_cell_angle_gamma   90.00000000
_symmetry_Int_Tables_number   1
_chemical_formula_structural   LiF
_chemical_formula_sum   'Li24 F24'
_cell_volume   690.30682167
_cell_formula_units_Z   24
loop_
 _symmetry_equiv_pos_site_id
 _symmetry_equiv_pos_as_xyz
  1  'x, y, z'
loop_
 _atom_site_type_symbol
 _atom_site_label
 _atom_site_symmetry_multiplicity
 _atom_site_fract_x
 _atom_site_fract_y
 _atom_site_fract_z
 _atom_site_occupancy
  F  F0  1  0.51850590  0.92818906  0.87229196  1
  F  F1  1  -0.01850590  -0.92818906  1.37229196  1
  F  F2  1  -0.51850590  1.42818906  -0.87229196  1
  F  F3  1  1.01850590  -0.42818906  -0.37229196  1
  F  F4  1  -0.51850590  -0.92818906  -0.87229196  1
  F  F5  1  1.01850590  0.92818906  -0.37229196  1
  F  F6  1  0.51850590  -0.42818906  0.87229196  1
  F  F7  1  -0.01850590  1.42818906  1.37229196  1
  F  F8  1  0.00000000  0.00000000  0.00000000  1
  F  F9  1  0.50000000  0.00000000  0.50000000  1
  F  F10  1  0.00000000  0.50000000  0.00000000  1
  F  F11  1  0.50000000  0.50000000  0.50000000  1
  F  F12  1  0.00000000  0.00000000  0.50000000  1
  F  F13  1  0.50000000  0.00000000  0.00000000  1
  F  F14  1  0.00000000  0.50000000  0.50000000  1
  F  F15  1  0.50000000  0.50000000  -0.00000000  1
  F  F16  1  0.47159252  0.16709458  0.30365382  1
  F  F17  1  0.02840748  0.83290542  0.80365382  1
  F  F18  1  0.52840748  0.66709458  0.69634618  1
  F  F19  1  0.97159252  0.33290542  0.19634618  1
  F  F20  1  0.52840748  0.83290542  0.69634618  1
  F  F21  1  0.97159252  0.16709458  0.19634618  1
  F  F22  1  0.47159252  0.33290542  0.30365382  1
  F  F23  1  0.02840748  0.66709458  0.80365382  1
  Li  Li24  1  0.23455616  0.25000000  0.53335512  1
  Li  Li25  1  0.26544384  0.75000000  0.03335512  1
  Li  Li26  1  0.76544384  0.75000000  0.46664488  1
  Li  Li27  1  0.73455616  0.25000000  0.96664488  1
  Li  Li28  1  0.73328703  0.13130207  0.36116133  1
  Li  Li29  1  0.76671297  0.86869793  0.86116133  1
  Li  Li30  1  0.26671297  0.63130207  0.63883867  1
  Li  Li31  1  0.23328703  0.36869793  0.13883867  1
  Li  Li32  1  0.26671297  0.86869793  0.63883867  1
  Li  Li33  1  0.23328703  0.13130207  0.13883867  1
  Li  Li34  1  0.73328703  0.36869793  0.36116133  1
  Li  Li35  1  0.76671297  0.63130207  0.86116133  1
  Li  Li36  1  0.45389067  0.86803727  0.99288680  1
  Li  Li37  1  0.04610933  0.13196273  0.49288680  1
  Li  Li38  1  0.54610933  0.36803727  0.00711320  1
  Li  Li39  1  0.95389067  0.63196273  0.50711320  1
  Li  Li40  1  0.54610933  0.13196273  0.00711320  1
  Li  Li41  1  0.95389067  0.86803727  0.50711320  1
  Li  Li42  1  0.45389067  0.63196273  0.99288680  1
  Li  Li43  1  0.04610933  0.36803727  0.49288680  1
  Li  Li44  1  0.87751375  0.25000000  0.30152712  1
  Li  Li45  1  0.62248625  0.75000000  0.80152712  1
  Li  Li46  1  0.12248625  0.75000000  0.69847288  1
  Li  Li47  1  0.37751375  0.25000000  0.19847288  1
