# generated using pymatgen
data_Li2S
_symmetry_space_group_name_H-M   'P 1'
_cell_length_a   9.37058712
_cell_length_b   12.13676516
_cell_length_c   10.77300172
_cell_angle_alpha   90.00000000
_cell_angle_beta   90.00000000
_cell_angle_gamma   90.00000000
_symmetry_Int_Tables_number   1
_chemical_formula_structural   Li2S
_chemical_formula_sum   'Li64 S32'
_cell_volume   1225.19856810
_cell_formula_units_Z   32
loop_
 _symmetry_equiv_pos_site_id
 _symmetry_equiv_pos_as_xyz
  1  'x, y, z'
loop_
 _atom_site_type_symbol
 _atom_site_label
 _atom_site_symmetry_multiplicity
 _atom_site_fract_x
 _atom_site_fract_y
 _atom_site_fract_z
 _atom_site_occupancy
  Li  Li0  1  0.53194051  0.35981701  0.61904658  1
  Li  Li1  1  0.46805949  0.64018299  0.61904658  1
  Li  Li2  1  0.96805949  0.85981701  0.88095342  1
  Li  Li3  1  0.03194051  0.14018299  0.88095342  1
  Li  Li4  1  0.46805949  0.64018299  0.38095342  1
  Li  Li5  1  0.53194051  0.35981701  0.38095342  1
  Li  Li6  1  0.03194051  0.14018299  0.11904658  1
  Li  Li7  1  0.96805949  0.85981701  0.11904658  1
  Li  Li8  1  0.16949330  0.01026739  0.11652975  1
  Li  Li9  1  0.83050670  0.98973261  0.11652975  1
  Li  Li10  1  0.33050670  0.51026739  0.38347025  1
  Li  Li11  1  0.66949330  0.48973261  0.38347025  1
  Li  Li12  1  0.83050670  0.98973261  0.88347025  1
  Li  Li13  1  0.16949330  0.01026739  0.88347025  1
  Li  Li14  1  0.66949330  0.48973261  0.61652975  1
  Li  Li15  1  0.33050670  0.51026739  0.61652975  1
  Li  Li16  1  0.18348046  0.13354602  0.26899387  1
  Li  Li17  1  0.81651954  0.86645398  0.26899387  1
  Li  Li18  1  0.31651954  0.63354602  0.23100613  1
  Li  Li19  1  0.68348046  0.36645398  0.23100613  1
  Li  Li20  1  0.81651954  0.86645398  0.73100613  1
  Li  Li21  1  0.18348046  0.13354602  0.73100613  1
  Li  Li22  1  0.68348046  0.36645398  0.76899387  1
  Li  Li23  1  0.31651954  0.63354602  0.76899387  1
  Li  Li24  1  0.92674214  0.31881248  0.15600032  1
  Li  Li25  1  0.07325786  0.68118752  0.15600032  1
  Li  Li26  1  0.57325786  0.81881248  0.34399968  1
  Li  Li27  1  0.42674214  0.18118752  0.34399968  1
  Li  Li28  1  0.07325786  0.68118752  0.84399968  1
  Li  Li29  1  0.92674214  0.31881248  0.84399968  1
  Li  Li30  1  0.42674214  0.18118752  0.65600032  1
  Li  Li31  1  0.57325786  0.81881248  0.65600032  1
  Li  Li32  1  0.00000000  0.50000000  0.36354999  1
  Li  Li33  1  0.50000000  0.00000000  0.13645001  1
  Li  Li34  1  0.00000000  0.50000000  0.63645001  1
  Li  Li35  1  0.50000000  0.00000000  0.86354999  1
  Li  Li36  1  0.00000000  0.50000000  0.79042608  1
  Li  Li37  1  0.50000000  0.00000000  0.70957392  1
  Li  Li38  1  0.00000000  0.50000000  0.20957392  1
  Li  Li39  1  0.50000000  0.00000000  0.29042608  1
  Li  Li40  1  0.80516608  0.42336988  0.13314997  1
  Li  Li41  1  0.19483392  0.57663012  0.13314997  1
  Li  Li42  1  0.69483392  0.92336988  0.36685003  1
  Li  Li43  1  0.30516608  0.07663012  0.36685003  1
  Li  Li44  1  0.19483392  0.57663012  0.86685003  1
  Li  Li45  1  0.80516608  0.42336988  0.86685003  1
  Li  Li46  1  0.30516608  0.07663012  0.63314997  1
  Li  Li47  1  0.69483392  0.92336988  0.63314997  1
  Li  Li48  1  0.00000000  0.00000000  0.86646058  1
  Li  Li49  1  0.50000000  0.50000000  0.63353942  1
  Li  Li50  1  0.00000000  0.00000000  0.13353942  1
  Li  Li51  1  0.50000000  0.50000000  0.36646058  1
  Li  Li52  1  0.24309807  0.25120623  0.77795956  1
  Li  Li53  1  0.75690193  0.74879377  0.77795956  1
  Li  Li54  1  0.25690193  0.75120623  0.72204044  1
  Li  Li55  1  0.74309807  0.24879377  0.72204044  1
  Li  Li56  1  0.75690193  0.74879377  0.22204044  1
  Li  Li57  1  0.24309807  0.25120623  0.22204044  1
  Li  Li58  1  0.74309807  0.24879377  0.27795956  1
  Li  Li59  1  0.25690193  0.75120623  0.27795956  1
  Li  Li60  1  0.30764203  0.46691805  0.00000000  1
  Li  Li61  1  0.69235797  0.53308195  0.00000000  1
  Li  Li62  1  0.19235797  0.96691805  0.50000000  1
  Li  Li63  1  0.80764203  0.03308195  0.50000000  1
  S  S64  1  0.00000000  0.00000000  0.00000000  1
  S  S65  1  0.50000000  0.50000000  0.50000000  1
  S  S66  1  0.88878327  0.71337390  0.64493728  1
  S  S67  1  -0.88878327  -0.71337390  0.64493728  1
  S  S68  1  -0.38878327  1.21337390  -0.14493728  1
  S  S69  1  1.38878327  -0.21337390  -0.14493728  1
  S  S70  1  -0.88878327  -0.71337390  -0.64493728  1
  S  S71  1  0.88878327  0.71337390  -0.64493728  1
  S  S72  1  1.38878327  -0.21337390  1.14493728  1
  S  S73  1  -0.38878327  1.21337390  1.14493728  1
  S  S74  1  0.58340136  0.47846615  0.13983617  1
  S  S75  1  0.41659864  0.52153385  0.13983617  1
  S  S76  1  0.91659864  0.97846615  0.36016383  1
  S  S77  1  0.08340136  0.02153385  0.36016383  1
  S  S78  1  0.41659864  0.52153385  0.86016383  1
  S  S79  1  0.58340136  0.47846615  0.86016383  1
  S  S80  1  0.08340136  0.02153385  0.63983617  1
  S  S81  1  0.91659864  0.97846615  0.63983617  1
  S  S82  1  0.02744721  0.65820659  0.00000000  1
  S  S83  1  0.97255279  0.34179341  -0.00000000  1
  S  S84  1  0.47255279  0.15820659  0.50000000  1
  S  S85  1  0.52744721  0.84179341  0.50000000  1
  S  S86  1  0.00000000  0.00000000  0.50000000  1
  S  S87  1  0.50000000  0.50000000  0.00000000  1
  S  S88  1  0.39226048  0.74896010  0.40846145  1
  S  S89  1  0.60773952  0.25103990  0.40846145  1
  S  S90  1  0.10773952  0.24896010  0.09153855  1
  S  S91  1  0.89226048  0.75103990  0.09153855  1
  S  S92  1  0.60773952  0.25103990  0.59153855  1
  S  S93  1  0.39226048  0.74896010  0.59153855  1
  S  S94  1  0.89226048  0.75103990  0.90846145  1
  S  S95  1  0.10773952  0.24896010  0.90846145  1
