# generated using pymatgen
data_LiF
_symmetry_space_group_name_H-M   'P 1'
_cell_length_a   18.96216114
_cell_length_b   18.96216114
_cell_length_c   3.41555612
_cell_angle_alpha   90.00000000
_cell_angle_beta   90.00000000
_cell_angle_gamma   120.00000000
_symmetry_Int_Tables_number   1
_chemical_formula_structural   LiF
_chemical_formula_sum   'Li27 F27'
_cell_volume   1063.57402592
_cell_formula_units_Z   27
loop_
 _symmetry_equiv_pos_site_id
 _symmetry_equiv_pos_as_xyz
  1  'x, y, z'
loop_
 _atom_site_type_symbol
 _atom_site_label
 _atom_site_symmetry_multiplicity
 _atom_site_fract_x
 _atom_site_fract_y
 _atom_site_fract_z
 _atom_site_occupancy
  F  F0  1  0.40337139  0.12251176  0.59772094  1
  F  F1  1  -0.12251176  0.28085964  0.59772094  1
  F  F2  1  -0.28085964  -0.40337139  0.59772094  1
  F  F3  1  0.40337139  0.12251176  -0.59772094  1
  F  F4  1  -0.12251176  0.28085964  -0.59772094  1
  F  F5  1  -0.28085964  -0.40337139  -0.59772094  1
  F  F6  1  0.12251176  0.40337139  -0.59772094  1
  F  F7  1  0.28085964  -0.12251176  -0.59772094  1
  F  F8  1  -0.40337139  -0.28085964  -0.59772094  1
  F  F9  1  0.12251176  0.40337139  0.59772094  1
  F  F10  1  0.28085964  -0.12251176  0.59772094  1
  F  F11  1  -0.40337139  -0.28085964  0.59772094  1
  F  F12  1  0.73288646  0.42070603  0.13365693  1
  F  F13  1  0.57929397  0.31218043  0.13365693  1
  F  F14  1  0.68781957  0.26711354  0.13365693  1
  F  F15  1  0.73288646  0.42070603  0.86634307  1
  F  F16  1  0.57929397  0.31218043  0.86634307  1
  F  F17  1  0.68781957  0.26711354  0.86634307  1
  F  F18  1  0.42070603  0.73288646  0.86634307  1
  F  F19  1  0.31218043  0.57929397  0.86634307  1
  F  F20  1  0.26711354  0.68781957  0.86634307  1
  F  F21  1  0.42070603  0.73288646  0.13365693  1
  F  F22  1  0.31218043  0.57929397  0.13365693  1
  F  F23  1  0.26711354  0.68781957  0.13365693  1
  F  F24  1  0.89241577  -0.00000000  0.50000000  1
  F  F25  1  0.00000000  0.89241577  0.50000000  1
  F  F26  1  0.10758423  0.10758423  0.50000000  1
  Li  Li27  1  0.05693193  0.00000000  -0.00000000  1
  Li  Li28  1  0.00000000  0.05693193  0.00000000  1
  Li  Li29  1  0.94306807  0.94306807  -0.00000000  1
  Li  Li30  1  0.62577273  0.50689847  0.50000000  1
  Li  Li31  1  0.49310153  0.11887426  0.50000000  1
  Li  Li32  1  0.88112574  0.37422727  0.50000000  1
  Li  Li33  1  0.50689847  0.62577273  0.50000000  1
  Li  Li34  1  0.11887426  0.49310153  0.50000000  1
  Li  Li35  1  0.37422727  0.88112574  0.50000000  1
  Li  Li36  1  0.58941477  0.87085600  0.50000000  1
  Li  Li37  1  0.12914400  0.71855878  0.50000000  1
  Li  Li38  1  0.28144122  0.41058523  0.50000000  1
  Li  Li39  1  0.87085600  0.58941477  0.50000000  1
  Li  Li40  1  0.71855878  0.12914400  0.50000000  1
  Li  Li41  1  0.41058523  0.28144122  0.50000000  1
  Li  Li42  1  0.94255974  0.19148623  -0.00000000  1
  Li  Li43  1  0.80851377  0.75107351  -0.00000000  1
  Li  Li44  1  0.24892649  0.05744026  -0.00000000  1
  Li  Li45  1  0.19148623  0.94255974  -0.00000000  1
  Li  Li46  1  0.75107351  0.80851377  0.00000000  1
  Li  Li47  1  0.05744026  0.24892649  0.00000000  1
  Li  Li48  1  0.32817107  0.00000000  -0.00000000  1
  Li  Li49  1  0.00000000  0.32817107  0.00000000  1
  Li  Li50  1  0.67182893  0.67182893  0.00000000  1
  Li  Li51  1  0.00000000  0.00000000  0.50000000  1
  Li  Li52  1  0.33333333  0.66666667  0.50000000  1
  Li  Li53  1  0.66666667  0.33333333  0.50000000  1
