# generated using pymatgen
data_LiF
_symmetry_space_group_name_H-M   'P 1'
_cell_length_a   10.94456901
_cell_length_b   10.98802316
_cell_length_c   10.15968121
_cell_angle_alpha   90.00000000
_cell_angle_beta   90.00000000
_cell_angle_gamma   90.00000000
_symmetry_Int_Tables_number   1
_chemical_formula_structural   LiF
_chemical_formula_sum   'Li56 F56'
_cell_volume   1221.79490850
_cell_formula_units_Z   56
loop_
 _symmetry_equiv_pos_site_id
 _symmetry_equiv_pos_as_xyz
  1  'x, y, z'
loop_
 _atom_site_type_symbol
 _atom_site_label
 _atom_site_symmetry_multiplicity
 _atom_site_fract_x
 _atom_site_fract_y
 _atom_site_fract_z
 _atom_site_occupancy
  F  F0  1  0.98756743  0.58531093  0.95824103  1
  F  F1  1  0.51243257  0.41468907  0.45824103  1
  F  F2  1  0.01243257  0.08531093  0.04175897  1
  F  F3  1  0.48756743  0.91468907  0.54175897  1
  F  F4  1  0.01243257  0.41468907  0.04175897  1
  F  F5  1  0.48756743  0.58531093  0.54175897  1
  F  F6  1  0.98756743  0.91468907  0.95824103  1
  F  F7  1  0.51243257  0.08531093  0.45824103  1
  F  F8  1  0.35712945  0.65437132  0.56635972  1
  F  F9  1  0.14287055  0.34562868  0.06635972  1
  F  F10  1  0.64287055  0.15437132  0.43364028  1
  F  F11  1  0.85712945  0.84562868  0.93364028  1
  F  F12  1  0.64287055  0.34562868  0.43364028  1
  F  F13  1  0.85712945  0.65437132  0.93364028  1
  F  F14  1  0.35712945  0.84562868  0.56635972  1
  F  F15  1  0.14287055  0.15437132  0.06635972  1
  F  F16  1  0.44477290  0.50574540  0.14623838  1
  F  F17  1  0.05522710  0.49425460  0.64623838  1
  F  F18  1  0.55522710  0.00574540  0.85376162  1
  F  F19  1  0.94477290  0.99425460  0.35376162  1
  F  F20  1  0.55522710  0.49425460  0.85376162  1
  F  F21  1  0.94477290  0.50574540  0.35376162  1
  F  F22  1  0.44477290  0.99425460  0.14623838  1
  F  F23  1  0.05522710  0.00574540  0.64623838  1
  F  F24  1  0.25160310  0.82468271  0.23316632  1
  F  F25  1  0.24839690  0.17531729  0.73316632  1
  F  F26  1  0.74839690  0.32468271  0.76683368  1
  F  F27  1  0.75160310  0.67531729  0.26683368  1
  F  F28  1  0.74839690  0.17531729  0.76683368  1
  F  F29  1  0.75160310  0.82468271  0.26683368  1
  F  F30  1  0.25160310  0.67531729  0.23316632  1
  F  F31  1  0.24839690  0.32468271  0.73316632  1
  F  F32  1  0.91154961  0.47140104  0.90034140  1
  F  F33  1  0.58845039  0.52859896  0.40034140  1
  F  F34  1  0.08845039  0.97140104  0.09965860  1
  F  F35  1  0.41154961  0.02859896  0.59965860  1
  F  F36  1  0.08845039  0.52859896  0.09965860  1
  F  F37  1  0.41154961  0.47140104  0.59965860  1
  F  F38  1  0.91154961  0.02859896  0.90034140  1
  F  F39  1  0.58845039  0.97140104  0.40034140  1
  F  F40  1  0.00000000  0.00000000  0.50000000  1
  F  F41  1  0.50000000  0.00000000  0.00000000  1
  F  F42  1  0.00000000  0.50000000  0.50000000  1
  F  F43  1  0.50000000  0.50000000  0.00000000  1
  F  F44  1  0.54877264  0.10440654  0.01762497  1
  F  F45  1  0.95122736  0.89559346  0.51762497  1
  F  F46  1  0.45122736  0.60440654  0.98237503  1
  F  F47  1  0.04877264  0.39559346  0.48237503  1
  F  F48  1  0.45122736  0.89559346  0.98237503  1
  F  F49  1  0.04877264  0.10440654  0.48237503  1
  F  F50  1  0.54877264  0.39559346  0.01762497  1
  F  F51  1  0.95122736  0.60440654  0.51762497  1
  F  F52  1  0.18728423  0.25000000  0.45299705  1
  F  F53  1  0.31271577  0.75000000  0.95299705  1
  F  F54  1  0.81271577  0.75000000  0.54700295  1
  F  F55  1  0.68728423  0.25000000  0.04700295  1
  Li  Li56  1  0.54028513  0.60377734  0.73101845  1
  Li  Li57  1  -0.04028513  -0.60377734  1.23101845  1
  Li  Li58  1  -0.54028513  1.10377734  -0.73101845  1
  Li  Li59  1  1.04028513  -0.10377734  -0.23101845  1
  Li  Li60  1  -0.54028513  -0.60377734  -0.73101845  1
  Li  Li61  1  1.04028513  0.60377734  -0.23101845  1
  Li  Li62  1  0.54028513  -0.10377734  0.73101845  1
  Li  Li63  1  -0.04028513  1.10377734  1.23101845  1
  Li  Li64  1  0.00000000  0.00000000  0.00000000  1
  Li  Li65  1  0.50000000  0.00000000  0.50000000  1
  Li  Li66  1  0.00000000  0.50000000  0.00000000  1
  Li  Li67  1  0.50000000  0.50000000  0.50000000  1
  Li  Li68  1  0.48488304  0.05036720  0.86893291  1
  Li  Li69  1  0.01511696  0.94963280  0.36893291  1
  Li  Li70  1  0.51511696  0.55036720  0.13106709  1
  Li  Li71  1  0.98488304  0.44963280  0.63106709  1
  Li  Li72  1  0.51511696  0.94963280  0.13106709  1
  Li  Li73  1  0.98488304  0.05036720  0.63106709  1
  Li  Li74  1  0.48488304  0.44963280  0.86893291  1
  Li  Li75  1  0.01511696  0.55036720  0.36893291  1
  Li  Li76  1  0.24686139  0.25000000  0.81164516  1
  Li  Li77  1  0.25313861  0.75000000  0.31164516  1
  Li  Li78  1  0.75313861  0.75000000  0.18835484  1
  Li  Li79  1  0.74686139  0.25000000  0.68835484  1
  Li  Li80  1  0.06223272  0.05030724  0.73240606  1
  Li  Li81  1  0.43776728  0.94969276  0.23240606  1
  Li  Li82  1  0.93776728  0.55030724  0.26759394  1
  Li  Li83  1  0.56223272  0.44969276  0.76759394  1
  Li  Li84  1  0.93776728  0.94969276  0.26759394  1
  Li  Li85  1  0.56223272  0.05030724  0.76759394  1
  Li  Li86  1  0.06223272  0.44969276  0.73240606  1
  Li  Li87  1  0.43776728  0.55030724  0.23240606  1
  Li  Li88  1  0.92085059  0.25000000  0.55779738  1
  Li  Li89  1  0.57914941  0.75000000  0.05779738  1
  Li  Li90  1  0.07914941  0.75000000  0.44220262  1
  Li  Li91  1  0.42085059  0.25000000  0.94220262  1
  Li  Li92  1  0.08900819  0.25000000  0.45171615  1
  Li  Li93  1  0.41099181  0.75000000  0.95171615  1
  Li  Li94  1  0.91099181  0.75000000  0.54828385  1
  Li  Li95  1  0.58900819  0.25000000  0.04828385  1
  Li  Li96  1  0.37142134  0.81215300  0.29033534  1
  Li  Li97  1  0.12857866  0.18784700  0.79033534  1
  Li  Li98  1  0.62857866  0.31215300  0.70966466  1
  Li  Li99  1  0.87142134  0.68784700  0.20966466  1
  Li  Li100  1  0.62857866  0.18784700  0.70966466  1
  Li  Li101  1  0.87142134  0.81215300  0.20966466  1
  Li  Li102  1  0.37142134  0.68784700  0.29033534  1
  Li  Li103  1  0.12857866  0.31215300  0.79033534  1
  Li  Li104  1  0.50453109  0.25000000  0.80824775  1
  Li  Li105  1  0.99546891  0.75000000  0.30824775  1
  Li  Li106  1  0.49546891  0.75000000  0.19175225  1
  Li  Li107  1  0.00453109  0.25000000  0.69175225  1
  Li  Li108  1  0.67752127  0.25000000  0.50230392  1
  Li  Li109  1  0.82247873  0.75000000  0.00230392  1
  Li  Li110  1  0.32247873  0.75000000  0.49769608  1
  Li  Li111  1  0.17752127  0.25000000  0.99769608  1
