# generated using pymatgen
data_Li2Y2P3Se2
_symmetry_space_group_name_H-M   'P 1'
_cell_length_a   4.59556133
_cell_length_b   4.89905104
_cell_length_c   7.01233427
_cell_angle_alpha   95.47726699
_cell_angle_beta   101.92834879
_cell_angle_gamma   112.00000458
_symmetry_Int_Tables_number   1
_chemical_formula_structural   Li2Y2P3Se2
_chemical_formula_sum   'Li2 Y2 P3 Se2'
_cell_volume   140.59362323
_cell_formula_units_Z   1
loop_
 _symmetry_equiv_pos_site_id
 _symmetry_equiv_pos_as_xyz
  1  'x, y, z'
loop_
 _atom_site_type_symbol
 _atom_site_label
 _atom_site_symmetry_multiplicity
 _atom_site_fract_x
 _atom_site_fract_y
 _atom_site_fract_z
 _atom_site_occupancy
  P  P0  1  0.00000000  0.00000000  0.00000000  1
  P  P1  1  0.33300000  0.66700000  0.25000000  1
  P  P2  1  0.66700000  0.33300000  0.50000000  1
  Se  Se3  1  0.00000000  0.00000000  0.75000000  1
  Se  Se4  1  0.15771370  0.85664554  0.27784028  1
  Li  Li5  1  0.82547336  0.16047820  0.30956927  1
  Li  Li6  1  0.31164983  0.07806416  0.49291945  1
  Y  Y7  1  0.19356293  0.35255340  0.02213573  1
  Y  Y8  1  0.73143216  0.56530284  0.21240497  1
