# generated using pymatgen
data_LiF
_symmetry_space_group_name_H-M   'P 1'
_cell_length_a   6.17941214
_cell_length_b   8.77407889
_cell_length_c   13.03304410
_cell_angle_alpha   90.00000000
_cell_angle_beta   90.00000000
_cell_angle_gamma   90.00000000
_symmetry_Int_Tables_number   1
_chemical_formula_structural   LiF
_chemical_formula_sum   'Li28 F28'
_cell_volume   706.63405161
_cell_formula_units_Z   28
loop_
 _symmetry_equiv_pos_site_id
 _symmetry_equiv_pos_as_xyz
  1  'x, y, z'
loop_
 _atom_site_type_symbol
 _atom_site_label
 _atom_site_symmetry_multiplicity
 _atom_site_fract_x
 _atom_site_fract_y
 _atom_site_fract_z
 _atom_site_occupancy
  F  F0  1  0.00000000  0.00000000  0.00000000  1
  F  F1  1  0.50000000  0.00000000  0.50000000  1
  F  F2  1  0.00000000  0.50000000  -0.00000000  1
  F  F3  1  0.50000000  0.50000000  0.50000000  1
  F  F4  1  0.25354591  0.65139307  0.16460892  1
  F  F5  1  0.24645409  0.34860693  0.66460892  1
  F  F6  1  0.74645409  0.15139307  0.83539108  1
  F  F7  1  0.75354591  0.84860693  0.33539108  1
  F  F8  1  0.74645409  0.34860693  0.83539108  1
  F  F9  1  0.75354591  0.65139307  0.33539108  1
  F  F10  1  0.25354591  0.84860693  0.16460892  1
  F  F11  1  0.24645409  0.15139307  0.66460892  1
  F  F12  1  0.69066601  0.04640424  0.73824314  1
  F  F13  1  0.80933399  0.95359576  0.23824314  1
  F  F14  1  0.30933399  0.54640424  0.26175686  1
  F  F15  1  0.19066601  0.45359576  0.76175686  1
  F  F16  1  0.30933399  0.95359576  0.26175686  1
  F  F17  1  0.19066601  0.04640424  0.76175686  1
  F  F18  1  0.69066601  0.45359576  0.73824314  1
  F  F19  1  0.80933399  0.54640424  0.23824314  1
  F  F20  1  0.08886814  0.65951849  0.77744361  1
  F  F21  1  0.41113186  0.34048151  0.27744361  1
  F  F22  1  0.91113186  0.15951849  0.22255639  1
  F  F23  1  0.58886814  0.84048151  0.72255639  1
  F  F24  1  0.91113186  0.34048151  0.22255639  1
  F  F25  1  0.58886814  0.65951849  0.72255639  1
  F  F26  1  0.08886814  0.84048151  0.77744361  1
  F  F27  1  0.41113186  0.15951849  0.27744361  1
  Li  Li28  1  0.06549546  0.97490628  0.26671751  1
  Li  Li29  1  0.43450454  -0.97490628  0.76671751  1
  Li  Li30  1  -0.06549546  1.47490628  -0.26671751  1
  Li  Li31  1  0.56549546  -0.47490628  0.23328249  1
  Li  Li32  1  -0.06549546  -0.97490628  -0.26671751  1
  Li  Li33  1  0.56549546  0.97490628  0.23328249  1
  Li  Li34  1  0.06549546  -0.47490628  0.26671751  1
  Li  Li35  1  0.43450454  1.47490628  0.76671751  1
  Li  Li36  1  0.30135844  0.91420541  0.07024599  1
  Li  Li37  1  0.19864156  0.08579459  0.57024599  1
  Li  Li38  1  0.69864156  0.41420541  0.92975401  1
  Li  Li39  1  0.80135844  0.58579459  0.42975401  1
  Li  Li40  1  0.69864156  0.08579459  0.92975401  1
  Li  Li41  1  0.80135844  0.91420541  0.42975401  1
  Li  Li42  1  0.30135844  0.58579459  0.07024599  1
  Li  Li43  1  0.19864156  0.41420541  0.57024599  1
  Li  Li44  1  0.13441510  0.83063999  0.41870052  1
  Li  Li45  1  0.36558490  0.16936001  0.91870052  1
  Li  Li46  1  0.86558490  0.33063999  0.58129948  1
  Li  Li47  1  0.63441510  0.66936001  0.08129948  1
  Li  Li48  1  0.86558490  0.16936001  0.58129948  1
  Li  Li49  1  0.63441510  0.83063999  0.08129948  1
  Li  Li50  1  0.13441510  0.66936001  0.41870052  1
  Li  Li51  1  0.36558490  0.33063999  0.91870052  1
  Li  Li52  1  0.00000000  0.00000000  0.50000000  1
  Li  Li53  1  0.50000000  0.00000000  0.00000000  1
  Li  Li54  1  0.00000000  0.50000000  0.50000000  1
  Li  Li55  1  0.50000000  0.50000000  -0.00000000  1
