# generated using pymatgen
data_LiF
_symmetry_space_group_name_H-M   'P 1'
_cell_length_a   8.89672682
_cell_length_b   12.64902974
_cell_length_c   12.68572626
_cell_angle_alpha   90.00000000
_cell_angle_beta   90.00000000
_cell_angle_gamma   90.00000000
_symmetry_Int_Tables_number   1
_chemical_formula_structural   LiF
_chemical_formula_sum   'Li36 F36'
_cell_volume   1427.58772557
_cell_formula_units_Z   36
loop_
 _symmetry_equiv_pos_site_id
 _symmetry_equiv_pos_as_xyz
  1  'x, y, z'
loop_
 _atom_site_type_symbol
 _atom_site_label
 _atom_site_symmetry_multiplicity
 _atom_site_fract_x
 _atom_site_fract_y
 _atom_site_fract_z
 _atom_site_occupancy
  F  F0  1  0.23992113  0.25000000  0.17750432  1
  F  F1  1  0.26007887  0.75000000  0.67750432  1
  F  F2  1  0.76007887  0.75000000  0.82249568  1
  F  F3  1  0.73992113  0.25000000  0.32249568  1
  F  F4  1  0.77212125  0.70572298  0.50950933  1
  F  F5  1  0.72787875  0.29427702  0.00950933  1
  F  F6  1  0.22787875  0.20572298  0.49049067  1
  F  F7  1  0.27212125  0.79427702  0.99049067  1
  F  F8  1  0.22787875  0.29427702  0.49049067  1
  F  F9  1  0.27212125  0.70572298  0.99049067  1
  F  F10  1  0.77212125  0.79427702  0.50950933  1
  F  F11  1  0.72787875  0.20572298  0.00950933  1
  F  F12  1  0.00000000  0.00000000  0.50000000  1
  F  F13  1  0.50000000  0.00000000  0.00000000  1
  F  F14  1  0.00000000  0.50000000  0.50000000  1
  F  F15  1  0.50000000  0.50000000  0.00000000  1
  F  F16  1  0.06168197  0.64632057  0.42228078  1
  F  F17  1  0.43831803  0.35367943  0.92228078  1
  F  F18  1  0.93831803  0.14632057  0.57771922  1
  F  F19  1  0.56168197  0.85367943  0.07771922  1
  F  F20  1  0.93831803  0.35367943  0.57771922  1
  F  F21  1  0.56168197  0.64632057  0.07771922  1
  F  F22  1  0.06168197  0.85367943  0.42228078  1
  F  F23  1  0.43831803  0.14632057  0.92228078  1
  F  F24  1  0.19808251  0.25000000  0.24370097  1
  F  F25  1  0.30191749  0.75000000  0.74370097  1
  F  F26  1  0.80191749  0.75000000  0.75629903  1
  F  F27  1  0.69808251  0.25000000  0.25629903  1
  F  F28  1  0.28505841  0.25000000  0.82269814  1
  F  F29  1  0.21494159  0.75000000  0.32269814  1
  F  F30  1  0.71494159  0.75000000  0.17730186  1
  F  F31  1  0.78505841  0.25000000  0.67730186  1
  F  F32  1  0.00000000  0.00000000  0.00000000  1
  F  F33  1  0.50000000  0.00000000  0.50000000  1
  F  F34  1  0.00000000  0.50000000  0.00000000  1
  F  F35  1  0.50000000  0.50000000  0.50000000  1
  Li  Li36  1  0.39459911  0.39806421  0.37112082  1
  Li  Li37  1  0.10540089  -0.39806421  0.87112082  1
  Li  Li38  1  -0.39459911  0.89806421  -0.37112082  1
  Li  Li39  1  0.89459911  0.10193579  0.12887918  1
  Li  Li40  1  -0.39459911  -0.39806421  -0.37112082  1
  Li  Li41  1  0.89459911  0.39806421  0.12887918  1
  Li  Li42  1  0.39459911  0.10193579  0.37112082  1
  Li  Li43  1  0.10540089  0.89806421  0.87112082  1
  Li  Li44  1  0.47330185  0.44776070  0.86805610  1
  Li  Li45  1  0.02669815  0.55223930  0.36805610  1
  Li  Li46  1  0.52669815  0.94776070  0.13194390  1
  Li  Li47  1  0.97330185  0.05223930  0.63194390  1
  Li  Li48  1  0.52669815  0.55223930  0.13194390  1
  Li  Li49  1  0.97330185  0.44776070  0.63194390  1
  Li  Li50  1  0.47330185  0.05223930  0.86805610  1
  Li  Li51  1  0.02669815  0.94776070  0.36805610  1
  Li  Li52  1  0.62570960  0.09734930  0.46353542  1
  Li  Li53  1  0.87429040  0.90265070  0.96353542  1
  Li  Li54  1  0.37429040  0.59734930  0.53646458  1
  Li  Li55  1  0.12570960  0.40265070  0.03646458  1
  Li  Li56  1  0.37429040  0.90265070  0.53646458  1
  Li  Li57  1  0.12570960  0.09734930  0.03646458  1
  Li  Li58  1  0.62570960  0.40265070  0.46353542  1
  Li  Li59  1  0.87429040  0.59734930  0.96353542  1
  Li  Li60  1  0.36720604  0.25000000  0.51123178  1
  Li  Li61  1  0.13279396  0.75000000  0.01123178  1
  Li  Li62  1  0.63279396  0.75000000  0.48876822  1
  Li  Li63  1  0.86720604  0.25000000  0.98876822  1
  Li  Li64  1  0.63048273  0.25000000  0.71689742  1
  Li  Li65  1  0.86951727  0.75000000  0.21689742  1
  Li  Li66  1  0.36951727  0.75000000  0.28310258  1
  Li  Li67  1  0.13048273  0.25000000  0.78310258  1
  Li  Li68  1  0.81536211  0.25000000  0.78795353  1
  Li  Li69  1  0.68463789  0.75000000  0.28795353  1
  Li  Li70  1  0.18463789  0.75000000  0.21204647  1
  Li  Li71  1  0.31536211  0.25000000  0.71204647  1
