# generated using pymatgen
data_Li2Ca3F8
_symmetry_space_group_name_H-M   'P 1'
_cell_length_a   11.25042959
_cell_length_b   11.25042959
_cell_length_c   14.50598101
_cell_angle_alpha   90.00000000
_cell_angle_beta   90.00000000
_cell_angle_gamma   120.00000000
_symmetry_Int_Tables_number   1
_chemical_formula_structural   Li2Ca3F8
_chemical_formula_sum   'Li16 Ca24 F64'
_cell_volume   1590.06891940
_cell_formula_units_Z   8
loop_
 _symmetry_equiv_pos_site_id
 _symmetry_equiv_pos_as_xyz
  1  'x, y, z'
loop_
 _atom_site_type_symbol
 _atom_site_label
 _atom_site_symmetry_multiplicity
 _atom_site_fract_x
 _atom_site_fract_y
 _atom_site_fract_z
 _atom_site_occupancy
  Ca  Ca0  1  0.66666667  0.33333333  0.31647185  1
  Ca  Ca1  1  0.66666667  0.33333333  0.68352815  1
  Ca  Ca2  1  0.84130549  0.08295952  0.81474710  1
  Ca  Ca3  1  0.91704048  0.75834597  0.81474710  1
  Ca  Ca4  1  0.24165403  0.15869451  0.81474710  1
  Ca  Ca5  1  0.91704048  0.15869451  0.18525290  1
  Ca  Ca6  1  0.24165403  0.08295952  0.18525290  1
  Ca  Ca7  1  0.84130549  0.75834597  0.18525290  1
  Ca  Ca8  1  0.77447237  0.97488096  0.03357143  1
  Ca  Ca9  1  0.02511904  0.79959142  0.03357143  1
  Ca  Ca10  1  0.20040858  0.22552763  0.03357143  1
  Ca  Ca11  1  0.02511904  0.22552763  0.96642857  1
  Ca  Ca12  1  0.20040858  0.97488096  0.96642857  1
  Ca  Ca13  1  0.77447237  0.79959142  0.96642857  1
  Ca  Ca14  1  0.00000000  0.00000000  0.22392393  1
  Ca  Ca15  1  0.00000000  0.00000000  0.77607607  1
  Ca  Ca16  1  0.08118162  0.17032358  0.17819489  1
  Ca  Ca17  1  0.82967642  0.91085804  0.17819489  1
  Ca  Ca18  1  0.08914196  0.91881838  0.17819489  1
  Ca  Ca19  1  0.82967642  0.91881838  0.82180511  1
  Ca  Ca20  1  0.08914196  0.17032358  0.82180511  1
  Ca  Ca21  1  0.08118162  0.91085804  0.82180511  1
  Ca  Ca22  1  0.33333333  0.66666667  0.35217969  1
  Ca  Ca23  1  0.33333333  0.66666667  0.64782031  1
  F  F24  1  0.00000000  0.00000000  0.50000000  1
  F  F25  1  0.33333333  0.66666667  0.50000000  1
  F  F26  1  0.04877746  0.70458079  0.67294161  1
  F  F27  1  -0.70458079  -0.65580334  0.67294161  1
  F  F28  1  0.65580334  -0.04877746  0.67294161  1
  F  F29  1  -0.70458079  -0.04877746  -0.67294161  1
  F  F30  1  0.65580334  0.70458079  -0.67294161  1
  F  F31  1  0.04877746  -0.65580334  -0.67294161  1
  F  F32  1  0.44356537  0.12640643  0.08927309  1
  F  F33  1  0.87359357  0.31715894  0.08927309  1
  F  F34  1  0.68284106  0.55643463  0.08927309  1
  F  F35  1  0.87359357  0.55643463  0.91072691  1
  F  F36  1  0.68284106  0.12640643  0.91072691  1
  F  F37  1  0.44356537  0.31715894  0.91072691  1
  F  F38  1  0.06952546  0.94932107  0.66466678  1
  F  F39  1  0.05067893  0.12020439  0.66466678  1
  F  F40  1  0.87979561  0.93047454  0.66466678  1
  F  F41  1  0.05067893  0.93047454  0.33533322  1
  F  F42  1  0.87979561  0.94932107  0.33533322  1
  F  F43  1  0.06952546  0.12020439  0.33533322  1
  F  F44  1  0.31927658  0.08792660  0.33413342  1
  F  F45  1  0.91207340  0.23134999  0.33413342  1
  F  F46  1  0.76865001  0.68072342  0.33413342  1
  F  F47  1  0.91207340  0.68072342  0.66586658  1
  F  F48  1  0.76865001  0.08792660  0.66586658  1
  F  F49  1  0.31927658  0.23134999  0.66586658  1
  F  F50  1  0.36264381  0.09285451  0.26562622  1
  F  F51  1  0.90714549  0.26978930  0.26562622  1
  F  F52  1  0.73021070  0.63735619  0.26562622  1
  F  F53  1  0.90714549  0.63735619  0.73437378  1
  F  F54  1  0.73021070  0.09285451  0.73437378  1
  F  F55  1  0.36264381  0.26978930  0.73437378  1
  F  F56  1  0.00000000  0.00000000  0.66108953  1
  F  F57  1  0.00000000  0.00000000  0.33891047  1
  F  F58  1  0.00392786  0.25683744  0.58445310  1
  F  F59  1  0.74316256  0.74709042  0.58445310  1
  F  F60  1  0.25290958  0.99607214  0.58445310  1
  F  F61  1  0.74316256  0.99607214  0.41554690  1
  F  F62  1  0.25290958  0.25683744  0.41554690  1
  F  F63  1  0.00392786  0.74709042  0.41554690  1
  F  F64  1  0.00000000  0.00000000  0.57569624  1
  F  F65  1  0.00000000  0.00000000  0.42430376  1
  F  F66  1  0.52188267  0.91812093  0.48074582  1
  F  F67  1  0.08187907  0.60376174  0.48074582  1
  F  F68  1  0.39623826  0.47811733  0.48074582  1
  F  F69  1  0.08187907  0.47811733  0.51925418  1
  F  F70  1  0.39623826  0.91812093  0.51925418  1
  F  F71  1  0.52188267  0.60376174  0.51925418  1
  F  F72  1  0.66666667  0.33333333  0.50000000  1
  F  F73  1  0.74355593  0.61786144  0.83645506  1
  F  F74  1  0.38213856  0.12569449  0.83645506  1
  F  F75  1  0.87430551  0.25644407  0.83645506  1
  F  F76  1  0.38213856  0.25644407  0.16354494  1
  F  F77  1  0.87430551  0.61786144  0.16354494  1
  F  F78  1  0.74355593  0.12569449  0.16354494  1
  F  F79  1  0.00000000  0.00000000  0.61962888  1
  F  F80  1  0.00000000  0.00000000  0.38037112  1
  F  F81  1  0.22889709  0.70229253  0.83437125  1
  F  F82  1  0.29770747  0.52660455  0.83437125  1
  F  F83  1  0.47339545  0.77110291  0.83437125  1
  F  F84  1  0.29770747  0.77110291  0.16562875  1
  F  F85  1  0.47339545  0.70229253  0.16562875  1
  F  F86  1  0.22889709  0.52660455  0.16562875  1
  F  F87  1  0.66666667  0.33333333  0.00000000  1
  Li  Li88  1  0.33333333  0.66666667  0.85317682  1
  Li  Li89  1  0.33333333  0.66666667  0.14682318  1
  Li  Li90  1  0.34994534  0.26396175  0.93622034  1
  Li  Li91  1  0.73603825  0.08598359  0.93622034  1
  Li  Li92  1  0.91401641  0.65005466  0.93622034  1
  Li  Li93  1  0.73603825  0.65005466  0.06377966  1
  Li  Li94  1  0.91401641  0.26396175  0.06377966  1
  Li  Li95  1  0.34994534  0.08598359  0.06377966  1
  Li  Li96  1  0.00000000  0.00000000  0.10558569  1
  Li  Li97  1  0.00000000  0.00000000  0.89441431  1
  Li  Li98  1  0.22226975  0.77773025  -0.00000000  1
  Li  Li99  1  0.22226975  0.44453950  -0.00000000  1
  Li  Li100  1  0.55546050  0.77773025  -0.00000000  1
  Li  Li101  1  0.85064803  0.14935197  -0.00000000  1
  Li  Li102  1  0.85064803  0.70129607  -0.00000000  1
  Li  Li103  1  0.29870393  0.14935197  -0.00000000  1
