# generated using pymatgen
data_LiBO2
_symmetry_space_group_name_H-M   'P 1'
_cell_length_a   13.17656519
_cell_length_b   13.17656519
_cell_length_c   13.17656519
_cell_angle_alpha   90.00000000
_cell_angle_beta   90.00000000
_cell_angle_gamma   90.00000000
_symmetry_Int_Tables_number   1
_chemical_formula_structural   LiBO2
_chemical_formula_sum   'Li48 B48 O96'
_cell_volume   2287.73988960
_cell_formula_units_Z   48
loop_
 _symmetry_equiv_pos_site_id
 _symmetry_equiv_pos_as_xyz
  1  'x, y, z'
loop_
 _atom_site_type_symbol
 _atom_site_label
 _atom_site_symmetry_multiplicity
 _atom_site_fract_x
 _atom_site_fract_y
 _atom_site_fract_z
 _atom_site_occupancy
  B  B0  1  0.12500000  0.63451085  0.61548915  1
  B  B1  1  0.37500000  0.36548915  0.11548915  1
  B  B2  1  0.87500000  0.13451085  0.88451085  1
  B  B3  1  0.62500000  0.86548915  0.38451085  1
  B  B4  1  0.61548915  0.12500000  0.63451085  1
  B  B5  1  0.11548915  0.37500000  0.36548915  1
  B  B6  1  0.88451085  0.87500000  0.13451085  1
  B  B7  1  0.38451085  0.62500000  0.86548915  1
  B  B8  1  0.63451085  0.61548915  0.12500000  1
  B  B9  1  0.36548915  0.11548915  0.37500000  1
  B  B10  1  0.13451085  0.88451085  0.87500000  1
  B  B11  1  0.86548915  0.38451085  0.62500000  1
  B  B12  1  0.62500000  0.13451085  0.11548915  1
  B  B13  1  0.87500000  0.86548915  0.61548915  1
  B  B14  1  0.37500000  0.63451085  0.38451085  1
  B  B15  1  0.12500000  0.36548915  0.88451085  1
  B  B16  1  0.11548915  0.62500000  0.13451085  1
  B  B17  1  0.61548915  0.87500000  0.86548915  1
  B  B18  1  0.38451085  0.37500000  0.63451085  1
  B  B19  1  0.88451085  0.12500000  0.36548915  1
  B  B20  1  0.13451085  0.11548915  0.62500000  1
  B  B21  1  0.86548915  0.61548915  0.87500000  1
  B  B22  1  0.63451085  0.38451085  0.37500000  1
  B  B23  1  0.36548915  0.88451085  0.12500000  1
  B  B24  1  0.31005243  0.00000000  0.25000000  1
  B  B25  1  0.18994757  0.00000000  0.75000000  1
  B  B26  1  0.25000000  0.31005243  0.00000000  1
  B  B27  1  0.75000000  0.18994757  0.00000000  1
  B  B28  1  0.00000000  0.25000000  0.31005243  1
  B  B29  1  0.00000000  0.75000000  0.18994757  1
  B  B30  1  0.75000000  0.56005243  0.00000000  1
  B  B31  1  0.75000000  0.43994757  0.50000000  1
  B  B32  1  0.06005243  0.50000000  0.25000000  1
  B  B33  1  0.93994757  0.00000000  0.25000000  1
  B  B34  1  0.00000000  0.25000000  0.93994757  1
  B  B35  1  0.50000000  0.25000000  0.06005243  1
  B  B36  1  0.81005243  0.50000000  0.75000000  1
  B  B37  1  0.68994757  0.50000000  0.25000000  1
  B  B38  1  0.75000000  0.81005243  0.50000000  1
  B  B39  1  0.25000000  0.68994757  0.50000000  1
  B  B40  1  0.50000000  0.75000000  0.81005243  1
  B  B41  1  0.50000000  0.25000000  0.68994757  1
  B  B42  1  0.25000000  0.06005243  0.50000000  1
  B  B43  1  0.25000000  0.93994757  0.00000000  1
  B  B44  1  0.56005243  0.00000000  0.75000000  1
  B  B45  1  0.43994757  0.50000000  0.75000000  1
  B  B46  1  0.50000000  0.75000000  0.43994757  1
  B  B47  1  0.00000000  0.75000000  0.56005243  1
  Li  Li48  1  0.12500000  0.81369385  0.06369385  1
  Li  Li49  1  0.37500000  0.18630615  0.56369385  1
  Li  Li50  1  0.87500000  0.31369385  0.43630615  1
  Li  Li51  1  0.62500000  0.68630615  0.93630615  1
  Li  Li52  1  0.06369385  0.12500000  0.81369385  1
  Li  Li53  1  0.56369385  0.37500000  0.18630615  1
  Li  Li54  1  0.43630615  0.87500000  0.31369385  1
  Li  Li55  1  0.93630615  0.62500000  0.68630615  1
  Li  Li56  1  0.81369385  0.06369385  0.12500000  1
  Li  Li57  1  0.18630615  0.56369385  0.37500000  1
  Li  Li58  1  0.31369385  0.43630615  0.87500000  1
  Li  Li59  1  0.68630615  0.93630615  0.62500000  1
  Li  Li60  1  0.62500000  0.31369385  0.56369385  1
  Li  Li61  1  0.87500000  0.68630615  0.06369385  1
  Li  Li62  1  0.37500000  0.81369385  0.93630615  1
  Li  Li63  1  0.12500000  0.18630615  0.43630615  1
  Li  Li64  1  0.56369385  0.62500000  0.31369385  1
  Li  Li65  1  0.06369385  0.87500000  0.68630615  1
  Li  Li66  1  0.93630615  0.37500000  0.81369385  1
  Li  Li67  1  0.43630615  0.12500000  0.18630615  1
  Li  Li68  1  0.31369385  0.56369385  0.62500000  1
  Li  Li69  1  0.68630615  0.06369385  0.87500000  1
  Li  Li70  1  0.81369385  0.93630615  0.37500000  1
  Li  Li71  1  0.18630615  0.43630615  0.12500000  1
  Li  Li72  1  0.17554347  0.00000000  0.25000000  1
  Li  Li73  1  0.32445653  0.00000000  0.75000000  1
  Li  Li74  1  0.25000000  0.17554347  0.00000000  1
  Li  Li75  1  0.75000000  0.32445653  0.00000000  1
  Li  Li76  1  0.00000000  0.25000000  0.17554347  1
  Li  Li77  1  0.00000000  0.75000000  0.32445653  1
  Li  Li78  1  0.75000000  0.42554347  0.00000000  1
  Li  Li79  1  0.75000000  0.57445653  0.50000000  1
  Li  Li80  1  0.92554347  0.50000000  0.25000000  1
  Li  Li81  1  0.07445653  0.00000000  0.25000000  1
  Li  Li82  1  0.00000000  0.25000000  0.07445653  1
  Li  Li83  1  0.50000000  0.25000000  0.92554347  1
  Li  Li84  1  0.67554347  0.50000000  0.75000000  1
  Li  Li85  1  0.82445653  0.50000000  0.25000000  1
  Li  Li86  1  0.75000000  0.67554347  0.50000000  1
  Li  Li87  1  0.25000000  0.82445653  0.50000000  1
  Li  Li88  1  0.50000000  0.75000000  0.67554347  1
  Li  Li89  1  0.50000000  0.25000000  0.82445653  1
  Li  Li90  1  0.25000000  0.92554347  0.50000000  1
  Li  Li91  1  0.25000000  0.07445653  -0.00000000  1
  Li  Li92  1  0.42554347  0.00000000  0.75000000  1
  Li  Li93  1  0.57445653  0.50000000  0.75000000  1
  Li  Li94  1  0.50000000  0.75000000  0.57445653  1
  Li  Li95  1  0.00000000  0.75000000  0.42554347  1
  O  O96  1  0.12500000  0.93760458  0.31239542  1
  O  O97  1  0.37500000  0.06239542  0.81239542  1
  O  O98  1  0.87500000  0.43760458  0.18760458  1
  O  O99  1  0.62500000  0.56239542  0.68760458  1
  O  O100  1  0.31239542  0.12500000  0.93760458  1
  O  O101  1  0.81239542  0.37500000  0.06239542  1
  O  O102  1  0.18760458  0.87500000  0.43760458  1
  O  O103  1  0.68760458  0.62500000  0.56239542  1
  O  O104  1  0.93760458  0.31239542  0.12500000  1
  O  O105  1  0.06239542  0.81239542  0.37500000  1
  O  O106  1  0.43760458  0.18760458  0.87500000  1
  O  O107  1  0.56239542  0.68760458  0.62500000  1
  O  O108  1  0.62500000  0.43760458  0.81239542  1
  O  O109  1  0.87500000  0.56239542  0.31239542  1
  O  O110  1  0.37500000  0.93760458  0.68760458  1
  O  O111  1  0.12500000  0.06239542  0.18760458  1
  O  O112  1  0.81239542  0.62500000  0.43760458  1
  O  O113  1  0.31239542  0.87500000  0.56239542  1
  O  O114  1  0.68760458  0.37500000  0.93760458  1
  O  O115  1  0.18760458  0.12500000  0.06239542  1
  O  O116  1  0.43760458  0.81239542  0.62500000  1
  O  O117  1  0.56239542  0.31239542  0.87500000  1
  O  O118  1  0.93760458  0.68760458  0.37500000  1
  O  O119  1  0.06239542  0.18760458  0.12500000  1
  O  O120  1  0.66275261  0.66275261  0.66275261  1
  O  O121  1  0.83724739  0.33724739  0.16275261  1
  O  O122  1  0.33724739  0.16275261  0.83724739  1
  O  O123  1  0.16275261  0.83724739  0.33724739  1
  O  O124  1  0.41275261  0.91275261  0.58724739  1
  O  O125  1  0.08724739  0.08724739  0.08724739  1
  O  O126  1  0.91275261  0.58724739  0.41275261  1
  O  O127  1  0.58724739  0.41275261  0.91275261  1
  O  O128  1  0.16275261  0.16275261  0.16275261  1
  O  O129  1  0.33724739  0.83724739  0.66275261  1
  O  O130  1  0.83724739  0.66275261  0.33724739  1
  O  O131  1  0.66275261  0.33724739  0.83724739  1
  O  O132  1  0.91275261  0.41275261  0.08724739  1
  O  O133  1  0.58724739  0.58724739  0.58724739  1
  O  O134  1  0.41275261  0.08724739  0.91275261  1
  O  O135  1  0.08724739  0.91275261  0.41275261  1
  O  O136  1  0.98627652  0.16555207  0.29677878  1
  O  O137  1  -0.48627652  -0.16555207  0.79677878  1
  O  O138  1  -0.98627652  0.66555207  0.20322122  1
  O  O139  1  1.48627652  0.33444793  -0.29677878  1
  O  O140  1  0.29677878  0.98627652  0.16555207  1
  O  O141  1  0.79677878  -0.48627652  -0.16555207  1
  O  O142  1  0.20322122  -0.98627652  0.66555207  1
  O  O143  1  -0.29677878  1.48627652  0.33444793  1
  O  O144  1  0.16555207  0.29677878  0.98627652  1
  O  O145  1  -0.16555207  0.79677878  -0.48627652  1
  O  O146  1  0.66555207  0.20322122  -0.98627652  1
  O  O147  1  0.33444793  -0.29677878  1.48627652  1
  O  O148  1  0.91555207  1.23627652  -0.04677878  1
  O  O149  1  0.58444793  -0.23627652  0.45322122  1
  O  O150  1  0.41555207  -0.73627652  1.04677878  1
  O  O151  1  0.08444793  1.73627652  0.54677878  1
  O  O152  1  1.73627652  0.54677878  0.08444793  1
  O  O153  1  -0.73627652  1.04677878  0.41555207  1
  O  O154  1  -0.23627652  0.45322122  0.58444793  1
  O  O155  1  1.23627652  -0.04677878  0.91555207  1
  O  O156  1  1.04677878  0.41555207  -0.73627652  1
  O  O157  1  0.54677878  0.08444793  1.73627652  1
  O  O158  1  -0.04677878  0.91555207  1.23627652  1
  O  O159  1  0.45322122  0.58444793  -0.23627652  1
  O  O160  1  1.48627652  0.66555207  0.79677878  1
  O  O161  1  0.01372348  0.33444793  1.29677878  1
  O  O162  1  -0.48627652  1.16555207  0.70322122  1
  O  O163  1  1.98627652  0.83444793  0.20322122  1
  O  O164  1  0.79677878  1.48627652  0.66555207  1
  O  O165  1  1.29677878  0.01372348  0.33444793  1
  O  O166  1  0.70322122  -0.48627652  1.16555207  1
  O  O167  1  0.20322122  1.98627652  0.83444793  1
  O  O168  1  0.66555207  0.79677878  1.48627652  1
  O  O169  1  0.33444793  1.29677878  0.01372348  1
  O  O170  1  1.16555207  0.70322122  -0.48627652  1
  O  O171  1  0.83444793  0.20322122  1.98627652  1
  O  O172  1  1.41555207  1.73627652  0.45322122  1
  O  O173  1  1.08444793  0.26372348  0.95322122  1
  O  O174  1  0.91555207  -0.23627652  1.54677878  1
  O  O175  1  0.58444793  2.23627652  1.04677878  1
  O  O176  1  2.23627652  1.04677878  0.58444793  1
  O  O177  1  -0.23627652  1.54677878  0.91555207  1
  O  O178  1  0.26372348  0.95322122  1.08444793  1
  O  O179  1  1.73627652  0.45322122  1.41555207  1
  O  O180  1  1.54677878  0.91555207  -0.23627652  1
  O  O181  1  1.04677878  0.58444793  2.23627652  1
  O  O182  1  0.45322122  1.41555207  1.73627652  1
  O  O183  1  0.95322122  1.08444793  0.26372348  1
  O  O184  1  0.12500000  0.12500000  0.12500000  1
  O  O185  1  0.37500000  0.87500000  0.62500000  1
  O  O186  1  0.87500000  0.62500000  0.37500000  1
  O  O187  1  0.62500000  0.37500000  0.87500000  1
  O  O188  1  0.62500000  0.62500000  0.62500000  1
  O  O189  1  0.87500000  0.37500000  0.12500000  1
  O  O190  1  0.37500000  0.12500000  0.87500000  1
  O  O191  1  0.12500000  0.87500000  0.37500000  1
