# generated using pymatgen
data_LiF
_symmetry_space_group_name_H-M   'P 1'
_cell_length_a   14.86682389
_cell_length_b   14.86682389
_cell_length_c   15.21216377
_cell_angle_alpha   90.00000000
_cell_angle_beta   90.00000000
_cell_angle_gamma   120.00000000
_symmetry_Int_Tables_number   1
_chemical_formula_structural   LiF
_chemical_formula_sum   'Li108 F108'
_cell_volume   2911.77637277
_cell_formula_units_Z   108
loop_
 _symmetry_equiv_pos_site_id
 _symmetry_equiv_pos_as_xyz
  1  'x, y, z'
loop_
 _atom_site_type_symbol
 _atom_site_label
 _atom_site_symmetry_multiplicity
 _atom_site_fract_x
 _atom_site_fract_y
 _atom_site_fract_z
 _atom_site_occupancy
  F  F0  1  0.17286423  0.53747725  0.72684834  1
  F  F1  1  -0.53747725  -0.36461302  0.72684834  1
  F  F2  1  0.36461302  -0.17286423  0.72684834  1
  F  F3  1  0.53747725  0.17286423  -0.22684834  1
  F  F4  1  -0.36461302  -0.53747725  -0.22684834  1
  F  F5  1  -0.17286423  0.36461302  -0.22684834  1
  F  F6  1  -0.17286423  -0.53747725  -0.72684834  1
  F  F7  1  0.53747725  0.36461302  -0.72684834  1
  F  F8  1  -0.36461302  0.17286423  -0.72684834  1
  F  F9  1  -0.53747725  -0.17286423  1.22684834  1
  F  F10  1  0.36461302  0.53747725  1.22684834  1
  F  F11  1  0.17286423  -0.36461302  1.22684834  1
  F  F12  1  0.83953090  0.87081059  1.06018167  1
  F  F13  1  0.12918941  -0.03127969  1.06018167  1
  F  F14  1  1.03127969  0.16046910  1.06018167  1
  F  F15  1  1.20414392  0.50619757  0.10648500  1
  F  F16  1  0.30205365  -0.20414392  0.10648500  1
  F  F17  1  0.49380243  0.69794635  0.10648500  1
  F  F18  1  0.49380243  -0.20414392  -0.39351500  1
  F  F19  1  1.20414392  0.69794635  -0.39351500  1
  F  F20  1  0.30205365  0.50619757  -0.39351500  1
  F  F21  1  0.12918941  0.16046910  1.56018167  1
  F  F22  1  1.03127969  0.87081059  1.56018167  1
  F  F23  1  0.83953090  -0.03127969  1.56018167  1
  F  F24  1  0.50619757  1.20414392  1.39351500  1
  F  F25  1  -0.20414392  0.30205365  1.39351500  1
  F  F26  1  0.69794635  0.49380243  1.39351500  1
  F  F27  1  0.87081059  0.83953090  0.43981833  1
  F  F28  1  -0.03127969  0.12918941  0.43981833  1
  F  F29  1  0.16046910  1.03127969  0.43981833  1
  F  F30  1  0.16046910  0.12918941  -0.06018167  1
  F  F31  1  0.87081059  1.03127969  -0.06018167  1
  F  F32  1  -0.03127969  0.83953090  -0.06018167  1
  F  F33  1  -0.20414392  0.49380243  1.89351500  1
  F  F34  1  0.69794635  1.20414392  1.89351500  1
  F  F35  1  0.50619757  0.30205365  1.89351500  1
  F  F36  1  0.87142212  0.66917669  0.12420851  1
  F  F37  1  0.33082331  0.20224543  0.12420851  1
  F  F38  1  0.79775457  0.12857788  0.12420851  1
  F  F39  1  0.66917669  0.87142212  0.37579149  1
  F  F40  1  0.20224543  0.33082331  0.37579149  1
  F  F41  1  0.12857788  0.79775457  0.37579149  1
  F  F42  1  0.12857788  0.33082331  0.87579149  1
  F  F43  1  0.66917669  0.79775457  0.87579149  1
  F  F44  1  0.20224543  0.87142212  0.87579149  1
  F  F45  1  0.33082331  0.12857788  0.62420851  1
  F  F46  1  0.79775457  0.66917669  0.62420851  1
  F  F47  1  0.87142212  0.20224543  0.62420851  1
  F  F48  1  0.53808879  0.00251003  0.45754184  1
  F  F49  1  0.99748997  0.53557876  0.45754184  1
  F  F50  1  0.46442124  0.46191121  0.45754184  1
  F  F51  1  0.33584336  0.20475546  0.70912482  1
  F  F52  1  0.86891210  0.66415664  0.70912482  1
  F  F53  1  0.79524454  0.13108790  0.70912482  1
  F  F54  1  0.79524454  0.66415664  0.20912482  1
  F  F55  1  0.33584336  0.13108790  0.20912482  1
  F  F56  1  0.86891210  0.20475546  0.20912482  1
  F  F57  1  0.99748997  0.46191121  0.95754184  1
  F  F58  1  0.46442124  0.00251003  0.95754184  1
  F  F59  1  0.53808879  0.53557876  0.95754184  1
  F  F60  1  0.20475546  0.33584336  0.79087518  1
  F  F61  1  0.66415664  0.86891210  0.79087518  1
  F  F62  1  0.13108790  0.79524454  0.79087518  1
  F  F63  1  0.00251003  0.53808879  0.04245816  1
  F  F64  1  0.53557876  0.99748997  0.04245816  1
  F  F65  1  0.46191121  0.46442124  0.04245816  1
  F  F66  1  0.46191121  0.99748997  0.54245816  1
  F  F67  1  0.00251003  0.46442124  0.54245816  1
  F  F68  1  0.53557876  0.53808879  0.54245816  1
  F  F69  1  0.66415664  0.79524454  0.29087518  1
  F  F70  1  0.13108790  0.33584336  0.29087518  1
  F  F71  1  0.20475546  0.86891210  0.29087518  1
  F  F72  1  0.00000000  0.00000000  0.30156202  1
  F  F73  1  0.00000000  0.00000000  0.19843798  1
  F  F74  1  0.00000000  0.00000000  0.69843798  1
  F  F75  1  0.00000000  0.00000000  0.80156202  1
  F  F76  1  0.66666667  0.33333333  0.63489535  1
  F  F77  1  0.66666667  0.33333333  0.53177131  1
  F  F78  1  0.66666667  0.33333333  0.03177131  1
  F  F79  1  0.66666667  0.33333333  0.13489535  1
  F  F80  1  0.33333333  0.66666667  0.96822869  1
  F  F81  1  0.33333333  0.66666667  0.86510465  1
  F  F82  1  0.33333333  0.66666667  0.36510465  1
  F  F83  1  0.33333333  0.66666667  0.46822869  1
  F  F84  1  0.00000000  0.00000000  0.00000000  1
  F  F85  1  0.00000000  0.00000000  0.50000000  1
  F  F86  1  0.66666667  0.33333333  0.33333333  1
  F  F87  1  0.66666667  0.33333333  0.83333333  1
  F  F88  1  0.33333333  0.66666667  0.66666667  1
  F  F89  1  0.33333333  0.66666667  0.16666667  1
  F  F90  1  0.35986545  -0.00000000  0.25000000  1
  F  F91  1  0.00000000  0.35986545  0.25000000  1
  F  F92  1  0.64013455  0.64013455  0.25000000  1
  F  F93  1  0.64013455  -0.00000000  0.75000000  1
  F  F94  1  0.00000000  0.64013455  0.75000000  1
  F  F95  1  0.35986545  0.35986545  0.75000000  1
  F  F96  1  0.02653212  0.33333333  0.58333333  1
  F  F97  1  0.66666667  0.69319879  0.58333333  1
  F  F98  1  0.30680121  0.97346788  0.58333333  1
  F  F99  1  0.30680121  0.33333333  0.08333333  1
  F  F100  1  0.66666667  0.97346788  0.08333333  1
  F  F101  1  0.02653212  0.69319879  0.08333333  1
  F  F102  1  0.69319879  0.66666667  0.91666667  1
  F  F103  1  0.33333333  0.02653212  0.91666667  1
  F  F104  1  0.97346788  0.30680121  0.91666667  1
  F  F105  1  0.97346788  0.66666667  0.41666667  1
  F  F106  1  0.33333333  0.30680121  0.41666667  1
  F  F107  1  0.69319879  0.02653212  0.41666667  1
  Li  Li108  1  0.54264365  0.73704840  0.26931220  1
  Li  Li109  1  0.26295160  0.80559525  0.26931220  1
  Li  Li110  1  0.19440475  0.45735635  0.26931220  1
  Li  Li111  1  0.73704840  0.54264365  0.23068780  1
  Li  Li112  1  0.80559525  0.26295160  0.23068780  1
  Li  Li113  1  0.45735635  0.19440475  0.23068780  1
  Li  Li114  1  0.45735635  0.26295160  0.73068780  1
  Li  Li115  1  0.73704840  0.19440475  0.73068780  1
  Li  Li116  1  0.80559525  0.54264365  0.73068780  1
  Li  Li117  1  0.26295160  0.45735635  0.76931220  1
  Li  Li118  1  0.19440475  0.73704840  0.76931220  1
  Li  Li119  1  0.54264365  0.80559525  0.76931220  1
  Li  Li120  1  0.20931032  0.07038174  0.60264553  1
  Li  Li121  1  0.92961826  0.13892858  0.60264553  1
  Li  Li122  1  0.86107142  0.79068968  0.60264553  1
  Li  Li123  1  0.40371507  0.87597699  0.56402113  1
  Li  Li124  1  0.47226192  0.59628493  0.56402113  1
  Li  Li125  1  0.12402301  0.52773808  0.56402113  1
  Li  Li126  1  0.12402301  0.59628493  0.06402113  1
  Li  Li127  1  0.40371507  0.52773808  0.06402113  1
  Li  Li128  1  0.47226192  0.87597699  0.06402113  1
  Li  Li129  1  0.92961826  0.79068968  0.10264553  1
  Li  Li130  1  0.86107142  0.07038174  0.10264553  1
  Li  Li131  1  0.20931032  0.13892858  0.10264553  1
  Li  Li132  1  0.87597699  0.40371507  0.93597887  1
  Li  Li133  1  0.59628493  0.47226192  0.93597887  1
  Li  Li134  1  0.52773808  0.12402301  0.93597887  1
  Li  Li135  1  0.07038174  0.20931032  0.89735447  1
  Li  Li136  1  0.13892858  0.92961826  0.89735447  1
  Li  Li137  1  0.79068968  0.86107142  0.89735447  1
  Li  Li138  1  0.79068968  0.92961826  0.39735447  1
  Li  Li139  1  0.07038174  0.86107142  0.39735447  1
  Li  Li140  1  0.13892858  0.20931032  0.39735447  1
  Li  Li141  1  0.59628493  0.12402301  0.43597887  1
  Li  Li142  1  0.52773808  0.40371507  0.43597887  1
  Li  Li143  1  0.87597699  0.47226192  0.43597887  1
  Li  Li144  1  0.35228742  0.06372813  0.55980398  1
  Li  Li145  1  0.93627187  0.28855929  0.55980398  1
  Li  Li146  1  0.71144071  0.64771258  0.55980398  1
  Li  Li147  1  0.06372813  0.35228742  0.94019602  1
  Li  Li148  1  0.28855929  0.93627187  0.94019602  1
  Li  Li149  1  0.64771258  0.71144071  0.94019602  1
  Li  Li150  1  0.64771258  0.93627187  0.44019602  1
  Li  Li151  1  0.06372813  0.71144071  0.44019602  1
  Li  Li152  1  0.28855929  0.35228742  0.44019602  1
  Li  Li153  1  0.93627187  0.64771258  0.05980398  1
  Li  Li154  1  0.71144071  0.06372813  0.05980398  1
  Li  Li155  1  0.35228742  0.28855929  0.05980398  1
  Li  Li156  1  0.01895409  0.39706146  0.89313731  1
  Li  Li157  1  0.60293854  0.62189262  0.89313731  1
  Li  Li158  1  0.37810738  0.98104591  0.89313731  1
  Li  Li159  1  0.73039480  0.68562076  0.27352936  1
  Li  Li160  1  0.95522596  0.26960520  0.27352936  1
  Li  Li161  1  0.31437924  0.04477404  0.27352936  1
  Li  Li162  1  0.31437924  0.26960520  0.77352936  1
  Li  Li163  1  0.73039480  0.04477404  0.77352936  1
  Li  Li164  1  0.95522596  0.68562076  0.77352936  1
  Li  Li165  1  0.60293854  0.98104591  0.39313731  1
  Li  Li166  1  0.37810738  0.39706146  0.39313731  1
  Li  Li167  1  0.01895409  0.62189262  0.39313731  1
  Li  Li168  1  0.68562076  0.73039480  0.22647064  1
  Li  Li169  1  0.26960520  0.95522596  0.22647064  1
  Li  Li170  1  0.04477404  0.31437924  0.22647064  1
  Li  Li171  1  0.39706146  0.01895409  0.60686269  1
  Li  Li172  1  0.62189262  0.60293854  0.60686269  1
  Li  Li173  1  0.98104591  0.37810738  0.60686269  1
  Li  Li174  1  0.98104591  0.60293854  0.10686269  1
  Li  Li175  1  0.39706146  0.37810738  0.10686269  1
  Li  Li176  1  0.62189262  0.01895409  0.10686269  1
  Li  Li177  1  0.26960520  0.31437924  0.72647064  1
  Li  Li178  1  0.04477404  0.73039480  0.72647064  1
  Li  Li179  1  0.68562076  0.95522596  0.72647064  1
  Li  Li180  1  0.41409246  0.89849257  0.73628550  1
  Li  Li181  1  0.10150743  0.51559988  0.73628550  1
  Li  Li182  1  0.48440012  0.58590754  0.73628550  1
  Li  Li183  1  0.89849257  0.41409246  0.76371450  1
  Li  Li184  1  0.51559988  0.10150743  0.76371450  1
  Li  Li185  1  0.58590754  0.48440012  0.76371450  1
  Li  Li186  1  0.58590754  0.10150743  0.26371450  1
  Li  Li187  1  0.89849257  0.48440012  0.26371450  1
  Li  Li188  1  0.51559988  0.41409246  0.26371450  1
  Li  Li189  1  0.10150743  0.58590754  0.23628550  1
  Li  Li190  1  0.48440012  0.89849257  0.23628550  1
  Li  Li191  1  0.41409246  0.51559988  0.23628550  1
  Li  Li192  1  0.08075912  0.23182591  0.06961883  1
  Li  Li193  1  0.76817409  0.84893322  0.06961883  1
  Li  Li194  1  0.15106678  0.91924088  0.06961883  1
  Li  Li195  1  0.56515924  0.74742579  0.09704783  1
  Li  Li196  1  0.18226655  0.43484076  0.09704783  1
  Li  Li197  1  0.25257421  0.81773345  0.09704783  1
  Li  Li198  1  0.25257421  0.43484076  0.59704783  1
  Li  Li199  1  0.56515924  0.81773345  0.59704783  1
  Li  Li200  1  0.18226655  0.74742579  0.59704783  1
  Li  Li201  1  0.76817409  0.91924088  0.56961883  1
  Li  Li202  1  0.15106678  0.23182591  0.56961883  1
  Li  Li203  1  0.08075912  0.84893322  0.56961883  1
  Li  Li204  1  0.74742579  0.56515924  0.40295217  1
  Li  Li205  1  0.43484076  0.18226655  0.40295217  1
  Li  Li206  1  0.81773345  0.25257421  0.40295217  1
  Li  Li207  1  0.23182591  0.08075912  0.43038117  1
  Li  Li208  1  0.84893322  0.76817409  0.43038117  1
  Li  Li209  1  0.91924088  0.15106678  0.43038117  1
  Li  Li210  1  0.91924088  0.76817409  0.93038117  1
  Li  Li211  1  0.23182591  0.15106678  0.93038117  1
  Li  Li212  1  0.84893322  0.08075912  0.93038117  1
  Li  Li213  1  0.43484076  0.25257421  0.90295217  1
  Li  Li214  1  0.81773345  0.56515924  0.90295217  1
  Li  Li215  1  0.74742579  0.18226655  0.90295217  1
