# generated using pymatgen
data_LiF
_symmetry_space_group_name_H-M   'P 1'
_cell_length_a   10.14947693
_cell_length_b   12.07378896
_cell_length_c   8.60610964
_cell_angle_alpha   90.00000000
_cell_angle_beta   90.00000000
_cell_angle_gamma   90.00000000
_symmetry_Int_Tables_number   1
_chemical_formula_structural   LiF
_chemical_formula_sum   'Li36 F36'
_cell_volume   1054.61541715
_cell_formula_units_Z   36
loop_
 _symmetry_equiv_pos_site_id
 _symmetry_equiv_pos_as_xyz
  1  'x, y, z'
loop_
 _atom_site_type_symbol
 _atom_site_label
 _atom_site_symmetry_multiplicity
 _atom_site_fract_x
 _atom_site_fract_y
 _atom_site_fract_z
 _atom_site_occupancy
  F  F0  1  0.07613127  0.56272264  0.71983421  1
  F  F1  1  0.42386873  0.43727736  0.21983421  1
  F  F2  1  0.92386873  0.06272264  0.28016579  1
  F  F3  1  0.57613127  0.93727736  0.78016579  1
  F  F4  1  0.92386873  0.43727736  0.28016579  1
  F  F5  1  0.57613127  0.56272264  0.78016579  1
  F  F6  1  0.07613127  0.93727736  0.71983421  1
  F  F7  1  0.42386873  0.06272264  0.21983421  1
  F  F8  1  0.88897540  0.28611953  0.64616790  1
  F  F9  1  0.61102460  0.71388047  0.14616790  1
  F  F10  1  0.11102460  0.78611953  0.35383210  1
  F  F11  1  0.38897540  0.21388047  0.85383210  1
  F  F12  1  0.11102460  0.71388047  0.35383210  1
  F  F13  1  0.38897540  0.28611953  0.85383210  1
  F  F14  1  0.88897540  0.21388047  0.64616790  1
  F  F15  1  0.61102460  0.78611953  0.14616790  1
  F  F16  1  0.34581156  0.51830297  0.88485628  1
  F  F17  1  0.15418844  0.48169703  0.38485628  1
  F  F18  1  0.65418844  0.01830297  0.11514372  1
  F  F19  1  0.84581156  0.98169703  0.61514372  1
  F  F20  1  0.65418844  0.48169703  0.11514372  1
  F  F21  1  0.84581156  0.51830297  0.61514372  1
  F  F22  1  0.34581156  0.98169703  0.88485628  1
  F  F23  1  0.15418844  0.01830297  0.38485628  1
  F  F24  1  0.21330299  0.68769815  0.87039986  1
  F  F25  1  0.28669701  0.31230185  0.37039986  1
  F  F26  1  0.78669701  0.18769815  0.12960014  1
  F  F27  1  0.71330299  0.81230185  0.62960014  1
  F  F28  1  0.78669701  0.31230185  0.12960014  1
  F  F29  1  0.71330299  0.68769815  0.62960014  1
  F  F30  1  0.21330299  0.81230185  0.87039986  1
  F  F31  1  0.28669701  0.18769815  0.37039986  1
  F  F32  1  0.95553300  0.25000000  0.69332851  1
  F  F33  1  0.54446700  0.75000000  0.19332851  1
  F  F34  1  0.04446700  0.75000000  0.30667149  1
  F  F35  1  0.45553300  0.25000000  0.80667149  1
  Li  Li36  1  0.21562213  0.96807374  0.09453766  1
  Li  Li37  1  0.28437787  -0.96807374  0.59453766  1
  Li  Li38  1  -0.21562213  1.46807374  -0.09453766  1
  Li  Li39  1  0.71562213  -0.46807374  0.40546234  1
  Li  Li40  1  -0.21562213  -0.96807374  -0.09453766  1
  Li  Li41  1  0.71562213  0.96807374  0.40546234  1
  Li  Li42  1  0.21562213  -0.46807374  0.09453766  1
  Li  Li43  1  0.28437787  1.46807374  0.59453766  1
  Li  Li44  1  0.12186890  0.14316712  0.14509628  1
  Li  Li45  1  0.37813110  0.85683288  0.64509628  1
  Li  Li46  1  0.87813110  0.64316712  0.85490372  1
  Li  Li47  1  0.62186890  0.35683288  0.35490372  1
  Li  Li48  1  0.87813110  0.85683288  0.85490372  1
  Li  Li49  1  0.62186890  0.14316712  0.35490372  1
  Li  Li50  1  0.12186890  0.35683288  0.14509628  1
  Li  Li51  1  0.37813110  0.64316712  0.64509628  1
  Li  Li52  1  0.78616300  0.25000000  0.05547125  1
  Li  Li53  1  0.71383700  0.75000000  0.55547125  1
  Li  Li54  1  0.21383700  0.75000000  0.94452875  1
  Li  Li55  1  0.28616300  0.25000000  0.44452875  1
  Li  Li56  1  0.63508088  0.25000000  0.22336037  1
  Li  Li57  1  0.86491912  0.75000000  0.72336037  1
  Li  Li58  1  0.36491912  0.75000000  0.77663963  1
  Li  Li59  1  0.13508088  0.25000000  0.27663963  1
  Li  Li60  1  0.00000000  0.00000000  0.50000000  1
  Li  Li61  1  0.50000000  0.00000000  0.00000000  1
  Li  Li62  1  0.00000000  0.50000000  0.50000000  1
  Li  Li63  1  0.50000000  0.50000000  0.00000000  1
  Li  Li64  1  0.00000000  0.00000000  0.00000000  1
  Li  Li65  1  0.50000000  0.00000000  0.50000000  1
  Li  Li66  1  0.00000000  0.50000000  0.00000000  1
  Li  Li67  1  0.50000000  0.50000000  0.50000000  1
  Li  Li68  1  0.12551622  0.25000000  0.95674099  1
  Li  Li69  1  0.37448378  0.75000000  0.45674099  1
  Li  Li70  1  0.87448378  0.75000000  0.04325901  1
  Li  Li71  1  0.62551622  0.25000000  0.54325901  1
