# generated using pymatgen
data_LiF
_symmetry_space_group_name_H-M   'P 1'
_cell_length_a   7.59095720
_cell_length_b   7.59095720
_cell_length_c   10.70253795
_cell_angle_alpha   90.00000000
_cell_angle_beta   90.00000000
_cell_angle_gamma   90.00000000
_symmetry_Int_Tables_number   1
_chemical_formula_structural   LiF
_chemical_formula_sum   'Li21 F21'
_cell_volume   616.70839777
_cell_formula_units_Z   21
loop_
 _symmetry_equiv_pos_site_id
 _symmetry_equiv_pos_as_xyz
  1  'x, y, z'
loop_
 _atom_site_type_symbol
 _atom_site_label
 _atom_site_symmetry_multiplicity
 _atom_site_fract_x
 _atom_site_fract_y
 _atom_site_fract_z
 _atom_site_occupancy
  F  F0  1  0.34739433  0.34739433  0.00000000  1
  F  F1  1  0.65260567  0.65260567  0.00000000  1
  F  F2  1  0.65260567  0.34739433  0.00000000  1
  F  F3  1  0.34739433  0.65260567  0.00000000  1
  F  F4  1  0.40434396  0.40434396  0.57891117  1
  F  F5  1  0.59565604  0.59565604  0.57891117  1
  F  F6  1  0.59565604  0.40434396  0.57891117  1
  F  F7  1  0.40434396  0.59565604  0.57891117  1
  F  F8  1  0.59565604  0.40434396  0.42108883  1
  F  F9  1  0.40434396  0.59565604  0.42108883  1
  F  F10  1  0.40434396  0.40434396  0.42108883  1
  F  F11  1  0.59565604  0.59565604  0.42108883  1
  F  F12  1  0.77674599  0.77674599  0.50000000  1
  F  F13  1  0.22325401  0.22325401  0.50000000  1
  F  F14  1  0.22325401  0.77674599  0.50000000  1
  F  F15  1  0.77674599  0.22325401  0.50000000  1
  F  F16  1  0.00000000  0.50000000  0.00000000  1
  F  F17  1  0.50000000  0.00000000  0.00000000  1
  F  F18  1  0.00000000  0.00000000  0.86931431  1
  F  F19  1  0.00000000  0.00000000  0.13068569  1
  F  F20  1  0.50000000  0.50000000  0.00000000  1
  Li  Li21  1  0.76558716  0.76558716  0.37976100  1
  Li  Li22  1  -0.76558716  -0.76558716  0.37976100  1
  Li  Li23  1  -0.76558716  0.76558716  0.37976100  1
  Li  Li24  1  0.76558716  -0.76558716  0.37976100  1
  Li  Li25  1  -0.76558716  0.76558716  -0.37976100  1
  Li  Li26  1  0.76558716  -0.76558716  -0.37976100  1
  Li  Li27  1  0.76558716  0.76558716  -0.37976100  1
  Li  Li28  1  -0.76558716  -0.76558716  -0.37976100  1
  Li  Li29  1  0.00000000  0.00000000  0.50000000  1
  Li  Li30  1  0.15027461  0.50000000  0.00000000  1
  Li  Li31  1  0.84972539  0.50000000  -0.00000000  1
  Li  Li32  1  0.50000000  0.15027461  0.00000000  1
  Li  Li33  1  0.50000000  0.84972539  -0.00000000  1
  Li  Li34  1  0.24183949  0.00000000  0.26026432  1
  Li  Li35  1  0.75816051  0.00000000  0.26026432  1
  Li  Li36  1  0.00000000  0.24183949  0.26026432  1
  Li  Li37  1  0.00000000  0.75816051  0.26026432  1
  Li  Li38  1  0.75816051  0.00000000  0.73973568  1
  Li  Li39  1  0.24183949  0.00000000  0.73973568  1
  Li  Li40  1  0.00000000  0.24183949  0.73973568  1
  Li  Li41  1  0.00000000  0.75816051  0.73973568  1
