# generated using pymatgen
data_Li3BO3
_symmetry_space_group_name_H-M   'P 1'
_cell_length_a   13.68557036
_cell_length_b   13.68557036
_cell_length_c   13.19626143
_cell_angle_alpha   90.00000000
_cell_angle_beta   90.00000000
_cell_angle_gamma   120.00000000
_symmetry_Int_Tables_number   1
_chemical_formula_structural   Li3BO3
_chemical_formula_sum   'Li108 B36 O108'
_cell_volume   2140.46113074
_cell_formula_units_Z   36
loop_
 _symmetry_equiv_pos_site_id
 _symmetry_equiv_pos_as_xyz
  1  'x, y, z'
loop_
 _atom_site_type_symbol
 _atom_site_label
 _atom_site_symmetry_multiplicity
 _atom_site_fract_x
 _atom_site_fract_y
 _atom_site_fract_z
 _atom_site_occupancy
  B  B0  1  0.25169065  0.95588969  0.10657238  1
  B  B1  1  -0.95588969  -0.70419904  0.10657238  1
  B  B2  1  0.70419904  -0.25169065  0.10657238  1
  B  B3  1  0.95588969  0.25169065  0.39342762  1
  B  B4  1  -0.70419904  -0.95588969  0.39342762  1
  B  B5  1  -0.25169065  0.70419904  0.39342762  1
  B  B6  1  -0.25169065  -0.95588969  -0.10657238  1
  B  B7  1  0.95588969  0.70419904  -0.10657238  1
  B  B8  1  -0.70419904  0.25169065  -0.10657238  1
  B  B9  1  -0.95588969  -0.25169065  0.60657238  1
  B  B10  1  0.70419904  0.95588969  0.60657238  1
  B  B11  1  0.25169065  -0.70419904  0.60657238  1
  B  B12  1  0.91835731  1.28922302  0.43990571  1
  B  B13  1  -0.28922302  -0.37086571  0.43990571  1
  B  B14  1  1.37086571  0.08164269  0.43990571  1
  B  B15  1  1.62255635  0.58502398  0.72676096  1
  B  B16  1  -0.03753237  -0.62255635  0.72676096  1
  B  B17  1  0.41497602  1.03753237  0.72676096  1
  B  B18  1  0.41497602  -0.62255635  0.22676096  1
  B  B19  1  1.62255635  1.03753237  0.22676096  1
  B  B20  1  -0.03753237  0.58502398  0.22676096  1
  B  B21  1  -0.28922302  0.08164269  0.93990571  1
  B  B22  1  1.37086571  1.28922302  0.93990571  1
  B  B23  1  0.91835731  -0.37086571  0.93990571  1
  B  B24  1  0.58502398  1.62255635  0.77323904  1
  B  B25  1  -0.62255635  -0.03753237  0.77323904  1
  B  B26  1  1.03753237  0.41497602  0.77323904  1
  B  B27  1  1.28922302  0.91835731  1.06009429  1
  B  B28  1  -0.37086571  -0.28922302  1.06009429  1
  B  B29  1  0.08164269  1.37086571  1.06009429  1
  B  B30  1  0.08164269  -0.28922302  0.56009429  1
  B  B31  1  1.28922302  1.37086571  0.56009429  1
  B  B32  1  -0.37086571  0.91835731  0.56009429  1
  B  B33  1  -0.62255635  0.41497602  1.27323904  1
  B  B34  1  1.03753237  1.62255635  1.27323904  1
  B  B35  1  0.58502398  -0.03753237  1.27323904  1
  Li  Li36  1  0.44419458  0.21553673  0.15168000  1
  Li  Li37  1  0.78446327  0.22865785  0.15168000  1
  Li  Li38  1  0.77134215  0.55580542  0.15168000  1
  Li  Li39  1  0.21553673  0.44419458  0.34832000  1
  Li  Li40  1  0.22865785  0.78446327  0.34832000  1
  Li  Li41  1  0.55580542  0.77134215  0.34832000  1
  Li  Li42  1  0.55580542  0.78446327  0.84832000  1
  Li  Li43  1  0.21553673  0.77134215  0.84832000  1
  Li  Li44  1  0.22865785  0.44419458  0.84832000  1
  Li  Li45  1  0.78446327  0.55580542  0.65168000  1
  Li  Li46  1  0.77134215  0.21553673  0.65168000  1
  Li  Li47  1  0.44419458  0.22865785  0.65168000  1
  Li  Li48  1  0.11086125  0.54887006  0.48501334  1
  Li  Li49  1  0.45112994  0.56199118  0.48501334  1
  Li  Li50  1  0.43800882  0.88913875  0.48501334  1
  Li  Li51  1  0.88220339  0.77752791  0.68165333  1
  Li  Li52  1  0.89532452  0.11779661  0.68165333  1
  Li  Li53  1  0.22247209  0.10467548  0.68165333  1
  Li  Li54  1  0.22247209  0.11779661  0.18165333  1
  Li  Li55  1  0.88220339  0.10467548  0.18165333  1
  Li  Li56  1  0.89532452  0.77752791  0.18165333  1
  Li  Li57  1  0.45112994  0.88913875  0.98501334  1
  Li  Li58  1  0.43800882  0.54887006  0.98501334  1
  Li  Li59  1  0.11086125  0.56199118  0.98501334  1
  Li  Li60  1  0.77752791  0.88220339  0.81834667  1
  Li  Li61  1  0.11779661  0.89532452  0.81834667  1
  Li  Li62  1  0.10467548  0.22247209  0.81834667  1
  Li  Li63  1  0.54887006  0.11086125  0.01498666  1
  Li  Li64  1  0.56199118  0.45112994  0.01498666  1
  Li  Li65  1  0.88913875  0.43800882  0.01498666  1
  Li  Li66  1  0.88913875  0.45112994  0.51498666  1
  Li  Li67  1  0.54887006  0.43800882  0.51498666  1
  Li  Li68  1  0.56199118  0.11086125  0.51498666  1
  Li  Li69  1  0.11779661  0.22247209  0.31834667  1
  Li  Li70  1  0.10467548  0.88220339  0.31834667  1
  Li  Li71  1  0.77752791  0.89532452  0.31834667  1
  Li  Li72  1  0.50000000  0.00000000  0.00000000  1
  Li  Li73  1  0.00000000  0.50000000  0.00000000  1
  Li  Li74  1  0.50000000  0.50000000  0.00000000  1
  Li  Li75  1  0.00000000  0.50000000  0.50000000  1
  Li  Li76  1  0.50000000  0.00000000  0.50000000  1
  Li  Li77  1  0.50000000  0.50000000  0.50000000  1
  Li  Li78  1  0.16666667  0.33333333  0.33333333  1
  Li  Li79  1  0.66666667  0.83333333  0.33333333  1
  Li  Li80  1  0.16666667  0.83333333  0.33333333  1
  Li  Li81  1  0.66666667  0.83333333  0.83333333  1
  Li  Li82  1  0.16666667  0.33333333  0.83333333  1
  Li  Li83  1  0.16666667  0.83333333  0.83333333  1
  Li  Li84  1  0.83333333  0.66666667  0.66666667  1
  Li  Li85  1  0.33333333  0.16666667  0.66666667  1
  Li  Li86  1  0.83333333  0.16666667  0.66666667  1
  Li  Li87  1  0.33333333  0.16666667  0.16666667  1
  Li  Li88  1  0.83333333  0.66666667  0.16666667  1
  Li  Li89  1  0.83333333  0.16666667  0.16666667  1
  Li  Li90  1  0.00564696  0.48237086  0.81553474  1
  Li  Li91  1  0.51762914  0.52327610  0.81553474  1
  Li  Li92  1  0.47672390  0.99435304  0.81553474  1
  Li  Li93  1  0.48237086  0.00564696  0.68446526  1
  Li  Li94  1  0.52327610  0.51762914  0.68446526  1
  Li  Li95  1  0.99435304  0.47672390  0.68446526  1
  Li  Li96  1  0.99435304  0.51762914  0.18446526  1
  Li  Li97  1  0.48237086  0.47672390  0.18446526  1
  Li  Li98  1  0.52327610  0.00564696  0.18446526  1
  Li  Li99  1  0.51762914  0.99435304  0.31553474  1
  Li  Li100  1  0.47672390  0.48237086  0.31553474  1
  Li  Li101  1  0.00564696  0.52327610  0.31553474  1
  Li  Li102  1  0.67231363  0.81570419  0.14886808  1
  Li  Li103  1  0.18429581  0.85660943  0.14886808  1
  Li  Li104  1  0.14339057  0.32768637  0.14886808  1
  Li  Li105  1  0.14903753  0.33898029  0.01779859  1
  Li  Li106  1  0.18994277  0.85096247  0.01779859  1
  Li  Li107  1  0.66101971  0.81005723  0.01779859  1
  Li  Li108  1  0.66101971  0.85096247  0.51779859  1
  Li  Li109  1  0.14903753  0.81005723  0.51779859  1
  Li  Li110  1  0.18994277  0.33898029  0.51779859  1
  Li  Li111  1  0.18429581  0.32768637  0.64886808  1
  Li  Li112  1  0.14339057  0.81570419  0.64886808  1
  Li  Li113  1  0.67231363  0.85660943  0.64886808  1
  Li  Li114  1  0.33898029  0.14903753  0.48220141  1
  Li  Li115  1  0.85096247  0.18994277  0.48220141  1
  Li  Li116  1  0.81005723  0.66101971  0.48220141  1
  Li  Li117  1  0.81570419  0.67231363  0.35113192  1
  Li  Li118  1  0.85660943  0.18429581  0.35113192  1
  Li  Li119  1  0.32768637  0.14339057  0.35113192  1
  Li  Li120  1  0.32768637  0.18429581  0.85113192  1
  Li  Li121  1  0.81570419  0.14339057  0.85113192  1
  Li  Li122  1  0.85660943  0.67231363  0.85113192  1
  Li  Li123  1  0.85096247  0.66101971  0.98220141  1
  Li  Li124  1  0.81005723  0.14903753  0.98220141  1
  Li  Li125  1  0.33898029  0.18994277  0.98220141  1
  Li  Li126  1  0.85350461  0.00000000  0.25000000  1
  Li  Li127  1  0.00000000  0.85350461  0.25000000  1
  Li  Li128  1  0.14649539  0.14649539  0.25000000  1
  Li  Li129  1  0.14649539  0.00000000  0.75000000  1
  Li  Li130  1  0.00000000  0.14649539  0.75000000  1
  Li  Li131  1  0.85350461  0.85350461  0.75000000  1
  Li  Li132  1  0.52017128  0.33333333  0.58333333  1
  Li  Li133  1  0.66666667  0.18683795  0.58333333  1
  Li  Li134  1  0.81316205  0.47982872  0.58333333  1
  Li  Li135  1  0.81316205  0.33333333  0.08333333  1
  Li  Li136  1  0.66666667  0.47982872  0.08333333  1
  Li  Li137  1  0.52017128  0.18683795  0.08333333  1
  Li  Li138  1  0.18683795  0.66666667  0.91666667  1
  Li  Li139  1  0.33333333  0.52017128  0.91666667  1
  Li  Li140  1  0.47982872  0.81316205  0.91666667  1
  Li  Li141  1  0.47982872  0.66666667  0.41666667  1
  Li  Li142  1  0.33333333  0.81316205  0.41666667  1
  Li  Li143  1  0.18683795  0.52017128  0.41666667  1
  O  O144  1  0.73540881  0.00000000  0.25000000  1
  O  O145  1  0.00000000  0.73540881  0.25000000  1
  O  O146  1  0.26459119  0.26459119  0.25000000  1
  O  O147  1  0.26459119  0.00000000  0.75000000  1
  O  O148  1  0.00000000  0.26459119  0.75000000  1
  O  O149  1  0.73540881  0.73540881  0.75000000  1
  O  O150  1  0.40207548  0.33333333  0.58333333  1
  O  O151  1  0.66666667  0.06874214  0.58333333  1
  O  O152  1  0.93125786  0.59792452  0.58333333  1
  O  O153  1  0.93125786  0.33333333  0.08333333  1
  O  O154  1  0.66666667  0.59792452  0.08333333  1
  O  O155  1  0.40207548  0.06874214  0.08333333  1
  O  O156  1  0.06874214  0.66666667  0.91666667  1
  O  O157  1  0.33333333  0.40207548  0.91666667  1
  O  O158  1  0.59792452  0.93125786  0.91666667  1
  O  O159  1  0.59792452  0.66666667  0.41666667  1
  O  O160  1  0.33333333  0.93125786  0.41666667  1
  O  O161  1  0.06874214  0.40207548  0.41666667  1
  O  O162  1  0.00000000  0.00000000  0.00000000  1
  O  O163  1  0.00000000  0.00000000  0.50000000  1
  O  O164  1  0.66666667  0.33333333  0.33333333  1
  O  O165  1  0.66666667  0.33333333  0.83333333  1
  O  O166  1  0.33333333  0.66666667  0.66666667  1
  O  O167  1  0.33333333  0.66666667  0.16666667  1
  O  O168  1  0.97588529  0.04795558  0.56718387  1
  O  O169  1  0.95204442  0.92792971  0.56718387  1
  O  O170  1  0.07207029  0.02411471  0.56718387  1
  O  O171  1  0.04795558  0.97588529  0.93281613  1
  O  O172  1  0.92792971  0.95204442  0.93281613  1
  O  O173  1  0.02411471  0.07207029  0.93281613  1
  O  O174  1  0.02411471  0.95204442  0.43281613  1
  O  O175  1  0.04795558  0.07207029  0.43281613  1
  O  O176  1  0.92792971  0.97588529  0.43281613  1
  O  O177  1  0.95204442  0.02411471  0.06718387  1
  O  O178  1  0.07207029  0.04795558  0.06718387  1
  O  O179  1  0.97588529  0.92792971  0.06718387  1
  O  O180  1  0.64255196  0.38128892  0.90051720  1
  O  O181  1  0.61871108  0.26126304  0.90051720  1
  O  O182  1  0.73873696  0.35744804  0.90051720  1
  O  O183  1  0.71462225  0.30921862  0.26614947  1
  O  O184  1  0.59459637  0.28537775  0.26614947  1
  O  O185  1  0.69078138  0.40540363  0.26614947  1
  O  O186  1  0.69078138  0.28537775  0.76614947  1
  O  O187  1  0.71462225  0.40540363  0.76614947  1
  O  O188  1  0.59459637  0.30921862  0.76614947  1
  O  O189  1  0.61871108  0.35744804  0.40051720  1
  O  O190  1  0.73873696  0.38128892  0.40051720  1
  O  O191  1  0.64255196  0.26126304  0.40051720  1
  O  O192  1  0.30921862  0.71462225  0.23385053  1
  O  O193  1  0.28537775  0.59459637  0.23385053  1
  O  O194  1  0.40540363  0.69078138  0.23385053  1
  O  O195  1  0.38128892  0.64255196  0.59948280  1
  O  O196  1  0.26126304  0.61871108  0.59948280  1
  O  O197  1  0.35744804  0.73873696  0.59948280  1
  O  O198  1  0.35744804  0.61871108  0.09948280  1
  O  O199  1  0.38128892  0.73873696  0.09948280  1
  O  O200  1  0.26126304  0.64255196  0.09948280  1
  O  O201  1  0.28537775  0.69078138  0.73385053  1
  O  O202  1  0.40540363  0.71462225  0.73385053  1
  O  O203  1  0.30921862  0.59459637  0.73385053  1
  O  O204  1  0.37008429  0.50156947  0.26071048  1
  O  O205  1  0.49843053  0.86851481  0.26071048  1
  O  O206  1  0.13148519  0.62991571  0.26071048  1
  O  O207  1  0.50156947  0.37008429  0.23928952  1
  O  O208  1  0.86851481  0.49843053  0.23928952  1
  O  O209  1  0.62991571  0.13148519  0.23928952  1
  O  O210  1  0.62991571  0.49843053  0.73928952  1
  O  O211  1  0.50156947  0.13148519  0.73928952  1
  O  O212  1  0.86851481  0.37008429  0.73928952  1
  O  O213  1  0.49843053  0.62991571  0.76071048  1
  O  O214  1  0.13148519  0.50156947  0.76071048  1
  O  O215  1  0.37008429  0.86851481  0.76071048  1
  O  O216  1  0.03675095  0.83490281  0.59404382  1
  O  O217  1  0.16509719  0.20184814  0.59404382  1
  O  O218  1  0.79815186  0.96324905  0.59404382  1
  O  O219  1  0.16823614  0.70341762  0.57262285  1
  O  O220  1  0.53518148  0.83176386  0.57262285  1
  O  O221  1  0.29658238  0.46481852  0.57262285  1
  O  O222  1  0.29658238  0.83176386  0.07262285  1
  O  O223  1  0.16823614  0.46481852  0.07262285  1
  O  O224  1  0.53518148  0.70341762  0.07262285  1
  O  O225  1  0.16509719  0.96324905  0.09404382  1
  O  O226  1  0.79815186  0.83490281  0.09404382  1
  O  O227  1  0.03675095  0.20184814  0.09404382  1
  O  O228  1  0.70341762  0.16823614  0.92737715  1
  O  O229  1  0.83176386  0.53518148  0.92737715  1
  O  O230  1  0.46481852  0.29658238  0.92737715  1
  O  O231  1  0.83490281  0.03675095  0.90595618  1
  O  O232  1  0.20184814  0.16509719  0.90595618  1
  O  O233  1  0.96324905  0.79815186  0.90595618  1
  O  O234  1  0.96324905  0.16509719  0.40595618  1
  O  O235  1  0.83490281  0.79815186  0.40595618  1
  O  O236  1  0.20184814  0.03675095  0.40595618  1
  O  O237  1  0.83176386  0.29658238  0.42737715  1
  O  O238  1  0.46481852  0.16823614  0.42737715  1
  O  O239  1  0.70341762  0.53518148  0.42737715  1
  O  O240  1  0.00000000  0.00000000  0.20527650  1
  O  O241  1  0.00000000  0.00000000  0.29472350  1
  O  O242  1  0.00000000  0.00000000  0.79472350  1
  O  O243  1  0.00000000  0.00000000  0.70527650  1
  O  O244  1  0.66666667  0.33333333  0.53860983  1
  O  O245  1  0.66666667  0.33333333  0.62805683  1
  O  O246  1  0.66666667  0.33333333  0.12805683  1
  O  O247  1  0.66666667  0.33333333  0.03860983  1
  O  O248  1  0.33333333  0.66666667  0.87194317  1
  O  O249  1  0.33333333  0.66666667  0.96139017  1
  O  O250  1  0.33333333  0.66666667  0.46139017  1
  O  O251  1  0.33333333  0.66666667  0.37194317  1
