# generated using pymatgen
data_Li2Y2P3Se2
_symmetry_space_group_name_H-M   'P 1'
_cell_length_a   4.15394508
_cell_length_b   4.37032864
_cell_length_c   6.77731168
_cell_angle_alpha   96.22633306
_cell_angle_beta   103.55965898
_cell_angle_gamma   115.00870530
_symmetry_Int_Tables_number   1
_chemical_formula_structural   Li2Y2P3Se2
_chemical_formula_sum   'Li2 Y2 P3 Se2'
_cell_volume   105.34098800
_cell_formula_units_Z   1
loop_
 _symmetry_equiv_pos_site_id
 _symmetry_equiv_pos_as_xyz
  1  'x, y, z'
loop_
 _atom_site_type_symbol
 _atom_site_label
 _atom_site_symmetry_multiplicity
 _atom_site_fract_x
 _atom_site_fract_y
 _atom_site_fract_z
 _atom_site_occupancy
  Y  Y0  1  0.00000000  0.00000000  0.00000000  1
  Y  Y1  1  0.50000000  0.50000000  0.50000000  1
  P  P2  1  0.50000000  0.50000000  0.00000000  1
  P  P3  1  0.50000000  0.00000000  0.50000000  1
  P  P4  1  0.00000000  0.50000000  0.50000000  1
  Se  Se5  1  0.08242084  0.37225925  0.32961567  1
  Se  Se6  1  0.48907962  0.85814148  0.87774714  1
  Li  Li7  1  0.02519281  0.56676053  0.19115479  1
  Li  Li8  1  0.43084275  0.71704992  0.40880852  1
