# generated using pymatgen
data_LiF
_symmetry_space_group_name_H-M   'P 1'
_cell_length_a   14.84903664
_cell_length_b   14.84903664
_cell_length_c   10.21705947
_cell_angle_alpha   90.00000000
_cell_angle_beta   90.00000000
_cell_angle_gamma   120.00000000
_symmetry_Int_Tables_number   1
_chemical_formula_structural   LiF
_chemical_formula_sum   'Li78 F78'
_cell_volume   1950.98131806
_cell_formula_units_Z   78
loop_
 _symmetry_equiv_pos_site_id
 _symmetry_equiv_pos_as_xyz
  1  'x, y, z'
loop_
 _atom_site_type_symbol
 _atom_site_label
 _atom_site_symmetry_multiplicity
 _atom_site_fract_x
 _atom_site_fract_y
 _atom_site_fract_z
 _atom_site_occupancy
  F  F0  1  0.57151897  0.44682475  0.04002605  1
  F  F1  1  0.55317525  0.12469422  0.04002605  1
  F  F2  1  0.87530578  0.42848103  0.04002605  1
  F  F3  1  0.44682475  0.57151897  0.45997395  1
  F  F4  1  0.12469422  0.55317525  0.45997395  1
  F  F5  1  0.42848103  0.87530578  0.45997395  1
  F  F6  1  0.42848103  0.55317525  0.95997395  1
  F  F7  1  0.44682475  0.87530578  0.95997395  1
  F  F8  1  0.12469422  0.57151897  0.95997395  1
  F  F9  1  0.55317525  0.42848103  0.54002605  1
  F  F10  1  0.87530578  0.44682475  0.54002605  1
  F  F11  1  0.57151897  0.12469422  0.54002605  1
  F  F12  1  0.23818564  0.78015808  0.37335938  1
  F  F13  1  0.21984192  0.45802756  0.37335938  1
  F  F14  1  0.54197244  0.76181436  0.37335938  1
  F  F15  1  0.11349142  0.90485231  0.79330729  1
  F  F16  1  0.79136089  0.88650858  0.79330729  1
  F  F17  1  0.09514769  0.20863911  0.79330729  1
  F  F18  1  0.09514769  0.88650858  0.29330729  1
  F  F19  1  0.11349142  0.20863911  0.29330729  1
  F  F20  1  0.79136089  0.90485231  0.29330729  1
  F  F21  1  0.21984192  0.76181436  0.87335938  1
  F  F22  1  0.54197244  0.78015808  0.87335938  1
  F  F23  1  0.23818564  0.45802756  0.87335938  1
  F  F24  1  0.90485231  0.11349142  0.70669271  1
  F  F25  1  0.88650858  0.79136089  0.70669271  1
  F  F26  1  0.20863911  0.09514769  0.70669271  1
  F  F27  1  0.78015808  0.23818564  0.12664062  1
  F  F28  1  0.45802756  0.21984192  0.12664062  1
  F  F29  1  0.76181436  0.54197244  0.12664062  1
  F  F30  1  0.76181436  0.21984192  0.62664062  1
  F  F31  1  0.78015808  0.54197244  0.62664062  1
  F  F32  1  0.45802756  0.23818564  0.62664062  1
  F  F33  1  0.88650858  0.09514769  0.20669271  1
  F  F34  1  0.20863911  0.11349142  0.20669271  1
  F  F35  1  0.90485231  0.79136089  0.20669271  1
  F  F36  1  0.00979299  0.47732626  0.52432754  1
  F  F37  1  0.52267374  0.53246673  0.52432754  1
  F  F38  1  0.46753327  0.99020701  0.52432754  1
  F  F39  1  0.47732626  0.00979299  0.97567246  1
  F  F40  1  0.53246673  0.52267374  0.97567246  1
  F  F41  1  0.99020701  0.46753327  0.97567246  1
  F  F42  1  0.99020701  0.52267374  0.47567246  1
  F  F43  1  0.47732626  0.46753327  0.47567246  1
  F  F44  1  0.53246673  0.00979299  0.47567246  1
  F  F45  1  0.52267374  0.99020701  0.02432754  1
  F  F46  1  0.46753327  0.47732626  0.02432754  1
  F  F47  1  0.00979299  0.53246673  0.02432754  1
  F  F48  1  0.67645966  0.81065960  0.85766087  1
  F  F49  1  0.18934040  0.86580006  0.85766087  1
  F  F50  1  0.13419994  0.32354034  0.85766087  1
  F  F51  1  0.14399293  0.34312632  0.30900580  1
  F  F52  1  0.19913339  0.85600707  0.30900580  1
  F  F53  1  0.65687368  0.80086661  0.30900580  1
  F  F54  1  0.65687368  0.85600707  0.80900580  1
  F  F55  1  0.14399293  0.80086661  0.80900580  1
  F  F56  1  0.19913339  0.34312632  0.80900580  1
  F  F57  1  0.18934040  0.32354034  0.35766087  1
  F  F58  1  0.13419994  0.81065960  0.35766087  1
  F  F59  1  0.67645966  0.86580006  0.35766087  1
  F  F60  1  0.34312632  0.14399293  0.19099420  1
  F  F61  1  0.85600707  0.19913339  0.19099420  1
  F  F62  1  0.80086661  0.65687368  0.19099420  1
  F  F63  1  0.81065960  0.67645966  0.64233913  1
  F  F64  1  0.86580006  0.18934040  0.64233913  1
  F  F65  1  0.32354034  0.13419994  0.64233913  1
  F  F66  1  0.32354034  0.18934040  0.14233913  1
  F  F67  1  0.81065960  0.13419994  0.14233913  1
  F  F68  1  0.86580006  0.67645966  0.14233913  1
  F  F69  1  0.85600707  0.65687368  0.69099420  1
  F  F70  1  0.80086661  0.14399293  0.69099420  1
  F  F71  1  0.34312632  0.19913339  0.69099420  1
  F  F72  1  0.00000000  0.00000000  0.25000000  1
  F  F73  1  0.00000000  0.00000000  0.75000000  1
  F  F74  1  0.66666667  0.33333333  0.58333333  1
  F  F75  1  0.66666667  0.33333333  0.08333333  1
  F  F76  1  0.33333333  0.66666667  0.91666667  1
  F  F77  1  0.33333333  0.66666667  0.41666667  1
  Li  Li78  1  0.88423352  0.69336179  0.53381855  1
  Li  Li79  1  -0.69336179  0.19087173  0.53381855  1
  Li  Li80  1  -0.19087173  -0.88423352  0.53381855  1
  Li  Li81  1  0.69336179  0.88423352  -0.03381855  1
  Li  Li82  1  0.19087173  -0.69336179  -0.03381855  1
  Li  Li83  1  -0.88423352  -0.19087173  -0.03381855  1
  Li  Li84  1  -0.88423352  -0.69336179  -0.53381855  1
  Li  Li85  1  0.69336179  -0.19087173  -0.53381855  1
  Li  Li86  1  0.19087173  0.88423352  -0.53381855  1
  Li  Li87  1  -0.69336179  -0.88423352  1.03381855  1
  Li  Li88  1  -0.19087173  0.69336179  1.03381855  1
  Li  Li89  1  0.88423352  0.19087173  1.03381855  1
  Li  Li90  1  1.55090019  1.02669513  0.86715189  1
  Li  Li91  1  -0.02669513  0.52420507  0.86715189  1
  Li  Li92  1  0.47579493  -0.55090019  0.86715189  1
  Li  Li93  1  1.36002846  1.21756686  0.29951478  1
  Li  Li94  1  0.85753840  -0.36002846  0.29951478  1
  Li  Li95  1  -0.21756686  0.14246160  0.29951478  1
  Li  Li96  1  -0.21756686  -0.36002846  -0.20048522  1
  Li  Li97  1  1.36002846  0.14246160  -0.20048522  1
  Li  Li98  1  0.85753840  1.21756686  -0.20048522  1
  Li  Li99  1  -0.02669513  -0.55090019  1.36715189  1
  Li  Li100  1  0.47579493  1.02669513  1.36715189  1
  Li  Li101  1  1.55090019  0.52420507  1.36715189  1
  Li  Li102  1  1.21756686  1.36002846  1.20048522  1
  Li  Li103  1  -0.36002846  0.85753840  1.20048522  1
  Li  Li104  1  0.14246160  -0.21756686  1.20048522  1
  Li  Li105  1  1.02669513  1.55090019  0.63284811  1
  Li  Li106  1  0.52420507  -0.02669513  0.63284811  1
  Li  Li107  1  -0.55090019  0.47579493  0.63284811  1
  Li  Li108  1  -0.55090019  -0.02669513  0.13284811  1
  Li  Li109  1  1.02669513  0.47579493  0.13284811  1
  Li  Li110  1  0.52420507  1.55090019  0.13284811  1
  Li  Li111  1  -0.36002846  -0.21756686  1.70048522  1
  Li  Li112  1  0.14246160  1.36002846  1.70048522  1
  Li  Li113  1  1.21756686  0.85753840  1.70048522  1
  Li  Li114  1  0.00000000  0.00000000  0.00000000  1
  Li  Li115  1  0.00000000  0.00000000  0.50000000  1
  Li  Li116  1  0.66666667  0.33333333  0.33333333  1
  Li  Li117  1  0.66666667  0.33333333  0.83333333  1
  Li  Li118  1  0.33333333  0.66666667  0.66666667  1
  Li  Li119  1  0.33333333  0.66666667  0.16666667  1
  Li  Li120  1  0.75325826  0.90455138  0.57725963  1
  Li  Li121  1  0.09544862  0.84870688  0.57725963  1
  Li  Li122  1  0.15129312  0.24674174  0.57725963  1
  Li  Li123  1  0.90455138  0.75325826  0.92274037  1
  Li  Li124  1  0.84870688  0.09544862  0.92274037  1
  Li  Li125  1  0.24674174  0.15129312  0.92274037  1
  Li  Li126  1  0.24674174  0.09544862  0.42274037  1
  Li  Li127  1  0.90455138  0.15129312  0.42274037  1
  Li  Li128  1  0.84870688  0.75325826  0.42274037  1
  Li  Li129  1  0.09544862  0.24674174  0.07725963  1
  Li  Li130  1  0.15129312  0.90455138  0.07725963  1
  Li  Li131  1  0.75325826  0.84870688  0.07725963  1
  Li  Li132  1  0.41992493  0.23788472  0.91059297  1
  Li  Li133  1  0.76211528  0.18204021  0.91059297  1
  Li  Li134  1  0.81795979  0.58007507  0.91059297  1
  Li  Li135  1  0.57121805  0.08659159  0.25607370  1
  Li  Li136  1  0.51537355  0.42878195  0.25607370  1
  Li  Li137  1  0.91340841  0.48462645  0.25607370  1
  Li  Li138  1  0.91340841  0.42878195  0.75607370  1
  Li  Li139  1  0.57121805  0.48462645  0.75607370  1
  Li  Li140  1  0.51537355  0.08659159  0.75607370  1
  Li  Li141  1  0.76211528  0.58007507  0.41059297  1
  Li  Li142  1  0.81795979  0.23788472  0.41059297  1
  Li  Li143  1  0.41992493  0.18204021  0.41059297  1
  Li  Li144  1  0.08659159  0.57121805  0.24392630  1
  Li  Li145  1  0.42878195  0.51537355  0.24392630  1
  Li  Li146  1  0.48462645  0.91340841  0.24392630  1
  Li  Li147  1  0.23788472  0.41992493  0.58940703  1
  Li  Li148  1  0.18204021  0.76211528  0.58940703  1
  Li  Li149  1  0.58007507  0.81795979  0.58940703  1
  Li  Li150  1  0.58007507  0.76211528  0.08940703  1
  Li  Li151  1  0.23788472  0.81795979  0.08940703  1
  Li  Li152  1  0.18204021  0.41992493  0.08940703  1
  Li  Li153  1  0.42878195  0.91340841  0.74392630  1
  Li  Li154  1  0.48462645  0.57121805  0.74392630  1
  Li  Li155  1  0.08659159  0.51537355  0.74392630  1
