# generated using pymatgen
data_LiF
_symmetry_space_group_name_H-M   'P 1'
_cell_length_a   9.70580128
_cell_length_b   6.84271092
_cell_length_c   9.40487538
_cell_angle_alpha   90.00000000
_cell_angle_beta   90.00000000
_cell_angle_gamma   90.00000000
_symmetry_Int_Tables_number   1
_chemical_formula_structural   LiF
_chemical_formula_sum   'Li24 F24'
_cell_volume   624.61532172
_cell_formula_units_Z   24
loop_
 _symmetry_equiv_pos_site_id
 _symmetry_equiv_pos_as_xyz
  1  'x, y, z'
loop_
 _atom_site_type_symbol
 _atom_site_label
 _atom_site_symmetry_multiplicity
 _atom_site_fract_x
 _atom_site_fract_y
 _atom_site_fract_z
 _atom_site_occupancy
  F  F0  1  0.06943338  0.51257999  0.04692270  1
  F  F1  1  0.43056662  0.48742001  0.54692270  1
  F  F2  1  0.93056662  0.01257999  0.95307730  1
  F  F3  1  0.56943338  0.98742001  0.45307730  1
  F  F4  1  0.93056662  0.48742001  0.95307730  1
  F  F5  1  0.56943338  0.51257999  0.45307730  1
  F  F6  1  0.06943338  0.98742001  0.04692270  1
  F  F7  1  0.43056662  0.01257999  0.54692270  1
  F  F8  1  0.67912040  0.87870715  0.43005669  1
  F  F9  1  0.82087960  0.12129285  0.93005669  1
  F  F10  1  0.32087960  0.37870715  0.56994331  1
  F  F11  1  0.17912040  0.62129285  0.06994331  1
  F  F12  1  0.32087960  0.12129285  0.56994331  1
  F  F13  1  0.17912040  0.87870715  0.06994331  1
  F  F14  1  0.67912040  0.62129285  0.43005669  1
  F  F15  1  0.82087960  0.37870715  0.93005669  1
  F  F16  1  0.49287925  0.25000000  0.15338722  1
  F  F17  1  0.00712075  0.75000000  0.65338722  1
  F  F18  1  0.50712075  0.75000000  0.84661278  1
  F  F19  1  0.99287925  0.25000000  0.34661278  1
  F  F20  1  0.00000000  0.00000000  0.50000000  1
  F  F21  1  0.50000000  0.00000000  0.00000000  1
  F  F22  1  0.00000000  0.50000000  0.50000000  1
  F  F23  1  0.50000000  0.50000000  0.00000000  1
  Li  Li24  1  0.33485659  0.61668512  0.74139881  1
  Li  Li25  1  0.16514341  -0.61668512  1.24139881  1
  Li  Li26  1  -0.33485659  1.11668512  -0.74139881  1
  Li  Li27  1  0.83485659  -0.11668512  -0.24139881  1
  Li  Li28  1  -0.33485659  -0.61668512  -0.74139881  1
  Li  Li29  1  0.83485659  0.61668512  -0.24139881  1
  Li  Li30  1  0.33485659  -0.11668512  0.74139881  1
  Li  Li31  1  0.16514341  1.11668512  1.24139881  1
  Li  Li32  1  0.12685824  0.25000000  0.98636123  1
  Li  Li33  1  0.37314176  0.75000000  0.48636123  1
  Li  Li34  1  0.87314176  0.75000000  0.01363877  1
  Li  Li35  1  0.62685824  0.25000000  0.51363877  1
  Li  Li36  1  0.56851539  0.99729553  0.68621380  1
  Li  Li37  1  0.93148461  0.00270447  0.18621380  1
  Li  Li38  1  0.43148461  0.49729553  0.31378620  1
  Li  Li39  1  0.06851539  0.50270447  0.81378620  1
  Li  Li40  1  0.43148461  0.00270447  0.31378620  1
  Li  Li41  1  0.06851539  0.99729553  0.81378620  1
  Li  Li42  1  0.56851539  0.50270447  0.68621380  1
  Li  Li43  1  0.93148461  0.49729553  0.18621380  1
  Li  Li44  1  0.78641868  0.25000000  0.42794376  1
  Li  Li45  1  0.71358132  0.75000000  0.92794376  1
  Li  Li46  1  0.21358132  0.75000000  0.57205624  1
  Li  Li47  1  0.28641868  0.25000000  0.07205624  1
