# generated using pymatgen
data_LiF
_symmetry_space_group_name_H-M   'P 1'
_cell_length_a   9.32451947
_cell_length_b   9.32451947
_cell_length_c   9.86003692
_cell_angle_alpha   90.00000000
_cell_angle_beta   90.00000000
_cell_angle_gamma   90.00000000
_symmetry_Int_Tables_number   1
_chemical_formula_structural   LiF
_chemical_formula_sum   'Li27 F27'
_cell_volume   857.29731063
_cell_formula_units_Z   27
loop_
 _symmetry_equiv_pos_site_id
 _symmetry_equiv_pos_as_xyz
  1  'x, y, z'
loop_
 _atom_site_type_symbol
 _atom_site_label
 _atom_site_symmetry_multiplicity
 _atom_site_fract_x
 _atom_site_fract_y
 _atom_site_fract_z
 _atom_site_occupancy
  F  F0  1  0.38974004  0.38974004  0.50000000  1
  F  F1  1  0.61025996  0.61025996  0.50000000  1
  F  F2  1  0.61025996  0.38974004  0.50000000  1
  F  F3  1  0.38974004  0.61025996  0.50000000  1
  F  F4  1  0.66083908  0.50000000  0.27778405  1
  F  F5  1  0.33916092  0.50000000  0.27778405  1
  F  F6  1  0.50000000  0.66083908  0.27778405  1
  F  F7  1  0.50000000  0.33916092  0.27778405  1
  F  F8  1  0.33916092  0.50000000  0.72221595  1
  F  F9  1  0.66083908  0.50000000  0.72221595  1
  F  F10  1  0.50000000  0.66083908  0.72221595  1
  F  F11  1  0.50000000  0.33916092  0.72221595  1
  F  F12  1  0.00000000  0.00000000  0.00000000  1
  F  F13  1  0.25369535  0.50000000  0.50000000  1
  F  F14  1  0.74630465  0.50000000  0.50000000  1
  F  F15  1  0.50000000  0.25369535  0.50000000  1
  F  F16  1  0.50000000  0.74630465  0.50000000  1
  F  F17  1  0.00000000  0.50000000  0.92911463  1
  F  F18  1  0.50000000  0.00000000  0.92911463  1
  F  F19  1  0.00000000  0.50000000  0.07088537  1
  F  F20  1  0.50000000  0.00000000  0.07088537  1
  F  F21  1  0.10450622  0.10450622  -0.00000000  1
  F  F22  1  0.89549378  0.89549378  -0.00000000  1
  F  F23  1  0.89549378  0.10450622  -0.00000000  1
  F  F24  1  0.10450622  0.89549378  -0.00000000  1
  F  F25  1  0.50000000  0.50000000  0.92285177  1
  F  F26  1  0.50000000  0.50000000  0.07714823  1
  Li  Li27  1  0.70104379  0.70104379  0.83940236  1
  Li  Li28  1  -0.70104379  -0.70104379  0.83940236  1
  Li  Li29  1  -0.70104379  0.70104379  0.83940236  1
  Li  Li30  1  0.70104379  -0.70104379  0.83940236  1
  Li  Li31  1  -0.70104379  0.70104379  -0.83940236  1
  Li  Li32  1  0.70104379  -0.70104379  -0.83940236  1
  Li  Li33  1  0.70104379  0.70104379  -0.83940236  1
  Li  Li34  1  -0.70104379  -0.70104379  -0.83940236  1
  Li  Li35  1  0.31894899  0.00000000  0.38478914  1
  Li  Li36  1  0.68105101  0.00000000  0.38478914  1
  Li  Li37  1  0.00000000  0.31894899  0.38478914  1
  Li  Li38  1  0.00000000  0.68105101  0.38478914  1
  Li  Li39  1  0.68105101  0.00000000  0.61521086  1
  Li  Li40  1  0.31894899  0.00000000  0.61521086  1
  Li  Li41  1  0.00000000  0.31894899  0.61521086  1
  Li  Li42  1  0.00000000  0.68105101  0.61521086  1
  Li  Li43  1  0.90841083  0.50000000  0.00000000  1
  Li  Li44  1  0.09158917  0.50000000  0.00000000  1
  Li  Li45  1  0.50000000  0.90841083  0.00000000  1
  Li  Li46  1  0.50000000  0.09158917  0.00000000  1
  Li  Li47  1  0.27724188  0.27724188  0.50000000  1
  Li  Li48  1  0.72275812  0.72275812  0.50000000  1
  Li  Li49  1  0.72275812  0.27724188  0.50000000  1
  Li  Li50  1  0.27724188  0.72275812  0.50000000  1
  Li  Li51  1  0.00000000  0.00000000  0.32590771  1
  Li  Li52  1  0.00000000  0.00000000  0.67409229  1
  Li  Li53  1  0.00000000  0.00000000  0.50000000  1
