# generated using pymatgen
data_LiF
_symmetry_space_group_name_H-M   'P 1'
_cell_length_a   7.58445780
_cell_length_b   3.95714362
_cell_length_c   5.43003718
_cell_angle_alpha   90.00000000
_cell_angle_beta   90.00000000
_cell_angle_gamma   90.00000000
_symmetry_Int_Tables_number   1
_chemical_formula_structural   LiF
_chemical_formula_sum   'Li12 F12'
_cell_volume   162.97055889
_cell_formula_units_Z   12
loop_
 _symmetry_equiv_pos_site_id
 _symmetry_equiv_pos_as_xyz
  1  'x, y, z'
loop_
 _atom_site_type_symbol
 _atom_site_label
 _atom_site_symmetry_multiplicity
 _atom_site_fract_x
 _atom_site_fract_y
 _atom_site_fract_z
 _atom_site_occupancy
  F  F0  1  0.31925810  0.28373054  0.16542553  1
  F  F1  1  -0.31925810  -0.28373054  0.16542553  1
  F  F2  1  0.18074190  0.78373054  -0.16542553  1
  F  F3  1  0.81925810  0.21626946  -0.16542553  1
  F  F4  1  -0.31925810  -0.28373054  -0.16542553  1
  F  F5  1  0.31925810  0.28373054  -0.16542553  1
  F  F6  1  0.81925810  0.21626946  0.16542553  1
  F  F7  1  0.18074190  0.78373054  0.16542553  1
  F  F8  1  0.00000000  0.00000000  0.88399674  1
  F  F9  1  0.50000000  0.50000000  0.11600326  1
  F  F10  1  0.00000000  0.00000000  0.11600326  1
  F  F11  1  0.50000000  0.50000000  0.88399674  1
  Li  Li12  1  0.10915155  0.86639166  0.50000000  1
  Li  Li13  1  0.89084845  0.13360834  0.50000000  1
  Li  Li14  1  0.39084845  0.36639166  0.50000000  1
  Li  Li15  1  0.60915155  0.63360834  0.50000000  1
  Li  Li16  1  0.37456343  0.38265380  -0.00000000  1
  Li  Li17  1  0.62543657  0.61734620  0.00000000  1
  Li  Li18  1  0.12543657  0.88265380  0.00000000  1
  Li  Li19  1  0.87456343  0.11734620  0.00000000  1
  Li  Li20  1  0.00000000  0.50000000  0.00000000  1
  Li  Li21  1  0.50000000  0.00000000  0.00000000  1
  Li  Li22  1  0.00000000  0.50000000  0.50000000  1
  Li  Li23  1  0.50000000  0.00000000  0.50000000  1
