# generated using pymatgen
data_LiF
_symmetry_space_group_name_H-M   'P 1'
_cell_length_a   7.64772023
_cell_length_b   6.12482997
_cell_length_c   10.06402170
_cell_angle_alpha   90.00000000
_cell_angle_beta   90.00000000
_cell_angle_gamma   90.00000000
_symmetry_Int_Tables_number   1
_chemical_formula_structural   LiF
_chemical_formula_sum   'Li18 F18'
_cell_volume   471.40870029
_cell_formula_units_Z   18
loop_
 _symmetry_equiv_pos_site_id
 _symmetry_equiv_pos_as_xyz
  1  'x, y, z'
loop_
 _atom_site_type_symbol
 _atom_site_label
 _atom_site_symmetry_multiplicity
 _atom_site_fract_x
 _atom_site_fract_y
 _atom_site_fract_z
 _atom_site_occupancy
  F  F0  1  0.00000000  0.00000000  0.39183707  1
  F  F1  1  0.50000000  0.50000000  0.60816293  1
  F  F2  1  0.00000000  0.00000000  0.60816293  1
  F  F3  1  0.50000000  0.50000000  0.39183707  1
  F  F4  1  0.00000000  0.00000000  0.50000000  1
  F  F5  1  0.50000000  0.50000000  0.50000000  1
  F  F6  1  0.00000000  0.50000000  0.00000000  1
  F  F7  1  0.50000000  0.00000000  0.00000000  1
  F  F8  1  0.86130233  0.46848845  0.39753307  1
  F  F9  1  -0.86130233  -0.46848845  0.39753307  1
  F  F10  1  -0.36130233  0.96848845  -0.39753307  1
  F  F11  1  1.36130233  0.03151155  -0.39753307  1
  F  F12  1  -0.86130233  -0.46848845  -0.39753307  1
  F  F13  1  0.86130233  0.46848845  -0.39753307  1
  F  F14  1  1.36130233  0.03151155  0.39753307  1
  F  F15  1  -0.36130233  0.96848845  0.39753307  1
  F  F16  1  0.00000000  0.00000000  0.00000000  1
  F  F17  1  0.50000000  0.50000000  0.00000000  1
  Li  Li18  1  0.22996225  0.86202753  0.43387023  1
  Li  Li19  1  0.77003775  0.13797247  0.43387023  1
  Li  Li20  1  0.27003775  0.36202753  0.56612977  1
  Li  Li21  1  0.72996225  0.63797247  0.56612977  1
  Li  Li22  1  0.77003775  0.13797247  0.56612977  1
  Li  Li23  1  0.22996225  0.86202753  0.56612977  1
  Li  Li24  1  0.72996225  0.63797247  0.43387023  1
  Li  Li25  1  0.27003775  0.36202753  0.43387023  1
  Li  Li26  1  0.69789033  0.60980495  0.84390870  1
  Li  Li27  1  0.30210967  0.39019505  0.84390870  1
  Li  Li28  1  0.80210967  0.10980495  0.15609130  1
  Li  Li29  1  0.19789033  0.89019505  0.15609130  1
  Li  Li30  1  0.30210967  0.39019505  0.15609130  1
  Li  Li31  1  0.69789033  0.60980495  0.15609130  1
  Li  Li32  1  0.19789033  0.89019505  0.84390870  1
  Li  Li33  1  0.80210967  0.10980495  0.84390870  1
  Li  Li34  1  0.00000000  0.50000000  0.50000000  1
  Li  Li35  1  0.50000000  0.00000000  0.50000000  1
