# generated using pymatgen
data_LiF
_symmetry_space_group_name_H-M   'P 1'
_cell_length_a   6.85400000
_cell_length_b   6.85400000
_cell_length_c   3.22992218
_cell_angle_alpha   90.00000000
_cell_angle_beta   90.00000000
_cell_angle_gamma   120.00000000
_symmetry_Int_Tables_number   1
_chemical_formula_structural   LiF
_chemical_formula_sum   'Li8 F8'
_cell_volume   131.40469743
_cell_formula_units_Z   8
loop_
 _symmetry_equiv_pos_site_id
 _symmetry_equiv_pos_as_xyz
  1  'x, y, z'
loop_
 _atom_site_type_symbol
 _atom_site_label
 _atom_site_symmetry_multiplicity
 _atom_site_fract_x
 _atom_site_fract_y
 _atom_site_fract_z
 _atom_site_occupancy
  F  F0  1  0.00000000  0.00000000  0.50000000  1
  F  F1  1  0.33333333  0.66666667  -0.00000000  1
  F  F2  1  0.60842390  0.21855915  0.12900292  1
  F  F3  1  0.78144085  0.38986475  0.12900292  1
  F  F4  1  0.61013525  0.39157610  0.12900292  1
  F  F5  1  0.78144085  0.39157610  0.87099708  1
  F  F6  1  0.61013525  0.21855915  0.87099708  1
  F  F7  1  0.60842390  0.38986475  0.87099708  1
  Li  Li8  1  0.23203945  0.97823699  0.60547142  1
  Li  Li9  1  -0.97823699  -0.74619754  0.60547142  1
  Li  Li10  1  0.74619754  -0.23203945  0.60547142  1
  Li  Li11  1  -0.97823699  -0.23203945  -0.60547142  1
  Li  Li12  1  0.74619754  0.97823699  -0.60547142  1
  Li  Li13  1  0.23203945  -0.74619754  -0.60547142  1
  Li  Li14  1  0.00000000  0.00000000  0.00000000  1
  Li  Li15  1  0.66666667  0.33333333  0.50000000  1
