# generated using pymatgen
data_Li3Y2MoP3Se2
_symmetry_space_group_name_H-M   'P 1'
_cell_length_a   5.91710741
_cell_length_b   6.02810659
_cell_length_c   7.43655856
_cell_angle_alpha   93.14821611
_cell_angle_beta   96.85616019
_cell_angle_gamma   102.64513288
_symmetry_Int_Tables_number   1
_chemical_formula_structural   Li3Y2MoP3Se2
_chemical_formula_sum   'Li3 Y2 Mo1 P3 Se2'
_cell_volume   256.06863513
_cell_formula_units_Z   1
loop_
 _symmetry_equiv_pos_site_id
 _symmetry_equiv_pos_as_xyz
  1  'x, y, z'
loop_
 _atom_site_type_symbol
 _atom_site_label
 _atom_site_symmetry_multiplicity
 _atom_site_fract_x
 _atom_site_fract_y
 _atom_site_fract_z
 _atom_site_occupancy
  Se  Se0  1  0.12500000  0.00000000  0.25000000  1
  Se  Se1  1  0.00000000  0.00000000  0.00000000  1
  P  P2  1  0.37500000  0.00000000  0.25000000  1
  P  P3  1  0.25000000  0.25000000  0.25000000  1
  P  P4  1  0.00000000  0.25000000  0.12500000  1
  Mo  Mo5  1  0.41532358  0.94883769  0.78940016  1
  Li  Li6  1  0.79570064  0.48691670  0.32796734  1
  Li  Li7  1  0.36958339  0.71217845  0.36062675  1
  Li  Li8  1  0.56412600  0.47774053  0.53064345  1
  Y  Y9  1  0.53947638  0.54847183  0.98441422  1
  Y  Y10  1  0.98840424  0.65297516  0.28059779  1
