# generated using pymatgen
data_LiY2(PSe)2
_symmetry_space_group_name_H-M   'P 1'
_cell_length_a   4.64870844
_cell_length_b   4.74662701
_cell_length_c   7.06681541
_cell_angle_alpha   95.46496627
_cell_angle_beta   101.90156040
_cell_angle_gamma   111.95059751
_symmetry_Int_Tables_number   1
_chemical_formula_structural   LiY2(PSe)2
_chemical_formula_sum   'Li1 Y2 P2 Se2'
_cell_volume   138.94625575
_cell_formula_units_Z   1
loop_
 _symmetry_equiv_pos_site_id
 _symmetry_equiv_pos_as_xyz
  1  'x, y, z'
loop_
 _atom_site_type_symbol
 _atom_site_label
 _atom_site_symmetry_multiplicity
 _atom_site_fract_x
 _atom_site_fract_y
 _atom_site_fract_z
 _atom_site_occupancy
  Se  Se0  1  0.12500000  0.12500000  0.12500000  1
  Se  Se1  1  0.50000000  0.50000000  0.50000000  1
  Y  Y2  1  0.25000000  0.25000000  0.25000000  1
  Y  Y3  1  0.75000000  0.75000000  0.75000000  1
  P  P4  1  0.01558130  0.37777189  0.00181343  1
  P  P5  1  0.85164536  0.79342573  0.45490639  1
  Li  Li6  1  0.12881277  0.50716905  0.89142344  1
