# generated using pymatgen
data_LiYP2
_symmetry_space_group_name_H-M   'P 1'
_cell_length_a   4.31250801
_cell_length_b   4.60749017
_cell_length_c   6.91798251
_cell_angle_alpha   95.94466303
_cell_angle_beta   102.94624021
_cell_angle_gamma   113.87734874
_symmetry_Int_Tables_number   1
_chemical_formula_structural   LiYP2
_chemical_formula_sum   'Li2 Y2 P4'
_cell_volume   119.55394846
_cell_formula_units_Z   2
loop_
 _symmetry_equiv_pos_site_id
 _symmetry_equiv_pos_as_xyz
  1  'x, y, z'
loop_
 _atom_site_type_symbol
 _atom_site_label
 _atom_site_symmetry_multiplicity
 _atom_site_fract_x
 _atom_site_fract_y
 _atom_site_fract_z
 _atom_site_occupancy
  Y  Y0  1  0.00000000  0.00000000  0.00000000  1
  Y  Y1  1  0.33300000  0.66700000  0.25000000  1
  P  P2  1  0.66700000  0.33300000  0.50000000  1
  P  P3  1  0.00000000  0.00000000  0.75000000  1
  P  P4  1  0.78807049  0.02454630  0.56660064  1
  P  P5  1  0.62978061  0.07026174  0.40164646  1
  Li  Li6  1  0.24111334  0.83949891  0.82114768  1
  Li  Li7  1  0.95266340  0.79426314  0.85665216  1
