# generated using pymatgen
data_LiYAs2P3
_symmetry_space_group_name_H-M   'P 1'
_cell_length_a   5.41005888
_cell_length_b   5.39356023
_cell_length_c   7.31303060
_cell_angle_alpha   94.68660337
_cell_angle_beta   99.90882583
_cell_angle_gamma   107.37787668
_symmetry_Int_Tables_number   1
_chemical_formula_structural   LiYAs2P3
_chemical_formula_sum   'Li1 Y1 As2 P3'
_cell_volume   198.59170023
_cell_formula_units_Z   1
loop_
 _symmetry_equiv_pos_site_id
 _symmetry_equiv_pos_as_xyz
  1  'x, y, z'
loop_
 _atom_site_type_symbol
 _atom_site_label
 _atom_site_symmetry_multiplicity
 _atom_site_fract_x
 _atom_site_fract_y
 _atom_site_fract_z
 _atom_site_occupancy
  P  P0  1  0.00000000  0.00000000  0.00000000  1
  P  P1  1  0.50000000  0.50000000  0.50000000  1
  P  P2  1  0.50000000  0.50000000  0.00000000  1
  As  As3  1  0.50000000  0.00000000  0.50000000  1
  As  As4  1  0.00000000  0.50000000  0.50000000  1
  Li  Li5  1  0.07798405  0.70137052  0.91250417  1
  Y  Y6  1  0.76014075  0.59792264  0.38826493  1
