# generated using pymatgen
data_LiYSbP
_symmetry_space_group_name_H-M   'P 1'
_cell_length_a   5.47218228
_cell_length_b   5.64209325
_cell_length_c   7.06406486
_cell_angle_alpha   93.69916560
_cell_angle_beta   97.24462349
_cell_angle_gamma   103.58560352
_symmetry_Int_Tables_number   1
_chemical_formula_structural   LiYSbP
_chemical_formula_sum   'Li2 Y2 Sb2 P2'
_cell_volume   209.30041547
_cell_formula_units_Z   2
loop_
 _symmetry_equiv_pos_site_id
 _symmetry_equiv_pos_as_xyz
  1  'x, y, z'
loop_
 _atom_site_type_symbol
 _atom_site_label
 _atom_site_symmetry_multiplicity
 _atom_site_fract_x
 _atom_site_fract_y
 _atom_site_fract_z
 _atom_site_occupancy
  Y  Y0  1  0.00000000  0.00000000  0.00000000  1
  Y  Y1  1  0.33300000  0.66700000  0.25000000  1
  P  P2  1  0.66700000  0.33300000  0.50000000  1
  P  P3  1  0.00000000  0.00000000  0.75000000  1
  Li  Li4  1  0.85297457  0.16577680  0.80342164  1
  Li  Li5  1  0.92139503  0.23083475  0.58407970  1
  Sb  Sb6  1  0.63569743  0.53950426  0.50263345  1
  Sb  Sb7  1  0.12559498  0.13182820  0.71111050  1
