# generated using pymatgen
data_Li2Y2P4Se
_symmetry_space_group_name_H-M   'P 1'
_cell_length_a   4.66135748
_cell_length_b   4.69835835
_cell_length_c   7.16642770
_cell_angle_alpha   95.44544268
_cell_angle_beta   101.85904206
_cell_angle_gamma   111.87217898
_symmetry_Int_Tables_number   1
_chemical_formula_structural   Li2Y2P4Se
_chemical_formula_sum   'Li2 Y2 P4 Se1'
_cell_volume   139.98036710
_cell_formula_units_Z   1
loop_
 _symmetry_equiv_pos_site_id
 _symmetry_equiv_pos_as_xyz
  1  'x, y, z'
loop_
 _atom_site_type_symbol
 _atom_site_label
 _atom_site_symmetry_multiplicity
 _atom_site_fract_x
 _atom_site_fract_y
 _atom_site_fract_z
 _atom_site_occupancy
  Se  Se0  1  0.00000000  0.00000000  0.00000000  1
  P  P1  1  0.50000000  0.50000000  0.50000000  1
  P  P2  1  0.25000000  0.25000000  0.25000000  1
  P  P3  1  0.75000000  0.25000000  0.00000000  1
  P  P4  1  0.25000000  0.75000000  0.50000000  1
  Li  Li5  1  0.54672220  0.77333143  0.24312210  1
  Li  Li6  1  0.96857549  0.45695119  0.06201435  1
  Y  Y7  1  0.79765828  0.38012490  0.47609212  1
  Y  Y8  1  0.15390744  0.83008438  0.52376287  1
