# generated using pymatgen
data_LiF
_symmetry_space_group_name_H-M   'P 1'
_cell_length_a   5.48976995
_cell_length_b   7.96535363
_cell_length_c   5.65605139
_cell_angle_alpha   90.00000000
_cell_angle_beta   90.00000000
_cell_angle_gamma   90.00000000
_symmetry_Int_Tables_number   1
_chemical_formula_structural   LiF
_chemical_formula_sum   'Li8 F8'
_cell_volume   247.32758317
_cell_formula_units_Z   8
loop_
 _symmetry_equiv_pos_site_id
 _symmetry_equiv_pos_as_xyz
  1  'x, y, z'
loop_
 _atom_site_type_symbol
 _atom_site_label
 _atom_site_symmetry_multiplicity
 _atom_site_fract_x
 _atom_site_fract_y
 _atom_site_fract_z
 _atom_site_occupancy
  F  F0  1  0.14118033  0.09275059  0.06732153  1
  F  F1  1  -0.14118033  -0.09275059  0.06732153  1
  F  F2  1  0.35881967  0.59275059  0.43267847  1
  F  F3  1  0.64118033  0.40724941  0.43267847  1
  F  F4  1  -0.14118033  -0.09275059  -0.06732153  1
  F  F5  1  0.14118033  0.09275059  -0.06732153  1
  F  F6  1  0.64118033  0.40724941  0.56732153  1
  F  F7  1  0.35881967  0.59275059  0.56732153  1
  Li  Li8  1  0.00000000  0.50000000  0.50000000  1
  Li  Li9  1  0.50000000  0.00000000  0.00000000  1
  Li  Li10  1  0.00000000  0.00000000  0.66235515  1
  Li  Li11  1  0.50000000  0.50000000  0.83764485  1
  Li  Li12  1  0.00000000  0.00000000  0.33764485  1
  Li  Li13  1  0.50000000  0.50000000  0.16235515  1
  Li  Li14  1  0.00000000  0.00000000  0.00000000  1
  Li  Li15  1  0.50000000  0.50000000  0.50000000  1
