# generated using pymatgen
data_Li3Y2MoP3Se2
_symmetry_space_group_name_H-M   'P 1'
_cell_length_a   6.00430226
_cell_length_b   6.17105311
_cell_length_c   7.36617393
_cell_angle_alpha   92.95667526
_cell_angle_beta   96.43902404
_cell_angle_gamma   101.87578943
_symmetry_Int_Tables_number   1
_chemical_formula_structural   Li3Y2MoP3Se2
_chemical_formula_sum   'Li3 Y2 Mo1 P3 Se2'
_cell_volume   264.62760482
_cell_formula_units_Z   1
loop_
 _symmetry_equiv_pos_site_id
 _symmetry_equiv_pos_as_xyz
  1  'x, y, z'
loop_
 _atom_site_type_symbol
 _atom_site_label
 _atom_site_symmetry_multiplicity
 _atom_site_fract_x
 _atom_site_fract_y
 _atom_site_fract_z
 _atom_site_occupancy
  Se  Se0  1  0.00000000  0.00000000  0.00000000  1
  Se  Se1  1  0.50000000  0.50000000  0.50000000  1
  Y  Y2  1  0.25000000  0.25000000  0.25000000  1
  Y  Y3  1  0.75000000  0.25000000  0.00000000  1
  P  P4  1  0.25000000  0.75000000  0.50000000  1
  P  P5  1  0.28288092  0.97556295  0.41300507  1
  P  P6  1  0.49282980  0.90046510  0.90311765  1
  Mo  Mo7  1  0.41898625  0.31251906  0.21392423  1
  Li  Li8  1  0.33150316  0.02483746  0.60749843  1
  Li  Li9  1  0.96789817  0.67646593  0.83120944  1
  Li  Li10  1  0.92741032  0.61004502  0.24482056  1
