# generated using pymatgen
data_LiF
_symmetry_space_group_name_H-M   'P 1'
_cell_length_a   7.64591329
_cell_length_b   7.64591329
_cell_length_c   7.33871847
_cell_angle_alpha   90.00000000
_cell_angle_beta   90.00000000
_cell_angle_gamma   120.00000000
_symmetry_Int_Tables_number   1
_chemical_formula_structural   LiF
_chemical_formula_sum   'Li17 F17'
_cell_volume   371.54343876
_cell_formula_units_Z   17
loop_
 _symmetry_equiv_pos_site_id
 _symmetry_equiv_pos_as_xyz
  1  'x, y, z'
loop_
 _atom_site_type_symbol
 _atom_site_label
 _atom_site_symmetry_multiplicity
 _atom_site_fract_x
 _atom_site_fract_y
 _atom_site_fract_z
 _atom_site_occupancy
  F  F0  1  0.08299579  0.91700421  0.50000000  1
  F  F1  1  0.08299579  0.16599158  0.50000000  1
  F  F2  1  0.83400842  0.91700421  0.50000000  1
  F  F3  1  0.70554079  0.77356960  0.56941467  1
  F  F4  1  0.22643040  0.93197119  0.56941467  1
  F  F5  1  0.06802881  0.29445921  0.56941467  1
  F  F6  1  0.22643040  0.29445921  0.43058533  1
  F  F7  1  0.06802881  0.77356960  0.43058533  1
  F  F8  1  0.70554079  0.93197119  0.43058533  1
  F  F9  1  0.19007449  0.73585897  0.83382186  1
  F  F10  1  0.26414103  0.45421552  0.83382186  1
  F  F11  1  0.54578448  0.80992551  0.83382186  1
  F  F12  1  0.26414103  0.80992551  0.16617814  1
  F  F13  1  0.54578448  0.73585897  0.16617814  1
  F  F14  1  0.19007449  0.45421552  0.16617814  1
  F  F15  1  0.00000000  0.00000000  0.27389795  1
  F  F16  1  0.00000000  0.00000000  0.72610205  1
  Li  Li17  1  0.33333333  0.66666667  0.50000000  1
  Li  Li18  1  0.66666667  0.33333333  0.85601609  1
  Li  Li19  1  0.66666667  0.33333333  0.14398391  1
  Li  Li20  1  0.80592793  0.67166740  0.21149922  1
  Li  Li21  1  -0.67166740  0.13426054  0.21149922  1
  Li  Li22  1  -0.13426054  -0.80592793  0.21149922  1
  Li  Li23  1  -0.67166740  -0.80592793  -0.21149922  1
  Li  Li24  1  -0.13426054  0.67166740  -0.21149922  1
  Li  Li25  1  0.80592793  0.13426054  -0.21149922  1
  Li  Li26  1  0.00000000  0.00000000  0.50000000  1
  Li  Li27  1  0.42610060  0.47686719  0.19516441  1
  Li  Li28  1  0.52313281  0.94923341  0.19516441  1
  Li  Li29  1  0.05076659  0.57389940  0.19516441  1
  Li  Li30  1  0.52313281  0.57389940  0.80483559  1
  Li  Li31  1  0.05076659  0.47686719  0.80483559  1
  Li  Li32  1  0.42610060  0.94923341  0.80483559  1
  Li  Li33  1  0.66666667  0.33333333  0.50000000  1
