# generated using pymatgen
data_LiF
_symmetry_space_group_name_H-M   'P 1'
_cell_length_a   8.99365452
_cell_length_b   6.21632840
_cell_length_c   8.71073667
_cell_angle_alpha   90.00000000
_cell_angle_beta   90.00000000
_cell_angle_gamma   90.00000000
_symmetry_Int_Tables_number   1
_chemical_formula_structural   LiF
_chemical_formula_sum   'Li24 F24'
_cell_volume   486.99559697
_cell_formula_units_Z   24
loop_
 _symmetry_equiv_pos_site_id
 _symmetry_equiv_pos_as_xyz
  1  'x, y, z'
loop_
 _atom_site_type_symbol
 _atom_site_label
 _atom_site_symmetry_multiplicity
 _atom_site_fract_x
 _atom_site_fract_y
 _atom_site_fract_z
 _atom_site_occupancy
  F  F0  1  0.63007080  0.25000000  0.31026082  1
  F  F1  1  0.86992920  0.75000000  0.81026082  1
  F  F2  1  0.36992920  0.75000000  0.68973918  1
  F  F3  1  0.13007080  0.25000000  0.18973918  1
  F  F4  1  0.20777144  0.36114612  0.78849850  1
  F  F5  1  0.29222856  0.63885388  0.28849850  1
  F  F6  1  0.79222856  0.86114612  0.21150150  1
  F  F7  1  0.70777144  0.13885388  0.71150150  1
  F  F8  1  0.79222856  0.63885388  0.21150150  1
  F  F9  1  0.70777144  0.36114612  0.71150150  1
  F  F10  1  0.20777144  0.13885388  0.78849850  1
  F  F11  1  0.29222856  0.86114612  0.28849850  1
  F  F12  1  0.72724595  0.50234596  0.49884096  1
  F  F13  1  0.77275405  0.49765404  0.99884096  1
  F  F14  1  0.27275405  0.00234596  0.50115904  1
  F  F15  1  0.22724595  0.99765404  0.00115904  1
  F  F16  1  0.27275405  0.49765404  0.50115904  1
  F  F17  1  0.22724595  0.50234596  0.00115904  1
  F  F18  1  0.72724595  0.99765404  0.49884096  1
  F  F19  1  0.77275405  0.00234596  0.99884096  1
  F  F20  1  0.00000000  0.00000000  0.50000000  1
  F  F21  1  0.50000000  0.00000000  0.00000000  1
  F  F22  1  0.00000000  0.50000000  0.50000000  1
  F  F23  1  0.50000000  0.50000000  0.00000000  1
  Li  Li24  1  0.60567355  0.25000000  0.06930208  1
  Li  Li25  1  0.89432645  0.75000000  0.56930208  1
  Li  Li26  1  0.39432645  0.75000000  0.93069792  1
  Li  Li27  1  0.10567355  0.25000000  0.43069792  1
  Li  Li28  1  0.40771453  0.54654387  0.20976901  1
  Li  Li29  1  0.09228547  -0.54654387  0.70976901  1
  Li  Li30  1  -0.40771453  1.04654387  -0.20976901  1
  Li  Li31  1  0.90771453  -0.04654387  0.29023099  1
  Li  Li32  1  -0.40771453  -0.54654387  -0.20976901  1
  Li  Li33  1  0.90771453  0.54654387  0.29023099  1
  Li  Li34  1  0.40771453  -0.04654387  0.20976901  1
  Li  Li35  1  0.09228547  1.04654387  0.70976901  1
  Li  Li36  1  0.96575528  0.01366570  0.81974001  1
  Li  Li37  1  0.53424472  0.98633430  0.31974001  1
  Li  Li38  1  0.03424472  0.51366570  0.18025999  1
  Li  Li39  1  0.46575528  0.48633430  0.68025999  1
  Li  Li40  1  0.03424472  0.98633430  0.18025999  1
  Li  Li41  1  0.46575528  0.01366570  0.68025999  1
  Li  Li42  1  0.96575528  0.48633430  0.81974001  1
  Li  Li43  1  0.53424472  0.51366570  0.31974001  1
  Li  Li44  1  0.00000000  0.00000000  0.00000000  1
  Li  Li45  1  0.50000000  0.00000000  0.50000000  1
  Li  Li46  1  0.00000000  0.50000000  -0.00000000  1
  Li  Li47  1  0.50000000  0.50000000  0.50000000  1
