# generated using pymatgen
data_LiF
_symmetry_space_group_name_H-M   'P 1'
_cell_length_a   9.20873459
_cell_length_b   7.52379187
_cell_length_c   7.35314912
_cell_angle_alpha   90.00000000
_cell_angle_beta   90.00000000
_cell_angle_gamma   90.00000000
_symmetry_Int_Tables_number   1
_chemical_formula_structural   LiF
_chemical_formula_sum   'Li24 F24'
_cell_volume   509.46001324
_cell_formula_units_Z   24
loop_
 _symmetry_equiv_pos_site_id
 _symmetry_equiv_pos_as_xyz
  1  'x, y, z'
loop_
 _atom_site_type_symbol
 _atom_site_label
 _atom_site_symmetry_multiplicity
 _atom_site_fract_x
 _atom_site_fract_y
 _atom_site_fract_z
 _atom_site_occupancy
  F  F0  1  0.92778556  0.20201139  0.25023665  1
  F  F1  1  0.57221444  0.79798861  0.75023665  1
  F  F2  1  0.07221444  0.70201139  0.74976335  1
  F  F3  1  0.42778556  0.29798861  0.24976335  1
  F  F4  1  0.07221444  0.79798861  0.74976335  1
  F  F5  1  0.42778556  0.20201139  0.24976335  1
  F  F6  1  0.92778556  0.29798861  0.25023665  1
  F  F7  1  0.57221444  0.70201139  0.75023665  1
  F  F8  1  0.35761845  0.03096692  0.52745398  1
  F  F9  1  0.14238155  0.96903308  0.02745398  1
  F  F10  1  0.64238155  0.53096692  0.47254602  1
  F  F11  1  0.85761845  0.46903308  0.97254602  1
  F  F12  1  0.64238155  0.96903308  0.47254602  1
  F  F13  1  0.85761845  0.03096692  0.97254602  1
  F  F14  1  0.35761845  0.46903308  0.52745398  1
  F  F15  1  0.14238155  0.53096692  0.02745398  1
  F  F16  1  0.15868632  0.70636340  0.74841941  1
  F  F17  1  0.34131368  0.29363660  0.24841941  1
  F  F18  1  0.84131368  0.20636340  0.25158059  1
  F  F19  1  0.65868632  0.79363660  0.75158059  1
  F  F20  1  0.84131368  0.29363660  0.25158059  1
  F  F21  1  0.65868632  0.70636340  0.75158059  1
  F  F22  1  0.15868632  0.79363660  0.74841941  1
  F  F23  1  0.34131368  0.20636340  0.24841941  1
  Li  Li24  1  0.27211349  0.89213265  0.78431472  1
  Li  Li25  1  0.22788651  -0.89213265  1.28431472  1
  Li  Li26  1  -0.27211349  1.39213265  -0.78431472  1
  Li  Li27  1  0.77211349  -0.39213265  -0.28431472  1
  Li  Li28  1  -0.27211349  -0.89213265  -0.78431472  1
  Li  Li29  1  0.77211349  0.89213265  -0.28431472  1
  Li  Li30  1  0.27211349  -0.39213265  0.78431472  1
  Li  Li31  1  0.22788651  1.39213265  1.28431472  1
  Li  Li32  1  0.06981905  0.25000000  0.38578821  1
  Li  Li33  1  0.43018095  0.75000000  0.88578821  1
  Li  Li34  1  0.93018095  0.75000000  0.61421179  1
  Li  Li35  1  0.56981905  0.25000000  0.11421179  1
  Li  Li36  1  0.08634983  0.91096648  0.47682360  1
  Li  Li37  1  0.41365017  0.08903352  0.97682360  1
  Li  Li38  1  0.91365017  0.41096648  0.52317640  1
  Li  Li39  1  0.58634983  0.58903352  0.02317640  1
  Li  Li40  1  0.91365017  0.08903352  0.52317640  1
  Li  Li41  1  0.58634983  0.91096648  0.02317640  1
  Li  Li42  1  0.08634983  0.58903352  0.47682360  1
  Li  Li43  1  0.41365017  0.41096648  0.97682360  1
  Li  Li44  1  0.00000000  0.00000000  0.00000000  1
  Li  Li45  1  0.50000000  0.00000000  0.50000000  1
  Li  Li46  1  0.00000000  0.50000000  0.00000000  1
  Li  Li47  1  0.50000000  0.50000000  0.50000000  1
