# generated using pymatgen
data_Li2Y2As4P2Se
_symmetry_space_group_name_H-M   'P 1'
_cell_length_a   5.03771761
_cell_length_b   5.12806318
_cell_length_c   6.79679116
_cell_angle_alpha   94.48472249
_cell_angle_beta   99.08601164
_cell_angle_gamma   106.94570212
_symmetry_Int_Tables_number   1
_chemical_formula_structural   Li2Y2As4P2Se
_chemical_formula_sum   'Li2 Y2 As4 P2 Se1'
_cell_volume   164.41478822
_cell_formula_units_Z   1
loop_
 _symmetry_equiv_pos_site_id
 _symmetry_equiv_pos_as_xyz
  1  'x, y, z'
loop_
 _atom_site_type_symbol
 _atom_site_label
 _atom_site_symmetry_multiplicity
 _atom_site_fract_x
 _atom_site_fract_y
 _atom_site_fract_z
 _atom_site_occupancy
  Se  Se0  1  0.00000000  0.00000000  0.00000000  1
  P  P1  1  0.50000000  0.50000000  0.50000000  1
  P  P2  1  0.25000000  0.25000000  0.25000000  1
  As  As3  1  0.75000000  0.25000000  0.00000000  1
  As  As4  1  0.25000000  0.75000000  0.50000000  1
  As  As5  1  0.45360687  0.90565800  0.77176425  1
  As  As6  1  0.26450946  0.76060224  0.77563374  1
  Li  Li7  1  0.52386678  0.71027525  0.26960361  1
  Li  Li8  1  0.52400647  0.87713048  0.10540757  1
  Y  Y9  1  0.52982872  0.59274535  0.61790753  1
  Y  Y10  1  0.53606463  0.14413515  0.86426576  1
