# generated using pymatgen
data_LiF
_symmetry_space_group_name_H-M   'P 1'
_cell_length_a   6.03639713
_cell_length_b   6.03639713
_cell_length_c   16.51976431
_cell_angle_alpha   90.00000000
_cell_angle_beta   90.00000000
_cell_angle_gamma   120.00000000
_symmetry_Int_Tables_number   1
_chemical_formula_structural   LiF
_chemical_formula_sum   'Li22 F22'
_cell_volume   521.30283457
_cell_formula_units_Z   22
loop_
 _symmetry_equiv_pos_site_id
 _symmetry_equiv_pos_as_xyz
  1  'x, y, z'
loop_
 _atom_site_type_symbol
 _atom_site_label
 _atom_site_symmetry_multiplicity
 _atom_site_fract_x
 _atom_site_fract_y
 _atom_site_fract_z
 _atom_site_occupancy
  F  F0  1  0.15478227  0.06213863  0.27406214  1
  F  F1  1  -0.06213863  0.09264363  0.27406214  1
  F  F2  1  -0.09264363  -0.15478227  0.27406214  1
  F  F3  1  -0.15478227  -0.06213863  0.77406214  1
  F  F4  1  0.06213863  -0.09264363  0.77406214  1
  F  F5  1  0.09264363  0.15478227  0.77406214  1
  F  F6  1  -0.15478227  -0.06213863  -0.27406214  1
  F  F7  1  0.06213863  -0.09264363  -0.27406214  1
  F  F8  1  0.09264363  0.15478227  -0.27406214  1
  F  F9  1  0.15478227  0.06213863  0.22593786  1
  F  F10  1  -0.06213863  0.09264363  0.22593786  1
  F  F11  1  -0.09264363  -0.15478227  0.22593786  1
  F  F12  1  0.50667896  0.85928886  0.25000000  1
  F  F13  1  0.14071114  0.64739010  0.25000000  1
  F  F14  1  0.35260990  0.49332104  0.25000000  1
  F  F15  1  0.49332104  0.14071114  0.75000000  1
  F  F16  1  0.85928886  0.35260990  0.75000000  1
  F  F17  1  0.64739010  0.50667896  0.75000000  1
  F  F18  1  0.66666667  0.33333333  0.25000000  1
  F  F19  1  0.33333333  0.66666667  0.75000000  1
  F  F20  1  0.33333333  0.66666667  0.25000000  1
  F  F21  1  0.66666667  0.33333333  0.75000000  1
  Li  Li22  1  0.50000000  0.00000000  0.00000000  1
  Li  Li23  1  0.00000000  0.50000000  0.00000000  1
  Li  Li24  1  0.50000000  0.50000000  0.00000000  1
  Li  Li25  1  0.50000000  0.00000000  0.50000000  1
  Li  Li26  1  0.00000000  0.50000000  0.50000000  1
  Li  Li27  1  0.50000000  0.50000000  0.50000000  1
  Li  Li28  1  0.49319724  0.45953539  0.70503348  1
  Li  Li29  1  0.54046461  0.03366184  0.70503348  1
  Li  Li30  1  0.96633816  0.50680276  0.70503348  1
  Li  Li31  1  0.50680276  0.54046461  0.20503348  1
  Li  Li32  1  0.45953539  0.96633816  0.20503348  1
  Li  Li33  1  0.03366184  0.49319724  0.20503348  1
  Li  Li34  1  0.50680276  0.54046461  0.29496652  1
  Li  Li35  1  0.45953539  0.96633816  0.29496652  1
  Li  Li36  1  0.03366184  0.49319724  0.29496652  1
  Li  Li37  1  0.49319724  0.45953539  0.79496652  1
  Li  Li38  1  0.54046461  0.03366184  0.79496652  1
  Li  Li39  1  0.96633816  0.50680276  0.79496652  1
  Li  Li40  1  0.33333333  0.66666667  0.16329894  1
  Li  Li41  1  0.66666667  0.33333333  0.66329894  1
  Li  Li42  1  0.66666667  0.33333333  0.83670106  1
  Li  Li43  1  0.33333333  0.66666667  0.33670106  1
