# generated using pymatgen
data_LiF
_symmetry_space_group_name_H-M   'P 1'
_cell_length_a   12.14918437
_cell_length_b   6.20209325
_cell_length_c   7.06479305
_cell_angle_alpha   90.00000000
_cell_angle_beta   90.00000000
_cell_angle_gamma   90.00000000
_symmetry_Int_Tables_number   1
_chemical_formula_structural   LiF
_chemical_formula_sum   'Li16 F16'
_cell_volume   532.33480132
_cell_formula_units_Z   16
loop_
 _symmetry_equiv_pos_site_id
 _symmetry_equiv_pos_as_xyz
  1  'x, y, z'
loop_
 _atom_site_type_symbol
 _atom_site_label
 _atom_site_symmetry_multiplicity
 _atom_site_fract_x
 _atom_site_fract_y
 _atom_site_fract_z
 _atom_site_occupancy
  F  F0  1  0.32402201  0.28956779  0.67561197  1
  F  F1  1  -0.32402201  -0.28956779  0.67561197  1
  F  F2  1  0.17597799  0.78956779  -0.67561197  1
  F  F3  1  0.82402201  0.21043221  -0.67561197  1
  F  F4  1  -0.32402201  -0.28956779  -0.67561197  1
  F  F5  1  0.32402201  0.28956779  -0.67561197  1
  F  F6  1  0.82402201  0.21043221  0.67561197  1
  F  F7  1  0.17597799  0.78956779  0.67561197  1
  F  F8  1  0.00000000  0.00000000  0.50000000  1
  F  F9  1  0.50000000  0.50000000  0.50000000  1
  F  F10  1  0.00000000  0.50000000  0.43080544  1
  F  F11  1  0.50000000  0.00000000  0.56919456  1
  F  F12  1  0.00000000  0.50000000  0.56919456  1
  F  F13  1  0.50000000  0.00000000  0.43080544  1
  F  F14  1  0.00000000  0.00000000  0.00000000  1
  F  F15  1  0.50000000  0.50000000  0.00000000  1
  Li  Li16  1  0.45169616  0.13614584  0.50000000  1
  Li  Li17  1  0.54830384  0.86385416  0.50000000  1
  Li  Li18  1  0.04830384  0.63614584  0.50000000  1
  Li  Li19  1  0.95169616  0.36385416  0.50000000  1
  Li  Li20  1  0.94942236  0.67533588  0.76702375  1
  Li  Li21  1  0.05057764  0.32466412  0.76702375  1
  Li  Li22  1  0.55057764  0.17533588  0.23297625  1
  Li  Li23  1  0.44942236  0.82466412  0.23297625  1
  Li  Li24  1  0.05057764  0.32466412  0.23297625  1
  Li  Li25  1  0.94942236  0.67533588  0.23297625  1
  Li  Li26  1  0.44942236  0.82466412  0.76702375  1
  Li  Li27  1  0.55057764  0.17533588  0.76702375  1
  Li  Li28  1  0.70395991  0.90451217  0.50000000  1
  Li  Li29  1  0.29604009  0.09548783  0.50000000  1
  Li  Li30  1  0.79604009  0.40451217  0.50000000  1
  Li  Li31  1  0.20395991  0.59548783  0.50000000  1
