# generated using pymatgen
data_Li2YAsP2Se
_symmetry_space_group_name_H-M   'P 1'
_cell_length_a   4.67504761
_cell_length_b   4.81695996
_cell_length_c   6.79159399
_cell_angle_alpha   95.43352481
_cell_angle_beta   101.09036454
_cell_angle_gamma   110.09462255
_symmetry_Int_Tables_number   1
_chemical_formula_structural   Li2YAsP2Se
_chemical_formula_sum   'Li2 Y1 As1 P2 Se1'
_cell_volume   138.78931442
_cell_formula_units_Z   1
loop_
 _symmetry_equiv_pos_site_id
 _symmetry_equiv_pos_as_xyz
  1  'x, y, z'
loop_
 _atom_site_type_symbol
 _atom_site_label
 _atom_site_symmetry_multiplicity
 _atom_site_fract_x
 _atom_site_fract_y
 _atom_site_fract_z
 _atom_site_occupancy
  Se  Se0  1  0.12500000  0.00000000  0.25000000  1
  P  P1  1  0.00000000  0.00000000  0.00000000  1
  P  P2  1  0.37500000  0.00000000  0.25000000  1
  As  As3  1  0.25000000  0.25000000  0.25000000  1
  Li  Li4  1  0.00000000  0.25000000  0.12500000  1
  Li  Li5  1  0.53017349  0.95199528  0.84828490  1
  Y  Y6  1  0.66355550  0.60896096  0.34818404  1
