# generated using pymatgen
data_LiF
_symmetry_space_group_name_H-M   'P 1'
_cell_length_a   9.89265082
_cell_length_b   9.89265082
_cell_length_c   12.77354622
_cell_angle_alpha   90.00000000
_cell_angle_beta   90.00000000
_cell_angle_gamma   120.00000000
_symmetry_Int_Tables_number   1
_chemical_formula_structural   LiF
_chemical_formula_sum   'Li34 F34'
_cell_volume   1082.59863514
_cell_formula_units_Z   34
loop_
 _symmetry_equiv_pos_site_id
 _symmetry_equiv_pos_as_xyz
  1  'x, y, z'
loop_
 _atom_site_type_symbol
 _atom_site_label
 _atom_site_symmetry_multiplicity
 _atom_site_fract_x
 _atom_site_fract_y
 _atom_site_fract_z
 _atom_site_occupancy
  F  F0  1  0.23196811  0.53822721  0.01311889  1
  F  F1  1  0.46177279  0.69374090  0.01311889  1
  F  F2  1  0.30625910  0.76803189  0.01311889  1
  F  F3  1  0.46177279  0.76803189  0.98688111  1
  F  F4  1  0.30625910  0.53822721  0.98688111  1
  F  F5  1  0.23196811  0.69374090  0.98688111  1
  F  F6  1  0.33333333  0.66666667  0.00000000  1
  F  F7  1  0.54471550  0.56888784  0.01119313  1
  F  F8  1  0.43111216  0.97582766  0.01119313  1
  F  F9  1  0.02417234  0.45528450  0.01119313  1
  F  F10  1  0.43111216  0.45528450  0.98880687  1
  F  F11  1  0.02417234  0.56888784  0.98880687  1
  F  F12  1  0.54471550  0.97582766  0.98880687  1
  F  F13  1  0.66666667  0.33333333  0.14803862  1
  F  F14  1  0.66666667  0.33333333  0.85196138  1
  F  F15  1  0.82416950  0.79823628  0.16570335  1
  F  F16  1  0.20176372  0.02593322  0.16570335  1
  F  F17  1  0.97406678  0.17583050  0.16570335  1
  F  F18  1  0.20176372  0.17583050  0.83429665  1
  F  F19  1  0.97406678  0.79823628  0.83429665  1
  F  F20  1  0.82416950  0.02593322  0.83429665  1
  F  F21  1  0.64536975  0.55389776  0.00776201  1
  F  F22  1  0.44610224  0.09147199  0.00776201  1
  F  F23  1  0.90852801  0.35463025  0.00776201  1
  F  F24  1  0.44610224  0.35463025  0.99223799  1
  F  F25  1  0.90852801  0.55389776  0.99223799  1
  F  F26  1  0.64536975  0.09147199  0.99223799  1
  F  F27  1  0.21975437  0.35412363  0.11987501  1
  F  F28  1  0.64587637  0.86563074  0.11987501  1
  F  F29  1  0.13436926  0.78024563  0.11987501  1
  F  F30  1  0.64587637  0.78024563  0.88012499  1
  F  F31  1  0.13436926  0.35412363  0.88012499  1
  F  F32  1  0.21975437  0.86563074  0.88012499  1
  F  F33  1  0.00000000  0.00000000  0.00000000  1
  Li  Li34  1  0.35350824  0.37343039  0.54818857  1
  Li  Li35  1  -0.37343039  -0.01992215  0.54818857  1
  Li  Li36  1  0.01992215  -0.35350824  0.54818857  1
  Li  Li37  1  -0.37343039  -0.35350824  -0.54818857  1
  Li  Li38  1  0.01992215  0.37343039  -0.54818857  1
  Li  Li39  1  0.35350824  -0.01992215  -0.54818857  1
  Li  Li40  1  0.40372422  0.42054380  0.19430177  1
  Li  Li41  1  0.57945620  0.98318042  0.19430177  1
  Li  Li42  1  0.01681958  0.59627578  0.19430177  1
  Li  Li43  1  0.57945620  0.59627578  0.80569823  1
  Li  Li44  1  0.01681958  0.42054380  0.80569823  1
  Li  Li45  1  0.40372422  0.98318042  0.80569823  1
  Li  Li46  1  0.00000000  0.00000000  0.50000000  1
  Li  Li47  1  0.00000000  0.00000000  0.69711608  1
  Li  Li48  1  0.00000000  0.00000000  0.30288392  1
  Li  Li49  1  0.63332079  0.94397111  0.65121645  1
  Li  Li50  1  0.05602889  0.68934968  0.65121645  1
  Li  Li51  1  0.31065032  0.36667921  0.65121645  1
  Li  Li52  1  0.05602889  0.36667921  0.34878355  1
  Li  Li53  1  0.31065032  0.94397111  0.34878355  1
  Li  Li54  1  0.63332079  0.68934968  0.34878355  1
  Li  Li55  1  0.01749514  0.55424955  0.83768667  1
  Li  Li56  1  0.44575045  0.46324560  0.83768667  1
  Li  Li57  1  0.53675440  0.98250486  0.83768667  1
  Li  Li58  1  0.44575045  0.98250486  0.16231333  1
  Li  Li59  1  0.53675440  0.55424955  0.16231333  1
  Li  Li60  1  0.01749514  0.46324560  0.16231333  1
  Li  Li61  1  0.90270069  0.00680585  0.61590100  1
  Li  Li62  1  0.99319415  0.89589484  0.61590100  1
  Li  Li63  1  0.10410516  0.09729931  0.61590100  1
  Li  Li64  1  0.99319415  0.09729931  0.38409900  1
  Li  Li65  1  0.10410516  0.00680585  0.38409900  1
  Li  Li66  1  0.90270069  0.89589484  0.38409900  1
  Li  Li67  1  0.66666667  0.33333333  0.50000000  1
