# generated using pymatgen
data_LiYMoAs2P
_symmetry_space_group_name_H-M   'P 1'
_cell_length_a   5.27086974
_cell_length_b   5.31082567
_cell_length_c   6.90635003
_cell_angle_alpha   93.93941526
_cell_angle_beta   98.73128455
_cell_angle_gamma   106.00666566
_symmetry_Int_Tables_number   1
_chemical_formula_structural   LiYMoAs2P
_chemical_formula_sum   'Li2 Y2 Mo2 As4 P2'
_cell_volume   182.43034611
_cell_formula_units_Z   2
loop_
 _symmetry_equiv_pos_site_id
 _symmetry_equiv_pos_as_xyz
  1  'x, y, z'
loop_
 _atom_site_type_symbol
 _atom_site_label
 _atom_site_symmetry_multiplicity
 _atom_site_fract_x
 _atom_site_fract_y
 _atom_site_fract_z
 _atom_site_occupancy
  Y  Y0  1  0.12500000  0.00000000  0.25000000  1
  Y  Y1  1  0.00000000  0.00000000  0.00000000  1
  P  P2  1  0.37500000  0.00000000  0.25000000  1
  P  P3  1  0.25000000  0.25000000  0.25000000  1
  Mo  Mo4  1  0.00000000  0.25000000  0.12500000  1
  Mo  Mo5  1  0.89109806  0.58599930  0.08988847  1
  As  As6  1  0.82723688  0.34663484  0.60782850  1
  As  As7  1  0.70482213  0.08108240  0.20734625  1
  As  As8  1  0.64050921  0.06296501  0.54974576  1
  As  As9  1  0.91097182  0.34699323  0.62324279  1
  Li  Li10  1  0.38818482  0.87668697  0.04535629  1
  Li  Li11  1  0.29541010  0.11221554  0.88089554  1
