# generated using pymatgen
data_LiF
_symmetry_space_group_name_H-M   'P 1'
_cell_length_a   8.43481698
_cell_length_b   6.18909803
_cell_length_c   7.20551953
_cell_angle_alpha   90.00000000
_cell_angle_beta   90.00000000
_cell_angle_gamma   90.00000000
_symmetry_Int_Tables_number   1
_chemical_formula_structural   LiF
_chemical_formula_sum   'Li20 F20'
_cell_volume   376.15628657
_cell_formula_units_Z   20
loop_
 _symmetry_equiv_pos_site_id
 _symmetry_equiv_pos_as_xyz
  1  'x, y, z'
loop_
 _atom_site_type_symbol
 _atom_site_label
 _atom_site_symmetry_multiplicity
 _atom_site_fract_x
 _atom_site_fract_y
 _atom_site_fract_z
 _atom_site_occupancy
  F  F0  1  0.30601872  0.85746049  0.00000000  1
  F  F1  1  0.69398128  0.14253951  0.00000000  1
  F  F2  1  0.19398128  0.35746049  0.00000000  1
  F  F3  1  0.80601872  0.64253951  -0.00000000  1
  F  F4  1  0.00000000  0.00000000  0.55766136  1
  F  F5  1  0.50000000  0.50000000  0.44233864  1
  F  F6  1  0.00000000  0.00000000  0.44233864  1
  F  F7  1  0.50000000  0.50000000  0.55766136  1
  F  F8  1  0.12749979  0.16891197  0.37813686  1
  F  F9  1  -0.12749979  -0.16891197  0.37813686  1
  F  F10  1  0.37250021  0.66891197  -0.37813686  1
  F  F11  1  0.62749979  0.33108803  -0.37813686  1
  F  F12  1  -0.12749979  -0.16891197  -0.37813686  1
  F  F13  1  0.12749979  0.16891197  -0.37813686  1
  F  F14  1  0.62749979  0.33108803  0.37813686  1
  F  F15  1  0.37250021  0.66891197  0.37813686  1
  F  F16  1  0.91199243  0.95884876  0.00000000  1
  F  F17  1  0.08800757  0.04115124  -0.00000000  1
  F  F18  1  0.58800757  0.45884876  -0.00000000  1
  F  F19  1  0.41199243  0.54115124  0.00000000  1
  Li  Li20  1  0.75491497  0.48672906  0.00000000  1
  Li  Li21  1  0.24508503  0.51327094  -0.00000000  1
  Li  Li22  1  0.74508503  0.98672906  0.00000000  1
  Li  Li23  1  0.25491497  0.01327094  0.00000000  1
  Li  Li24  1  0.00000000  0.50000000  -0.00000000  1
  Li  Li25  1  0.50000000  0.00000000  0.00000000  1
  Li  Li26  1  0.00000000  0.50000000  0.50000000  1
  Li  Li27  1  0.50000000  0.00000000  0.50000000  1
  Li  Li28  1  0.77043403  0.39327688  0.50000000  1
  Li  Li29  1  0.22956597  0.60672312  0.50000000  1
  Li  Li30  1  0.72956597  0.89327688  0.50000000  1
  Li  Li31  1  0.27043403  0.10672312  0.50000000  1
  Li  Li32  1  0.09704109  0.93329406  0.50000000  1
  Li  Li33  1  0.90295891  0.06670594  0.50000000  1
  Li  Li34  1  0.40295891  0.43329406  0.50000000  1
  Li  Li35  1  0.59704109  0.56670594  0.50000000  1
  Li  Li36  1  0.00000000  0.00000000  0.19524372  1
  Li  Li37  1  0.50000000  0.50000000  0.80475628  1
  Li  Li38  1  0.00000000  0.00000000  0.80475628  1
  Li  Li39  1  0.50000000  0.50000000  0.19524372  1
