# generated using pymatgen
data_LiF
_symmetry_space_group_name_H-M   'P 1'
_cell_length_a   11.21073312
_cell_length_b   3.53102204
_cell_length_c   6.26271609
_cell_angle_alpha   90.00000000
_cell_angle_beta   90.00000000
_cell_angle_gamma   90.00000000
_symmetry_Int_Tables_number   1
_chemical_formula_structural   LiF
_chemical_formula_sum   'Li16 F16'
_cell_volume   247.91178140
_cell_formula_units_Z   16
loop_
 _symmetry_equiv_pos_site_id
 _symmetry_equiv_pos_as_xyz
  1  'x, y, z'
loop_
 _atom_site_type_symbol
 _atom_site_label
 _atom_site_symmetry_multiplicity
 _atom_site_fract_x
 _atom_site_fract_y
 _atom_site_fract_z
 _atom_site_occupancy
  F  F0  1  0.00000000  0.00000000  0.22811554  1
  F  F1  1  0.50000000  0.50000000  0.77188446  1
  F  F2  1  0.00000000  0.00000000  0.77188446  1
  F  F3  1  0.50000000  0.50000000  0.22811554  1
  F  F4  1  0.00000000  0.00000000  0.00000000  1
  F  F5  1  0.50000000  0.50000000  0.00000000  1
  F  F6  1  0.74676022  0.75487199  0.68642055  1
  F  F7  1  -0.74676022  -0.75487199  0.68642055  1
  F  F8  1  -0.24676022  1.25487199  -0.68642055  1
  F  F9  1  1.24676022  -0.25487199  -0.68642055  1
  F  F10  1  -0.74676022  -0.75487199  -0.68642055  1
  F  F11  1  0.74676022  0.75487199  -0.68642055  1
  F  F12  1  1.24676022  -0.25487199  0.68642055  1
  F  F13  1  -0.24676022  1.25487199  0.68642055  1
  F  F14  1  0.00000000  0.00000000  0.50000000  1
  F  F15  1  0.50000000  0.50000000  0.50000000  1
  Li  Li16  1  0.80818505  0.41750350  0.50000000  1
  Li  Li17  1  0.19181495  0.58249650  0.50000000  1
  Li  Li18  1  0.69181495  0.91750350  0.50000000  1
  Li  Li19  1  0.30818505  0.08249650  0.50000000  1
  Li  Li20  1  0.34726861  0.14087660  0.23570215  1
  Li  Li21  1  0.65273139  0.85912340  0.23570215  1
  Li  Li22  1  0.15273139  0.64087660  0.76429785  1
  Li  Li23  1  0.84726861  0.35912340  0.76429785  1
  Li  Li24  1  0.65273139  0.85912340  0.76429785  1
  Li  Li25  1  0.34726861  0.14087660  0.76429785  1
  Li  Li26  1  0.84726861  0.35912340  0.23570215  1
  Li  Li27  1  0.15273139  0.64087660  0.23570215  1
  Li  Li28  1  0.00000000  0.50000000  0.86178942  1
  Li  Li29  1  0.50000000  0.00000000  0.13821058  1
  Li  Li30  1  0.00000000  0.50000000  0.13821058  1
  Li  Li31  1  0.50000000  0.00000000  0.86178942  1
