# generated using pymatgen
data_Li2AsP3Pb2Se
_symmetry_space_group_name_H-M   'P 1'
_cell_length_a   5.11117193
_cell_length_b   5.23015091
_cell_length_c   7.04571657
_cell_angle_alpha   95.21400739
_cell_angle_beta   100.02013971
_cell_angle_gamma   107.05722991
_symmetry_Int_Tables_number   1
_chemical_formula_structural   Li2AsP3Pb2Se
_chemical_formula_sum   'Li2 As1 P3 Pb2 Se1'
_cell_volume   175.28979639
_cell_formula_units_Z   1
loop_
 _symmetry_equiv_pos_site_id
 _symmetry_equiv_pos_as_xyz
  1  'x, y, z'
loop_
 _atom_site_type_symbol
 _atom_site_label
 _atom_site_symmetry_multiplicity
 _atom_site_fract_x
 _atom_site_fract_y
 _atom_site_fract_z
 _atom_site_occupancy
  P  P0  1  0.12500000  0.00000000  0.25000000  1
  P  P1  1  0.00000000  0.00000000  0.00000000  1
  P  P2  1  0.37500000  0.00000000  0.25000000  1
  Pb  Pb3  1  0.25000000  0.25000000  0.25000000  1
  Pb  Pb4  1  0.00000000  0.25000000  0.12500000  1
  As  As5  1  0.57789933  0.42288707  0.44925510  1
  Se  Se6  1  0.00670732  0.95867990  0.21276466  1
  Li  Li7  1  0.41547925  0.72228269  0.29392411  1
  Li  Li8  1  0.00446770  0.82911142  0.24461847  1
