# generated using pymatgen
data_Li2Y2P3
_symmetry_space_group_name_H-M   'P 1'
_cell_length_a   3.91565316
_cell_length_b   4.19516557
_cell_length_c   6.75171228
_cell_angle_alpha   96.67516642
_cell_angle_beta   104.53712471
_cell_angle_gamma   116.81149050
_symmetry_Int_Tables_number   1
_chemical_formula_structural   Li2Y2P3
_chemical_formula_sum   'Li2 Y2 P3'
_cell_volume   92.37540889
_cell_formula_units_Z   1
loop_
 _symmetry_equiv_pos_site_id
 _symmetry_equiv_pos_as_xyz
  1  'x, y, z'
loop_
 _atom_site_type_symbol
 _atom_site_label
 _atom_site_symmetry_multiplicity
 _atom_site_fract_x
 _atom_site_fract_y
 _atom_site_fract_z
 _atom_site_occupancy
  Y  Y0  1  0.00000000  0.00000000  0.00000000  1
  Y  Y1  1  0.50000000  0.50000000  0.50000000  1
  P  P2  1  0.25000000  0.25000000  0.25000000  1
  P  P3  1  0.75000000  0.25000000  0.00000000  1
  P  P4  1  0.25000000  0.75000000  0.50000000  1
  Li  Li5  1  0.10934450  0.03853286  0.99092226  1
  Li  Li6  1  0.09301377  0.62876025  0.95862050  1
