# generated using pymatgen
data_LiF
_symmetry_space_group_name_H-M   'P 1'
_cell_length_a   8.63664052
_cell_length_b   10.15621691
_cell_length_c   5.04772125
_cell_angle_alpha   90.00000000
_cell_angle_beta   90.00000000
_cell_angle_gamma   90.00000000
_symmetry_Int_Tables_number   1
_chemical_formula_structural   LiF
_chemical_formula_sum   'Li24 F24'
_cell_volume   442.76387017
_cell_formula_units_Z   24
loop_
 _symmetry_equiv_pos_site_id
 _symmetry_equiv_pos_as_xyz
  1  'x, y, z'
loop_
 _atom_site_type_symbol
 _atom_site_label
 _atom_site_symmetry_multiplicity
 _atom_site_fract_x
 _atom_site_fract_y
 _atom_site_fract_z
 _atom_site_occupancy
  F  F0  1  0.00000000  0.00000000  0.50000000  1
  F  F1  1  0.50000000  0.00000000  0.00000000  1
  F  F2  1  0.00000000  0.50000000  0.50000000  1
  F  F3  1  0.50000000  0.50000000  0.00000000  1
  F  F4  1  0.54229824  0.47732553  0.14698002  1
  F  F5  1  0.95770176  0.52267447  0.64698002  1
  F  F6  1  0.45770176  0.97732553  0.85301998  1
  F  F7  1  0.04229824  0.02267447  0.35301998  1
  F  F8  1  0.45770176  0.52267447  0.85301998  1
  F  F9  1  0.04229824  0.47732553  0.35301998  1
  F  F10  1  0.54229824  0.02267447  0.14698002  1
  F  F11  1  0.95770176  0.97732553  0.64698002  1
  F  F12  1  0.95714314  0.13052040  0.10589431  1
  F  F13  1  0.54285686  0.86947960  0.60589431  1
  F  F14  1  0.04285686  0.63052040  0.89410569  1
  F  F15  1  0.45714314  0.36947960  0.39410569  1
  F  F16  1  0.04285686  0.86947960  0.89410569  1
  F  F17  1  0.45714314  0.13052040  0.39410569  1
  F  F18  1  0.95714314  0.36947960  0.10589431  1
  F  F19  1  0.54285686  0.63052040  0.60589431  1
  F  F20  1  0.60735052  0.25000000  0.00325646  1
  F  F21  1  0.89264948  0.75000000  0.50325646  1
  F  F22  1  0.39264948  0.75000000  0.99674354  1
  F  F23  1  0.10735052  0.25000000  0.49674354  1
  Li  Li24  1  0.19333861  0.25000000  0.09623438  1
  Li  Li25  1  0.30666139  0.75000000  0.59623438  1
  Li  Li26  1  0.80666139  0.75000000  0.90376562  1
  Li  Li27  1  0.69333861  0.25000000  0.40376562  1
  Li  Li28  1  0.20164128  0.99694549  0.47460931  1
  Li  Li29  1  0.29835872  -0.99694549  0.97460931  1
  Li  Li30  1  -0.20164128  1.49694549  -0.47460931  1
  Li  Li31  1  0.70164128  -0.49694549  0.02539069  1
  Li  Li32  1  -0.20164128  -0.99694549  -0.47460931  1
  Li  Li33  1  0.70164128  0.99694549  0.02539069  1
  Li  Li34  1  0.20164128  -0.49694549  0.47460931  1
  Li  Li35  1  0.29835872  1.49694549  0.97460931  1
  Li  Li36  1  0.33294416  0.17658830  0.99775600  1
  Li  Li37  1  0.16705584  0.82341170  0.49775600  1
  Li  Li38  1  0.66705584  0.67658830  0.00224400  1
  Li  Li39  1  0.83294416  0.32341170  0.50224400  1
  Li  Li40  1  0.66705584  0.82341170  0.00224400  1
  Li  Li41  1  0.83294416  0.17658830  0.50224400  1
  Li  Li42  1  0.33294416  0.32341170  0.99775600  1
  Li  Li43  1  0.16705584  0.67658830  0.49775600  1
  Li  Li44  1  0.00000000  0.00000000  0.00000000  1
  Li  Li45  1  0.50000000  0.00000000  0.50000000  1
  Li  Li46  1  0.00000000  0.50000000  0.00000000  1
  Li  Li47  1  0.50000000  0.50000000  0.50000000  1
