# generated using pymatgen
data_Li4TeF2
_symmetry_space_group_name_H-M   'P 1'
_cell_length_a   10.25268057
_cell_length_b   10.25268057
_cell_length_c   22.59497369
_cell_angle_alpha   90.00000000
_cell_angle_beta   90.00000000
_cell_angle_gamma   90.00000000
_symmetry_Int_Tables_number   1
_chemical_formula_structural   Li4TeF2
_chemical_formula_sum   'Li96 Te24 F48'
_cell_volume   2375.12621779
_cell_formula_units_Z   24
loop_
 _symmetry_equiv_pos_site_id
 _symmetry_equiv_pos_as_xyz
  1  'x, y, z'
loop_
 _atom_site_type_symbol
 _atom_site_label
 _atom_site_symmetry_multiplicity
 _atom_site_fract_x
 _atom_site_fract_y
 _atom_site_fract_z
 _atom_site_occupancy
  F  F0  1  0.61571463  0.00000000  0.25000000  1
  F  F1  1  0.88428537  0.00000000  0.75000000  1
  F  F2  1  0.25000000  0.36571463  0.50000000  1
  F  F3  1  0.25000000  0.63428537  -0.00000000  1
  F  F4  1  0.38428537  0.00000000  0.75000000  1
  F  F5  1  0.11571463  0.00000000  0.25000000  1
  F  F6  1  0.75000000  0.63428537  0.50000000  1
  F  F7  1  0.75000000  0.36571463  0.00000000  1
  F  F8  1  0.11571463  0.50000000  0.75000000  1
  F  F9  1  0.38428537  0.50000000  0.25000000  1
  F  F10  1  0.75000000  0.86571463  0.00000000  1
  F  F11  1  0.75000000  0.13428537  0.50000000  1
  F  F12  1  0.88428537  0.50000000  0.25000000  1
  F  F13  1  0.61571463  0.50000000  0.75000000  1
  F  F14  1  0.25000000  0.13428537  -0.00000000  1
  F  F15  1  0.25000000  0.86571463  0.50000000  1
  F  F16  1  0.61883325  0.78341592  0.91060436  1
  F  F17  1  -0.11883325  -0.78341592  1.41060436  1
  F  F18  1  -0.53341592  1.36883325  1.16060436  1
  F  F19  1  1.03341592  -0.36883325  1.66060436  1
  F  F20  1  -0.11883325  0.78341592  -0.91060436  1
  F  F21  1  0.61883325  -0.78341592  -0.41060436  1
  F  F22  1  1.03341592  1.36883325  -0.16060436  1
  F  F23  1  -0.53341592  -0.36883325  -0.66060436  1
  F  F24  1  -0.61883325  -0.78341592  -0.91060436  1
  F  F25  1  1.11883325  0.78341592  -0.41060436  1
  F  F26  1  1.53341592  -0.36883325  -0.16060436  1
  F  F27  1  -0.03341592  1.36883325  -0.66060436  1
  F  F28  1  1.11883325  -0.78341592  0.91060436  1
  F  F29  1  -0.61883325  0.78341592  1.41060436  1
  F  F30  1  -0.03341592  -0.36883325  1.16060436  1
  F  F31  1  1.53341592  1.36883325  1.66060436  1
  F  F32  1  1.11883325  1.28341592  1.41060436  1
  F  F33  1  0.38116675  -0.28341592  1.91060436  1
  F  F34  1  -0.03341592  1.86883325  1.66060436  1
  F  F35  1  1.53341592  0.13116675  2.16060436  1
  F  F36  1  0.38116675  1.28341592  -0.41060436  1
  F  F37  1  1.11883325  -0.28341592  0.08939564  1
  F  F38  1  1.53341592  1.86883325  0.33939564  1
  F  F39  1  -0.03341592  0.13116675  -0.16060436  1
  F  F40  1  -0.11883325  -0.28341592  -0.41060436  1
  F  F41  1  1.61883325  1.28341592  0.08939564  1
  F  F42  1  2.03341592  0.13116675  0.33939564  1
  F  F43  1  0.46658408  1.86883325  -0.16060436  1
  F  F44  1  1.61883325  -0.28341592  1.41060436  1
  F  F45  1  -0.11883325  1.28341592  1.91060436  1
  F  F46  1  0.46658408  0.13116675  1.66060436  1
  F  F47  1  2.03341592  1.86883325  2.16060436  1
  Li  Li48  1  0.00000000  0.00000000  0.00000000  1
  Li  Li49  1  0.50000000  0.00000000  0.50000000  1
  Li  Li50  1  0.25000000  0.75000000  0.25000000  1
  Li  Li51  1  0.25000000  0.25000000  0.75000000  1
  Li  Li52  1  0.50000000  0.00000000  0.00000000  1
  Li  Li53  1  0.00000000  0.00000000  0.50000000  1
  Li  Li54  1  0.25000000  0.75000000  0.75000000  1
  Li  Li55  1  0.25000000  0.25000000  0.25000000  1
  Li  Li56  1  0.50000000  0.50000000  0.50000000  1
  Li  Li57  1  0.00000000  0.50000000  0.00000000  1
  Li  Li58  1  0.75000000  0.25000000  0.75000000  1
  Li  Li59  1  0.75000000  0.75000000  0.25000000  1
  Li  Li60  1  0.00000000  0.50000000  0.50000000  1
  Li  Li61  1  0.50000000  0.50000000  0.00000000  1
  Li  Li62  1  0.75000000  0.25000000  0.25000000  1
  Li  Li63  1  0.75000000  0.75000000  0.75000000  1
  Li  Li64  1  0.53627629  0.92243755  0.77970640  1
  Li  Li65  1  0.96372371  0.07756245  0.27970640  1
  Li  Li66  1  0.32756245  0.28627629  0.02970640  1
  Li  Li67  1  0.17243755  0.71372371  0.52970640  1
  Li  Li68  1  0.96372371  0.92243755  0.22029360  1
  Li  Li69  1  0.53627629  0.07756245  0.72029360  1
  Li  Li70  1  0.17243755  0.28627629  0.97029360  1
  Li  Li71  1  0.32756245  0.71372371  0.47029360  1
  Li  Li72  1  0.46372371  0.07756245  0.22029360  1
  Li  Li73  1  0.03627629  0.92243755  0.72029360  1
  Li  Li74  1  0.67243755  0.71372371  0.97029360  1
  Li  Li75  1  0.82756245  0.28627629  0.47029360  1
  Li  Li76  1  0.03627629  0.07756245  0.77970640  1
  Li  Li77  1  0.46372371  0.92243755  0.27970640  1
  Li  Li78  1  0.82756245  0.71372371  0.02970640  1
  Li  Li79  1  0.67243755  0.28627629  0.52970640  1
  Li  Li80  1  0.03627629  0.42243755  0.27970640  1
  Li  Li81  1  0.46372371  0.57756245  0.77970640  1
  Li  Li82  1  0.82756245  0.78627629  0.52970640  1
  Li  Li83  1  0.67243755  0.21372371  0.02970640  1
  Li  Li84  1  0.46372371  0.42243755  0.72029360  1
  Li  Li85  1  0.03627629  0.57756245  0.22029360  1
  Li  Li86  1  0.67243755  0.78627629  0.47029360  1
  Li  Li87  1  0.82756245  0.21372371  0.97029360  1
  Li  Li88  1  0.96372371  0.57756245  0.72029360  1
  Li  Li89  1  0.53627629  0.42243755  0.22029360  1
  Li  Li90  1  0.17243755  0.21372371  0.47029360  1
  Li  Li91  1  0.32756245  0.78627629  0.97029360  1
  Li  Li92  1  0.53627629  0.57756245  0.27970640  1
  Li  Li93  1  0.96372371  0.42243755  0.77970640  1
  Li  Li94  1  0.32756245  0.21372371  0.52970640  1
  Li  Li95  1  0.17243755  0.78627629  0.02970640  1
  Li  Li96  1  0.44313804  0.85283243  0.32651202  1
  Li  Li97  1  0.05686196  0.14716757  0.82651202  1
  Li  Li98  1  0.39716757  0.19313804  0.57651202  1
  Li  Li99  1  0.10283243  0.80686196  0.07651202  1
  Li  Li100  1  0.05686196  0.85283243  0.67348798  1
  Li  Li101  1  0.44313804  0.14716757  0.17348798  1
  Li  Li102  1  0.10283243  0.19313804  0.42348798  1
  Li  Li103  1  0.39716757  0.80686196  0.92348798  1
  Li  Li104  1  0.55686196  0.14716757  0.67348798  1
  Li  Li105  1  0.94313804  0.85283243  0.17348798  1
  Li  Li106  1  0.60283243  0.80686196  0.42348798  1
  Li  Li107  1  0.89716757  0.19313804  0.92348798  1
  Li  Li108  1  0.94313804  0.14716757  0.32651202  1
  Li  Li109  1  0.55686196  0.85283243  0.82651202  1
  Li  Li110  1  0.89716757  0.80686196  0.57651202  1
  Li  Li111  1  0.60283243  0.19313804  0.07651202  1
  Li  Li112  1  0.94313804  0.35283243  0.82651202  1
  Li  Li113  1  0.55686196  0.64716757  0.32651202  1
  Li  Li114  1  0.89716757  0.69313804  0.07651202  1
  Li  Li115  1  0.60283243  0.30686196  0.57651202  1
  Li  Li116  1  0.55686196  0.35283243  0.17348798  1
  Li  Li117  1  0.94313804  0.64716757  0.67348798  1
  Li  Li118  1  0.60283243  0.69313804  0.92348798  1
  Li  Li119  1  0.89716757  0.30686196  0.42348798  1
  Li  Li120  1  0.05686196  0.64716757  0.17348798  1
  Li  Li121  1  0.44313804  0.35283243  0.67348798  1
  Li  Li122  1  0.10283243  0.30686196  0.92348798  1
  Li  Li123  1  0.39716757  0.69313804  0.42348798  1
  Li  Li124  1  0.44313804  0.64716757  0.82651202  1
  Li  Li125  1  0.05686196  0.35283243  0.32651202  1
  Li  Li126  1  0.39716757  0.30686196  0.07651202  1
  Li  Li127  1  0.10283243  0.69313804  0.57651202  1
  Li  Li128  1  0.20683525  0.45683525  0.12500000  1
  Li  Li129  1  0.29316475  0.54316475  0.62500000  1
  Li  Li130  1  0.79316475  0.95683525  0.37500000  1
  Li  Li131  1  0.70683525  0.04316475  0.87500000  1
  Li  Li132  1  0.79316475  0.54316475  0.87500000  1
  Li  Li133  1  0.70683525  0.45683525  0.37500000  1
  Li  Li134  1  0.20683525  0.04316475  0.62500000  1
  Li  Li135  1  0.29316475  0.95683525  0.12500000  1
  Li  Li136  1  0.70683525  0.95683525  0.62500000  1
  Li  Li137  1  0.79316475  0.04316475  0.12500000  1
  Li  Li138  1  0.29316475  0.45683525  0.87500000  1
  Li  Li139  1  0.20683525  0.54316475  0.37500000  1
  Li  Li140  1  0.29316475  0.04316475  0.37500000  1
  Li  Li141  1  0.20683525  0.95683525  0.87500000  1
  Li  Li142  1  0.70683525  0.54316475  0.12500000  1
  Li  Li143  1  0.79316475  0.45683525  0.62500000  1
  Te  Te144  1  0.32205305  0.00000000  0.25000000  1
  Te  Te145  1  0.17794695  0.00000000  0.75000000  1
  Te  Te146  1  0.25000000  0.07205305  0.50000000  1
  Te  Te147  1  0.25000000  0.92794695  -0.00000000  1
  Te  Te148  1  0.67794695  0.00000000  0.75000000  1
  Te  Te149  1  0.82205305  0.00000000  0.25000000  1
  Te  Te150  1  0.75000000  0.92794695  0.50000000  1
  Te  Te151  1  0.75000000  0.07205305  -0.00000000  1
  Te  Te152  1  0.82205305  0.50000000  0.75000000  1
  Te  Te153  1  0.67794695  0.50000000  0.25000000  1
  Te  Te154  1  0.75000000  0.57205305  -0.00000000  1
  Te  Te155  1  0.75000000  0.42794695  0.50000000  1
  Te  Te156  1  0.17794695  0.50000000  0.25000000  1
  Te  Te157  1  0.32205305  0.50000000  0.75000000  1
  Te  Te158  1  0.25000000  0.42794695  0.00000000  1
  Te  Te159  1  0.25000000  0.57205305  0.50000000  1
  Te  Te160  1  0.00000000  0.25000000  0.12500000  1
  Te  Te161  1  0.00000000  0.75000000  0.37500000  1
  Te  Te162  1  0.00000000  0.75000000  0.87500000  1
  Te  Te163  1  0.00000000  0.25000000  0.62500000  1
  Te  Te164  1  0.50000000  0.75000000  0.62500000  1
  Te  Te165  1  0.50000000  0.25000000  0.87500000  1
  Te  Te166  1  0.50000000  0.25000000  0.37500000  1
  Te  Te167  1  0.50000000  0.75000000  0.12500000  1
