# generated using pymatgen
data_Li2Si4Te3F12
_symmetry_space_group_name_H-M   'P 1'
_cell_length_a   16.01088982
_cell_length_b   11.02210133
_cell_length_c   9.01695492
_cell_angle_alpha   90.00000000
_cell_angle_beta   90.00000000
_cell_angle_gamma   90.00000000
_symmetry_Int_Tables_number   1
_chemical_formula_structural   Li2Si4Te3F12
_chemical_formula_sum   'Li8 Si16 Te12 F48'
_cell_volume   1591.25494626
_cell_formula_units_Z   4
loop_
 _symmetry_equiv_pos_site_id
 _symmetry_equiv_pos_as_xyz
  1  'x, y, z'
loop_
 _atom_site_type_symbol
 _atom_site_label
 _atom_site_symmetry_multiplicity
 _atom_site_fract_x
 _atom_site_fract_y
 _atom_site_fract_z
 _atom_site_occupancy
  F  F0  1  0.22276513  0.68482115  0.62262330  1
  F  F1  1  0.77723487  0.31517885  0.62262330  1
  F  F2  1  0.27723487  0.18482115  0.37737670  1
  F  F3  1  0.72276513  0.81517885  0.37737670  1
  F  F4  1  0.77723487  0.31517885  0.37737670  1
  F  F5  1  0.22276513  0.68482115  0.37737670  1
  F  F6  1  0.72276513  0.81517885  0.62262330  1
  F  F7  1  0.27723487  0.18482115  0.62262330  1
  F  F8  1  0.97314393  0.82959459  0.14289852  1
  F  F9  1  0.02685607  0.17040541  0.14289852  1
  F  F10  1  0.52685607  0.32959459  0.85710148  1
  F  F11  1  0.47314393  0.67040541  0.85710148  1
  F  F12  1  0.02685607  0.17040541  0.85710148  1
  F  F13  1  0.97314393  0.82959459  0.85710148  1
  F  F14  1  0.47314393  0.67040541  0.14289852  1
  F  F15  1  0.52685607  0.32959459  0.14289852  1
  F  F16  1  0.87441952  0.69208014  0.75570544  1
  F  F17  1  0.12558048  0.30791986  0.75570544  1
  F  F18  1  0.62558048  0.19208014  0.24429456  1
  F  F19  1  0.37441952  0.80791986  0.24429456  1
  F  F20  1  0.12558048  0.30791986  0.24429456  1
  F  F21  1  0.87441952  0.69208014  0.24429456  1
  F  F22  1  0.37441952  0.80791986  0.75570544  1
  F  F23  1  0.62558048  0.19208014  0.75570544  1
  F  F24  1  0.30414250  0.79457260  0.50000000  1
  F  F25  1  0.69585750  0.20542740  0.50000000  1
  F  F26  1  0.19585750  0.29457260  0.50000000  1
  F  F27  1  0.80414250  0.70542740  0.50000000  1
  F  F28  1  0.75492892  0.47362248  0.50000000  1
  F  F29  1  0.24507108  0.52637752  0.50000000  1
  F  F30  1  0.74507108  0.97362248  0.50000000  1
  F  F31  1  0.25492892  0.02637752  0.50000000  1
  F  F32  1  0.81979117  0.37135157  0.07775455  1
  F  F33  1  0.18020883  0.62864843  0.07775455  1
  F  F34  1  0.68020883  0.87135157  0.92224545  1
  F  F35  1  0.31979117  0.12864843  0.92224545  1
  F  F36  1  0.18020883  0.62864843  0.92224545  1
  F  F37  1  0.81979117  0.37135157  0.92224545  1
  F  F38  1  0.31979117  0.12864843  0.07775455  1
  F  F39  1  0.68020883  0.87135157  0.07775455  1
  F  F40  1  0.24903124  0.97550823  0.73457645  1
  F  F41  1  0.75096876  0.02449177  0.73457645  1
  F  F42  1  0.25096876  0.47550823  0.26542355  1
  F  F43  1  0.74903124  0.52449177  0.26542355  1
  F  F44  1  0.75096876  0.02449177  0.26542355  1
  F  F45  1  0.24903124  0.97550823  0.26542355  1
  F  F46  1  0.74903124  0.52449177  0.73457645  1
  F  F47  1  0.25096876  0.47550823  0.73457645  1
  Li  Li48  1  0.95893799  0.33903583  0.42343404  1
  Li  Li49  1  0.04106201  0.66096417  0.42343404  1
  Li  Li50  1  0.54106201  0.83903583  0.57656596  1
  Li  Li51  1  0.45893799  0.16096417  0.57656596  1
  Li  Li52  1  0.04106201  0.66096417  0.57656596  1
  Li  Li53  1  0.95893799  0.33903583  0.57656596  1
  Li  Li54  1  0.45893799  0.16096417  0.42343404  1
  Li  Li55  1  0.54106201  0.83903583  0.42343404  1
  Si  Si56  1  0.00000000  0.50000000  0.00000000  1
  Si  Si57  1  0.50000000  0.00000000  0.00000000  1
  Si  Si58  1  0.00000000  0.00000000  0.50000000  1
  Si  Si59  1  0.50000000  0.50000000  0.50000000  1
  Si  Si60  1  0.00000000  0.00000000  0.00000000  1
  Si  Si61  1  0.50000000  0.50000000  0.00000000  1
  Si  Si62  1  0.74383989  0.19666586  0.75639822  1
  Si  Si63  1  -0.74383989  -0.19666586  0.75639822  1
  Si  Si64  1  -0.24383989  0.69666586  -0.75639822  1
  Si  Si65  1  1.24383989  0.30333414  -0.75639822  1
  Si  Si66  1  -0.74383989  -0.19666586  -0.75639822  1
  Si  Si67  1  0.74383989  0.19666586  -0.75639822  1
  Si  Si68  1  1.24383989  0.30333414  0.75639822  1
  Si  Si69  1  -0.24383989  0.69666586  0.75639822  1
  Si  Si70  1  0.00000000  0.50000000  0.50000000  1
  Si  Si71  1  0.50000000  0.00000000  0.50000000  1
  Te  Te72  1  0.37679103  0.29161286  0.00000000  1
  Te  Te73  1  0.62320897  0.70838714  0.00000000  1
  Te  Te74  1  0.12320897  0.79161286  -0.00000000  1
  Te  Te75  1  0.87679103  0.20838714  0.00000000  1
  Te  Te76  1  0.65575819  0.61956970  0.27455584  1
  Te  Te77  1  0.34424181  0.38043030  0.27455584  1
  Te  Te78  1  0.84424181  0.11956970  0.72544416  1
  Te  Te79  1  0.15575819  0.88043030  0.72544416  1
  Te  Te80  1  0.34424181  0.38043030  0.72544416  1
  Te  Te81  1  0.65575819  0.61956970  0.72544416  1
  Te  Te82  1  0.15575819  0.88043030  0.27455584  1
  Te  Te83  1  0.84424181  0.11956970  0.27455584  1
