# generated using pymatgen
data_LiF
_symmetry_space_group_name_H-M   'P 1'
_cell_length_a   5.19377922
_cell_length_b   11.69821041
_cell_length_c   7.23847753
_cell_angle_alpha   90.00000000
_cell_angle_beta   90.00000000
_cell_angle_gamma   90.00000000
_symmetry_Int_Tables_number   1
_chemical_formula_structural   LiF
_chemical_formula_sum   'Li24 F24'
_cell_volume   439.79485436
_cell_formula_units_Z   24
loop_
 _symmetry_equiv_pos_site_id
 _symmetry_equiv_pos_as_xyz
  1  'x, y, z'
loop_
 _atom_site_type_symbol
 _atom_site_label
 _atom_site_symmetry_multiplicity
 _atom_site_fract_x
 _atom_site_fract_y
 _atom_site_fract_z
 _atom_site_occupancy
  F  F0  1  0.54339263  0.17501299  0.05602880  1
  F  F1  1  -0.04339263  -0.17501299  0.55602880  1
  F  F2  1  -0.54339263  0.67501299  -0.05602880  1
  F  F3  1  1.04339263  0.32498701  0.44397120  1
  F  F4  1  -0.54339263  -0.17501299  -0.05602880  1
  F  F5  1  1.04339263  0.17501299  0.44397120  1
  F  F6  1  0.54339263  0.32498701  0.05602880  1
  F  F7  1  -0.04339263  0.67501299  0.55602880  1
  F  F8  1  0.00000000  0.00000000  0.00000000  1
  F  F9  1  0.50000000  0.00000000  0.50000000  1
  F  F10  1  0.00000000  0.50000000  0.00000000  1
  F  F11  1  0.50000000  0.50000000  0.50000000  1
  F  F12  1  0.00000000  0.00000000  0.50000000  1
  F  F13  1  0.50000000  0.00000000  0.00000000  1
  F  F14  1  0.00000000  0.50000000  0.50000000  1
  F  F15  1  0.50000000  0.50000000  0.00000000  1
  F  F16  1  0.93080387  0.90435375  0.73697074  1
  F  F17  1  0.56919613  0.09564625  0.23697074  1
  F  F18  1  0.06919613  0.40435375  0.26302926  1
  F  F19  1  0.43080387  0.59564625  0.76302926  1
  F  F20  1  0.06919613  0.09564625  0.26302926  1
  F  F21  1  0.43080387  0.90435375  0.76302926  1
  F  F22  1  0.93080387  0.59564625  0.73697074  1
  F  F23  1  0.56919613  0.40435375  0.23697074  1
  Li  Li24  1  0.09849502  0.37035845  0.80245166  1
  Li  Li25  1  0.40150498  0.62964155  0.30245166  1
  Li  Li26  1  0.90150498  0.87035845  0.19754834  1
  Li  Li27  1  0.59849502  0.12964155  0.69754834  1
  Li  Li28  1  0.90150498  0.62964155  0.19754834  1
  Li  Li29  1  0.59849502  0.37035845  0.69754834  1
  Li  Li30  1  0.09849502  0.12964155  0.80245166  1
  Li  Li31  1  0.40150498  0.87035845  0.30245166  1
  Li  Li32  1  0.07515887  0.25000000  0.55668717  1
  Li  Li33  1  0.42484113  0.75000000  0.05668717  1
  Li  Li34  1  0.92484113  0.75000000  0.44331283  1
  Li  Li35  1  0.57515887  0.25000000  0.94331283  1
  Li  Li36  1  0.74228024  0.25000000  0.24064784  1
  Li  Li37  1  0.75771976  0.75000000  0.74064784  1
  Li  Li38  1  0.25771976  0.75000000  0.75935216  1
  Li  Li39  1  0.24228024  0.25000000  0.25935216  1
  Li  Li40  1  0.33377317  0.41762115  0.36062066  1
  Li  Li41  1  0.16622683  0.58237885  0.86062066  1
  Li  Li42  1  0.66622683  0.91762115  0.63937934  1
  Li  Li43  1  0.83377317  0.08237885  0.13937934  1
  Li  Li44  1  0.66622683  0.58237885  0.63937934  1
  Li  Li45  1  0.83377317  0.41762115  0.13937934  1
  Li  Li46  1  0.33377317  0.08237885  0.36062066  1
  Li  Li47  1  0.16622683  0.91762115  0.86062066  1
