# generated using pymatgen
data_LiF
_symmetry_space_group_name_H-M   'P 1'
_cell_length_a   4.54584903
_cell_length_b   4.54584903
_cell_length_c   25.91635425
_cell_angle_alpha   90.00000000
_cell_angle_beta   90.00000000
_cell_angle_gamma   120.00000000
_symmetry_Int_Tables_number   1
_chemical_formula_structural   LiF
_chemical_formula_sum   'Li16 F16'
_cell_volume   463.80407123
_cell_formula_units_Z   16
loop_
 _symmetry_equiv_pos_site_id
 _symmetry_equiv_pos_as_xyz
  1  'x, y, z'
loop_
 _atom_site_type_symbol
 _atom_site_label
 _atom_site_symmetry_multiplicity
 _atom_site_fract_x
 _atom_site_fract_y
 _atom_site_fract_z
 _atom_site_occupancy
  F  F0  1  0.89800768  0.20066413  0.91197069  1
  F  F1  1  0.79933587  0.69734355  0.91197069  1
  F  F2  1  0.30265645  0.10199232  0.91197069  1
  F  F3  1  0.79933587  0.10199232  0.08802931  1
  F  F4  1  0.30265645  0.20066413  0.08802931  1
  F  F5  1  0.89800768  0.69734355  0.08802931  1
  F  F6  1  0.33333333  0.66666667  0.50000000  1
  F  F7  1  0.33333333  0.66666667  0.25975758  1
  F  F8  1  0.33333333  0.66666667  0.74024242  1
  F  F9  1  0.66666667  0.33333333  0.50000000  1
  F  F10  1  0.79410784  0.20589216  0.50000000  1
  F  F11  1  0.79410784  0.58821568  0.50000000  1
  F  F12  1  0.41178432  0.20589216  0.50000000  1
  F  F13  1  0.00000000  0.00000000  0.00000000  1
  F  F14  1  0.33333333  0.66666667  0.44120260  1
  F  F15  1  0.33333333  0.66666667  0.55879740  1
  Li  Li16  1  0.52822639  0.14523493  0.93609895  1
  Li  Li17  1  -0.14523493  0.38299147  0.93609895  1
  Li  Li18  1  -0.38299147  -0.52822639  0.93609895  1
  Li  Li19  1  -0.14523493  -0.52822639  -0.93609895  1
  Li  Li20  1  -0.38299147  0.14523493  -0.93609895  1
  Li  Li21  1  0.52822639  0.38299147  -0.93609895  1
  Li  Li22  1  0.66666667  0.33333333  0.73746898  1
  Li  Li23  1  0.66666667  0.33333333  0.26253102  1
  Li  Li24  1  0.00000000  0.00000000  0.15437992  1
  Li  Li25  1  0.00000000  0.00000000  0.84562008  1
  Li  Li26  1  0.23987787  0.78453370  0.77346123  1
  Li  Li27  1  0.21546630  0.45534417  0.77346123  1
  Li  Li28  1  0.54465583  0.76012213  0.77346123  1
  Li  Li29  1  0.21546630  0.76012213  0.22653877  1
  Li  Li30  1  0.54465583  0.78453370  0.22653877  1
  Li  Li31  1  0.23987787  0.45534417  0.22653877  1
