# generated using pymatgen
data_Li2YScF
_symmetry_space_group_name_H-M   'P 1'
_cell_length_a   3.21497598
_cell_length_b   3.14687396
_cell_length_c   5.85980054
_cell_angle_alpha   112.11053890
_cell_angle_beta   104.25835403
_cell_angle_gamma   110.19049865
_symmetry_Int_Tables_number   1
_chemical_formula_structural   Li2YScF
_chemical_formula_sum   'Li2 Y1 Sc1 F1'
_cell_volume   46.47492333
_cell_formula_units_Z   1
loop_
 _symmetry_equiv_pos_site_id
 _symmetry_equiv_pos_as_xyz
  1  'x, y, z'
loop_
 _atom_site_type_symbol
 _atom_site_label
 _atom_site_symmetry_multiplicity
 _atom_site_fract_x
 _atom_site_fract_y
 _atom_site_fract_z
 _atom_site_occupancy
  F  F0  1  0.12500000  0.12500000  0.12500000  1
  Li  Li1  1  0.50000000  0.50000000  0.50000000  1
  Li  Li2  1  0.25000000  0.25000000  0.25000000  1
  Sc  Sc3  1  0.75000000  0.75000000  0.75000000  1
  Y  Y4  1  0.83955046  0.93874182  0.35253111  1
