# generated using pymatgen
data_Li2Si4Te3F12
_symmetry_space_group_name_H-M   'P 1'
_cell_length_a   10.58142541
_cell_length_b   10.58142541
_cell_length_c   11.10265565
_cell_angle_alpha   90.00000000
_cell_angle_beta   90.00000000
_cell_angle_gamma   90.00000000
_symmetry_Int_Tables_number   1
_chemical_formula_structural   Li2Si4Te3F12
_chemical_formula_sum   'Li8 Si16 Te12 F48'
_cell_volume   1243.12620026
_cell_formula_units_Z   4
loop_
 _symmetry_equiv_pos_site_id
 _symmetry_equiv_pos_as_xyz
  1  'x, y, z'
loop_
 _atom_site_type_symbol
 _atom_site_label
 _atom_site_symmetry_multiplicity
 _atom_site_fract_x
 _atom_site_fract_y
 _atom_site_fract_z
 _atom_site_occupancy
  F  F0  1  0.37777579  0.00747838  0.46742358  1
  F  F1  1  0.12222421  -0.00747838  0.96742358  1
  F  F2  1  0.24252162  1.12777579  0.71742358  1
  F  F3  1  0.25747838  -0.12777579  1.21742358  1
  F  F4  1  0.12222421  0.00747838  0.03257642  1
  F  F5  1  0.37777579  -0.00747838  -0.46742358  1
  F  F6  1  0.25747838  1.12777579  -0.21742358  1
  F  F7  1  0.24252162  -0.12777579  0.28257642  1
  F  F8  1  -0.37777579  -0.00747838  -0.46742358  1
  F  F9  1  0.87777579  0.00747838  0.03257642  1
  F  F10  1  0.75747838  -0.12777579  0.28257642  1
  F  F11  1  0.74252162  1.12777579  -0.21742358  1
  F  F12  1  0.87777579  -0.00747838  0.96742358  1
  F  F13  1  -0.37777579  0.00747838  0.46742358  1
  F  F14  1  0.74252162  -0.12777579  1.21742358  1
  F  F15  1  0.75747838  1.12777579  0.71742358  1
  F  F16  1  0.87777579  0.50747838  0.96742358  1
  F  F17  1  0.62222421  0.49252162  1.46742358  1
  F  F18  1  0.74252162  1.62777579  1.21742358  1
  F  F19  1  0.75747838  0.37222421  1.71742358  1
  F  F20  1  0.62222421  0.50747838  0.53257642  1
  F  F21  1  0.87777579  0.49252162  0.03257642  1
  F  F22  1  0.75747838  1.62777579  0.28257642  1
  F  F23  1  0.74252162  0.37222421  0.78257642  1
  F  F24  1  0.12222421  0.49252162  0.03257642  1
  F  F25  1  1.37777579  0.50747838  0.53257642  1
  F  F26  1  1.25747838  0.37222421  0.78257642  1
  F  F27  1  1.24252162  1.62777579  0.28257642  1
  F  F28  1  1.37777579  0.49252162  1.46742358  1
  F  F29  1  0.12222421  0.50747838  0.96742358  1
  F  F30  1  1.24252162  0.37222421  1.71742358  1
  F  F31  1  1.25747838  1.62777579  1.21742358  1
  F  F32  1  0.53494221  0.78494221  0.87500000  1
  F  F33  1  0.96505779  0.21505779  0.37500000  1
  F  F34  1  0.46505779  0.28494221  0.12500000  1
  F  F35  1  0.03494221  0.71505779  0.62500000  1
  F  F36  1  0.46505779  0.21505779  0.12500000  1
  F  F37  1  0.03494221  0.78494221  0.62500000  1
  F  F38  1  0.53494221  0.71505779  0.87500000  1
  F  F39  1  0.96505779  0.28494221  0.37500000  1
  F  F40  1  0.03494221  0.28494221  0.37500000  1
  F  F41  1  0.46505779  0.71505779  0.87500000  1
  F  F42  1  0.96505779  0.78494221  0.62500000  1
  F  F43  1  0.53494221  0.21505779  0.12500000  1
  F  F44  1  0.96505779  0.71505779  0.62500000  1
  F  F45  1  0.53494221  0.28494221  0.12500000  1
  F  F46  1  0.03494221  0.21505779  0.37500000  1
  F  F47  1  0.46505779  0.78494221  0.87500000  1
  Li  Li48  1  0.00000000  0.25000000  0.01279882  1
  Li  Li49  1  0.00000000  0.75000000  0.26279882  1
  Li  Li50  1  0.50000000  0.25000000  0.48720118  1
  Li  Li51  1  0.50000000  0.75000000  0.23720118  1
  Li  Li52  1  0.50000000  0.75000000  0.51279882  1
  Li  Li53  1  0.50000000  0.25000000  0.76279882  1
  Li  Li54  1  0.00000000  0.75000000  0.98720118  1
  Li  Li55  1  0.00000000  0.25000000  0.73720118  1
  Si  Si56  1  0.44402686  0.00000000  0.00000000  1
  Si  Si57  1  0.05597314  0.00000000  0.50000000  1
  Si  Si58  1  0.25000000  0.19402686  0.25000000  1
  Si  Si59  1  0.25000000  0.80597314  0.75000000  1
  Si  Si60  1  0.55597314  0.00000000  0.00000000  1
  Si  Si61  1  0.94402686  -0.00000000  0.50000000  1
  Si  Si62  1  0.75000000  0.80597314  0.75000000  1
  Si  Si63  1  0.75000000  0.19402686  0.25000000  1
  Si  Si64  1  0.94402686  0.50000000  0.50000000  1
  Si  Si65  1  0.55597314  0.50000000  0.00000000  1
  Si  Si66  1  0.75000000  0.69402686  0.75000000  1
  Si  Si67  1  0.75000000  0.30597314  0.25000000  1
  Si  Si68  1  0.05597314  0.50000000  0.50000000  1
  Si  Si69  1  0.44402686  0.50000000  0.00000000  1
  Si  Si70  1  0.25000000  0.30597314  0.25000000  1
  Si  Si71  1  0.25000000  0.69402686  0.75000000  1
  Te  Te72  1  0.00000000  0.75000000  0.12500000  1
  Te  Te73  1  0.50000000  0.75000000  0.37500000  1
  Te  Te74  1  0.50000000  0.25000000  0.62500000  1
  Te  Te75  1  0.00000000  0.25000000  0.87500000  1
  Te  Te76  1  0.00000000  0.00000000  0.00000000  1
  Te  Te77  1  0.50000000  0.00000000  0.50000000  1
  Te  Te78  1  0.25000000  0.75000000  0.25000000  1
  Te  Te79  1  0.25000000  0.25000000  0.75000000  1
  Te  Te80  1  0.50000000  0.50000000  0.50000000  1
  Te  Te81  1  0.00000000  0.50000000  0.00000000  1
  Te  Te82  1  0.75000000  0.25000000  0.75000000  1
  Te  Te83  1  0.75000000  0.75000000  0.25000000  1
