# generated using pymatgen
data_LiF
_symmetry_space_group_name_H-M   'P 1'
_cell_length_a   12.44849044
_cell_length_b   12.44849044
_cell_length_c   12.19109783
_cell_angle_alpha   90.00000000
_cell_angle_beta   90.00000000
_cell_angle_gamma   90.00000000
_symmetry_Int_Tables_number   1
_chemical_formula_structural   LiF
_chemical_formula_sum   'Li56 F56'
_cell_volume   1889.19243113
_cell_formula_units_Z   56
loop_
 _symmetry_equiv_pos_site_id
 _symmetry_equiv_pos_as_xyz
  1  'x, y, z'
loop_
 _atom_site_type_symbol
 _atom_site_label
 _atom_site_symmetry_multiplicity
 _atom_site_fract_x
 _atom_site_fract_y
 _atom_site_fract_z
 _atom_site_occupancy
  F  F0  1  0.32302793  0.09193617  0.59854949  1
  F  F1  1  0.17697207  0.90806383  0.09854949  1
  F  F2  1  0.15806383  0.07302793  0.84854949  1
  F  F3  1  0.34193617  0.92697207  0.34854949  1
  F  F4  1  0.17697207  0.09193617  0.40145051  1
  F  F5  1  0.32302793  0.90806383  0.90145051  1
  F  F6  1  0.34193617  0.07302793  0.15145051  1
  F  F7  1  0.15806383  0.92697207  0.65145051  1
  F  F8  1  0.67697207  0.90806383  0.40145051  1
  F  F9  1  0.82302793  0.09193617  0.90145051  1
  F  F10  1  0.84193617  0.92697207  0.15145051  1
  F  F11  1  0.65806383  0.07302793  0.65145051  1
  F  F12  1  0.82302793  0.90806383  0.59854949  1
  F  F13  1  0.67697207  0.09193617  0.09854949  1
  F  F14  1  0.65806383  0.92697207  0.84854949  1
  F  F15  1  0.84193617  0.07302793  0.34854949  1
  F  F16  1  0.82302793  0.59193617  0.09854949  1
  F  F17  1  0.67697207  0.40806383  0.59854949  1
  F  F18  1  0.65806383  0.57302793  0.34854949  1
  F  F19  1  0.84193617  0.42697207  0.84854949  1
  F  F20  1  0.67697207  0.59193617  0.90145051  1
  F  F21  1  0.82302793  0.40806383  0.40145051  1
  F  F22  1  0.84193617  0.57302793  0.65145051  1
  F  F23  1  0.65806383  0.42697207  0.15145051  1
  F  F24  1  0.17697207  0.40806383  0.90145051  1
  F  F25  1  0.32302793  0.59193617  0.40145051  1
  F  F26  1  0.34193617  0.42697207  0.65145051  1
  F  F27  1  0.15806383  0.57302793  0.15145051  1
  F  F28  1  0.32302793  0.40806383  0.09854949  1
  F  F29  1  0.17697207  0.59193617  0.59854949  1
  F  F30  1  0.15806383  0.42697207  0.34854949  1
  F  F31  1  0.34193617  0.57302793  0.84854949  1
  F  F32  1  0.00000000  0.25000000  0.32487925  1
  F  F33  1  0.00000000  0.75000000  0.57487925  1
  F  F34  1  0.50000000  0.25000000  0.67512075  1
  F  F35  1  0.50000000  0.75000000  0.42512075  1
  F  F36  1  0.00000000  0.75000000  0.67512075  1
  F  F37  1  0.00000000  0.25000000  0.42512075  1
  F  F38  1  0.50000000  0.75000000  0.32487925  1
  F  F39  1  0.50000000  0.25000000  0.57487925  1
  F  F40  1  0.50000000  0.75000000  0.82487925  1
  F  F41  1  0.50000000  0.25000000  0.07487925  1
  F  F42  1  0.00000000  0.75000000  0.17512075  1
  F  F43  1  0.00000000  0.25000000  0.92512075  1
  F  F44  1  0.50000000  0.25000000  0.17512075  1
  F  F45  1  0.50000000  0.75000000  0.92512075  1
  F  F46  1  0.00000000  0.25000000  0.82487925  1
  F  F47  1  0.00000000  0.75000000  0.07487925  1
  F  F48  1  0.00000000  0.25000000  0.37500000  1
  F  F49  1  0.00000000  0.75000000  0.62500000  1
  F  F50  1  0.50000000  0.25000000  0.62500000  1
  F  F51  1  0.50000000  0.75000000  0.37500000  1
  F  F52  1  0.50000000  0.75000000  0.87500000  1
  F  F53  1  0.50000000  0.25000000  0.12500000  1
  F  F54  1  0.00000000  0.75000000  0.12500000  1
  F  F55  1  0.00000000  0.25000000  0.87500000  1
  Li  Li56  1  0.36045613  0.61045613  0.12500000  1
  Li  Li57  1  0.13954387  0.38954387  0.62500000  1
  Li  Li58  1  0.63954387  0.11045613  0.37500000  1
  Li  Li59  1  0.86045613  0.88954387  0.87500000  1
  Li  Li60  1  0.63954387  0.38954387  0.87500000  1
  Li  Li61  1  0.86045613  0.61045613  0.37500000  1
  Li  Li62  1  0.36045613  0.88954387  0.62500000  1
  Li  Li63  1  0.13954387  0.11045613  0.12500000  1
  Li  Li64  1  0.86045613  0.11045613  0.62500000  1
  Li  Li65  1  0.63954387  0.88954387  0.12500000  1
  Li  Li66  1  0.13954387  0.61045613  0.87500000  1
  Li  Li67  1  0.36045613  0.38954387  0.37500000  1
  Li  Li68  1  0.13954387  0.88954387  0.37500000  1
  Li  Li69  1  0.36045613  0.11045613  0.87500000  1
  Li  Li70  1  0.86045613  0.38954387  0.12500000  1
  Li  Li71  1  0.63954387  0.61045613  0.62500000  1
  Li  Li72  1  0.96027649  0.63278234  0.71057362  1
  Li  Li73  1  -0.46027649  -0.63278234  1.21057362  1
  Li  Li74  1  -0.38278234  1.71027649  0.96057362  1
  Li  Li75  1  0.88278234  -0.71027649  1.46057362  1
  Li  Li76  1  -0.46027649  0.63278234  -0.71057362  1
  Li  Li77  1  0.96027649  -0.63278234  -0.21057362  1
  Li  Li78  1  0.88278234  1.71027649  0.03942638  1
  Li  Li79  1  -0.38278234  -0.71027649  -0.46057362  1
  Li  Li80  1  -0.96027649  -0.63278234  -0.71057362  1
  Li  Li81  1  1.46027649  0.63278234  -0.21057362  1
  Li  Li82  1  1.38278234  -0.71027649  0.03942638  1
  Li  Li83  1  0.11721766  1.71027649  -0.46057362  1
  Li  Li84  1  1.46027649  -0.63278234  0.71057362  1
  Li  Li85  1  -0.96027649  0.63278234  1.21057362  1
  Li  Li86  1  0.11721766  -0.71027649  0.96057362  1
  Li  Li87  1  1.38278234  1.71027649  1.46057362  1
  Li  Li88  1  1.46027649  1.13278234  1.21057362  1
  Li  Li89  1  0.03972351  -0.13278234  1.71057362  1
  Li  Li90  1  0.11721766  2.21027649  1.46057362  1
  Li  Li91  1  1.38278234  -0.21027649  1.96057362  1
  Li  Li92  1  0.03972351  1.13278234  -0.21057362  1
  Li  Li93  1  1.46027649  -0.13278234  0.28942638  1
  Li  Li94  1  1.38278234  2.21027649  0.53942638  1
  Li  Li95  1  0.11721766  -0.21027649  0.03942638  1
  Li  Li96  1  -0.46027649  -0.13278234  -0.21057362  1
  Li  Li97  1  1.96027649  1.13278234  0.28942638  1
  Li  Li98  1  1.88278234  -0.21027649  0.53942638  1
  Li  Li99  1  0.61721766  2.21027649  0.03942638  1
  Li  Li100  1  1.96027649  -0.13278234  1.21057362  1
  Li  Li101  1  -0.46027649  1.13278234  1.71057362  1
  Li  Li102  1  0.61721766  -0.21027649  1.46057362  1
  Li  Li103  1  1.88278234  2.21027649  1.96057362  1
  Li  Li104  1  0.00000000  0.25000000  0.12500000  1
  Li  Li105  1  0.00000000  0.75000000  0.37500000  1
  Li  Li106  1  0.00000000  0.75000000  0.87500000  1
  Li  Li107  1  0.00000000  0.25000000  0.62500000  1
  Li  Li108  1  0.50000000  0.75000000  0.62500000  1
  Li  Li109  1  0.50000000  0.25000000  0.87500000  1
  Li  Li110  1  0.50000000  0.25000000  0.37500000  1
  Li  Li111  1  0.50000000  0.75000000  0.12500000  1
