# generated using pymatgen
data_LiF
_symmetry_space_group_name_H-M   'P 1'
_cell_length_a   7.59190759
_cell_length_b   8.17903890
_cell_length_c   7.42344930
_cell_angle_alpha   90.00000000
_cell_angle_beta   90.00000000
_cell_angle_gamma   90.00000000
_symmetry_Int_Tables_number   1
_chemical_formula_structural   LiF
_chemical_formula_sum   'Li24 F24'
_cell_volume   460.95542768
_cell_formula_units_Z   24
loop_
 _symmetry_equiv_pos_site_id
 _symmetry_equiv_pos_as_xyz
  1  'x, y, z'
loop_
 _atom_site_type_symbol
 _atom_site_label
 _atom_site_symmetry_multiplicity
 _atom_site_fract_x
 _atom_site_fract_y
 _atom_site_fract_z
 _atom_site_occupancy
  F  F0  1  0.94112666  0.25000000  0.05387595  1
  F  F1  1  0.55887334  0.75000000  0.55387595  1
  F  F2  1  0.05887334  0.75000000  0.94612405  1
  F  F3  1  0.44112666  0.25000000  0.44612405  1
  F  F4  1  0.00000000  0.00000000  0.00000000  1
  F  F5  1  0.50000000  -0.00000000  0.50000000  1
  F  F6  1  0.00000000  0.50000000  0.00000000  1
  F  F7  1  0.50000000  0.50000000  0.50000000  1
  F  F8  1  0.21403044  0.92104432  0.80673500  1
  F  F9  1  0.28596956  0.07895568  0.30673500  1
  F  F10  1  0.78596956  0.42104432  0.19326500  1
  F  F11  1  0.71403044  0.57895568  0.69326500  1
  F  F12  1  0.78596956  0.07895568  0.19326500  1
  F  F13  1  0.71403044  0.92104432  0.69326500  1
  F  F14  1  0.21403044  0.57895568  0.80673500  1
  F  F15  1  0.28596956  0.42104432  0.30673500  1
  F  F16  1  0.92284357  0.35793259  0.15724055  1
  F  F17  1  0.57715643  0.64206741  0.65724055  1
  F  F18  1  0.07715643  0.85793259  0.84275945  1
  F  F19  1  0.42284357  0.14206741  0.34275945  1
  F  F20  1  0.07715643  0.64206741  0.84275945  1
  F  F21  1  0.42284357  0.35793259  0.34275945  1
  F  F22  1  0.92284357  0.14206741  0.15724055  1
  F  F23  1  0.57715643  0.85793259  0.65724055  1
  Li  Li24  1  0.45923808  0.25000000  0.23349850  1
  Li  Li25  1  0.04076192  0.75000000  0.73349850  1
  Li  Li26  1  0.54076192  0.75000000  0.76650150  1
  Li  Li27  1  0.95923808  0.25000000  0.26650150  1
  Li  Li28  1  0.14228760  0.25000000  0.96669277  1
  Li  Li29  1  0.35771240  0.75000000  0.46669277  1
  Li  Li30  1  0.85771240  0.75000000  0.03330723  1
  Li  Li31  1  0.64228760  0.25000000  0.53330723  1
  Li  Li32  1  0.10674488  0.04818410  0.56018340  1
  Li  Li33  1  0.39325512  -0.04818410  1.06018340  1
  Li  Li34  1  -0.10674488  0.54818410  -0.56018340  1
  Li  Li35  1  0.60674488  0.45181590  -0.06018340  1
  Li  Li36  1  -0.10674488  -0.04818410  -0.56018340  1
  Li  Li37  1  0.60674488  0.04818410  -0.06018340  1
  Li  Li38  1  0.10674488  0.45181590  0.56018340  1
  Li  Li39  1  0.39325512  0.54818410  1.06018340  1
  Li  Li40  1  0.33415017  0.45873382  0.69580409  1
  Li  Li41  1  0.16584983  0.54126618  0.19580409  1
  Li  Li42  1  0.66584983  0.95873382  0.30419591  1
  Li  Li43  1  0.83415017  0.04126618  0.80419591  1
  Li  Li44  1  0.66584983  0.54126618  0.30419591  1
  Li  Li45  1  0.83415017  0.45873382  0.80419591  1
  Li  Li46  1  0.33415017  0.04126618  0.69580409  1
  Li  Li47  1  0.16584983  0.95873382  0.19580409  1
