# generated using pymatgen
data_LiF
_symmetry_space_group_name_H-M   'P 1'
_cell_length_a   9.49311522
_cell_length_b   9.49311522
_cell_length_c   9.22855318
_cell_angle_alpha   90.00000000
_cell_angle_beta   90.00000000
_cell_angle_gamma   120.00000000
_symmetry_Int_Tables_number   1
_chemical_formula_structural   LiF
_chemical_formula_sum   'Li36 F36'
_cell_volume   720.24749231
_cell_formula_units_Z   36
loop_
 _symmetry_equiv_pos_site_id
 _symmetry_equiv_pos_as_xyz
  1  'x, y, z'
loop_
 _atom_site_type_symbol
 _atom_site_label
 _atom_site_symmetry_multiplicity
 _atom_site_fract_x
 _atom_site_fract_y
 _atom_site_fract_z
 _atom_site_occupancy
  F  F0  1  0.50000000  0.00000000  -0.00000000  1
  F  F1  1  0.00000000  0.50000000  0.00000000  1
  F  F2  1  0.50000000  0.50000000  0.00000000  1
  F  F3  1  0.50000000  0.00000000  0.50000000  1
  F  F4  1  0.00000000  0.50000000  0.50000000  1
  F  F5  1  0.50000000  0.50000000  0.50000000  1
  F  F6  1  0.22462830  0.52522662  0.10540147  1
  F  F7  1  -0.52522662  -0.30059833  0.10540147  1
  F  F8  1  0.30059833  -0.22462830  0.10540147  1
  F  F9  1  -0.22462830  -0.52522662  0.60540147  1
  F  F10  1  0.52522662  0.30059833  0.60540147  1
  F  F11  1  -0.30059833  0.22462830  0.60540147  1
  F  F12  1  -0.22462830  -0.52522662  -0.10540147  1
  F  F13  1  0.52522662  0.30059833  -0.10540147  1
  F  F14  1  -0.30059833  0.22462830  -0.10540147  1
  F  F15  1  0.22462830  0.52522662  0.39459853  1
  F  F16  1  -0.52522662  -0.30059833  0.39459853  1
  F  F17  1  0.30059833  -0.22462830  0.39459853  1
  F  F18  1  0.00000000  0.00000000  0.00000000  1
  F  F19  1  0.00000000  0.00000000  0.50000000  1
  F  F20  1  0.56720485  0.01742645  0.25000000  1
  F  F21  1  0.98257355  0.54977840  0.25000000  1
  F  F22  1  0.45022160  0.43279515  0.25000000  1
  F  F23  1  0.43279515  0.98257355  0.75000000  1
  F  F24  1  0.01742645  0.45022160  0.75000000  1
  F  F25  1  0.54977840  0.56720485  0.75000000  1
  F  F26  1  0.29082618  0.22389247  0.25000000  1
  F  F27  1  0.77610753  0.06693371  0.25000000  1
  F  F28  1  0.93306629  0.70917382  0.25000000  1
  F  F29  1  0.70917382  0.77610753  0.75000000  1
  F  F30  1  0.22389247  0.93306629  0.75000000  1
  F  F31  1  0.06693371  0.29082618  0.75000000  1
  F  F32  1  0.33333333  0.66666667  0.20782784  1
  F  F33  1  0.66666667  0.33333333  0.70782784  1
  F  F34  1  0.66666667  0.33333333  0.79217216  1
  F  F35  1  0.33333333  0.66666667  0.29217216  1
  Li  Li36  1  0.00000000  0.00000000  0.25000000  1
  Li  Li37  1  0.00000000  0.00000000  0.75000000  1
  Li  Li38  1  0.00292264  0.45046504  0.34370053  1
  Li  Li39  1  0.54953496  0.55245759  0.34370053  1
  Li  Li40  1  0.44754241  0.99707736  0.34370053  1
  Li  Li41  1  0.99707736  0.54953496  0.84370053  1
  Li  Li42  1  0.45046504  0.44754241  0.84370053  1
  Li  Li43  1  0.55245759  0.00292264  0.84370053  1
  Li  Li44  1  0.99707736  0.54953496  0.65629947  1
  Li  Li45  1  0.45046504  0.44754241  0.65629947  1
  Li  Li46  1  0.55245759  0.00292264  0.65629947  1
  Li  Li47  1  0.00292264  0.45046504  0.15629947  1
  Li  Li48  1  0.54953496  0.55245759  0.15629947  1
  Li  Li49  1  0.44754241  0.99707736  0.15629947  1
  Li  Li50  1  0.54596914  0.76050983  0.94712092  1
  Li  Li51  1  0.23949017  0.78545932  0.94712092  1
  Li  Li52  1  0.21454068  0.45403086  0.94712092  1
  Li  Li53  1  0.45403086  0.23949017  0.44712092  1
  Li  Li54  1  0.76050983  0.21454068  0.44712092  1
  Li  Li55  1  0.78545932  0.54596914  0.44712092  1
  Li  Li56  1  0.45403086  0.23949017  0.05287908  1
  Li  Li57  1  0.76050983  0.21454068  0.05287908  1
  Li  Li58  1  0.78545932  0.54596914  0.05287908  1
  Li  Li59  1  0.54596914  0.76050983  0.55287908  1
  Li  Li60  1  0.23949017  0.78545932  0.55287908  1
  Li  Li61  1  0.21454068  0.45403086  0.55287908  1
  Li  Li62  1  0.89042724  0.79980079  0.25000000  1
  Li  Li63  1  0.20019921  0.09062645  0.25000000  1
  Li  Li64  1  0.90937355  0.10957276  0.25000000  1
  Li  Li65  1  0.10957276  0.20019921  0.75000000  1
  Li  Li66  1  0.79980079  0.90937355  0.75000000  1
  Li  Li67  1  0.09062645  0.89042724  0.75000000  1
  Li  Li68  1  0.33333333  0.66666667  0.06921471  1
  Li  Li69  1  0.66666667  0.33333333  0.56921471  1
  Li  Li70  1  0.66666667  0.33333333  0.93078529  1
  Li  Li71  1  0.33333333  0.66666667  0.43078529  1
