# generated using pymatgen
data_Li4TeF2
_symmetry_space_group_name_H-M   'P 1'
_cell_length_a   11.78326005
_cell_length_b   11.78326005
_cell_length_c   27.26193021
_cell_angle_alpha   90.00000000
_cell_angle_beta   90.00000000
_cell_angle_gamma   90.00000000
_symmetry_Int_Tables_number   1
_chemical_formula_structural   Li4TeF2
_chemical_formula_sum   'Li96 Te24 F48'
_cell_volume   3785.18862842
_cell_formula_units_Z   24
loop_
 _symmetry_equiv_pos_site_id
 _symmetry_equiv_pos_as_xyz
  1  'x, y, z'
loop_
 _atom_site_type_symbol
 _atom_site_label
 _atom_site_symmetry_multiplicity
 _atom_site_fract_x
 _atom_site_fract_y
 _atom_site_fract_z
 _atom_site_occupancy
  F  F0  1  0.46117231  0.78306753  0.96909299  1
  F  F1  1  0.03882769  -0.78306753  1.46909299  1
  F  F2  1  -0.53306753  1.21117231  1.21909299  1
  F  F3  1  1.03306753  -0.21117231  1.71909299  1
  F  F4  1  0.03882769  0.78306753  -0.96909299  1
  F  F5  1  0.46117231  -0.78306753  -0.46909299  1
  F  F6  1  1.03306753  1.21117231  -0.21909299  1
  F  F7  1  -0.53306753  -0.21117231  -0.71909299  1
  F  F8  1  -0.46117231  -0.78306753  -0.96909299  1
  F  F9  1  0.96117231  0.78306753  -0.46909299  1
  F  F10  1  1.53306753  -0.21117231  -0.21909299  1
  F  F11  1  -0.03306753  1.21117231  -0.71909299  1
  F  F12  1  0.96117231  -0.78306753  0.96909299  1
  F  F13  1  -0.46117231  0.78306753  1.46909299  1
  F  F14  1  -0.03306753  -0.21117231  1.21909299  1
  F  F15  1  1.53306753  1.21117231  1.71909299  1
  F  F16  1  0.96117231  1.28306753  1.46909299  1
  F  F17  1  0.53882769  -0.28306753  1.96909299  1
  F  F18  1  -0.03306753  1.71117231  1.71909299  1
  F  F19  1  1.53306753  0.28882769  2.21909299  1
  F  F20  1  0.53882769  1.28306753  -0.46909299  1
  F  F21  1  0.96117231  -0.28306753  0.03090701  1
  F  F22  1  1.53306753  1.71117231  0.28090701  1
  F  F23  1  -0.03306753  0.28882769  -0.21909299  1
  F  F24  1  0.03882769  -0.28306753  -0.46909299  1
  F  F25  1  1.46117231  1.28306753  0.03090701  1
  F  F26  1  2.03306753  0.28882769  0.28090701  1
  F  F27  1  0.46693247  1.71117231  -0.21909299  1
  F  F28  1  1.46117231  -0.28306753  1.46909299  1
  F  F29  1  0.03882769  1.28306753  1.96909299  1
  F  F30  1  0.46693247  0.28882769  1.71909299  1
  F  F31  1  2.03306753  1.71117231  2.21909299  1
  F  F32  1  0.50946049  0.00000000  0.25000000  1
  F  F33  1  0.99053951  -0.00000000  0.75000000  1
  F  F34  1  0.25000000  0.25946049  0.50000000  1
  F  F35  1  0.25000000  0.74053951  0.00000000  1
  F  F36  1  0.49053951  0.00000000  0.75000000  1
  F  F37  1  0.00946049  0.00000000  0.25000000  1
  F  F38  1  0.75000000  0.74053951  0.50000000  1
  F  F39  1  0.75000000  0.25946049  0.00000000  1
  F  F40  1  0.00946049  0.50000000  0.75000000  1
  F  F41  1  0.49053951  0.50000000  0.25000000  1
  F  F42  1  0.75000000  0.75946049  0.00000000  1
  F  F43  1  0.75000000  0.24053951  0.50000000  1
  F  F44  1  0.99053951  0.50000000  0.25000000  1
  F  F45  1  0.50946049  0.50000000  0.75000000  1
  F  F46  1  0.25000000  0.24053951  0.00000000  1
  F  F47  1  0.25000000  0.75946049  0.50000000  1
  Li  Li48  1  0.85155507  0.10155507  0.12500000  1
  Li  Li49  1  0.64844493  0.89844493  0.62500000  1
  Li  Li50  1  0.14844493  0.60155507  0.37500000  1
  Li  Li51  1  0.35155507  0.39844493  0.87500000  1
  Li  Li52  1  0.14844493  0.89844493  0.87500000  1
  Li  Li53  1  0.35155507  0.10155507  0.37500000  1
  Li  Li54  1  0.85155507  0.39844493  0.62500000  1
  Li  Li55  1  0.64844493  0.60155507  0.12500000  1
  Li  Li56  1  0.35155507  0.60155507  0.62500000  1
  Li  Li57  1  0.14844493  0.39844493  0.12500000  1
  Li  Li58  1  0.64844493  0.10155507  0.87500000  1
  Li  Li59  1  0.85155507  0.89844493  0.37500000  1
  Li  Li60  1  0.64844493  0.39844493  0.37500000  1
  Li  Li61  1  0.85155507  0.60155507  0.87500000  1
  Li  Li62  1  0.35155507  0.89844493  0.12500000  1
  Li  Li63  1  0.14844493  0.10155507  0.62500000  1
  Li  Li64  1  0.79715914  0.76609317  0.95115698  1
  Li  Li65  1  0.70284086  0.23390683  0.45115698  1
  Li  Li66  1  0.48390683  0.54715914  0.20115698  1
  Li  Li67  1  0.01609317  0.45284086  0.70115698  1
  Li  Li68  1  0.70284086  0.76609317  0.04884302  1
  Li  Li69  1  0.79715914  0.23390683  0.54884302  1
  Li  Li70  1  0.01609317  0.54715914  0.79884302  1
  Li  Li71  1  0.48390683  0.45284086  0.29884302  1
  Li  Li72  1  0.20284086  0.23390683  0.04884302  1
  Li  Li73  1  0.29715914  0.76609317  0.54884302  1
  Li  Li74  1  0.51609317  0.45284086  0.79884302  1
  Li  Li75  1  0.98390683  0.54715914  0.29884302  1
  Li  Li76  1  0.29715914  0.23390683  0.95115698  1
  Li  Li77  1  0.20284086  0.76609317  0.45115698  1
  Li  Li78  1  0.98390683  0.45284086  0.20115698  1
  Li  Li79  1  0.51609317  0.54715914  0.70115698  1
  Li  Li80  1  0.29715914  0.26609317  0.45115698  1
  Li  Li81  1  0.20284086  0.73390683  0.95115698  1
  Li  Li82  1  0.98390683  0.04715914  0.70115698  1
  Li  Li83  1  0.51609317  0.95284086  0.20115698  1
  Li  Li84  1  0.20284086  0.26609317  0.54884302  1
  Li  Li85  1  0.29715914  0.73390683  0.04884302  1
  Li  Li86  1  0.51609317  0.04715914  0.29884302  1
  Li  Li87  1  0.98390683  0.95284086  0.79884302  1
  Li  Li88  1  0.70284086  0.73390683  0.54884302  1
  Li  Li89  1  0.79715914  0.26609317  0.04884302  1
  Li  Li90  1  0.01609317  0.95284086  0.29884302  1
  Li  Li91  1  0.48390683  0.04715914  0.79884302  1
  Li  Li92  1  0.79715914  0.73390683  0.45115698  1
  Li  Li93  1  0.70284086  0.26609317  0.95115698  1
  Li  Li94  1  0.48390683  0.95284086  0.70115698  1
  Li  Li95  1  0.01609317  0.04715914  0.20115698  1
  Li  Li96  1  0.84045058  0.10754530  0.45879683  1
  Li  Li97  1  0.65954942  0.89245470  0.95879683  1
  Li  Li98  1  0.14245470  0.59045058  0.70879683  1
  Li  Li99  1  0.35754530  0.40954942  0.20879683  1
  Li  Li100  1  0.65954942  0.10754530  0.54120317  1
  Li  Li101  1  0.84045058  0.89245470  0.04120317  1
  Li  Li102  1  0.35754530  0.59045058  0.29120317  1
  Li  Li103  1  0.14245470  0.40954942  0.79120317  1
  Li  Li104  1  0.15954942  0.89245470  0.54120317  1
  Li  Li105  1  0.34045058  0.10754530  0.04120317  1
  Li  Li106  1  0.85754530  0.40954942  0.29120317  1
  Li  Li107  1  0.64245470  0.59045058  0.79120317  1
  Li  Li108  1  0.34045058  0.89245470  0.45879683  1
  Li  Li109  1  0.15954942  0.10754530  0.95879683  1
  Li  Li110  1  0.64245470  0.40954942  0.70879683  1
  Li  Li111  1  0.85754530  0.59045058  0.20879683  1
  Li  Li112  1  0.34045058  0.60754530  0.95879683  1
  Li  Li113  1  0.15954942  0.39245470  0.45879683  1
  Li  Li114  1  0.64245470  0.09045058  0.20879683  1
  Li  Li115  1  0.85754530  0.90954942  0.70879683  1
  Li  Li116  1  0.15954942  0.60754530  0.04120317  1
  Li  Li117  1  0.34045058  0.39245470  0.54120317  1
  Li  Li118  1  0.85754530  0.09045058  0.79120317  1
  Li  Li119  1  0.64245470  0.90954942  0.29120317  1
  Li  Li120  1  0.65954942  0.39245470  0.04120317  1
  Li  Li121  1  0.84045058  0.60754530  0.54120317  1
  Li  Li122  1  0.35754530  0.90954942  0.79120317  1
  Li  Li123  1  0.14245470  0.09045058  0.29120317  1
  Li  Li124  1  0.84045058  0.39245470  0.95879683  1
  Li  Li125  1  0.65954942  0.60754530  0.45879683  1
  Li  Li126  1  0.14245470  0.90954942  0.20879683  1
  Li  Li127  1  0.35754530  0.09045058  0.70879683  1
  Li  Li128  1  0.74354180  -0.00000000  0.25000000  1
  Li  Li129  1  0.75645820  -0.00000000  0.75000000  1
  Li  Li130  1  0.25000000  0.49354180  0.50000000  1
  Li  Li131  1  0.25000000  0.50645820  0.00000000  1
  Li  Li132  1  0.25645820  0.00000000  0.75000000  1
  Li  Li133  1  0.24354180  0.00000000  0.25000000  1
  Li  Li134  1  0.75000000  0.50645820  0.50000000  1
  Li  Li135  1  0.75000000  0.49354180  0.00000000  1
  Li  Li136  1  0.24354180  0.50000000  0.75000000  1
  Li  Li137  1  0.25645820  0.50000000  0.25000000  1
  Li  Li138  1  0.75000000  0.99354180  0.00000000  1
  Li  Li139  1  0.75000000  0.00645820  0.50000000  1
  Li  Li140  1  0.75645820  0.50000000  0.25000000  1
  Li  Li141  1  0.74354180  0.50000000  0.75000000  1
  Li  Li142  1  0.25000000  0.00645820  0.00000000  1
  Li  Li143  1  0.25000000  0.99354180  0.50000000  1
  Te  Te144  1  0.00000000  0.25000000  0.73480396  1
  Te  Te145  1  0.00000000  0.75000000  0.98480396  1
  Te  Te146  1  0.50000000  0.25000000  0.26519604  1
  Te  Te147  1  0.50000000  0.75000000  0.01519604  1
  Te  Te148  1  0.00000000  0.75000000  0.26519604  1
  Te  Te149  1  0.00000000  0.25000000  0.01519604  1
  Te  Te150  1  0.50000000  0.75000000  0.73480396  1
  Te  Te151  1  0.50000000  0.25000000  0.98480396  1
  Te  Te152  1  0.50000000  0.75000000  0.23480396  1
  Te  Te153  1  0.50000000  0.25000000  0.48480396  1
  Te  Te154  1  0.00000000  0.75000000  0.76519604  1
  Te  Te155  1  0.00000000  0.25000000  0.51519604  1
  Te  Te156  1  0.50000000  0.25000000  0.76519604  1
  Te  Te157  1  0.50000000  0.75000000  0.51519604  1
  Te  Te158  1  0.00000000  0.25000000  0.23480396  1
  Te  Te159  1  0.00000000  0.75000000  0.48480396  1
  Te  Te160  1  0.00000000  0.25000000  0.12500000  1
  Te  Te161  1  0.00000000  0.75000000  0.37500000  1
  Te  Te162  1  0.00000000  0.75000000  0.87500000  1
  Te  Te163  1  0.00000000  0.25000000  0.62500000  1
  Te  Te164  1  0.50000000  0.75000000  0.62500000  1
  Te  Te165  1  0.50000000  0.25000000  0.87500000  1
  Te  Te166  1  0.50000000  0.25000000  0.37500000  1
  Te  Te167  1  0.50000000  0.75000000  0.12500000  1
