# generated using pymatgen
data_Li4TeF2
_symmetry_space_group_name_H-M   'P 1'
_cell_length_a   22.25249283
_cell_length_b   22.25249283
_cell_length_c   6.70282219
_cell_angle_alpha   90.00000000
_cell_angle_beta   90.00000000
_cell_angle_gamma   90.00000000
_symmetry_Int_Tables_number   1
_chemical_formula_structural   Li4TeF2
_chemical_formula_sum   'Li96 Te24 F48'
_cell_volume   3319.05950574
_cell_formula_units_Z   24
loop_
 _symmetry_equiv_pos_site_id
 _symmetry_equiv_pos_as_xyz
  1  'x, y, z'
loop_
 _atom_site_type_symbol
 _atom_site_label
 _atom_site_symmetry_multiplicity
 _atom_site_fract_x
 _atom_site_fract_y
 _atom_site_fract_z
 _atom_site_occupancy
  F  F0  1  0.44389429  0.44389429  0.64362033  1
  F  F1  1  0.55610571  0.55610571  0.64362033  1
  F  F2  1  0.55610571  0.44389429  0.64362033  1
  F  F3  1  0.44389429  0.55610571  0.64362033  1
  F  F4  1  0.55610571  0.44389429  0.35637967  1
  F  F5  1  0.44389429  0.55610571  0.35637967  1
  F  F6  1  0.44389429  0.44389429  0.35637967  1
  F  F7  1  0.55610571  0.55610571  0.35637967  1
  F  F8  1  0.75630822  0.38521360  0.88002555  1
  F  F9  1  -0.75630822  -0.38521360  0.88002555  1
  F  F10  1  -0.38521360  0.75630822  0.88002555  1
  F  F11  1  0.38521360  -0.75630822  0.88002555  1
  F  F12  1  -0.75630822  0.38521360  -0.88002555  1
  F  F13  1  0.75630822  -0.38521360  -0.88002555  1
  F  F14  1  0.38521360  0.75630822  -0.88002555  1
  F  F15  1  -0.38521360  -0.75630822  -0.88002555  1
  F  F16  1  -0.75630822  -0.38521360  -0.88002555  1
  F  F17  1  0.75630822  0.38521360  -0.88002555  1
  F  F18  1  0.38521360  -0.75630822  -0.88002555  1
  F  F19  1  -0.38521360  0.75630822  -0.88002555  1
  F  F20  1  0.75630822  -0.38521360  0.88002555  1
  F  F21  1  -0.75630822  0.38521360  0.88002555  1
  F  F22  1  -0.38521360  -0.75630822  0.88002555  1
  F  F23  1  0.38521360  0.75630822  0.88002555  1
  F  F24  1  0.19099419  0.25901814  0.74810888  1
  F  F25  1  0.80900581  0.74098186  0.74810888  1
  F  F26  1  0.74098186  0.19099419  0.74810888  1
  F  F27  1  0.25901814  0.80900581  0.74810888  1
  F  F28  1  0.80900581  0.25901814  0.25189112  1
  F  F29  1  0.19099419  0.74098186  0.25189112  1
  F  F30  1  0.25901814  0.19099419  0.25189112  1
  F  F31  1  0.74098186  0.80900581  0.25189112  1
  F  F32  1  0.80900581  0.74098186  0.25189112  1
  F  F33  1  0.19099419  0.25901814  0.25189112  1
  F  F34  1  0.25901814  0.80900581  0.25189112  1
  F  F35  1  0.74098186  0.19099419  0.25189112  1
  F  F36  1  0.19099419  0.74098186  0.74810888  1
  F  F37  1  0.80900581  0.25901814  0.74810888  1
  F  F38  1  0.74098186  0.80900581  0.74810888  1
  F  F39  1  0.25901814  0.19099419  0.74810888  1
  F  F40  1  0.65021425  0.50000000  0.00000000  1
  F  F41  1  0.34978575  0.50000000  0.00000000  1
  F  F42  1  0.50000000  0.65021425  0.00000000  1
  F  F43  1  0.50000000  0.34978575  0.00000000  1
  F  F44  1  0.46855222  0.50000000  0.50000000  1
  F  F45  1  0.53144778  0.50000000  0.50000000  1
  F  F46  1  0.50000000  0.46855222  0.50000000  1
  F  F47  1  0.50000000  0.53144778  0.50000000  1
  Li  Li48  1  0.80393791  0.36548756  0.32547113  1
  Li  Li49  1  0.19606209  0.63451244  0.32547113  1
  Li  Li50  1  0.63451244  0.80393791  0.32547113  1
  Li  Li51  1  0.36548756  0.19606209  0.32547113  1
  Li  Li52  1  0.19606209  0.36548756  0.67452887  1
  Li  Li53  1  0.80393791  0.63451244  0.67452887  1
  Li  Li54  1  0.36548756  0.80393791  0.67452887  1
  Li  Li55  1  0.63451244  0.19606209  0.67452887  1
  Li  Li56  1  0.19606209  0.63451244  0.67452887  1
  Li  Li57  1  0.80393791  0.36548756  0.67452887  1
  Li  Li58  1  0.36548756  0.19606209  0.67452887  1
  Li  Li59  1  0.63451244  0.80393791  0.67452887  1
  Li  Li60  1  0.80393791  0.63451244  0.32547113  1
  Li  Li61  1  0.19606209  0.36548756  0.32547113  1
  Li  Li62  1  0.63451244  0.19606209  0.32547113  1
  Li  Li63  1  0.36548756  0.80393791  0.32547113  1
  Li  Li64  1  0.10915708  0.58920586  0.50000000  1
  Li  Li65  1  0.89084292  0.41079414  0.50000000  1
  Li  Li66  1  0.41079414  0.10915708  0.50000000  1
  Li  Li67  1  0.58920586  0.89084292  0.50000000  1
  Li  Li68  1  0.89084292  0.58920586  0.50000000  1
  Li  Li69  1  0.10915708  0.41079414  0.50000000  1
  Li  Li70  1  0.58920586  0.10915708  0.50000000  1
  Li  Li71  1  0.41079414  0.89084292  0.50000000  1
  Li  Li72  1  0.00000000  0.50000000  0.50000000  1
  Li  Li73  1  0.50000000  0.00000000  0.50000000  1
  Li  Li74  1  0.35504291  0.92464457  0.00000000  1
  Li  Li75  1  0.64495709  0.07535543  0.00000000  1
  Li  Li76  1  0.07535543  0.35504291  0.00000000  1
  Li  Li77  1  0.92464457  0.64495709  0.00000000  1
  Li  Li78  1  0.64495709  0.92464457  0.00000000  1
  Li  Li79  1  0.35504291  0.07535543  0.00000000  1
  Li  Li80  1  0.92464457  0.35504291  0.00000000  1
  Li  Li81  1  0.07535543  0.64495709  0.00000000  1
  Li  Li82  1  0.71039147  0.50000000  0.00000000  1
  Li  Li83  1  0.28960853  0.50000000  0.00000000  1
  Li  Li84  1  0.50000000  0.71039147  0.00000000  1
  Li  Li85  1  0.50000000  0.28960853  0.00000000  1
  Li  Li86  1  0.63485668  0.63485668  0.73484996  1
  Li  Li87  1  0.36514332  0.36514332  0.73484996  1
  Li  Li88  1  0.36514332  0.63485668  0.73484996  1
  Li  Li89  1  0.63485668  0.36514332  0.73484996  1
  Li  Li90  1  0.36514332  0.63485668  0.26515004  1
  Li  Li91  1  0.63485668  0.36514332  0.26515004  1
  Li  Li92  1  0.63485668  0.63485668  0.26515004  1
  Li  Li93  1  0.36514332  0.36514332  0.26515004  1
  Li  Li94  1  0.08033115  0.17253169  0.69151235  1
  Li  Li95  1  0.91966885  0.82746831  0.69151235  1
  Li  Li96  1  0.82746831  0.08033115  0.69151235  1
  Li  Li97  1  0.17253169  0.91966885  0.69151235  1
  Li  Li98  1  0.91966885  0.17253169  0.30848765  1
  Li  Li99  1  0.08033115  0.82746831  0.30848765  1
  Li  Li100  1  0.17253169  0.08033115  0.30848765  1
  Li  Li101  1  0.82746831  0.91966885  0.30848765  1
  Li  Li102  1  0.91966885  0.82746831  0.30848765  1
  Li  Li103  1  0.08033115  0.17253169  0.30848765  1
  Li  Li104  1  0.17253169  0.91966885  0.30848765  1
  Li  Li105  1  0.82746831  0.08033115  0.30848765  1
  Li  Li106  1  0.08033115  0.82746831  0.69151235  1
  Li  Li107  1  0.91966885  0.17253169  0.69151235  1
  Li  Li108  1  0.82746831  0.91966885  0.69151235  1
  Li  Li109  1  0.17253169  0.08033115  0.69151235  1
  Li  Li110  1  0.05092740  0.00000000  0.50000000  1
  Li  Li111  1  0.94907260  0.00000000  0.50000000  1
  Li  Li112  1  0.00000000  0.05092740  0.50000000  1
  Li  Li113  1  0.00000000  0.94907260  0.50000000  1
  Li  Li114  1  0.33746000  0.03287978  0.23133144  1
  Li  Li115  1  0.66254000  0.96712022  0.23133144  1
  Li  Li116  1  0.96712022  0.33746000  0.23133144  1
  Li  Li117  1  0.03287978  0.66254000  0.23133144  1
  Li  Li118  1  0.66254000  0.03287978  0.76866856  1
  Li  Li119  1  0.33746000  0.96712022  0.76866856  1
  Li  Li120  1  0.03287978  0.33746000  0.76866856  1
  Li  Li121  1  0.96712022  0.66254000  0.76866856  1
  Li  Li122  1  0.66254000  0.96712022  0.76866856  1
  Li  Li123  1  0.33746000  0.03287978  0.76866856  1
  Li  Li124  1  0.03287978  0.66254000  0.76866856  1
  Li  Li125  1  0.96712022  0.33746000  0.76866856  1
  Li  Li126  1  0.33746000  0.96712022  0.23133144  1
  Li  Li127  1  0.66254000  0.03287978  0.23133144  1
  Li  Li128  1  0.96712022  0.66254000  0.23133144  1
  Li  Li129  1  0.03287978  0.33746000  0.23133144  1
  Li  Li130  1  0.50000000  0.50000000  0.25857658  1
  Li  Li131  1  0.50000000  0.50000000  0.74142342  1
  Li  Li132  1  0.10704617  0.50000000  0.60974644  1
  Li  Li133  1  0.89295383  0.50000000  0.60974644  1
  Li  Li134  1  0.50000000  0.10704617  0.60974644  1
  Li  Li135  1  0.50000000  0.89295383  0.60974644  1
  Li  Li136  1  0.89295383  0.50000000  0.39025356  1
  Li  Li137  1  0.10704617  0.50000000  0.39025356  1
  Li  Li138  1  0.50000000  0.10704617  0.39025356  1
  Li  Li139  1  0.50000000  0.89295383  0.39025356  1
  Li  Li140  1  0.06596374  0.00000000  0.00000000  1
  Li  Li141  1  0.93403626  0.00000000  0.00000000  1
  Li  Li142  1  0.00000000  0.06596374  0.00000000  1
  Li  Li143  1  0.00000000  0.93403626  0.00000000  1
  Te  Te144  1  0.13255609  0.68179705  0.76074301  1
  Te  Te145  1  0.86744391  0.31820295  0.76074301  1
  Te  Te146  1  0.31820295  0.13255609  0.76074301  1
  Te  Te147  1  0.68179705  0.86744391  0.76074301  1
  Te  Te148  1  0.86744391  0.68179705  0.23925699  1
  Te  Te149  1  0.13255609  0.31820295  0.23925699  1
  Te  Te150  1  0.68179705  0.13255609  0.23925699  1
  Te  Te151  1  0.31820295  0.86744391  0.23925699  1
  Te  Te152  1  0.86744391  0.31820295  0.23925699  1
  Te  Te153  1  0.13255609  0.68179705  0.23925699  1
  Te  Te154  1  0.68179705  0.86744391  0.23925699  1
  Te  Te155  1  0.31820295  0.13255609  0.23925699  1
  Te  Te156  1  0.13255609  0.31820295  0.76074301  1
  Te  Te157  1  0.86744391  0.68179705  0.76074301  1
  Te  Te158  1  0.31820295  0.86744391  0.76074301  1
  Te  Te159  1  0.68179705  0.13255609  0.76074301  1
  Te  Te160  1  0.75350813  0.29188587  0.00000000  1
  Te  Te161  1  0.24649187  0.70811413  0.00000000  1
  Te  Te162  1  0.70811413  0.75350813  -0.00000000  1
  Te  Te163  1  0.29188587  0.24649187  0.00000000  1
  Te  Te164  1  0.24649187  0.29188587  0.00000000  1
  Te  Te165  1  0.75350813  0.70811413  -0.00000000  1
  Te  Te166  1  0.29188587  0.75350813  0.00000000  1
  Te  Te167  1  0.70811413  0.24649187  0.00000000  1
