# generated using pymatgen
data_LiF
_symmetry_space_group_name_H-M   'P 1'
_cell_length_a   14.82277728
_cell_length_b   14.82277728
_cell_length_c   5.39976723
_cell_angle_alpha   90.00000000
_cell_angle_beta   90.00000000
_cell_angle_gamma   120.00000000
_symmetry_Int_Tables_number   1
_chemical_formula_structural   LiF
_chemical_formula_sum   'Li40 F40'
_cell_volume   1027.45979512
_cell_formula_units_Z   40
loop_
 _symmetry_equiv_pos_site_id
 _symmetry_equiv_pos_as_xyz
  1  'x, y, z'
loop_
 _atom_site_type_symbol
 _atom_site_label
 _atom_site_symmetry_multiplicity
 _atom_site_fract_x
 _atom_site_fract_y
 _atom_site_fract_z
 _atom_site_occupancy
  F  F0  1  0.85750658  0.61709873  0.63710142  1
  F  F1  1  0.38290127  0.24040785  0.63710142  1
  F  F2  1  0.75959215  0.14249342  0.63710142  1
  F  F3  1  0.85750658  0.61709873  0.36289858  1
  F  F4  1  0.38290127  0.24040785  0.36289858  1
  F  F5  1  0.75959215  0.14249342  0.36289858  1
  F  F6  1  0.61709873  0.85750658  0.36289858  1
  F  F7  1  0.24040785  0.38290127  0.36289858  1
  F  F8  1  0.14249342  0.75959215  0.36289858  1
  F  F9  1  0.61709873  0.85750658  0.63710142  1
  F  F10  1  0.24040785  0.38290127  0.63710142  1
  F  F11  1  0.14249342  0.75959215  0.63710142  1
  F  F12  1  0.33333333  0.66666667  0.36026408  1
  F  F13  1  0.33333333  0.66666667  0.63973592  1
  F  F14  1  0.66666667  0.33333333  0.63973592  1
  F  F15  1  0.66666667  0.33333333  0.36026408  1
  F  F16  1  0.57068706  0.42925621  0.59131228  1
  F  F17  1  0.57074379  0.14143084  0.59131228  1
  F  F18  1  0.85856916  0.42931294  0.59131228  1
  F  F19  1  0.57068706  0.42925621  0.40868772  1
  F  F20  1  0.57074379  0.14143084  0.40868772  1
  F  F21  1  0.85856916  0.42931294  0.40868772  1
  F  F22  1  0.42925621  0.57068706  0.40868772  1
  F  F23  1  0.14143084  0.57074379  0.40868772  1
  F  F24  1  0.42931294  0.85856916  0.40868772  1
  F  F25  1  0.42925621  0.57068706  0.59131228  1
  F  F26  1  0.14143084  0.57074379  0.59131228  1
  F  F27  1  0.42931294  0.85856916  0.59131228  1
  F  F28  1  0.17885889  0.36212398  0.00000000  1
  F  F29  1  0.63787602  0.81673492  0.00000000  1
  F  F30  1  0.18326508  0.82114111  0.00000000  1
  F  F31  1  0.36212398  0.17885889  0.00000000  1
  F  F32  1  0.81673492  0.63787602  0.00000000  1
  F  F33  1  0.82114111  0.18326508  0.00000000  1
  F  F34  1  0.59450643  0.45684826  0.00000000  1
  F  F35  1  0.54315174  0.13765817  0.00000000  1
  F  F36  1  0.86234183  0.40549357  0.00000000  1
  F  F37  1  0.45684826  0.59450643  0.00000000  1
  F  F38  1  0.13765817  0.54315174  0.00000000  1
  F  F39  1  0.40549357  0.86234183  0.00000000  1
  Li  Li40  1  0.47537021  0.00000000  0.50000000  1
  Li  Li41  1  0.00000000  0.47537021  0.50000000  1
  Li  Li42  1  0.52462979  0.52462979  0.50000000  1
  Li  Li43  1  0.54062418  0.00000000  0.00000000  1
  Li  Li44  1  0.00000000  0.54062418  0.00000000  1
  Li  Li45  1  0.45937582  0.45937582  0.00000000  1
  Li  Li46  1  0.47834201  0.80277354  0.81695607  1
  Li  Li47  1  -0.80277354  -0.32443153  0.81695607  1
  Li  Li48  1  0.32443153  -0.47834201  0.81695607  1
  Li  Li49  1  0.47834201  0.80277354  -0.81695607  1
  Li  Li50  1  -0.80277354  -0.32443153  -0.81695607  1
  Li  Li51  1  0.32443153  -0.47834201  -0.81695607  1
  Li  Li52  1  0.80277354  0.47834201  -0.81695607  1
  Li  Li53  1  -0.32443153  -0.80277354  -0.81695607  1
  Li  Li54  1  -0.47834201  0.32443153  -0.81695607  1
  Li  Li55  1  0.80277354  0.47834201  0.81695607  1
  Li  Li56  1  -0.32443153  -0.80277354  0.81695607  1
  Li  Li57  1  -0.47834201  0.32443153  0.81695607  1
  Li  Li58  1  0.75275895  -0.00000000  0.66076346  1
  Li  Li59  1  0.00000000  0.75275895  0.66076346  1
  Li  Li60  1  0.24724105  0.24724105  0.66076346  1
  Li  Li61  1  0.75275895  -0.00000000  0.33923654  1
  Li  Li62  1  0.00000000  0.75275895  0.33923654  1
  Li  Li63  1  0.24724105  0.24724105  0.33923654  1
  Li  Li64  1  0.26700689  0.56093896  0.00000000  1
  Li  Li65  1  0.43906104  0.70606793  0.00000000  1
  Li  Li66  1  0.29393207  0.73299311  -0.00000000  1
  Li  Li67  1  0.56093896  0.26700689  0.00000000  1
  Li  Li68  1  0.70606793  0.43906104  0.00000000  1
  Li  Li69  1  0.73299311  0.29393207  -0.00000000  1
  Li  Li70  1  0.72178670  0.27051888  0.50000000  1
  Li  Li71  1  0.72948112  0.45126782  0.50000000  1
  Li  Li72  1  0.54873218  0.27821330  0.50000000  1
  Li  Li73  1  0.27051888  0.72178670  0.50000000  1
  Li  Li74  1  0.45126782  0.72948112  0.50000000  1
  Li  Li75  1  0.27821330  0.54873218  0.50000000  1
  Li  Li76  1  0.00000000  0.00000000  0.00000000  1
  Li  Li77  1  0.33333333  0.66666667  0.00000000  1
  Li  Li78  1  0.66666667  0.33333333  -0.00000000  1
  Li  Li79  1  0.00000000  0.00000000  0.50000000  1
