# generated using pymatgen
data_Li3Y2As4P3Se2
_symmetry_space_group_name_H-M   'P 1'
_cell_length_a   5.49265026
_cell_length_b   5.63146816
_cell_length_c   7.17560235
_cell_angle_alpha   93.81760801
_cell_angle_beta   98.31395658
_cell_angle_gamma   105.33381410
_symmetry_Int_Tables_number   1
_chemical_formula_structural   Li3Y2As4P3Se2
_chemical_formula_sum   'Li3 Y2 As4 P3 Se2'
_cell_volume   210.52110754
_cell_formula_units_Z   1
loop_
 _symmetry_equiv_pos_site_id
 _symmetry_equiv_pos_as_xyz
  1  'x, y, z'
loop_
 _atom_site_type_symbol
 _atom_site_label
 _atom_site_symmetry_multiplicity
 _atom_site_fract_x
 _atom_site_fract_y
 _atom_site_fract_z
 _atom_site_occupancy
  Se  Se0  1  0.12500000  0.00000000  0.25000000  1
  Se  Se1  1  0.00000000  0.00000000  0.00000000  1
  P  P2  1  0.37500000  0.00000000  0.25000000  1
  P  P3  1  0.25000000  0.25000000  0.25000000  1
  P  P4  1  0.00000000  0.25000000  0.12500000  1
  As  As5  1  0.14415238  0.37210214  0.31326628  1
  As  As6  1  0.74969077  0.80069131  0.12576006  1
  As  As7  1  0.12708480  0.80065300  0.61161604  1
  As  As8  1  0.22651674  0.76607377  0.97846147  1
  Li  Li9  1  0.95187896  0.80111798  0.66608474  1
  Li  Li10  1  0.95448357  0.77062018  0.76307960  1
  Li  Li11  1  0.77668570  0.96315807  0.63385613  1
  Y  Y12  1  0.99760438  0.48547515  0.32038555  1
  Y  Y13  1  0.87109262  0.88380825  0.59125445  1
