# generated using pymatgen
data_Li2Ti2SeN5
_symmetry_space_group_name_H-M   'P 1'
_cell_length_a   5.59861599
_cell_length_b   6.00624483
_cell_length_c   7.15102705
_cell_angle_alpha   93.49454476
_cell_angle_beta   90.10106739
_cell_angle_gamma   102.98647766
_symmetry_Int_Tables_number   1
_chemical_formula_structural   Li2Ti2SeN5
_chemical_formula_sum   'Li2 Ti2 Se1 N5'
_cell_volume   233.84955988
_cell_formula_units_Z   1
loop_
 _symmetry_equiv_pos_site_id
 _symmetry_equiv_pos_as_xyz
  1  'x, y, z'
loop_
 _atom_site_type_symbol
 _atom_site_label
 _atom_site_symmetry_multiplicity
 _atom_site_fract_x
 _atom_site_fract_y
 _atom_site_fract_z
 _atom_site_occupancy
  N  N0  1  0.00000000  0.00000000  0.00000000  1
  N  N1  1  0.33300000  0.66700000  0.25000000  1
  N  N2  1  0.66700000  0.33300000  0.50000000  1
  N  N3  1  0.00000000  0.00000000  0.75000000  1
  N  N4  1  0.97470022  0.89716550  0.92033809  1
  Se  Se5  1  0.50748905  0.14175757  0.90167114  1
  Ti  Ti6  1  0.00876526  0.11488420  0.56425357  1
  Ti  Ti7  1  0.60035077  0.69487463  0.13642125  1
  Li  Li8  1  0.28577678  0.83040998  0.94250996  1
  Li  Li9  1  0.83398598  0.37374390  0.15427596  1
