# generated using pymatgen
data_KLiTiTe3
_symmetry_space_group_name_H-M   'P 1'
_cell_length_a   12.08798413
_cell_length_b   12.08798413
_cell_length_c   6.61585420
_cell_angle_alpha   90.00000000
_cell_angle_beta   90.00000000
_cell_angle_gamma   120.00000000
_symmetry_Int_Tables_number   1
_chemical_formula_structural   KLiTiTe3
_chemical_formula_sum   'K6 Li6 Ti6 Te18'
_cell_volume   837.19055488
_cell_formula_units_Z   6
loop_
 _symmetry_equiv_pos_site_id
 _symmetry_equiv_pos_as_xyz
  1  'x, y, z'
loop_
 _atom_site_type_symbol
 _atom_site_label
 _atom_site_symmetry_multiplicity
 _atom_site_fract_x
 _atom_site_fract_y
 _atom_site_fract_z
 _atom_site_occupancy
  K  K0  1  0.50000000  0.00000000  0.00000000  1
  K  K1  1  0.00000000  0.50000000  0.00000000  1
  K  K2  1  0.50000000  0.50000000  0.00000000  1
  K  K3  1  0.50000000  0.00000000  0.50000000  1
  K  K4  1  0.00000000  0.50000000  0.50000000  1
  K  K5  1  0.50000000  0.50000000  0.50000000  1
  Li  Li6  1  0.05178604  0.19915353  0.25000000  1
  Li  Li7  1  0.80084647  0.85263251  0.25000000  1
  Li  Li8  1  0.14736749  0.94821396  0.25000000  1
  Li  Li9  1  0.94821396  0.80084647  0.75000000  1
  Li  Li10  1  0.19915353  0.14736749  0.75000000  1
  Li  Li11  1  0.85263251  0.05178604  0.75000000  1
  Te  Te12  1  0.00000000  0.00000000  0.25000000  1
  Te  Te13  1  0.00000000  0.00000000  0.75000000  1
  Te  Te14  1  0.37869562  0.62681964  0.25000000  1
  Te  Te15  1  0.37318036  0.75187598  0.25000000  1
  Te  Te16  1  0.24812402  0.62130438  0.25000000  1
  Te  Te17  1  0.62130438  0.37318036  0.75000000  1
  Te  Te18  1  0.62681964  0.24812402  0.75000000  1
  Te  Te19  1  0.75187598  0.37869562  0.75000000  1
  Te  Te20  1  0.44033824  0.92116268  0.25000000  1
  Te  Te21  1  0.07883732  0.51917555  0.25000000  1
  Te  Te22  1  0.48082445  0.55966176  0.25000000  1
  Te  Te23  1  0.55966176  0.07883732  0.75000000  1
  Te  Te24  1  0.92116268  0.48082445  0.75000000  1
  Te  Te25  1  0.51917555  0.44033824  0.75000000  1
  Te  Te26  1  0.66666667  0.33333333  0.25000000  1
  Te  Te27  1  0.33333333  0.66666667  0.75000000  1
  Te  Te28  1  0.00000000  0.00000000  0.00000000  1
  Te  Te29  1  0.00000000  0.00000000  0.50000000  1
  Ti  Ti30  1  0.48453030  0.35151975  0.25000000  1
  Ti  Ti31  1  0.64848025  0.13301055  0.25000000  1
  Ti  Ti32  1  0.86698945  0.51546970  0.25000000  1
  Ti  Ti33  1  0.51546970  0.64848025  0.75000000  1
  Ti  Ti34  1  0.35151975  0.86698945  0.75000000  1
  Ti  Ti35  1  0.13301055  0.48453030  0.75000000  1
