# generated using pymatgen
data_LiF
_symmetry_space_group_name_H-M   'P 1'
_cell_length_a   22.75388634
_cell_length_b   22.75388634
_cell_length_c   9.45925212
_cell_angle_alpha   90.00000000
_cell_angle_beta   90.00000000
_cell_angle_gamma   120.00000000
_symmetry_Int_Tables_number   1
_chemical_formula_structural   LiF
_chemical_formula_sum   'Li108 F108'
_cell_volume   4241.29618265
_cell_formula_units_Z   108
loop_
 _symmetry_equiv_pos_site_id
 _symmetry_equiv_pos_as_xyz
  1  'x, y, z'
loop_
 _atom_site_type_symbol
 _atom_site_label
 _atom_site_symmetry_multiplicity
 _atom_site_fract_x
 _atom_site_fract_y
 _atom_site_fract_z
 _atom_site_occupancy
  F  F0  1  0.71334794  0.00000000  0.25000000  1
  F  F1  1  0.00000000  0.71334794  0.25000000  1
  F  F2  1  0.28665206  0.28665206  0.25000000  1
  F  F3  1  0.28665206  0.00000000  0.75000000  1
  F  F4  1  0.00000000  0.28665206  0.75000000  1
  F  F5  1  0.71334794  0.71334794  0.75000000  1
  F  F6  1  0.38001460  0.33333333  0.58333333  1
  F  F7  1  0.66666667  0.04668127  0.58333333  1
  F  F8  1  0.95331873  0.61998540  0.58333333  1
  F  F9  1  0.95331873  0.33333333  0.08333333  1
  F  F10  1  0.66666667  0.61998540  0.08333333  1
  F  F11  1  0.38001460  0.04668127  0.08333333  1
  F  F12  1  0.04668127  0.66666667  0.91666667  1
  F  F13  1  0.33333333  0.38001460  0.91666667  1
  F  F14  1  0.61998540  0.95331873  0.91666667  1
  F  F15  1  0.61998540  0.66666667  0.41666667  1
  F  F16  1  0.33333333  0.95331873  0.41666667  1
  F  F17  1  0.04668127  0.38001460  0.41666667  1
  F  F18  1  0.36191838  0.57854378  0.13827093  1
  F  F19  1  0.42145622  0.78337460  0.13827093  1
  F  F20  1  0.21662540  0.63808162  0.13827093  1
  F  F21  1  0.57854378  0.36191838  0.36172907  1
  F  F22  1  0.78337460  0.42145622  0.36172907  1
  F  F23  1  0.63808162  0.21662540  0.36172907  1
  F  F24  1  0.63808162  0.42145622  0.86172907  1
  F  F25  1  0.57854378  0.21662540  0.86172907  1
  F  F26  1  0.78337460  0.36191838  0.86172907  1
  F  F27  1  0.42145622  0.63808162  0.63827093  1
  F  F28  1  0.21662540  0.57854378  0.63827093  1
  F  F29  1  0.36191838  0.78337460  0.63827093  1
  F  F30  1  0.02858505  0.91187711  0.47160426  1
  F  F31  1  0.08812289  0.11670793  0.47160426  1
  F  F32  1  0.88329207  0.97141495  0.47160426  1
  F  F33  1  0.24521045  0.69525171  0.69506241  1
  F  F34  1  0.45004127  0.75478955  0.69506241  1
  F  F35  1  0.30474829  0.54995873  0.69506241  1
  F  F36  1  0.30474829  0.75478955  0.19506241  1
  F  F37  1  0.24521045  0.54995873  0.19506241  1
  F  F38  1  0.45004127  0.69525171  0.19506241  1
  F  F39  1  0.08812289  0.97141495  0.97160426  1
  F  F40  1  0.88329207  0.91187711  0.97160426  1
  F  F41  1  0.02858505  0.11670793  0.97160426  1
  F  F42  1  0.69525171  0.24521045  0.80493759  1
  F  F43  1  0.75478955  0.45004127  0.80493759  1
  F  F44  1  0.54995873  0.30474829  0.80493759  1
  F  F45  1  0.91187711  0.02858505  0.02839574  1
  F  F46  1  0.11670793  0.08812289  0.02839574  1
  F  F47  1  0.97141495  0.88329207  0.02839574  1
  F  F48  1  0.97141495  0.08812289  0.52839574  1
  F  F49  1  0.91187711  0.88329207  0.52839574  1
  F  F50  1  0.11670793  0.02858505  0.52839574  1
  F  F51  1  0.75478955  0.30474829  0.30493759  1
  F  F52  1  0.54995873  0.24521045  0.30493759  1
  F  F53  1  0.69525171  0.45004127  0.30493759  1
  F  F54  1  0.41949722  0.60446731  0.27112857  1
  F  F55  1  0.39553269  0.81502991  0.27112857  1
  F  F56  1  0.18497009  0.58050278  0.27112857  1
  F  F57  1  0.60446731  0.41949722  0.22887143  1
  F  F58  1  0.81502991  0.39553269  0.22887143  1
  F  F59  1  0.58050278  0.18497009  0.22887143  1
  F  F60  1  0.58050278  0.39553269  0.72887143  1
  F  F61  1  0.60446731  0.18497009  0.72887143  1
  F  F62  1  0.81502991  0.41949722  0.72887143  1
  F  F63  1  0.39553269  0.58050278  0.77112857  1
  F  F64  1  0.18497009  0.60446731  0.77112857  1
  F  F65  1  0.41949722  0.81502991  0.77112857  1
  F  F66  1  0.08616389  0.93780064  0.60446190  1
  F  F67  1  0.06219936  0.14836325  0.60446190  1
  F  F68  1  0.85163675  0.91383611  0.60446190  1
  F  F69  1  0.27113398  0.75283056  0.56220476  1
  F  F70  1  0.48169658  0.72886602  0.56220476  1
  F  F71  1  0.24716944  0.51830342  0.56220476  1
  F  F72  1  0.24716944  0.72886602  0.06220476  1
  F  F73  1  0.27113398  0.51830342  0.06220476  1
  F  F74  1  0.48169658  0.75283056  0.06220476  1
  F  F75  1  0.06219936  0.91383611  0.10446190  1
  F  F76  1  0.85163675  0.93780064  0.10446190  1
  F  F77  1  0.08616389  0.14836325  0.10446190  1
  F  F78  1  0.75283056  0.27113398  0.93779524  1
  F  F79  1  0.72886602  0.48169658  0.93779524  1
  F  F80  1  0.51830342  0.24716944  0.93779524  1
  F  F81  1  0.93780064  0.08616389  0.89553810  1
  F  F82  1  0.14836325  0.06219936  0.89553810  1
  F  F83  1  0.91383611  0.85163675  0.89553810  1
  F  F84  1  0.91383611  0.06219936  0.39553810  1
  F  F85  1  0.93780064  0.85163675  0.39553810  1
  F  F86  1  0.14836325  0.08616389  0.39553810  1
  F  F87  1  0.72886602  0.24716944  0.43779524  1
  F  F88  1  0.51830342  0.27113398  0.43779524  1
  F  F89  1  0.75283056  0.48169658  0.43779524  1
  F  F90  1  0.00000000  0.00000000  0.25000000  1
  F  F91  1  0.00000000  0.00000000  0.75000000  1
  F  F92  1  0.66666667  0.33333333  0.58333333  1
  F  F93  1  0.66666667  0.33333333  0.08333333  1
  F  F94  1  0.33333333  0.66666667  0.91666667  1
  F  F95  1  0.33333333  0.66666667  0.41666667  1
  F  F96  1  0.00000000  0.00000000  0.46440533  1
  F  F97  1  0.00000000  0.00000000  0.03559467  1
  F  F98  1  0.00000000  0.00000000  0.53559467  1
  F  F99  1  0.00000000  0.00000000  0.96440533  1
  F  F100  1  0.66666667  0.33333333  0.79773867  1
  F  F101  1  0.66666667  0.33333333  0.36892800  1
  F  F102  1  0.66666667  0.33333333  0.86892800  1
  F  F103  1  0.66666667  0.33333333  0.29773867  1
  F  F104  1  0.33333333  0.66666667  0.13107200  1
  F  F105  1  0.33333333  0.66666667  0.70226133  1
  F  F106  1  0.33333333  0.66666667  0.20226133  1
  F  F107  1  0.33333333  0.66666667  0.63107200  1
  Li  Li108  1  0.69486906  0.87939099  0.46073277  1
  Li  Li109  1  -0.87939099  -0.18452194  0.46073277  1
  Li  Li110  1  0.18452194  -0.69486906  0.46073277  1
  Li  Li111  1  0.87939099  0.69486906  0.03926723  1
  Li  Li112  1  -0.18452194  -0.87939099  0.03926723  1
  Li  Li113  1  -0.69486906  0.18452194  0.03926723  1
  Li  Li114  1  -0.69486906  -0.87939099  -0.46073277  1
  Li  Li115  1  0.87939099  0.18452194  -0.46073277  1
  Li  Li116  1  -0.18452194  0.69486906  -0.46073277  1
  Li  Li117  1  -0.87939099  -0.69486906  0.96073277  1
  Li  Li118  1  0.18452194  0.87939099  0.96073277  1
  Li  Li119  1  0.69486906  -0.18452194  0.96073277  1
  Li  Li120  1  1.36153573  1.21272433  0.79406610  1
  Li  Li121  1  -0.21272433  0.14881140  0.79406610  1
  Li  Li122  1  0.85118860  -0.36153573  0.79406610  1
  Li  Li123  1  1.54605766  1.02820239  0.37260057  1
  Li  Li124  1  0.48214473  -0.54605766  0.37260057  1
  Li  Li125  1  -0.02820239  0.51785527  0.37260057  1
  Li  Li126  1  -0.02820239  -0.54605766  -0.12739943  1
  Li  Li127  1  1.54605766  0.51785527  -0.12739943  1
  Li  Li128  1  0.48214473  1.02820239  -0.12739943  1
  Li  Li129  1  -0.21272433  -0.36153573  1.29406610  1
  Li  Li130  1  0.85118860  1.21272433  1.29406610  1
  Li  Li131  1  1.36153573  0.14881140  1.29406610  1
  Li  Li132  1  1.02820239  1.54605766  1.12739943  1
  Li  Li133  1  -0.54605766  0.48214473  1.12739943  1
  Li  Li134  1  0.51785527  -0.02820239  1.12739943  1
  Li  Li135  1  1.21272433  1.36153573  0.70593390  1
  Li  Li136  1  0.14881140  -0.21272433  0.70593390  1
  Li  Li137  1  -0.36153573  0.85118860  0.70593390  1
  Li  Li138  1  -0.36153573  -0.21272433  0.20593390  1
  Li  Li139  1  1.21272433  0.85118860  0.20593390  1
  Li  Li140  1  0.14881140  1.36153573  0.20593390  1
  Li  Li141  1  -0.54605766  -0.02820239  1.62739943  1
  Li  Li142  1  0.51785527  1.54605766  1.62739943  1
  Li  Li143  1  1.02820239  0.48214473  1.62739943  1
  Li  Li144  1  0.50000000  0.00000000  0.00000000  1
  Li  Li145  1  0.00000000  0.50000000  0.00000000  1
  Li  Li146  1  0.50000000  0.50000000  0.00000000  1
  Li  Li147  1  0.00000000  0.50000000  0.50000000  1
  Li  Li148  1  0.50000000  0.00000000  0.50000000  1
  Li  Li149  1  0.50000000  0.50000000  0.50000000  1
  Li  Li150  1  0.16666667  0.33333333  0.33333333  1
  Li  Li151  1  0.66666667  0.83333333  0.33333333  1
  Li  Li152  1  0.16666667  0.83333333  0.33333333  1
  Li  Li153  1  0.66666667  0.83333333  0.83333333  1
  Li  Li154  1  0.16666667  0.33333333  0.83333333  1
  Li  Li155  1  0.16666667  0.83333333  0.83333333  1
  Li  Li156  1  0.83333333  0.66666667  0.66666667  1
  Li  Li157  1  0.33333333  0.16666667  0.66666667  1
  Li  Li158  1  0.83333333  0.16666667  0.66666667  1
  Li  Li159  1  0.33333333  0.16666667  0.16666667  1
  Li  Li160  1  0.83333333  0.66666667  0.16666667  1
  Li  Li161  1  0.83333333  0.16666667  0.16666667  1
  Li  Li162  1  0.29260753  0.47409395  0.48547146  1
  Li  Li163  1  0.52590605  0.81851359  0.48547146  1
  Li  Li164  1  0.18148641  0.70739247  0.48547146  1
  Li  Li165  1  0.47409395  0.29260753  0.01452854  1
  Li  Li166  1  0.81851359  0.52590605  0.01452854  1
  Li  Li167  1  0.70739247  0.18148641  0.01452854  1
  Li  Li168  1  0.70739247  0.52590605  0.51452854  1
  Li  Li169  1  0.47409395  0.18148641  0.51452854  1
  Li  Li170  1  0.81851359  0.29260753  0.51452854  1
  Li  Li171  1  0.52590605  0.70739247  0.98547146  1
  Li  Li172  1  0.18148641  0.47409395  0.98547146  1
  Li  Li173  1  0.29260753  0.81851359  0.98547146  1
  Li  Li174  1  0.95927420  0.80742728  0.81880479  1
  Li  Li175  1  0.19257272  0.15184692  0.81880479  1
  Li  Li176  1  0.84815308  0.04072580  0.81880479  1
  Li  Li177  1  0.14076061  0.62594086  0.34786188  1
  Li  Li178  1  0.48518025  0.85923939  0.34786188  1
  Li  Li179  1  0.37405914  0.51481975  0.34786188  1
  Li  Li180  1  0.37405914  0.85923939  0.84786188  1
  Li  Li181  1  0.14076061  0.51481975  0.84786188  1
  Li  Li182  1  0.48518025  0.62594086  0.84786188  1
  Li  Li183  1  0.19257272  0.04072580  0.31880479  1
  Li  Li184  1  0.84815308  0.80742728  0.31880479  1
  Li  Li185  1  0.95927420  0.15184692  0.31880479  1
  Li  Li186  1  0.62594086  0.14076061  0.15213812  1
  Li  Li187  1  0.85923939  0.48518025  0.15213812  1
  Li  Li188  1  0.51481975  0.37405914  0.15213812  1
  Li  Li189  1  0.80742728  0.95927420  0.68119521  1
  Li  Li190  1  0.15184692  0.19257272  0.68119521  1
  Li  Li191  1  0.04072580  0.84815308  0.68119521  1
  Li  Li192  1  0.04072580  0.19257272  0.18119521  1
  Li  Li193  1  0.80742728  0.84815308  0.18119521  1
  Li  Li194  1  0.15184692  0.95927420  0.18119521  1
  Li  Li195  1  0.85923939  0.37405914  0.65213812  1
  Li  Li196  1  0.51481975  0.14076061  0.65213812  1
  Li  Li197  1  0.62594086  0.48518025  0.65213812  1
  Li  Li198  1  0.31113297  0.00000000  0.25000000  1
  Li  Li199  1  0.00000000  0.31113297  0.25000000  1
  Li  Li200  1  0.68886703  0.68886703  0.25000000  1
  Li  Li201  1  0.68886703  0.00000000  0.75000000  1
  Li  Li202  1  0.00000000  0.68886703  0.75000000  1
  Li  Li203  1  0.31113297  0.31113297  0.75000000  1
  Li  Li204  1  0.97779963  0.33333333  0.58333333  1
  Li  Li205  1  0.66666667  0.64446630  0.58333333  1
  Li  Li206  1  0.35553370  0.02220037  0.58333333  1
  Li  Li207  1  0.35553370  0.33333333  0.08333333  1
  Li  Li208  1  0.66666667  0.02220037  0.08333333  1
  Li  Li209  1  0.97779963  0.64446630  0.08333333  1
  Li  Li210  1  0.64446630  0.66666667  0.91666667  1
  Li  Li211  1  0.33333333  0.97779963  0.91666667  1
  Li  Li212  1  0.02220037  0.35553370  0.91666667  1
  Li  Li213  1  0.02220037  0.66666667  0.41666667  1
  Li  Li214  1  0.33333333  0.35553370  0.41666667  1
  Li  Li215  1  0.64446630  0.97779963  0.41666667  1
