# generated using pymatgen
data_LiF
_symmetry_space_group_name_H-M   'P 1'
_cell_length_a   9.31133159
_cell_length_b   10.92835103
_cell_length_c   6.40202173
_cell_angle_alpha   90.00000000
_cell_angle_beta   90.00000000
_cell_angle_gamma   90.00000000
_symmetry_Int_Tables_number   1
_chemical_formula_structural   LiF
_chemical_formula_sum   'Li24 F24'
_cell_volume   651.45372702
_cell_formula_units_Z   24
loop_
 _symmetry_equiv_pos_site_id
 _symmetry_equiv_pos_as_xyz
  1  'x, y, z'
loop_
 _atom_site_type_symbol
 _atom_site_label
 _atom_site_symmetry_multiplicity
 _atom_site_fract_x
 _atom_site_fract_y
 _atom_site_fract_z
 _atom_site_occupancy
  F  F0  1  0.41029769  0.32537042  0.13542957  1
  F  F1  1  0.58970231  0.67462958  0.13542957  1
  F  F2  1  0.08970231  0.82537042  0.86457043  1
  F  F3  1  0.91029769  0.17462958  0.86457043  1
  F  F4  1  0.58970231  0.67462958  0.86457043  1
  F  F5  1  0.41029769  0.32537042  0.86457043  1
  F  F6  1  0.91029769  0.17462958  0.13542957  1
  F  F7  1  0.08970231  0.82537042  0.13542957  1
  F  F8  1  0.99507359  0.34804673  0.00000000  1
  F  F9  1  0.00492641  0.65195327  0.00000000  1
  F  F10  1  0.50492641  0.84804673  0.00000000  1
  F  F11  1  0.49507359  0.15195327  0.00000000  1
  F  F12  1  0.48711195  0.65347871  0.50000000  1
  F  F13  1  0.51288805  0.34652129  0.50000000  1
  F  F14  1  0.01288805  0.15347871  0.50000000  1
  F  F15  1  0.98711195  0.84652129  0.50000000  1
  F  F16  1  0.00000000  0.50000000  0.00000000  1
  F  F17  1  0.50000000  0.00000000  0.00000000  1
  F  F18  1  0.92397439  0.78156746  -0.00000000  1
  F  F19  1  0.07602561  0.21843254  -0.00000000  1
  F  F20  1  0.57602561  0.28156746  -0.00000000  1
  F  F21  1  0.42397439  0.71843254  0.00000000  1
  F  F22  1  0.00000000  0.00000000  0.00000000  1
  F  F23  1  0.50000000  0.50000000  0.00000000  1
  Li  Li24  1  0.50140207  0.84973669  0.78319299  1
  Li  Li25  1  -0.50140207  -0.84973669  0.78319299  1
  Li  Li26  1  -0.00140207  1.34973669  -0.78319299  1
  Li  Li27  1  1.00140207  -0.34973669  -0.78319299  1
  Li  Li28  1  -0.50140207  -0.84973669  -0.78319299  1
  Li  Li29  1  0.50140207  0.84973669  -0.78319299  1
  Li  Li30  1  1.00140207  -0.34973669  0.78319299  1
  Li  Li31  1  -0.00140207  1.34973669  0.78319299  1
  Li  Li32  1  0.21272954  0.81456437  0.74119624  1
  Li  Li33  1  0.78727046  0.18543563  0.74119624  1
  Li  Li34  1  0.28727046  0.31456437  0.25880376  1
  Li  Li35  1  0.71272954  0.68543563  0.25880376  1
  Li  Li36  1  0.78727046  0.18543563  0.25880376  1
  Li  Li37  1  0.21272954  0.81456437  0.25880376  1
  Li  Li38  1  0.71272954  0.68543563  0.74119624  1
  Li  Li39  1  0.28727046  0.31456437  0.74119624  1
  Li  Li40  1  0.00000000  0.50000000  0.50000000  1
  Li  Li41  1  0.50000000  0.00000000  0.50000000  1
  Li  Li42  1  0.00000000  0.00000000  0.50000000  1
  Li  Li43  1  0.50000000  0.50000000  0.50000000  1
  Li  Li44  1  0.34343760  0.70514314  0.50000000  1
  Li  Li45  1  0.65656240  0.29485686  0.50000000  1
  Li  Li46  1  0.15656240  0.20514314  0.50000000  1
  Li  Li47  1  0.84343760  0.79485686  0.50000000  1
