# generated using pymatgen
data_LiY2(As2P)2
_symmetry_space_group_name_H-M   'P 1'
_cell_length_a   4.19218927
_cell_length_b   4.44987475
_cell_length_c   6.62384720
_cell_angle_alpha   96.12910460
_cell_angle_beta   102.58994900
_cell_angle_gamma   112.79365562
_symmetry_Int_Tables_number   1
_chemical_formula_structural   LiY2(As2P)2
_chemical_formula_sum   'Li1 Y2 As4 P2'
_cell_volume   108.63742239
_cell_formula_units_Z   1
loop_
 _symmetry_equiv_pos_site_id
 _symmetry_equiv_pos_as_xyz
  1  'x, y, z'
loop_
 _atom_site_type_symbol
 _atom_site_label
 _atom_site_symmetry_multiplicity
 _atom_site_fract_x
 _atom_site_fract_y
 _atom_site_fract_z
 _atom_site_occupancy
  Y  Y0  1  0.00000000  0.00000000  0.00000000  1
  Y  Y1  1  0.33300000  0.66700000  0.25000000  1
  P  P2  1  0.66700000  0.33300000  0.50000000  1
  P  P3  1  0.00000000  0.00000000  0.75000000  1
  As  As4  1  0.28002839  0.40912229  0.14135021  1
  As  As5  1  0.52691877  0.77413039  0.81605299  1
  As  As6  1  0.66892273  0.86587974  0.75475262  1
  As  As7  1  0.61318403  0.63139533  0.91459742  1
  Li  Li8  1  0.60117151  0.02045332  0.04502601  1
