# generated using pymatgen
data_LiF
_symmetry_space_group_name_H-M   'P 1'
_cell_length_a   9.48571263
_cell_length_b   8.56989383
_cell_length_c   8.11870289
_cell_angle_alpha   90.00000000
_cell_angle_beta   90.00000000
_cell_angle_gamma   90.00000000
_symmetry_Int_Tables_number   1
_chemical_formula_structural   LiF
_chemical_formula_sum   'Li24 F24'
_cell_volume   659.98194324
_cell_formula_units_Z   24
loop_
 _symmetry_equiv_pos_site_id
 _symmetry_equiv_pos_as_xyz
  1  'x, y, z'
loop_
 _atom_site_type_symbol
 _atom_site_label
 _atom_site_symmetry_multiplicity
 _atom_site_fract_x
 _atom_site_fract_y
 _atom_site_fract_z
 _atom_site_occupancy
  F  F0  1  0.69386584  0.25000000  0.58029317  1
  F  F1  1  0.80613416  0.75000000  0.08029317  1
  F  F2  1  0.30613416  0.75000000  0.41970683  1
  F  F3  1  0.19386584  0.25000000  0.91970683  1
  F  F4  1  0.30067343  0.02128279  0.68035658  1
  F  F5  1  0.19932657  0.97871721  0.18035658  1
  F  F6  1  0.69932657  0.52128279  0.31964342  1
  F  F7  1  0.80067343  0.47871721  0.81964342  1
  F  F8  1  0.69932657  0.97871721  0.31964342  1
  F  F9  1  0.80067343  0.02128279  0.81964342  1
  F  F10  1  0.30067343  0.47871721  0.68035658  1
  F  F11  1  0.19932657  0.52128279  0.18035658  1
  F  F12  1  0.44222775  0.55055156  0.67489458  1
  F  F13  1  0.05777225  0.44944844  0.17489458  1
  F  F14  1  0.55777225  0.05055156  0.32510542  1
  F  F15  1  0.94222775  0.94944844  0.82510542  1
  F  F16  1  0.55777225  0.44944844  0.32510542  1
  F  F17  1  0.94222775  0.55055156  0.82510542  1
  F  F18  1  0.44222775  0.94944844  0.67489458  1
  F  F19  1  0.05777225  0.05055156  0.17489458  1
  F  F20  1  0.85750947  0.25000000  0.97737093  1
  F  F21  1  0.64249053  0.75000000  0.47737093  1
  F  F22  1  0.14249053  0.75000000  0.02262907  1
  F  F23  1  0.35750947  0.25000000  0.52262907  1
  Li  Li24  1  0.00000000  0.00000000  0.00000000  1
  Li  Li25  1  0.50000000  0.00000000  0.50000000  1
  Li  Li26  1  0.00000000  0.50000000  0.00000000  1
  Li  Li27  1  0.50000000  0.50000000  0.50000000  1
  Li  Li28  1  0.97698053  0.25000000  0.35995539  1
  Li  Li29  1  0.52301947  0.75000000  0.85995539  1
  Li  Li30  1  0.02301947  0.75000000  0.64004461  1
  Li  Li31  1  0.47698053  0.25000000  0.14004461  1
  Li  Li32  1  0.00000000  0.00000000  0.50000000  1
  Li  Li33  1  0.50000000  0.00000000  0.00000000  1
  Li  Li34  1  0.00000000  0.50000000  0.50000000  1
  Li  Li35  1  0.50000000  0.50000000  0.00000000  1
  Li  Li36  1  0.27316045  0.08161416  0.33715358  1
  Li  Li37  1  0.22683955  -0.08161416  0.83715358  1
  Li  Li38  1  -0.27316045  0.58161416  -0.33715358  1
  Li  Li39  1  0.77316045  0.41838584  0.16284642  1
  Li  Li40  1  -0.27316045  -0.08161416  -0.33715358  1
  Li  Li41  1  0.77316045  0.08161416  0.16284642  1
  Li  Li42  1  0.27316045  0.41838584  0.33715358  1
  Li  Li43  1  0.22683955  0.58161416  0.83715358  1
  Li  Li44  1  0.18901186  0.25000000  0.65293900  1
  Li  Li45  1  0.31098814  0.75000000  0.15293900  1
  Li  Li46  1  0.81098814  0.75000000  0.34706100  1
  Li  Li47  1  0.68901186  0.25000000  0.84706100  1
