# generated using pymatgen
data_Li2Y2As4P3Se2
_symmetry_space_group_name_H-M   'P 1'
_cell_length_a   5.51811164
_cell_length_b   5.79116468
_cell_length_c   7.32771433
_cell_angle_alpha   93.77740934
_cell_angle_beta   98.22641223
_cell_angle_gamma   105.17235201
_symmetry_Int_Tables_number   1
_chemical_formula_structural   Li2Y2As4P3Se2
_chemical_formula_sum   'Li2 Y2 As4 P3 Se2'
_cell_volume   222.36616642
_cell_formula_units_Z   1
loop_
 _symmetry_equiv_pos_site_id
 _symmetry_equiv_pos_as_xyz
  1  'x, y, z'
loop_
 _atom_site_type_symbol
 _atom_site_label
 _atom_site_symmetry_multiplicity
 _atom_site_fract_x
 _atom_site_fract_y
 _atom_site_fract_z
 _atom_site_occupancy
  Se  Se0  1  0.00000000  0.00000000  0.00000000  1
  Se  Se1  1  0.50000000  0.50000000  0.50000000  1
  P  P2  1  0.25000000  0.25000000  0.25000000  1
  P  P3  1  0.75000000  0.25000000  0.00000000  1
  P  P4  1  0.25000000  0.75000000  0.50000000  1
  As  As5  1  0.77228510  0.22174884  0.42162336  1
  As  As6  1  0.98931581  0.84017978  0.74250778  1
  As  As7  1  0.80459721  0.20461261  0.21329555  1
  As  As8  1  0.09577193  0.61174150  0.46016740  1
  Li  Li9  1  0.46340719  0.55941761  0.21929852  1
  Li  Li10  1  0.46856492  0.36989160  0.48784379  1
  Y  Y11  1  0.54682469  0.85198713  0.84598013  1
  Y  Y12  1  0.19582829  0.04763431  0.93009188  1
