# generated using pymatgen
data_LiYAs2P
_symmetry_space_group_name_H-M   'P 1'
_cell_length_a   4.68996085
_cell_length_b   4.75808901
_cell_length_c   6.81196619
_cell_angle_alpha   95.25703469
_cell_angle_beta   101.44872865
_cell_angle_gamma   111.11541900
_symmetry_Int_Tables_number   1
_chemical_formula_structural   LiYAs2P
_chemical_formula_sum   'Li2 Y2 As4 P2'
_cell_volume   136.75261071
_cell_formula_units_Z   2
loop_
 _symmetry_equiv_pos_site_id
 _symmetry_equiv_pos_as_xyz
  1  'x, y, z'
loop_
 _atom_site_type_symbol
 _atom_site_label
 _atom_site_symmetry_multiplicity
 _atom_site_fract_x
 _atom_site_fract_y
 _atom_site_fract_z
 _atom_site_occupancy
  P  P0  1  0.00000000  0.00000000  0.00000000  1
  P  P1  1  0.50000000  0.50000000  0.50000000  1
  As  As2  1  0.25000000  0.25000000  0.25000000  1
  As  As3  1  0.75000000  0.25000000  0.00000000  1
  As  As4  1  0.25000000  0.75000000  0.50000000  1
  As  As5  1  0.36501683  0.07897515  0.75487735  1
  Li  Li6  1  0.00544261  0.32881315  0.38513464  1
  Li  Li7  1  0.72756265  0.62774961  0.82712094  1
  Y  Y8  1  0.81974359  0.77634748  0.07538415  1
  Y  Y9  1  0.62602968  0.34561241  0.30305913  1
