# generated using pymatgen
data_LiF
_symmetry_space_group_name_H-M   'P 1'
_cell_length_a   13.34180400
_cell_length_b   13.34180400
_cell_length_c   2.66675995
_cell_angle_alpha   90.00000000
_cell_angle_beta   90.00000000
_cell_angle_gamma   90.00000000
_symmetry_Int_Tables_number   1
_chemical_formula_structural   LiF
_chemical_formula_sum   'Li18 F18'
_cell_volume   474.69322823
_cell_formula_units_Z   18
loop_
 _symmetry_equiv_pos_site_id
 _symmetry_equiv_pos_as_xyz
  1  'x, y, z'
loop_
 _atom_site_type_symbol
 _atom_site_label
 _atom_site_symmetry_multiplicity
 _atom_site_fract_x
 _atom_site_fract_y
 _atom_site_fract_z
 _atom_site_occupancy
  F  F0  1  0.57642380  0.78448105  0.50000000  1
  F  F1  1  -0.57642380  -0.78448105  0.50000000  1
  F  F2  1  -0.78448105  0.57642380  0.50000000  1
  F  F3  1  0.78448105  -0.57642380  0.50000000  1
  F  F4  1  -0.57642380  0.78448105  0.50000000  1
  F  F5  1  0.57642380  -0.78448105  0.50000000  1
  F  F6  1  0.78448105  0.57642380  0.50000000  1
  F  F7  1  -0.78448105  -0.57642380  0.50000000  1
  F  F8  1  0.21266567  0.00000000  0.50000000  1
  F  F9  1  0.78733433  0.00000000  0.50000000  1
  F  F10  1  0.00000000  0.21266567  0.50000000  1
  F  F11  1  0.00000000  0.78733433  0.50000000  1
  F  F12  1  0.25457825  0.25457825  0.50000000  1
  F  F13  1  0.74542175  0.74542175  0.50000000  1
  F  F14  1  0.74542175  0.25457825  0.50000000  1
  F  F15  1  0.25457825  0.74542175  0.50000000  1
  F  F16  1  0.00000000  0.00000000  0.00000000  1
  F  F17  1  0.50000000  0.50000000  0.00000000  1
  Li  Li18  1  0.90003220  0.50000000  0.50000000  1
  Li  Li19  1  0.09996780  0.50000000  0.50000000  1
  Li  Li20  1  0.50000000  0.90003220  0.50000000  1
  Li  Li21  1  0.50000000  0.09996780  0.50000000  1
  Li  Li22  1  0.00000000  0.00000000  0.50000000  1
  Li  Li23  1  0.75430255  0.50000000  0.50000000  1
  Li  Li24  1  0.24569745  0.50000000  0.50000000  1
  Li  Li25  1  0.50000000  0.75430255  0.50000000  1
  Li  Li26  1  0.50000000  0.24569745  0.50000000  1
  Li  Li27  1  0.00000000  0.50000000  0.75417818  1
  Li  Li28  1  0.50000000  0.00000000  0.75417818  1
  Li  Li29  1  0.00000000  0.50000000  0.24582182  1
  Li  Li30  1  0.50000000  0.00000000  0.24582182  1
  Li  Li31  1  0.32855295  0.32855295  0.50000000  1
  Li  Li32  1  0.67144705  0.67144705  0.50000000  1
  Li  Li33  1  0.67144705  0.32855295  0.50000000  1
  Li  Li34  1  0.32855295  0.67144705  0.50000000  1
  Li  Li35  1  0.50000000  0.50000000  0.50000000  1
