# generated using pymatgen
data_LiF
_symmetry_space_group_name_H-M   'P 1'
_cell_length_a   9.72617523
_cell_length_b   9.72617523
_cell_length_c   13.37247271
_cell_angle_alpha   90.00000000
_cell_angle_beta   90.00000000
_cell_angle_gamma   120.00000000
_symmetry_Int_Tables_number   1
_chemical_formula_structural   LiF
_chemical_formula_sum   'Li42 F42'
_cell_volume   1095.53569318
_cell_formula_units_Z   42
loop_
 _symmetry_equiv_pos_site_id
 _symmetry_equiv_pos_as_xyz
  1  'x, y, z'
loop_
 _atom_site_type_symbol
 _atom_site_label
 _atom_site_symmetry_multiplicity
 _atom_site_fract_x
 _atom_site_fract_y
 _atom_site_fract_z
 _atom_site_occupancy
  F  F0  1  0.88631734  0.50199799  0.67480466  1
  F  F1  1  0.49800201  0.38431935  0.67480466  1
  F  F2  1  0.61568065  0.11368266  0.67480466  1
  F  F3  1  0.49800201  0.11368266  0.32519534  1
  F  F4  1  0.61568065  0.50199799  0.32519534  1
  F  F5  1  0.88631734  0.38431935  0.32519534  1
  F  F6  1  0.00000000  0.00000000  0.29473746  1
  F  F7  1  0.00000000  0.00000000  0.70526254  1
  F  F8  1  0.66666667  0.33333333  0.13282810  1
  F  F9  1  0.66666667  0.33333333  0.86717190  1
  F  F10  1  0.57960286  0.42039714  0.50000000  1
  F  F11  1  0.57960286  0.15920571  0.50000000  1
  F  F12  1  0.84079429  0.42039714  0.50000000  1
  F  F13  1  0.12747757  0.71898935  0.31406889  1
  F  F14  1  0.28101065  0.40848821  0.31406889  1
  F  F15  1  0.59151179  0.87252243  0.31406889  1
  F  F16  1  0.28101065  0.87252243  0.68593111  1
  F  F17  1  0.59151179  0.71898935  0.68593111  1
  F  F18  1  0.12747757  0.40848821  0.68593111  1
  F  F19  1  0.12981783  0.52543360  0.47099095  1
  F  F20  1  0.47456640  0.60438422  0.47099095  1
  F  F21  1  0.39561578  0.87018217  0.47099095  1
  F  F22  1  0.47456640  0.87018217  0.52900905  1
  F  F23  1  0.39561578  0.52543360  0.52900905  1
  F  F24  1  0.12981783  0.60438422  0.52900905  1
  F  F25  1  0.91336569  0.00385429  0.54392945  1
  F  F26  1  0.99614571  0.90951139  0.54392945  1
  F  F27  1  0.09048861  0.08663431  0.54392945  1
  F  F28  1  0.99614571  0.08663431  0.45607055  1
  F  F29  1  0.09048861  0.00385429  0.45607055  1
  F  F30  1  0.91336569  0.90951139  0.45607055  1
  F  F31  1  0.25053246  0.74946754  0.00000000  1
  F  F32  1  0.25053246  0.50106491  0.00000000  1
  F  F33  1  0.49893509  0.74946754  0.00000000  1
  F  F34  1  0.33022845  0.50814370  0.38205008  1
  F  F35  1  0.49185630  0.82208476  0.38205008  1
  F  F36  1  0.17791524  0.66977155  0.38205008  1
  F  F37  1  0.49185630  0.66977155  0.61794992  1
  F  F38  1  0.17791524  0.50814370  0.61794992  1
  F  F39  1  0.33022845  0.82208476  0.61794992  1
  F  F40  1  0.66666667  0.33333333  0.50000000  1
  F  F41  1  0.66666667  0.33333333  0.00000000  1
  Li  Li42  1  0.31199315  0.86460448  0.17770291  1
  Li  Li43  1  -0.86460448  -0.55261133  0.17770291  1
  Li  Li44  1  0.55261133  -0.31199315  0.17770291  1
  Li  Li45  1  -0.86460448  -0.31199315  -0.17770291  1
  Li  Li46  1  0.55261133  0.86460448  -0.17770291  1
  Li  Li47  1  0.31199315  -0.55261133  -0.17770291  1
  Li  Li48  1  0.82452633  0.17547367  0.50000000  1
  Li  Li49  1  0.82452633  0.64905266  0.50000000  1
  Li  Li50  1  0.35094734  0.17547367  0.50000000  1
  Li  Li51  1  0.96590652  0.73421587  0.72638469  1
  Li  Li52  1  0.26578413  0.23169065  0.72638469  1
  Li  Li53  1  0.76830935  0.03409348  0.72638469  1
  Li  Li54  1  0.26578413  0.03409348  0.27361531  1
  Li  Li55  1  0.76830935  0.73421587  0.27361531  1
  Li  Li56  1  0.96590652  0.23169065  0.27361531  1
  Li  Li57  1  0.23742037  0.65907358  0.32529491  1
  Li  Li58  1  0.34092642  0.57834679  0.32529491  1
  Li  Li59  1  0.42165321  0.76257963  0.32529491  1
  Li  Li60  1  0.34092642  0.76257963  0.67470509  1
  Li  Li61  1  0.42165321  0.65907358  0.67470509  1
  Li  Li62  1  0.23742037  0.57834679  0.67470509  1
  Li  Li63  1  0.36605862  0.36491643  0.33903755  1
  Li  Li64  1  0.63508357  0.00114219  0.33903755  1
  Li  Li65  1  0.99885781  0.63394138  0.33903755  1
  Li  Li66  1  0.63508357  0.63394138  0.66096245  1
  Li  Li67  1  0.99885781  0.36491643  0.66096245  1
  Li  Li68  1  0.36605862  0.00114219  0.66096245  1
  Li  Li69  1  0.68890927  0.42498575  0.60532719  1
  Li  Li70  1  0.57501425  0.26392352  0.60532719  1
  Li  Li71  1  0.73607648  0.31109073  0.60532719  1
  Li  Li72  1  0.57501425  0.31109073  0.39467281  1
  Li  Li73  1  0.73607648  0.42498575  0.39467281  1
  Li  Li74  1  0.68890927  0.26392352  0.39467281  1
  Li  Li75  1  0.05805433  0.28708277  0.39118262  1
  Li  Li76  1  0.71291723  0.77097156  0.39118262  1
  Li  Li77  1  0.22902844  0.94194567  0.39118262  1
  Li  Li78  1  0.71291723  0.94194567  0.60881738  1
  Li  Li79  1  0.22902844  0.28708277  0.60881738  1
  Li  Li80  1  0.05805433  0.77097156  0.60881738  1
  Li  Li81  1  0.33333333  0.66666667  0.00000000  1
  Li  Li82  1  0.00000000  0.00000000  0.00000000  1
  Li  Li83  1  0.33333333  0.66666667  0.50000000  1
