# generated using pymatgen
data_LiCaF3
_symmetry_space_group_name_H-M   'P 1'
_cell_length_a   13.38560317
_cell_length_b   13.38560317
_cell_length_c   8.04158286
_cell_angle_alpha   90.00000000
_cell_angle_beta   90.00000000
_cell_angle_gamma   120.00000000
_symmetry_Int_Tables_number   1
_chemical_formula_structural   LiCaF3
_chemical_formula_sum   'Li18 Ca18 F54'
_cell_volume   1247.80885819
_cell_formula_units_Z   18
loop_
 _symmetry_equiv_pos_site_id
 _symmetry_equiv_pos_as_xyz
  1  'x, y, z'
loop_
 _atom_site_type_symbol
 _atom_site_label
 _atom_site_symmetry_multiplicity
 _atom_site_fract_x
 _atom_site_fract_y
 _atom_site_fract_z
 _atom_site_occupancy
  Ca  Ca0  1  0.45967954  0.08812952  0.27385991  1
  Ca  Ca1  1  -0.08812952  0.37155002  0.27385991  1
  Ca  Ca2  1  -0.37155002  -0.45967954  0.27385991  1
  Ca  Ca3  1  -0.08812952  -0.45967954  -0.27385991  1
  Ca  Ca4  1  -0.37155002  0.08812952  -0.27385991  1
  Ca  Ca5  1  0.45967954  0.37155002  -0.27385991  1
  Ca  Ca6  1  0.00000000  0.00000000  0.30422194  1
  Ca  Ca7  1  0.00000000  0.00000000  0.69577806  1
  Ca  Ca8  1  0.53806207  0.46193793  0.50000000  1
  Ca  Ca9  1  0.53806207  0.07612414  0.50000000  1
  Ca  Ca10  1  0.92387586  0.46193793  0.50000000  1
  Ca  Ca11  1  0.57394598  0.83562309  0.10865498  1
  Ca  Ca12  1  0.16437691  0.73832288  0.10865498  1
  Ca  Ca13  1  0.26167712  0.42605402  0.10865498  1
  Ca  Ca14  1  0.16437691  0.42605402  0.89134502  1
  Ca  Ca15  1  0.26167712  0.83562309  0.89134502  1
  Ca  Ca16  1  0.57394598  0.73832288  0.89134502  1
  Ca  Ca17  1  0.00000000  0.00000000  0.00000000  1
  F  F18  1  0.66666667  0.33333333  0.50000000  1
  F  F19  1  0.15568017  0.18792263  0.37769684  1
  F  F20  1  0.81207737  0.96775754  0.37769684  1
  F  F21  1  0.03224246  0.84431983  0.37769684  1
  F  F22  1  0.81207737  0.84431983  0.62230316  1
  F  F23  1  0.03224246  0.18792263  0.62230316  1
  F  F24  1  0.15568017  0.96775754  0.62230316  1
  F  F25  1  0.99057535  0.62665848  0.34183480  1
  F  F26  1  0.37334152  0.36391687  0.34183480  1
  F  F27  1  0.63608313  0.00942465  0.34183480  1
  F  F28  1  0.37334152  0.00942465  0.65816520  1
  F  F29  1  0.63608313  0.62665848  0.65816520  1
  F  F30  1  0.99057535  0.36391687  0.65816520  1
  F  F31  1  0.33333333  0.66666667  0.00000000  1
  F  F32  1  0.72660645  0.09623763  0.12614717  1
  F  F33  1  0.90376237  0.63036882  0.12614717  1
  F  F34  1  0.36963118  0.27339355  0.12614717  1
  F  F35  1  0.90376237  0.27339355  0.87385283  1
  F  F36  1  0.36963118  0.09623763  0.87385283  1
  F  F37  1  0.72660645  0.63036882  0.87385283  1
  F  F38  1  0.34623904  0.53377152  0.27914549  1
  F  F39  1  0.46622848  0.81246752  0.27914549  1
  F  F40  1  0.18753248  0.65376096  0.27914549  1
  F  F41  1  0.46622848  0.65376096  0.72085451  1
  F  F42  1  0.18753248  0.53377152  0.72085451  1
  F  F43  1  0.34623904  0.81246752  0.72085451  1
  F  F44  1  0.21529466  0.63274367  0.18738594  1
  F  F45  1  0.36725633  0.58255099  0.18738594  1
  F  F46  1  0.41744901  0.78470534  0.18738594  1
  F  F47  1  0.36725633  0.78470534  0.81261406  1
  F  F48  1  0.41744901  0.63274367  0.81261406  1
  F  F49  1  0.21529466  0.58255099  0.81261406  1
  F  F50  1  0.58874281  0.70072494  0.52579825  1
  F  F51  1  0.29927506  0.88801787  0.52579825  1
  F  F52  1  0.11198213  0.41125719  0.52579825  1
  F  F53  1  0.29927506  0.41125719  0.47420175  1
  F  F54  1  0.11198213  0.70072494  0.47420175  1
  F  F55  1  0.58874281  0.88801787  0.47420175  1
  F  F56  1  0.65427502  0.03934136  0.58447620  1
  F  F57  1  0.96065864  0.61493366  0.58447620  1
  F  F58  1  0.38506634  0.34572498  0.58447620  1
  F  F59  1  0.96065864  0.34572498  0.41552380  1
  F  F60  1  0.38506634  0.03934136  0.41552380  1
  F  F61  1  0.65427502  0.61493366  0.41552380  1
  F  F62  1  0.77679665  0.86617612  0.86190411  1
  F  F63  1  0.13382388  0.91062053  0.86190411  1
  F  F64  1  0.08937947  0.22320335  0.86190411  1
  F  F65  1  0.13382388  0.22320335  0.13809589  1
  F  F66  1  0.08937947  0.86617612  0.13809589  1
  F  F67  1  0.77679665  0.91062053  0.13809589  1
  F  F68  1  0.17229634  0.82770366  -0.00000000  1
  F  F69  1  0.17229634  0.34459268  -0.00000000  1
  F  F70  1  0.65540732  0.82770366  -0.00000000  1
  F  F71  1  0.66666667  0.33333333  0.00000000  1
  Li  Li72  1  0.82101762  0.97151164  0.70859663  1
  Li  Li73  1  0.02848836  0.84950598  0.70859663  1
  Li  Li74  1  0.15049402  0.17898238  0.70859663  1
  Li  Li75  1  0.02848836  0.17898238  0.29140337  1
  Li  Li76  1  0.15049402  0.97151164  0.29140337  1
  Li  Li77  1  0.82101762  0.84950598  0.29140337  1
  Li  Li78  1  0.52424267  0.63452132  0.04656927  1
  Li  Li79  1  0.36547868  0.88972135  0.04656927  1
  Li  Li80  1  0.11027865  0.47575733  0.04656927  1
  Li  Li81  1  0.36547868  0.47575733  0.95343073  1
  Li  Li82  1  0.11027865  0.63452132  0.95343073  1
  Li  Li83  1  0.52424267  0.88972135  0.95343073  1
  Li  Li84  1  0.33333333  0.66666667  0.50000000  1
  Li  Li85  1  0.77421855  0.22578145  0.50000000  1
  Li  Li86  1  0.77421855  0.54843710  0.50000000  1
  Li  Li87  1  0.45156290  0.22578145  0.50000000  1
  Li  Li88  1  0.66666667  0.33333333  0.75325284  1
  Li  Li89  1  0.66666667  0.33333333  0.24674716  1
