# generated using pymatgen
data_LiF
_symmetry_space_group_name_H-M   'P 1'
_cell_length_a   7.34863865
_cell_length_b   10.33913180
_cell_length_c   8.66254384
_cell_angle_alpha   90.00000000
_cell_angle_beta   90.00000000
_cell_angle_gamma   90.00000000
_symmetry_Int_Tables_number   1
_chemical_formula_structural   LiF
_chemical_formula_sum   'Li28 F28'
_cell_volume   658.16746450
_cell_formula_units_Z   28
loop_
 _symmetry_equiv_pos_site_id
 _symmetry_equiv_pos_as_xyz
  1  'x, y, z'
loop_
 _atom_site_type_symbol
 _atom_site_label
 _atom_site_symmetry_multiplicity
 _atom_site_fract_x
 _atom_site_fract_y
 _atom_site_fract_z
 _atom_site_occupancy
  F  F0  1  0.36839688  0.80721599  0.68068569  1
  F  F1  1  0.13160312  0.19278401  0.18068569  1
  F  F2  1  0.63160312  0.30721599  0.31931431  1
  F  F3  1  0.86839688  0.69278401  0.81931431  1
  F  F4  1  0.63160312  0.19278401  0.31931431  1
  F  F5  1  0.86839688  0.80721599  0.81931431  1
  F  F6  1  0.36839688  0.69278401  0.68068569  1
  F  F7  1  0.13160312  0.30721599  0.18068569  1
  F  F8  1  0.40442731  0.25000000  0.91341394  1
  F  F9  1  0.09557269  0.75000000  0.41341394  1
  F  F10  1  0.59557269  0.75000000  0.08658606  1
  F  F11  1  0.90442731  0.25000000  0.58658606  1
  F  F12  1  0.80103712  0.25000000  0.03080273  1
  F  F13  1  0.69896288  0.75000000  0.53080273  1
  F  F14  1  0.19896288  0.75000000  0.96919727  1
  F  F15  1  0.30103712  0.25000000  0.46919727  1
  F  F16  1  0.43866759  0.34935161  0.61904755  1
  F  F17  1  0.06133241  0.65064839  0.11904755  1
  F  F18  1  0.56133241  0.84935161  0.38095245  1
  F  F19  1  0.93866759  0.15064839  0.88095245  1
  F  F20  1  0.56133241  0.65064839  0.38095245  1
  F  F21  1  0.93866759  0.34935161  0.88095245  1
  F  F22  1  0.43866759  0.15064839  0.61904755  1
  F  F23  1  0.06133241  0.84935161  0.11904755  1
  F  F24  1  0.00000000  0.00000000  0.00000000  1
  F  F25  1  0.50000000  0.00000000  0.50000000  1
  F  F26  1  0.00000000  0.50000000  -0.00000000  1
  F  F27  1  0.50000000  0.50000000  0.50000000  1
  Li  Li28  1  0.40830363  0.52085892  0.75455536  1
  Li  Li29  1  0.09169637  -0.52085892  1.25455536  1
  Li  Li30  1  -0.40830363  1.02085892  -0.75455536  1
  Li  Li31  1  0.90830363  -0.02085892  -0.25455536  1
  Li  Li32  1  -0.40830363  -0.52085892  -0.75455536  1
  Li  Li33  1  0.90830363  0.52085892  -0.25455536  1
  Li  Li34  1  0.40830363  -0.02085892  0.75455536  1
  Li  Li35  1  0.09169637  1.02085892  1.25455536  1
  Li  Li36  1  0.68053496  0.61154106  0.82945774  1
  Li  Li37  1  0.81946504  0.38845894  0.32945774  1
  Li  Li38  1  0.31946504  0.11154106  0.17054226  1
  Li  Li39  1  0.18053496  0.88845894  0.67054226  1
  Li  Li40  1  0.31946504  0.38845894  0.17054226  1
  Li  Li41  1  0.18053496  0.61154106  0.67054226  1
  Li  Li42  1  0.68053496  0.88845894  0.82945774  1
  Li  Li43  1  0.81946504  0.11154106  0.32945774  1
  Li  Li44  1  0.46940433  0.92603671  0.24686711  1
  Li  Li45  1  0.03059567  0.07396329  0.74686711  1
  Li  Li46  1  0.53059567  0.42603671  0.75313289  1
  Li  Li47  1  0.96940433  0.57396329  0.25313289  1
  Li  Li48  1  0.53059567  0.07396329  0.75313289  1
  Li  Li49  1  0.96940433  0.92603671  0.25313289  1
  Li  Li50  1  0.46940433  0.57396329  0.24686711  1
  Li  Li51  1  0.03059567  0.42603671  0.74686711  1
  Li  Li52  1  0.00000000  0.00000000  0.50000000  1
  Li  Li53  1  0.50000000  0.00000000  0.00000000  1
  Li  Li54  1  0.00000000  0.50000000  0.50000000  1
  Li  Li55  1  0.50000000  0.50000000  0.00000000  1
