# generated using pymatgen
data_LiF
_symmetry_space_group_name_H-M   'P 1'
_cell_length_a   11.04852861
_cell_length_b   11.04852861
_cell_length_c   8.49400662
_cell_angle_alpha   90.00000000
_cell_angle_beta   90.00000000
_cell_angle_gamma   120.00000000
_symmetry_Int_Tables_number   1
_chemical_formula_structural   LiF
_chemical_formula_sum   'Li31 F31'
_cell_volume   897.94991887
_cell_formula_units_Z   31
loop_
 _symmetry_equiv_pos_site_id
 _symmetry_equiv_pos_as_xyz
  1  'x, y, z'
loop_
 _atom_site_type_symbol
 _atom_site_label
 _atom_site_symmetry_multiplicity
 _atom_site_fract_x
 _atom_site_fract_y
 _atom_site_fract_z
 _atom_site_occupancy
  F  F0  1  0.00000000  0.00000000  0.57187318  1
  F  F1  1  0.00000000  0.00000000  0.42812682  1
  F  F2  1  0.10954365  0.46573836  0.64024871  1
  F  F3  1  0.53426164  0.64380529  0.64024871  1
  F  F4  1  0.35619471  0.89045635  0.64024871  1
  F  F5  1  0.53426164  0.89045635  0.35975129  1
  F  F6  1  0.35619471  0.46573836  0.35975129  1
  F  F7  1  0.10954365  0.64380529  0.35975129  1
  F  F8  1  0.37994955  0.90467061  0.80968655  1
  F  F9  1  0.09532939  0.47527894  0.80968655  1
  F  F10  1  0.52472106  0.62005045  0.80968655  1
  F  F11  1  0.09532939  0.62005045  0.19031345  1
  F  F12  1  0.52472106  0.90467061  0.19031345  1
  F  F13  1  0.37994955  0.47527894  0.19031345  1
  F  F14  1  0.79736565  0.00602686  0.19026613  1
  F  F15  1  0.99397314  0.79133879  0.19026613  1
  F  F16  1  0.20866121  0.20263435  0.19026613  1
  F  F17  1  0.99397314  0.20263435  0.80973387  1
  F  F18  1  0.20866121  0.00602686  0.80973387  1
  F  F19  1  0.79736565  0.79133879  0.80973387  1
  F  F20  1  0.88279414  0.23847090  0.92617859  1
  F  F21  1  0.76152910  0.64432324  0.92617859  1
  F  F22  1  0.35567676  0.11720586  0.92617859  1
  F  F23  1  0.76152910  0.11720586  0.07382141  1
  F  F24  1  0.35567676  0.23847090  0.07382141  1
  F  F25  1  0.88279414  0.64432324  0.07382141  1
  F  F26  1  0.21114834  0.78885166  0.50000000  1
  F  F27  1  0.21114834  0.42229667  0.50000000  1
  F  F28  1  0.57770333  0.78885166  0.50000000  1
  F  F29  1  0.33333333  0.66666667  0.75171432  1
  F  F30  1  0.33333333  0.66666667  0.24828568  1
  Li  Li31  1  0.00000000  0.00000000  0.83626410  1
  Li  Li32  1  0.00000000  0.00000000  0.16373590  1
  Li  Li33  1  0.75608601  0.24391399  0.50000000  1
  Li  Li34  1  0.75608601  0.51217202  0.50000000  1
  Li  Li35  1  0.48782798  0.24391399  0.50000000  1
  Li  Li36  1  0.90092471  0.65771625  0.37423094  1
  Li  Li37  1  -0.65771625  0.24320846  0.37423094  1
  Li  Li38  1  -0.24320846  -0.90092471  0.37423094  1
  Li  Li39  1  -0.65771625  -0.90092471  -0.37423094  1
  Li  Li40  1  -0.24320846  0.65771625  -0.37423094  1
  Li  Li41  1  0.90092471  0.24320846  -0.37423094  1
  Li  Li42  1  0.06502177  0.10221833  0.27695044  1
  Li  Li43  1  0.89778167  0.96280344  0.27695044  1
  Li  Li44  1  0.03719656  0.93497823  0.27695044  1
  Li  Li45  1  0.89778167  0.93497823  0.72304956  1
  Li  Li46  1  0.03719656  0.10221833  0.72304956  1
  Li  Li47  1  0.06502177  0.96280344  0.72304956  1
  Li  Li48  1  0.33333333  0.66666667  0.50000000  1
  Li  Li49  1  0.00000000  0.00000000  0.00000000  1
  Li  Li50  1  0.61182106  0.37598535  0.18092811  1
  Li  Li51  1  0.62401465  0.23583571  0.18092811  1
  Li  Li52  1  0.76416429  0.38817894  0.18092811  1
  Li  Li53  1  0.62401465  0.38817894  0.81907189  1
  Li  Li54  1  0.76416429  0.37598535  0.81907189  1
  Li  Li55  1  0.61182106  0.23583571  0.81907189  1
  Li  Li56  1  0.08736879  0.45667115  0.09522369  1
  Li  Li57  1  0.54332885  0.63069764  0.09522369  1
  Li  Li58  1  0.36930236  0.91263121  0.09522369  1
  Li  Li59  1  0.54332885  0.91263121  0.90477631  1
  Li  Li60  1  0.36930236  0.45667115  0.90477631  1
  Li  Li61  1  0.08736879  0.63069764  0.90477631  1
