# generated using pymatgen
data_Li2S
_symmetry_space_group_name_H-M   'P 1'
_cell_length_a   21.99325250
_cell_length_b   21.99325250
_cell_length_c   7.01396588
_cell_angle_alpha   90.00000000
_cell_angle_beta   90.00000000
_cell_angle_gamma   120.00000000
_symmetry_Int_Tables_number   1
_chemical_formula_structural   Li2S
_chemical_formula_sum   'Li96 S48'
_cell_volume   2938.14483963
_cell_formula_units_Z   48
loop_
 _symmetry_equiv_pos_site_id
 _symmetry_equiv_pos_as_xyz
  1  'x, y, z'
loop_
 _atom_site_type_symbol
 _atom_site_label
 _atom_site_symmetry_multiplicity
 _atom_site_fract_x
 _atom_site_fract_y
 _atom_site_fract_z
 _atom_site_occupancy
  Li  Li0  1  0.52344584  0.70988516  0.25000000  1
  Li  Li1  1  0.29011484  0.81356068  0.25000000  1
  Li  Li2  1  0.18643932  0.47655416  0.25000000  1
  Li  Li3  1  0.47655416  0.29011484  0.75000000  1
  Li  Li4  1  0.70988516  0.18643932  0.75000000  1
  Li  Li5  1  0.81356068  0.52344584  0.75000000  1
  Li  Li6  1  0.70988516  0.52344584  0.75000000  1
  Li  Li7  1  0.81356068  0.29011484  0.75000000  1
  Li  Li8  1  0.47655416  0.18643932  0.75000000  1
  Li  Li9  1  0.29011484  0.47655416  0.25000000  1
  Li  Li10  1  0.18643932  0.70988516  0.25000000  1
  Li  Li11  1  0.52344584  0.81356068  0.25000000  1
  Li  Li12  1  0.13512502  0.97620220  0.41010272  1
  Li  Li13  1  0.02379780  0.15892282  0.41010272  1
  Li  Li14  1  0.84107718  0.86487498  0.41010272  1
  Li  Li15  1  0.86487498  0.02379780  0.91010272  1
  Li  Li16  1  0.97620220  0.84107718  0.91010272  1
  Li  Li17  1  0.15892282  0.13512502  0.91010272  1
  Li  Li18  1  0.97620220  0.13512502  0.58989728  1
  Li  Li19  1  0.15892282  0.02379780  0.58989728  1
  Li  Li20  1  0.86487498  0.84107718  0.58989728  1
  Li  Li21  1  0.02379780  0.86487498  0.08989728  1
  Li  Li22  1  0.84107718  0.97620220  0.08989728  1
  Li  Li23  1  0.13512502  0.15892282  0.08989728  1
  Li  Li24  1  0.86487498  0.02379780  0.58989728  1
  Li  Li25  1  0.97620220  0.84107718  0.58989728  1
  Li  Li26  1  0.15892282  0.13512502  0.58989728  1
  Li  Li27  1  0.13512502  0.97620220  0.08989728  1
  Li  Li28  1  0.02379780  0.15892282  0.08989728  1
  Li  Li29  1  0.84107718  0.86487498  0.08989728  1
  Li  Li30  1  0.02379780  0.86487498  0.41010272  1
  Li  Li31  1  0.84107718  0.97620220  0.41010272  1
  Li  Li32  1  0.13512502  0.15892282  0.41010272  1
  Li  Li33  1  0.97620220  0.13512502  0.91010272  1
  Li  Li34  1  0.15892282  0.02379780  0.91010272  1
  Li  Li35  1  0.86487498  0.84107718  0.91010272  1
  Li  Li36  1  0.28865279  0.45324507  0.50669366  1
  Li  Li37  1  0.54675493  0.83540772  0.50669366  1
  Li  Li38  1  0.16459228  0.71134721  0.50669366  1
  Li  Li39  1  0.71134721  0.54675493  0.00669366  1
  Li  Li40  1  0.45324507  0.16459228  0.00669366  1
  Li  Li41  1  0.83540772  0.28865279  0.00669366  1
  Li  Li42  1  0.45324507  0.28865279  0.49330634  1
  Li  Li43  1  0.83540772  0.54675493  0.49330634  1
  Li  Li44  1  0.71134721  0.16459228  0.49330634  1
  Li  Li45  1  0.54675493  0.71134721  0.99330634  1
  Li  Li46  1  0.16459228  0.45324507  0.99330634  1
  Li  Li47  1  0.28865279  0.83540772  0.99330634  1
  Li  Li48  1  0.71134721  0.54675493  0.49330634  1
  Li  Li49  1  0.45324507  0.16459228  0.49330634  1
  Li  Li50  1  0.83540772  0.28865279  0.49330634  1
  Li  Li51  1  0.28865279  0.45324507  0.99330634  1
  Li  Li52  1  0.54675493  0.83540772  0.99330634  1
  Li  Li53  1  0.16459228  0.71134721  0.99330634  1
  Li  Li54  1  0.54675493  0.71134721  0.50669366  1
  Li  Li55  1  0.16459228  0.45324507  0.50669366  1
  Li  Li56  1  0.28865279  0.83540772  0.50669366  1
  Li  Li57  1  0.45324507  0.28865279  0.00669366  1
  Li  Li58  1  0.83540772  0.54675493  0.00669366  1
  Li  Li59  1  0.71134721  0.16459228  0.00669366  1
  Li  Li60  1  0.45644178  0.91288357  0.25000000  1
  Li  Li61  1  0.08711643  0.54355822  0.25000000  1
  Li  Li62  1  0.45644178  0.54355822  0.25000000  1
  Li  Li63  1  0.54355822  0.08711643  0.75000000  1
  Li  Li64  1  0.91288357  0.45644178  0.75000000  1
  Li  Li65  1  0.54355822  0.45644178  0.75000000  1
  Li  Li66  1  0.87935108  0.55052692  0.85186689  1
  Li  Li67  1  0.44947308  0.32882416  0.85186689  1
  Li  Li68  1  0.67117584  0.12064892  0.85186689  1
  Li  Li69  1  0.12064892  0.44947308  0.35186689  1
  Li  Li70  1  0.55052692  0.67117584  0.35186689  1
  Li  Li71  1  0.32882416  0.87935108  0.35186689  1
  Li  Li72  1  0.55052692  0.87935108  0.14813311  1
  Li  Li73  1  0.32882416  0.44947308  0.14813311  1
  Li  Li74  1  0.12064892  0.67117584  0.14813311  1
  Li  Li75  1  0.44947308  0.12064892  0.64813311  1
  Li  Li76  1  0.67117584  0.55052692  0.64813311  1
  Li  Li77  1  0.87935108  0.32882416  0.64813311  1
  Li  Li78  1  0.12064892  0.44947308  0.14813311  1
  Li  Li79  1  0.55052692  0.67117584  0.14813311  1
  Li  Li80  1  0.32882416  0.87935108  0.14813311  1
  Li  Li81  1  0.87935108  0.55052692  0.64813311  1
  Li  Li82  1  0.44947308  0.32882416  0.64813311  1
  Li  Li83  1  0.67117584  0.12064892  0.64813311  1
  Li  Li84  1  0.44947308  0.12064892  0.85186689  1
  Li  Li85  1  0.67117584  0.55052692  0.85186689  1
  Li  Li86  1  0.87935108  0.32882416  0.85186689  1
  Li  Li87  1  0.55052692  0.87935108  0.35186689  1
  Li  Li88  1  0.32882416  0.44947308  0.35186689  1
  Li  Li89  1  0.12064892  0.67117584  0.35186689  1
  Li  Li90  1  0.25496587  0.50993173  0.25000000  1
  Li  Li91  1  0.49006827  0.74503413  0.25000000  1
  Li  Li92  1  0.25496587  0.74503413  0.25000000  1
  Li  Li93  1  0.74503413  0.49006827  0.75000000  1
  Li  Li94  1  0.50993173  0.25496587  0.75000000  1
  Li  Li95  1  0.74503413  0.25496587  0.75000000  1
  S  S96  1  0.70824860  0.06445522  0.08654412  1
  S  S97  1  -0.06445522  0.64379338  0.08654412  1
  S  S98  1  -0.64379338  -0.70824860  0.08654412  1
  S  S99  1  -0.70824860  -0.06445522  0.58654412  1
  S  S100  1  0.06445522  -0.64379338  0.58654412  1
  S  S101  1  0.64379338  0.70824860  0.58654412  1
  S  S102  1  0.06445522  0.70824860  -0.08654412  1
  S  S103  1  0.64379338  -0.06445522  -0.08654412  1
  S  S104  1  -0.70824860  -0.64379338  -0.08654412  1
  S  S105  1  -0.06445522  -0.70824860  0.41345588  1
  S  S106  1  -0.64379338  0.06445522  0.41345588  1
  S  S107  1  0.70824860  0.64379338  0.41345588  1
  S  S108  1  -0.70824860  -0.06445522  -0.08654412  1
  S  S109  1  0.06445522  -0.64379338  -0.08654412  1
  S  S110  1  0.64379338  0.70824860  -0.08654412  1
  S  S111  1  0.70824860  0.06445522  0.41345588  1
  S  S112  1  -0.06445522  0.64379338  0.41345588  1
  S  S113  1  -0.64379338  -0.70824860  0.41345588  1
  S  S114  1  -0.06445522  -0.70824860  0.08654412  1
  S  S115  1  -0.64379338  0.06445522  0.08654412  1
  S  S116  1  0.70824860  0.64379338  0.08654412  1
  S  S117  1  0.06445522  0.70824860  0.58654412  1
  S  S118  1  0.64379338  -0.06445522  0.58654412  1
  S  S119  1  -0.70824860  -0.64379338  0.58654412  1
  S  S120  1  0.00000000  0.00000000  0.25000000  1
  S  S121  1  0.00000000  0.00000000  0.75000000  1
  S  S122  1  0.76394205  0.00000000  0.00000000  1
  S  S123  1  0.00000000  0.76394205  -0.00000000  1
  S  S124  1  0.23605795  0.23605795  0.00000000  1
  S  S125  1  0.23605795  0.00000000  0.50000000  1
  S  S126  1  0.00000000  0.23605795  0.50000000  1
  S  S127  1  0.76394205  0.76394205  0.50000000  1
  S  S128  1  0.23605795  0.00000000  0.00000000  1
  S  S129  1  0.00000000  0.23605795  -0.00000000  1
  S  S130  1  0.76394205  0.76394205  -0.00000000  1
  S  S131  1  0.76394205  0.00000000  0.50000000  1
  S  S132  1  0.00000000  0.76394205  0.50000000  1
  S  S133  1  0.23605795  0.23605795  0.50000000  1
  S  S134  1  0.90923821  0.81847642  0.25000000  1
  S  S135  1  0.18152358  0.09076179  0.25000000  1
  S  S136  1  0.90923821  0.09076179  0.25000000  1
  S  S137  1  0.09076179  0.18152358  0.75000000  1
  S  S138  1  0.81847642  0.90923821  0.75000000  1
  S  S139  1  0.09076179  0.90923821  0.75000000  1
  S  S140  1  0.33333333  0.66666667  0.25000000  1
  S  S141  1  0.66666667  0.33333333  0.75000000  1
  S  S142  1  0.33333333  0.66666667  0.75000000  1
  S  S143  1  0.66666667  0.33333333  0.25000000  1
