# generated using pymatgen
data_LiCl
_symmetry_space_group_name_H-M   'P 1'
_cell_length_a   16.86085327
_cell_length_b   7.36422765
_cell_length_c   16.11599243
_cell_angle_alpha   90.00000000
_cell_angle_beta   90.00000000
_cell_angle_gamma   90.00000000
_symmetry_Int_Tables_number   1
_chemical_formula_structural   LiCl
_chemical_formula_sum   'Li72 Cl72'
_cell_volume   2001.07704104
_cell_formula_units_Z   72
loop_
 _symmetry_equiv_pos_site_id
 _symmetry_equiv_pos_as_xyz
  1  'x, y, z'
loop_
 _atom_site_type_symbol
 _atom_site_label
 _atom_site_symmetry_multiplicity
 _atom_site_fract_x
 _atom_site_fract_y
 _atom_site_fract_z
 _atom_site_occupancy
  Cl  Cl0  1  0.59414332  0.27880924  0.00000000  1
  Cl  Cl1  1  0.40585668  0.72119076  0.00000000  1
  Cl  Cl2  1  0.90585668  0.77880924  0.50000000  1
  Cl  Cl3  1  0.09414332  0.22119076  0.50000000  1
  Cl  Cl4  1  0.87475087  0.67716159  -0.00000000  1
  Cl  Cl5  1  0.12524913  0.32283841  -0.00000000  1
  Cl  Cl6  1  0.62524913  0.17716159  0.50000000  1
  Cl  Cl7  1  0.37475087  0.82283841  0.50000000  1
  Cl  Cl8  1  0.00000000  0.50000000  0.00000000  1
  Cl  Cl9  1  0.50000000  0.00000000  0.50000000  1
  Cl  Cl10  1  0.50273761  0.87874921  0.00000000  1
  Cl  Cl11  1  0.49726239  0.12125079  -0.00000000  1
  Cl  Cl12  1  0.99726239  0.37874921  0.50000000  1
  Cl  Cl13  1  0.00273761  0.62125079  0.50000000  1
  Cl  Cl14  1  0.00000000  0.00000000  0.34936498  1
  Cl  Cl15  1  0.50000000  0.50000000  0.15063502  1
  Cl  Cl16  1  0.00000000  0.00000000  0.65063502  1
  Cl  Cl17  1  0.50000000  0.50000000  0.84936498  1
  Cl  Cl18  1  0.00000000  0.50000000  0.78640922  1
  Cl  Cl19  1  0.50000000  0.00000000  0.71359078  1
  Cl  Cl20  1  0.00000000  0.50000000  0.21359078  1
  Cl  Cl21  1  0.50000000  0.00000000  0.28640922  1
  Cl  Cl22  1  0.00000000  0.50000000  0.54730368  1
  Cl  Cl23  1  0.50000000  0.00000000  0.95269632  1
  Cl  Cl24  1  0.00000000  0.50000000  0.45269632  1
  Cl  Cl25  1  0.50000000  0.00000000  0.04730368  1
  Cl  Cl26  1  0.34847537  0.90926965  0.20927905  1
  Cl  Cl27  1  -0.34847537  -0.90926965  0.20927905  1
  Cl  Cl28  1  0.15152463  1.40926965  0.29072095  1
  Cl  Cl29  1  0.84847537  -0.40926965  0.29072095  1
  Cl  Cl30  1  -0.34847537  -0.90926965  -0.20927905  1
  Cl  Cl31  1  0.34847537  0.90926965  -0.20927905  1
  Cl  Cl32  1  0.84847537  -0.40926965  0.70927905  1
  Cl  Cl33  1  0.15152463  1.40926965  0.70927905  1
  Cl  Cl34  1  0.06451466  0.71146021  0.41514490  1
  Cl  Cl35  1  0.93548534  0.28853979  0.41514490  1
  Cl  Cl36  1  0.43548534  0.21146021  0.08485510  1
  Cl  Cl37  1  0.56451466  0.78853979  0.08485510  1
  Cl  Cl38  1  0.93548534  0.28853979  0.58485510  1
  Cl  Cl39  1  0.06451466  0.71146021  0.58485510  1
  Cl  Cl40  1  0.56451466  0.78853979  0.91514490  1
  Cl  Cl41  1  0.43548534  0.21146021  0.91514490  1
  Cl  Cl42  1  0.23745332  0.69630919  0.08388423  1
  Cl  Cl43  1  0.76254668  0.30369081  0.08388423  1
  Cl  Cl44  1  0.26254668  0.19630919  0.41611577  1
  Cl  Cl45  1  0.73745332  0.80369081  0.41611577  1
  Cl  Cl46  1  0.76254668  0.30369081  0.91611577  1
  Cl  Cl47  1  0.23745332  0.69630919  0.91611577  1
  Cl  Cl48  1  0.73745332  0.80369081  0.58388423  1
  Cl  Cl49  1  0.26254668  0.19630919  0.58388423  1
  Cl  Cl50  1  0.71849137  0.46205530  0.65726095  1
  Cl  Cl51  1  0.28150863  0.53794470  0.65726095  1
  Cl  Cl52  1  0.78150863  0.96205530  0.84273905  1
  Cl  Cl53  1  0.21849137  0.03794470  0.84273905  1
  Cl  Cl54  1  0.28150863  0.53794470  0.34273905  1
  Cl  Cl55  1  0.71849137  0.46205530  0.34273905  1
  Cl  Cl56  1  0.21849137  0.03794470  0.15726095  1
  Cl  Cl57  1  0.78150863  0.96205530  0.15726095  1
  Cl  Cl58  1  0.00000000  0.00000000  0.82712732  1
  Cl  Cl59  1  0.50000000  0.50000000  0.67287268  1
  Cl  Cl60  1  0.00000000  0.00000000  0.17287268  1
  Cl  Cl61  1  0.50000000  0.50000000  0.32712732  1
  Cl  Cl62  1  0.10563669  0.02214236  0.03566172  1
  Cl  Cl63  1  0.89436331  0.97785764  0.03566172  1
  Cl  Cl64  1  0.39436331  0.52214236  0.46433828  1
  Cl  Cl65  1  0.60563669  0.47785764  0.46433828  1
  Cl  Cl66  1  0.89436331  0.97785764  0.96433828  1
  Cl  Cl67  1  0.10563669  0.02214236  0.96433828  1
  Cl  Cl68  1  0.60563669  0.47785764  0.53566172  1
  Cl  Cl69  1  0.39436331  0.52214236  0.53566172  1
  Cl  Cl70  1  0.00000000  0.00000000  0.50000000  1
  Cl  Cl71  1  0.50000000  0.50000000  -0.00000000  1
  Li  Li72  1  0.33444941  0.37686701  0.43773935  1
  Li  Li73  1  0.66555059  0.62313299  0.43773935  1
  Li  Li74  1  0.16555059  0.87686701  0.06226065  1
  Li  Li75  1  0.83444941  0.12313299  0.06226065  1
  Li  Li76  1  0.66555059  0.62313299  0.56226065  1
  Li  Li77  1  0.33444941  0.37686701  0.56226065  1
  Li  Li78  1  0.83444941  0.12313299  0.93773935  1
  Li  Li79  1  0.16555059  0.87686701  0.93773935  1
  Li  Li80  1  0.69096997  0.06800826  0.92734422  1
  Li  Li81  1  0.30903003  0.93199174  0.92734422  1
  Li  Li82  1  0.80903003  0.56800826  0.57265578  1
  Li  Li83  1  0.19096997  0.43199174  0.57265578  1
  Li  Li84  1  0.30903003  0.93199174  0.07265578  1
  Li  Li85  1  0.69096997  0.06800826  0.07265578  1
  Li  Li86  1  0.19096997  0.43199174  0.42734422  1
  Li  Li87  1  0.80903003  0.56800826  0.42734422  1
  Li  Li88  1  0.13609319  0.26316617  0.67508573  1
  Li  Li89  1  0.86390681  0.73683383  0.67508573  1
  Li  Li90  1  0.36390681  0.76316617  0.82491427  1
  Li  Li91  1  0.63609319  0.23683383  0.82491427  1
  Li  Li92  1  0.86390681  0.73683383  0.32491427  1
  Li  Li93  1  0.13609319  0.26316617  0.32491427  1
  Li  Li94  1  0.63609319  0.23683383  0.17508573  1
  Li  Li95  1  0.36390681  0.76316617  0.17508573  1
  Li  Li96  1  0.70905842  0.23602201  0.33388088  1
  Li  Li97  1  0.29094158  0.76397799  0.33388088  1
  Li  Li98  1  0.79094158  0.73602201  0.16611912  1
  Li  Li99  1  0.20905842  0.26397799  0.16611912  1
  Li  Li100  1  0.29094158  0.76397799  0.66611912  1
  Li  Li101  1  0.70905842  0.23602201  0.66611912  1
  Li  Li102  1  0.20905842  0.26397799  0.83388088  1
  Li  Li103  1  0.79094158  0.73602201  0.83388088  1
  Li  Li104  1  0.55194442  0.38511588  0.30644672  1
  Li  Li105  1  0.44805558  0.61488412  0.30644672  1
  Li  Li106  1  0.94805558  0.88511588  0.19355328  1
  Li  Li107  1  0.05194442  0.11488412  0.19355328  1
  Li  Li108  1  0.44805558  0.61488412  0.69355328  1
  Li  Li109  1  0.55194442  0.38511588  0.69355328  1
  Li  Li110  1  0.05194442  0.11488412  0.80644672  1
  Li  Li111  1  0.94805558  0.88511588  0.80644672  1
  Li  Li112  1  0.01553258  0.79364297  0.86720705  1
  Li  Li113  1  0.98446742  0.20635703  0.86720705  1
  Li  Li114  1  0.48446742  0.29364297  0.63279295  1
  Li  Li115  1  0.51553258  0.70635703  0.63279295  1
  Li  Li116  1  0.98446742  0.20635703  0.13279295  1
  Li  Li117  1  0.01553258  0.79364297  0.13279295  1
  Li  Li118  1  0.51553258  0.70635703  0.36720705  1
  Li  Li119  1  0.48446742  0.29364297  0.36720705  1
  Li  Li120  1  0.58939294  0.55490202  0.90425405  1
  Li  Li121  1  0.41060706  0.44509798  0.90425405  1
  Li  Li122  1  0.91060706  0.05490202  0.59574595  1
  Li  Li123  1  0.08939294  0.94509798  0.59574595  1
  Li  Li124  1  0.41060706  0.44509798  0.09574595  1
  Li  Li125  1  0.58939294  0.55490202  0.09574595  1
  Li  Li126  1  0.08939294  0.94509798  0.40425405  1
  Li  Li127  1  0.91060706  0.05490202  0.40425405  1
  Li  Li128  1  0.06738328  0.25635015  0.39156336  1
  Li  Li129  1  0.93261672  0.74364985  0.39156336  1
  Li  Li130  1  0.43261672  0.75635015  0.10843664  1
  Li  Li131  1  0.56738328  0.24364985  0.10843664  1
  Li  Li132  1  0.93261672  0.74364985  0.60843664  1
  Li  Li133  1  0.06738328  0.25635015  0.60843664  1
  Li  Li134  1  0.56738328  0.24364985  0.89156336  1
  Li  Li135  1  0.43261672  0.75635015  0.89156336  1
  Li  Li136  1  0.84817459  0.24190620  0.31136173  1
  Li  Li137  1  0.15182541  0.75809380  0.31136173  1
  Li  Li138  1  0.65182541  0.74190620  0.18863827  1
  Li  Li139  1  0.34817459  0.25809380  0.18863827  1
  Li  Li140  1  0.15182541  0.75809380  0.68863827  1
  Li  Li141  1  0.84817459  0.24190620  0.68863827  1
  Li  Li142  1  0.34817459  0.25809380  0.81136173  1
  Li  Li143  1  0.65182541  0.74190620  0.81136173  1
