# generated using pymatgen
data_LiF
_symmetry_space_group_name_H-M   'P 1'
_cell_length_a   6.49201712
_cell_length_b   6.49201712
_cell_length_c   11.04496174
_cell_angle_alpha   90.00000000
_cell_angle_beta   90.00000000
_cell_angle_gamma   90.00000000
_symmetry_Int_Tables_number   1
_chemical_formula_structural   LiF
_chemical_formula_sum   'Li21 F21'
_cell_volume   465.50411956
_cell_formula_units_Z   21
loop_
 _symmetry_equiv_pos_site_id
 _symmetry_equiv_pos_as_xyz
  1  'x, y, z'
loop_
 _atom_site_type_symbol
 _atom_site_label
 _atom_site_symmetry_multiplicity
 _atom_site_fract_x
 _atom_site_fract_y
 _atom_site_fract_z
 _atom_site_occupancy
  F  F0  1  0.05779571  0.13613397  0.78350476  1
  F  F1  1  -0.05779571  -0.13613397  0.78350476  1
  F  F2  1  -0.13613397  0.05779571  0.78350476  1
  F  F3  1  0.13613397  -0.05779571  0.78350476  1
  F  F4  1  -0.05779571  0.13613397  -0.78350476  1
  F  F5  1  0.05779571  -0.13613397  -0.78350476  1
  F  F6  1  0.13613397  0.05779571  -0.78350476  1
  F  F7  1  -0.13613397  -0.05779571  -0.78350476  1
  F  F8  1  -0.05779571  -0.13613397  -0.78350476  1
  F  F9  1  0.05779571  0.13613397  -0.78350476  1
  F  F10  1  0.13613397  -0.05779571  -0.78350476  1
  F  F11  1  -0.13613397  0.05779571  -0.78350476  1
  F  F12  1  0.05779571  -0.13613397  0.78350476  1
  F  F13  1  -0.05779571  0.13613397  0.78350476  1
  F  F14  1  -0.13613397  -0.05779571  0.78350476  1
  F  F15  1  0.13613397  0.05779571  0.78350476  1
  F  F16  1  0.50000000  0.50000000  0.50000000  1
  F  F17  1  0.85824560  0.50000000  -0.00000000  1
  F  F18  1  0.14175440  0.50000000  -0.00000000  1
  F  F19  1  0.50000000  0.85824560  -0.00000000  1
  F  F20  1  0.50000000  0.14175440  -0.00000000  1
  Li  Li21  1  0.25869205  0.50000000  0.16011168  1
  Li  Li22  1  0.74130795  0.50000000  0.16011168  1
  Li  Li23  1  0.50000000  0.25869205  0.16011168  1
  Li  Li24  1  0.50000000  0.74130795  0.16011168  1
  Li  Li25  1  0.74130795  0.50000000  0.83988832  1
  Li  Li26  1  0.25869205  0.50000000  0.83988832  1
  Li  Li27  1  0.50000000  0.25869205  0.83988832  1
  Li  Li28  1  0.50000000  0.74130795  0.83988832  1
  Li  Li29  1  0.66936304  0.50000000  0.00000000  1
  Li  Li30  1  0.33063696  0.50000000  -0.00000000  1
  Li  Li31  1  0.50000000  0.66936304  0.00000000  1
  Li  Li32  1  0.50000000  0.33063696  -0.00000000  1
  Li  Li33  1  0.00000000  0.00000000  0.50000000  1
  Li  Li34  1  0.00000000  0.00000000  0.78231032  1
  Li  Li35  1  0.00000000  0.00000000  0.21768968  1
  Li  Li36  1  0.66788933  0.66788933  0.50000000  1
  Li  Li37  1  0.33211067  0.33211067  0.50000000  1
  Li  Li38  1  0.33211067  0.66788933  0.50000000  1
  Li  Li39  1  0.66788933  0.33211067  0.50000000  1
  Li  Li40  1  0.00000000  0.00000000  0.08127308  1
  Li  Li41  1  0.00000000  0.00000000  0.91872692  1
