# generated using pymatgen
data_LiF
_symmetry_space_group_name_H-M   'P 1'
_cell_length_a   18.85458667
_cell_length_b   10.40585876
_cell_length_c   3.55101476
_cell_angle_alpha   90.00000000
_cell_angle_beta   90.00000000
_cell_angle_gamma   90.00000000
_symmetry_Int_Tables_number   1
_chemical_formula_structural   LiF
_chemical_formula_sum   'Li24 F24'
_cell_volume   696.70258378
_cell_formula_units_Z   24
loop_
 _symmetry_equiv_pos_site_id
 _symmetry_equiv_pos_as_xyz
  1  'x, y, z'
loop_
 _atom_site_type_symbol
 _atom_site_label
 _atom_site_symmetry_multiplicity
 _atom_site_fract_x
 _atom_site_fract_y
 _atom_site_fract_z
 _atom_site_occupancy
  F  F0  1  0.78785409  0.33866012  0.72441228  1
  F  F1  1  0.71214591  0.66133988  0.22441228  1
  F  F2  1  0.21214591  0.83866012  0.27558772  1
  F  F3  1  0.28785409  0.16133988  0.77558772  1
  F  F4  1  0.21214591  0.66133988  0.27558772  1
  F  F5  1  0.28785409  0.33866012  0.77558772  1
  F  F6  1  0.78785409  0.16133988  0.72441228  1
  F  F7  1  0.71214591  0.83866012  0.22441228  1
  F  F8  1  0.80572983  0.95926289  0.03608709  1
  F  F9  1  0.69427017  0.04073711  0.53608709  1
  F  F10  1  0.19427017  0.45926289  0.96391291  1
  F  F11  1  0.30572983  0.54073711  0.46391291  1
  F  F12  1  0.19427017  0.04073711  0.96391291  1
  F  F13  1  0.30572983  0.95926289  0.46391291  1
  F  F14  1  0.80572983  0.54073711  0.03608709  1
  F  F15  1  0.69427017  0.45926289  0.53608709  1
  F  F16  1  0.26621000  0.34609447  0.08253983  1
  F  F17  1  0.23379000  0.65390553  0.58253983  1
  F  F18  1  0.73379000  0.84609447  0.91746017  1
  F  F19  1  0.76621000  0.15390553  0.41746017  1
  F  F20  1  0.73379000  0.65390553  0.91746017  1
  F  F21  1  0.76621000  0.34609447  0.41746017  1
  F  F22  1  0.26621000  0.15390553  0.08253983  1
  F  F23  1  0.23379000  0.84609447  0.58253983  1
  Li  Li24  1  0.93436613  0.01369486  0.34360388  1
  Li  Li25  1  -0.43436613  -0.01369486  0.84360388  1
  Li  Li26  1  -0.93436613  0.51369486  -0.34360388  1
  Li  Li27  1  1.43436613  0.48630514  0.15639612  1
  Li  Li28  1  -0.93436613  -0.01369486  -0.34360388  1
  Li  Li29  1  1.43436613  0.01369486  0.15639612  1
  Li  Li30  1  0.93436613  0.48630514  0.34360388  1
  Li  Li31  1  -0.43436613  0.51369486  0.84360388  1
  Li  Li32  1  0.10043952  0.33759763  0.52250273  1
  Li  Li33  1  0.39956048  0.66240237  0.02250273  1
  Li  Li34  1  0.89956048  0.83759763  0.47749727  1
  Li  Li35  1  0.60043952  0.16240237  0.97749727  1
  Li  Li36  1  0.89956048  0.66240237  0.47749727  1
  Li  Li37  1  0.60043952  0.33759763  0.97749727  1
  Li  Li38  1  0.10043952  0.16240237  0.52250273  1
  Li  Li39  1  0.39956048  0.83759763  0.02250273  1
  Li  Li40  1  0.22763014  0.25000000  0.43378022  1
  Li  Li41  1  0.27236986  0.75000000  0.93378022  1
  Li  Li42  1  0.77236986  0.75000000  0.56621978  1
  Li  Li43  1  0.72763014  0.25000000  0.06621978  1
  Li  Li44  1  0.45912804  0.25000000  0.23236121  1
  Li  Li45  1  0.04087196  0.75000000  0.73236121  1
  Li  Li46  1  0.54087196  0.75000000  0.76763879  1
  Li  Li47  1  0.95912804  0.25000000  0.26763879  1
