# generated using pymatgen
data_Li2MoP2Se
_symmetry_space_group_name_H-M   'P 1'
_cell_length_a   6.03070561
_cell_length_b   6.40310781
_cell_length_c   7.36485659
_cell_angle_alpha   92.38236817
_cell_angle_beta   95.33290743
_cell_angle_gamma   99.68682886
_symmetry_Int_Tables_number   1
_chemical_formula_structural   Li2MoP2Se
_chemical_formula_sum   'Li2 Mo1 P2 Se1'
_cell_volume   278.65296305
_cell_formula_units_Z   1
loop_
 _symmetry_equiv_pos_site_id
 _symmetry_equiv_pos_as_xyz
  1  'x, y, z'
loop_
 _atom_site_type_symbol
 _atom_site_label
 _atom_site_symmetry_multiplicity
 _atom_site_fract_x
 _atom_site_fract_y
 _atom_site_fract_z
 _atom_site_occupancy
  P  P0  1  0.00000000  0.00000000  0.00000000  1
  P  P1  1  0.50000000  0.50000000  0.50000000  1
  Mo  Mo2  1  0.50000000  0.50000000  0.00000000  1
  Se  Se3  1  0.50000000  0.00000000  0.50000000  1
  Li  Li4  1  0.00000000  0.50000000  0.50000000  1
  Li  Li5  1  0.19341699  0.68162535  0.27735054  1
