# generated using pymatgen
data_LiF
_symmetry_space_group_name_H-M   'P 1'
_cell_length_a   7.92155229
_cell_length_b   7.92155229
_cell_length_c   16.43211870
_cell_angle_alpha   90.00000000
_cell_angle_beta   90.00000000
_cell_angle_gamma   120.00000000
_symmetry_Int_Tables_number   1
_chemical_formula_structural   LiF
_chemical_formula_sum   'Li25 F25'
_cell_volume   892.98626970
_cell_formula_units_Z   25
loop_
 _symmetry_equiv_pos_site_id
 _symmetry_equiv_pos_as_xyz
  1  'x, y, z'
loop_
 _atom_site_type_symbol
 _atom_site_label
 _atom_site_symmetry_multiplicity
 _atom_site_fract_x
 _atom_site_fract_y
 _atom_site_fract_z
 _atom_site_occupancy
  F  F0  1  0.19746479  0.80253521  0.50000000  1
  F  F1  1  0.19746479  0.39492958  0.50000000  1
  F  F2  1  0.60507042  0.80253521  0.50000000  1
  F  F3  1  0.00000000  0.00000000  0.50000000  1
  F  F4  1  0.33333333  0.66666667  0.54589093  1
  F  F5  1  0.33333333  0.66666667  0.45410907  1
  F  F6  1  0.21411815  0.46798397  0.11614501  1
  F  F7  1  0.53201603  0.74613418  0.11614501  1
  F  F8  1  0.25386582  0.78588185  0.11614501  1
  F  F9  1  0.53201603  0.78588185  0.88385499  1
  F  F10  1  0.25386582  0.46798397  0.88385499  1
  F  F11  1  0.21411815  0.74613418  0.88385499  1
  F  F12  1  0.82489239  0.54865215  0.93806111  1
  F  F13  1  0.45134785  0.27624024  0.93806111  1
  F  F14  1  0.72375976  0.17510761  0.93806111  1
  F  F15  1  0.45134785  0.17510761  0.06193889  1
  F  F16  1  0.72375976  0.54865215  0.06193889  1
  F  F17  1  0.82489239  0.27624024  0.06193889  1
  F  F18  1  0.00000000  0.00000000  0.00000000  1
  F  F19  1  0.43109473  0.56890527  0.00000000  1
  F  F20  1  0.43109473  0.86218945  -0.00000000  1
  F  F21  1  0.13781055  0.56890527  0.00000000  1
  F  F22  1  0.83068666  0.16931334  0.00000000  1
  F  F23  1  0.83068666  0.66137333  0.00000000  1
  F  F24  1  0.33862667  0.16931334  0.00000000  1
  Li  Li25  1  0.72187687  0.27812313  0.00000000  1
  Li  Li26  1  0.72187687  0.44375373  0.00000000  1
  Li  Li27  1  0.55624627  0.27812313  -0.00000000  1
  Li  Li28  1  0.33333333  0.66666667  0.00000000  1
  Li  Li29  1  0.00655146  0.31055121  0.13672197  1
  Li  Li30  1  -0.31055121  -0.30399976  0.13672197  1
  Li  Li31  1  0.30399976  -0.00655146  0.13672197  1
  Li  Li32  1  -0.31055121  -0.00655146  -0.13672197  1
  Li  Li33  1  0.30399976  0.31055121  -0.13672197  1
  Li  Li34  1  0.00655146  -0.30399976  -0.13672197  1
  Li  Li35  1  0.66666667  0.33333333  0.50000000  1
  Li  Li36  1  0.16077060  0.93124692  0.43485160  1
  Li  Li37  1  0.06875308  0.22952369  0.43485160  1
  Li  Li38  1  0.77047631  0.83922940  0.43485160  1
  Li  Li39  1  0.06875308  0.83922940  0.56514840  1
  Li  Li40  1  0.77047631  0.93124692  0.56514840  1
  Li  Li41  1  0.16077060  0.22952369  0.56514840  1
  Li  Li42  1  0.70585941  0.11785120  0.69442905  1
  Li  Li43  1  0.88214880  0.58800822  0.69442905  1
  Li  Li44  1  0.41199178  0.29414059  0.69442905  1
  Li  Li45  1  0.88214880  0.29414059  0.30557095  1
  Li  Li46  1  0.41199178  0.11785120  0.30557095  1
  Li  Li47  1  0.70585941  0.58800822  0.30557095  1
  Li  Li48  1  0.66666667  0.33333333  0.15635386  1
  Li  Li49  1  0.66666667  0.33333333  0.84364614  1
