# generated using pymatgen
data_Li2Y2P3Se
_symmetry_space_group_name_H-M   'P 1'
_cell_length_a   4.56653664
_cell_length_b   4.77176439
_cell_length_c   6.62736663
_cell_angle_alpha   95.04848628
_cell_angle_beta   100.12623238
_cell_angle_gamma   108.87626260
_symmetry_Int_Tables_number   1
_chemical_formula_structural   Li2Y2P3Se
_chemical_formula_sum   'Li2 Y2 P3 Se1'
_cell_volume   132.88093512
_cell_formula_units_Z   1
loop_
 _symmetry_equiv_pos_site_id
 _symmetry_equiv_pos_as_xyz
  1  'x, y, z'
loop_
 _atom_site_type_symbol
 _atom_site_label
 _atom_site_symmetry_multiplicity
 _atom_site_fract_x
 _atom_site_fract_y
 _atom_site_fract_z
 _atom_site_occupancy
  P  P0  1  0.12500000  0.12500000  0.12500000  1
  P  P1  1  0.50000000  0.50000000  0.50000000  1
  P  P2  1  0.25000000  0.25000000  0.25000000  1
  Se  Se3  1  0.75000000  0.75000000  0.75000000  1
  Li  Li4  1  0.16230733  0.79181261  0.36855897  1
  Li  Li5  1  0.81514232  0.68421236  0.50359964  1
  Y  Y6  1  0.50339168  0.64638770  0.90753460  1
  Y  Y7  1  0.40219583  0.16420519  0.08341914  1
