# generated using pymatgen
data_Li12Al2O9
_symmetry_space_group_name_H-M   'P 1'
_cell_length_a   14.33257749
_cell_length_b   14.33257749
_cell_length_c   14.33257749
_cell_angle_alpha   90.00000000
_cell_angle_beta   90.00000000
_cell_angle_gamma   90.00000000
_symmetry_Int_Tables_number   1
_chemical_formula_structural   Li12Al2O9
_chemical_formula_sum   'Li96 Al16 O72'
_cell_volume   2944.23787783
_cell_formula_units_Z   8
loop_
 _symmetry_equiv_pos_site_id
 _symmetry_equiv_pos_as_xyz
  1  'x, y, z'
loop_
 _atom_site_type_symbol
 _atom_site_label
 _atom_site_symmetry_multiplicity
 _atom_site_fract_x
 _atom_site_fract_y
 _atom_site_fract_z
 _atom_site_occupancy
  Al  Al0  1  0.91117181  0.91117181  0.91117181  1
  Al  Al1  1  0.08882819  0.08882819  0.91117181  1
  Al  Al2  1  0.08882819  0.91117181  0.08882819  1
  Al  Al3  1  0.91117181  0.08882819  0.08882819  1
  Al  Al4  1  0.91117181  0.41117181  0.41117181  1
  Al  Al5  1  0.08882819  0.58882819  0.41117181  1
  Al  Al6  1  0.08882819  0.41117181  0.58882819  1
  Al  Al7  1  0.91117181  0.58882819  0.58882819  1
  Al  Al8  1  0.41117181  0.91117181  0.41117181  1
  Al  Al9  1  0.58882819  0.08882819  0.41117181  1
  Al  Al10  1  0.58882819  0.91117181  0.58882819  1
  Al  Al11  1  0.41117181  0.08882819  0.58882819  1
  Al  Al12  1  0.41117181  0.41117181  0.91117181  1
  Al  Al13  1  0.58882819  0.58882819  0.91117181  1
  Al  Al14  1  0.58882819  0.41117181  0.08882819  1
  Al  Al15  1  0.41117181  0.58882819  0.08882819  1
  Li  Li16  1  0.31693380  0.31693380  0.60283990  1
  Li  Li17  1  0.68306620  0.68306620  0.60283990  1
  Li  Li18  1  0.68306620  0.31693380  0.39716010  1
  Li  Li19  1  0.31693380  0.68306620  0.39716010  1
  Li  Li20  1  0.60283990  0.31693380  0.31693380  1
  Li  Li21  1  0.60283990  0.68306620  0.68306620  1
  Li  Li22  1  0.39716010  0.68306620  0.31693380  1
  Li  Li23  1  0.39716010  0.31693380  0.68306620  1
  Li  Li24  1  0.31693380  0.60283990  0.31693380  1
  Li  Li25  1  0.68306620  0.60283990  0.68306620  1
  Li  Li26  1  0.31693380  0.39716010  0.68306620  1
  Li  Li27  1  0.68306620  0.39716010  0.31693380  1
  Li  Li28  1  0.31693380  0.81693380  0.10283990  1
  Li  Li29  1  0.68306620  0.18306620  0.10283990  1
  Li  Li30  1  0.68306620  0.81693380  0.89716010  1
  Li  Li31  1  0.31693380  0.18306620  0.89716010  1
  Li  Li32  1  0.60283990  0.81693380  0.81693380  1
  Li  Li33  1  0.60283990  0.18306620  0.18306620  1
  Li  Li34  1  0.39716010  0.18306620  0.81693380  1
  Li  Li35  1  0.39716010  0.81693380  0.18306620  1
  Li  Li36  1  0.31693380  0.10283990  0.81693380  1
  Li  Li37  1  0.68306620  0.10283990  0.18306620  1
  Li  Li38  1  0.31693380  0.89716010  0.18306620  1
  Li  Li39  1  0.68306620  0.89716010  0.81693380  1
  Li  Li40  1  0.81693380  0.31693380  0.10283990  1
  Li  Li41  1  0.18306620  0.68306620  0.10283990  1
  Li  Li42  1  0.18306620  0.31693380  0.89716010  1
  Li  Li43  1  0.81693380  0.68306620  0.89716010  1
  Li  Li44  1  0.10283990  0.31693380  0.81693380  1
  Li  Li45  1  0.10283990  0.68306620  0.18306620  1
  Li  Li46  1  0.89716010  0.68306620  0.81693380  1
  Li  Li47  1  0.89716010  0.31693380  0.18306620  1
  Li  Li48  1  0.81693380  0.60283990  0.81693380  1
  Li  Li49  1  0.18306620  0.60283990  0.18306620  1
  Li  Li50  1  0.81693380  0.39716010  0.18306620  1
  Li  Li51  1  0.18306620  0.39716010  0.81693380  1
  Li  Li52  1  0.81693380  0.81693380  0.60283990  1
  Li  Li53  1  0.18306620  0.18306620  0.60283990  1
  Li  Li54  1  0.18306620  0.81693380  0.39716010  1
  Li  Li55  1  0.81693380  0.18306620  0.39716010  1
  Li  Li56  1  0.10283990  0.81693380  0.31693380  1
  Li  Li57  1  0.10283990  0.18306620  0.68306620  1
  Li  Li58  1  0.89716010  0.18306620  0.31693380  1
  Li  Li59  1  0.89716010  0.81693380  0.68306620  1
  Li  Li60  1  0.81693380  0.10283990  0.31693380  1
  Li  Li61  1  0.18306620  0.10283990  0.68306620  1
  Li  Li62  1  0.81693380  0.89716010  0.68306620  1
  Li  Li63  1  0.18306620  0.89716010  0.31693380  1
  Li  Li64  1  0.69301606  0.69301606  0.49835161  1
  Li  Li65  1  0.30698394  0.30698394  0.49835161  1
  Li  Li66  1  0.30698394  0.69301606  0.50164839  1
  Li  Li67  1  0.69301606  0.30698394  0.50164839  1
  Li  Li68  1  0.49835161  0.69301606  0.69301606  1
  Li  Li69  1  0.49835161  0.30698394  0.30698394  1
  Li  Li70  1  0.50164839  0.30698394  0.69301606  1
  Li  Li71  1  0.50164839  0.69301606  0.30698394  1
  Li  Li72  1  0.69301606  0.49835161  0.69301606  1
  Li  Li73  1  0.30698394  0.49835161  0.30698394  1
  Li  Li74  1  0.69301606  0.50164839  0.30698394  1
  Li  Li75  1  0.30698394  0.50164839  0.69301606  1
  Li  Li76  1  0.69301606  0.19301606  0.99835161  1
  Li  Li77  1  0.30698394  0.80698394  0.99835161  1
  Li  Li78  1  0.30698394  0.19301606  0.00164839  1
  Li  Li79  1  0.69301606  0.80698394  0.00164839  1
  Li  Li80  1  0.49835161  0.19301606  0.19301606  1
  Li  Li81  1  0.49835161  0.80698394  0.80698394  1
  Li  Li82  1  0.50164839  0.80698394  0.19301606  1
  Li  Li83  1  0.50164839  0.19301606  0.80698394  1
  Li  Li84  1  0.69301606  0.99835161  0.19301606  1
  Li  Li85  1  0.30698394  0.99835161  0.80698394  1
  Li  Li86  1  0.69301606  0.00164839  0.80698394  1
  Li  Li87  1  0.30698394  0.00164839  0.19301606  1
  Li  Li88  1  0.19301606  0.69301606  0.99835161  1
  Li  Li89  1  0.80698394  0.30698394  0.99835161  1
  Li  Li90  1  0.80698394  0.69301606  0.00164839  1
  Li  Li91  1  0.19301606  0.30698394  0.00164839  1
  Li  Li92  1  0.99835161  0.69301606  0.19301606  1
  Li  Li93  1  0.99835161  0.30698394  0.80698394  1
  Li  Li94  1  0.00164839  0.30698394  0.19301606  1
  Li  Li95  1  0.00164839  0.69301606  0.80698394  1
  Li  Li96  1  0.19301606  0.49835161  0.19301606  1
  Li  Li97  1  0.80698394  0.49835161  0.80698394  1
  Li  Li98  1  0.19301606  0.50164839  0.80698394  1
  Li  Li99  1  0.80698394  0.50164839  0.19301606  1
  Li  Li100  1  0.19301606  0.19301606  0.49835161  1
  Li  Li101  1  0.80698394  0.80698394  0.49835161  1
  Li  Li102  1  0.80698394  0.19301606  0.50164839  1
  Li  Li103  1  0.19301606  0.80698394  0.50164839  1
  Li  Li104  1  0.99835161  0.19301606  0.69301606  1
  Li  Li105  1  0.99835161  0.80698394  0.30698394  1
  Li  Li106  1  0.00164839  0.80698394  0.69301606  1
  Li  Li107  1  0.00164839  0.19301606  0.30698394  1
  Li  Li108  1  0.19301606  0.99835161  0.69301606  1
  Li  Li109  1  0.80698394  0.99835161  0.30698394  1
  Li  Li110  1  0.19301606  0.00164839  0.30698394  1
  Li  Li111  1  0.80698394  0.00164839  0.69301606  1
  O  O112  1  0.83412492  0.83412492  0.41219066  1
  O  O113  1  -0.83412492  -0.83412492  0.41219066  1
  O  O114  1  -0.83412492  0.83412492  -0.41219066  1
  O  O115  1  0.83412492  -0.83412492  -0.41219066  1
  O  O116  1  0.41219066  0.83412492  0.83412492  1
  O  O117  1  0.41219066  -0.83412492  -0.83412492  1
  O  O118  1  -0.41219066  -0.83412492  0.83412492  1
  O  O119  1  -0.41219066  0.83412492  -0.83412492  1
  O  O120  1  0.83412492  0.41219066  0.83412492  1
  O  O121  1  -0.83412492  0.41219066  -0.83412492  1
  O  O122  1  0.83412492  -0.41219066  -0.83412492  1
  O  O123  1  -0.83412492  -0.41219066  0.83412492  1
  O  O124  1  0.83412492  1.33412492  0.91219066  1
  O  O125  1  -0.83412492  -0.33412492  0.91219066  1
  O  O126  1  -0.83412492  1.33412492  0.08780934  1
  O  O127  1  0.83412492  -0.33412492  0.08780934  1
  O  O128  1  0.41219066  1.33412492  1.33412492  1
  O  O129  1  0.41219066  -0.33412492  -0.33412492  1
  O  O130  1  -0.41219066  -0.33412492  1.33412492  1
  O  O131  1  -0.41219066  1.33412492  -0.33412492  1
  O  O132  1  0.83412492  0.91219066  1.33412492  1
  O  O133  1  -0.83412492  0.91219066  -0.33412492  1
  O  O134  1  0.83412492  0.08780934  -0.33412492  1
  O  O135  1  -0.83412492  0.08780934  1.33412492  1
  O  O136  1  1.33412492  0.83412492  0.91219066  1
  O  O137  1  -0.33412492  -0.83412492  0.91219066  1
  O  O138  1  -0.33412492  0.83412492  0.08780934  1
  O  O139  1  1.33412492  -0.83412492  0.08780934  1
  O  O140  1  0.91219066  0.83412492  1.33412492  1
  O  O141  1  0.91219066  -0.83412492  -0.33412492  1
  O  O142  1  0.08780934  -0.83412492  1.33412492  1
  O  O143  1  0.08780934  0.83412492  -0.33412492  1
  O  O144  1  1.33412492  0.41219066  1.33412492  1
  O  O145  1  -0.33412492  0.41219066  -0.33412492  1
  O  O146  1  1.33412492  -0.41219066  -0.33412492  1
  O  O147  1  -0.33412492  -0.41219066  1.33412492  1
  O  O148  1  1.33412492  1.33412492  0.41219066  1
  O  O149  1  -0.33412492  -0.33412492  0.41219066  1
  O  O150  1  -0.33412492  1.33412492  -0.41219066  1
  O  O151  1  1.33412492  -0.33412492  -0.41219066  1
  O  O152  1  0.91219066  1.33412492  0.83412492  1
  O  O153  1  0.91219066  -0.33412492  -0.83412492  1
  O  O154  1  0.08780934  -0.33412492  0.83412492  1
  O  O155  1  0.08780934  1.33412492  -0.83412492  1
  O  O156  1  1.33412492  0.91219066  0.83412492  1
  O  O157  1  -0.33412492  0.91219066  -0.83412492  1
  O  O158  1  1.33412492  0.08780934  -0.83412492  1
  O  O159  1  -0.33412492  0.08780934  0.83412492  1
  O  O160  1  0.21903539  0.00000000  0.00000000  1
  O  O161  1  0.78096461  0.00000000  0.00000000  1
  O  O162  1  0.00000000  0.21903539  0.00000000  1
  O  O163  1  0.00000000  0.78096461  0.00000000  1
  O  O164  1  0.00000000  0.00000000  0.21903539  1
  O  O165  1  0.00000000  0.00000000  0.78096461  1
  O  O166  1  0.21903539  0.50000000  0.50000000  1
  O  O167  1  0.78096461  0.50000000  0.50000000  1
  O  O168  1  0.00000000  0.71903539  0.50000000  1
  O  O169  1  0.00000000  0.28096461  0.50000000  1
  O  O170  1  0.00000000  0.50000000  0.71903539  1
  O  O171  1  0.00000000  0.50000000  0.28096461  1
  O  O172  1  0.71903539  0.00000000  0.50000000  1
  O  O173  1  0.28096461  0.00000000  0.50000000  1
  O  O174  1  0.50000000  0.21903539  0.50000000  1
  O  O175  1  0.50000000  0.78096461  0.50000000  1
  O  O176  1  0.50000000  0.00000000  0.71903539  1
  O  O177  1  0.50000000  0.00000000  0.28096461  1
  O  O178  1  0.71903539  0.50000000  0.00000000  1
  O  O179  1  0.28096461  0.50000000  0.00000000  1
  O  O180  1  0.50000000  0.71903539  0.00000000  1
  O  O181  1  0.50000000  0.28096461  0.00000000  1
  O  O182  1  0.50000000  0.50000000  0.21903539  1
  O  O183  1  0.50000000  0.50000000  0.78096461  1
