# generated using pymatgen
data_LiF
_symmetry_space_group_name_H-M   'P 1'
_cell_length_a   9.19671357
_cell_length_b   8.29886476
_cell_length_c   9.30504573
_cell_angle_alpha   90.00000000
_cell_angle_beta   90.00000000
_cell_angle_gamma   90.00000000
_symmetry_Int_Tables_number   1
_chemical_formula_structural   LiF
_chemical_formula_sum   'Li30 F30'
_cell_volume   710.18232556
_cell_formula_units_Z   30
loop_
 _symmetry_equiv_pos_site_id
 _symmetry_equiv_pos_as_xyz
  1  'x, y, z'
loop_
 _atom_site_type_symbol
 _atom_site_label
 _atom_site_symmetry_multiplicity
 _atom_site_fract_x
 _atom_site_fract_y
 _atom_site_fract_z
 _atom_site_occupancy
  F  F0  1  0.49187210  0.55838984  0.93132906  1
  F  F1  1  0.50812790  0.44161016  0.93132906  1
  F  F2  1  0.00812790  0.05838984  0.06867094  1
  F  F3  1  0.99187210  0.94161016  0.06867094  1
  F  F4  1  0.50812790  0.44161016  0.06867094  1
  F  F5  1  0.49187210  0.55838984  0.06867094  1
  F  F6  1  0.99187210  0.94161016  0.93132906  1
  F  F7  1  0.00812790  0.05838984  0.93132906  1
  F  F8  1  0.00660734  0.83341066  0.63173084  1
  F  F9  1  0.99339266  0.16658934  0.63173084  1
  F  F10  1  0.49339266  0.33341066  0.36826916  1
  F  F11  1  0.50660734  0.66658934  0.36826916  1
  F  F12  1  0.99339266  0.16658934  0.36826916  1
  F  F13  1  0.00660734  0.83341066  0.36826916  1
  F  F14  1  0.50660734  0.66658934  0.63173084  1
  F  F15  1  0.49339266  0.33341066  0.63173084  1
  F  F16  1  0.33389949  0.22518307  0.33680113  1
  F  F17  1  0.66610051  0.77481693  0.33680113  1
  F  F18  1  0.16610051  0.72518307  0.66319887  1
  F  F19  1  0.83389949  0.27481693  0.66319887  1
  F  F20  1  0.66610051  0.77481693  0.66319887  1
  F  F21  1  0.33389949  0.22518307  0.66319887  1
  F  F22  1  0.83389949  0.27481693  0.33680113  1
  F  F23  1  0.16610051  0.72518307  0.33680113  1
  F  F24  1  0.00000000  0.50000000  0.00000000  1
  F  F25  1  0.50000000  0.00000000  0.00000000  1
  F  F26  1  0.09334612  0.28105687  0.50000000  1
  F  F27  1  0.90665388  0.71894313  0.50000000  1
  F  F28  1  0.40665388  0.78105687  0.50000000  1
  F  F29  1  0.59334612  0.21894313  0.50000000  1
  Li  Li30  1  0.00000000  0.00000000  0.27451059  1
  Li  Li31  1  0.50000000  0.50000000  0.72548941  1
  Li  Li32  1  0.00000000  0.00000000  0.72548941  1
  Li  Li33  1  0.50000000  0.50000000  0.27451059  1
  Li  Li34  1  0.00000000  0.00000000  0.50000000  1
  Li  Li35  1  0.50000000  0.50000000  0.50000000  1
  Li  Li36  1  0.47044810  0.09716565  0.33670908  1
  Li  Li37  1  -0.47044810  -0.09716565  0.33670908  1
  Li  Li38  1  0.02955190  0.59716565  -0.33670908  1
  Li  Li39  1  0.97044810  0.40283435  -0.33670908  1
  Li  Li40  1  -0.47044810  -0.09716565  -0.33670908  1
  Li  Li41  1  0.47044810  0.09716565  -0.33670908  1
  Li  Li42  1  0.97044810  0.40283435  0.33670908  1
  Li  Li43  1  0.02955190  0.59716565  0.33670908  1
  Li  Li44  1  0.00956378  0.84644280  0.14834485  1
  Li  Li45  1  0.99043622  0.15355720  0.14834485  1
  Li  Li46  1  0.49043622  0.34644280  0.85165515  1
  Li  Li47  1  0.50956378  0.65355720  0.85165515  1
  Li  Li48  1  0.99043622  0.15355720  0.85165515  1
  Li  Li49  1  0.00956378  0.84644280  0.85165515  1
  Li  Li50  1  0.50956378  0.65355720  0.14834485  1
  Li  Li51  1  0.49043622  0.34644280  0.14834485  1
  Li  Li52  1  0.83834859  0.80847974  0.18243920  1
  Li  Li53  1  0.16165141  0.19152026  0.18243920  1
  Li  Li54  1  0.66165141  0.30847974  0.81756080  1
  Li  Li55  1  0.33834859  0.69152026  0.81756080  1
  Li  Li56  1  0.16165141  0.19152026  0.81756080  1
  Li  Li57  1  0.83834859  0.80847974  0.81756080  1
  Li  Li58  1  0.33834859  0.69152026  0.18243920  1
  Li  Li59  1  0.66165141  0.30847974  0.18243920  1
