# generated using pymatgen
data_LiTi2P2N5
_symmetry_space_group_name_H-M   'P 1'
_cell_length_a   5.67428929
_cell_length_b   5.62169209
_cell_length_c   6.48209933
_cell_angle_alpha   94.35608763
_cell_angle_beta   90.12598448
_cell_angle_gamma   106.18815572
_symmetry_Int_Tables_number   1
_chemical_formula_structural   LiTi2P2N5
_chemical_formula_sum   'Li1 Ti2 P2 N5'
_cell_volume   197.94227169
_cell_formula_units_Z   1
loop_
 _symmetry_equiv_pos_site_id
 _symmetry_equiv_pos_as_xyz
  1  'x, y, z'
loop_
 _atom_site_type_symbol
 _atom_site_label
 _atom_site_symmetry_multiplicity
 _atom_site_fract_x
 _atom_site_fract_y
 _atom_site_fract_z
 _atom_site_occupancy
  N  N0  1  0.12500000  0.00000000  0.25000000  1
  N  N1  1  0.00000000  0.00000000  0.00000000  1
  N  N2  1  0.37500000  0.00000000  0.25000000  1
  N  N3  1  0.25000000  0.25000000  0.25000000  1
  N  N4  1  0.00000000  0.25000000  0.12500000  1
  P  P5  1  0.44796208  0.80012003  0.00482437  1
  P  P6  1  0.15137278  0.82461320  0.53812055  1
  Ti  Ti7  1  0.65371306  0.08827939  0.71205811  1
  Ti  Ti8  1  0.94198323  0.55381263  0.59530899  1
  Li  Li9  1  0.37236310  0.11798197  0.84210834  1
