# generated using pymatgen
data_LiF
_symmetry_space_group_name_H-M   'P 1'
_cell_length_a   6.42754225
_cell_length_b   6.42754225
_cell_length_c   14.27905263
_cell_angle_alpha   90.00000000
_cell_angle_beta   90.00000000
_cell_angle_gamma   120.00000000
_symmetry_Int_Tables_number   1
_chemical_formula_structural   LiF
_chemical_formula_sum   'Li19 F19'
_cell_volume   510.88118151
_cell_formula_units_Z   19
loop_
 _symmetry_equiv_pos_site_id
 _symmetry_equiv_pos_as_xyz
  1  'x, y, z'
loop_
 _atom_site_type_symbol
 _atom_site_label
 _atom_site_symmetry_multiplicity
 _atom_site_fract_x
 _atom_site_fract_y
 _atom_site_fract_z
 _atom_site_occupancy
  F  F0  1  0.45517780  0.89743672  0.24947267  1
  F  F1  1  0.10256328  0.55774108  0.24947267  1
  F  F2  1  0.44225892  0.54482220  0.24947267  1
  F  F3  1  0.10256328  0.54482220  0.75052733  1
  F  F4  1  0.44225892  0.89743672  0.75052733  1
  F  F5  1  0.45517780  0.55774108  0.75052733  1
  F  F6  1  0.74290414  0.57979080  0.69818748  1
  F  F7  1  0.42020920  0.16311334  0.69818748  1
  F  F8  1  0.83688666  0.25709586  0.69818748  1
  F  F9  1  0.42020920  0.25709586  0.30181252  1
  F  F10  1  0.83688666  0.57979080  0.30181252  1
  F  F11  1  0.74290414  0.16311334  0.30181252  1
  F  F12  1  0.55174959  0.95715204  0.26904613  1
  F  F13  1  0.04284796  0.59459755  0.26904613  1
  F  F14  1  0.40540245  0.44825041  0.26904613  1
  F  F15  1  0.04284796  0.44825041  0.73095387  1
  F  F16  1  0.40540245  0.95715204  0.73095387  1
  F  F17  1  0.55174959  0.59459755  0.73095387  1
  F  F18  1  0.00000000  0.00000000  0.50000000  1
  Li  Li19  1  0.57247915  0.41087588  0.07591364  1
  Li  Li20  1  -0.41087588  0.16160327  0.07591364  1
  Li  Li21  1  -0.16160327  -0.57247915  0.07591364  1
  Li  Li22  1  -0.41087588  -0.57247915  -0.07591364  1
  Li  Li23  1  -0.16160327  0.41087588  -0.07591364  1
  Li  Li24  1  0.57247915  0.16160327  -0.07591364  1
  Li  Li25  1  0.15010800  0.25259349  0.67873202  1
  Li  Li26  1  0.74740651  0.89751451  0.67873202  1
  Li  Li27  1  0.10248549  0.84989200  0.67873202  1
  Li  Li28  1  0.74740651  0.84989200  0.32126798  1
  Li  Li29  1  0.10248549  0.25259349  0.32126798  1
  Li  Li30  1  0.15010800  0.89751451  0.32126798  1
  Li  Li31  1  0.00000000  0.00000000  0.00000000  1
  Li  Li32  1  0.17054798  0.82945202  0.00000000  1
  Li  Li33  1  0.17054798  0.34109597  -0.00000000  1
  Li  Li34  1  0.65890403  0.82945202  -0.00000000  1
  Li  Li35  1  0.43674212  0.56325788  -0.00000000  1
  Li  Li36  1  0.43674212  0.87348423  -0.00000000  1
  Li  Li37  1  0.12651577  0.56325788  0.00000000  1
