# generated using pymatgen
data_LiF
_symmetry_space_group_name_H-M   'P 1'
_cell_length_a   8.87939974
_cell_length_b   12.39033984
_cell_length_c   5.96573219
_cell_angle_alpha   90.00000000
_cell_angle_beta   90.00000000
_cell_angle_gamma   90.00000000
_symmetry_Int_Tables_number   1
_chemical_formula_structural   LiF
_chemical_formula_sum   'Li24 F24'
_cell_volume   656.34257966
_cell_formula_units_Z   24
loop_
 _symmetry_equiv_pos_site_id
 _symmetry_equiv_pos_as_xyz
  1  'x, y, z'
loop_
 _atom_site_type_symbol
 _atom_site_label
 _atom_site_symmetry_multiplicity
 _atom_site_fract_x
 _atom_site_fract_y
 _atom_site_fract_z
 _atom_site_occupancy
  F  F0  1  0.61463988  0.49683045  0.95920048  1
  F  F1  1  0.88536012  0.50316955  0.45920048  1
  F  F2  1  0.38536012  0.99683045  0.04079952  1
  F  F3  1  0.11463988  0.00316955  0.54079952  1
  F  F4  1  0.38536012  0.50316955  0.04079952  1
  F  F5  1  0.11463988  0.49683045  0.54079952  1
  F  F6  1  0.61463988  0.00316955  0.95920048  1
  F  F7  1  0.88536012  0.99683045  0.45920048  1
  F  F8  1  0.01528372  0.02623472  0.78404602  1
  F  F9  1  0.48471628  0.97376528  0.28404602  1
  F  F10  1  0.98471628  0.52623472  0.21595398  1
  F  F11  1  0.51528372  0.47376528  0.71595398  1
  F  F12  1  0.98471628  0.97376528  0.21595398  1
  F  F13  1  0.51528372  0.02623472  0.71595398  1
  F  F14  1  0.01528372  0.47376528  0.78404602  1
  F  F15  1  0.48471628  0.52623472  0.28404602  1
  F  F16  1  0.80310583  0.69884729  0.81573172  1
  F  F17  1  0.69689417  0.30115271  0.31573172  1
  F  F18  1  0.19689417  0.19884729  0.18426828  1
  F  F19  1  0.30310583  0.80115271  0.68426828  1
  F  F20  1  0.19689417  0.30115271  0.18426828  1
  F  F21  1  0.30310583  0.69884729  0.68426828  1
  F  F22  1  0.80310583  0.80115271  0.81573172  1
  F  F23  1  0.69689417  0.19884729  0.31573172  1
  Li  Li24  1  0.00000000  0.00000000  0.50000000  1
  Li  Li25  1  0.50000000  0.00000000  0.00000000  1
  Li  Li26  1  0.00000000  0.50000000  0.50000000  1
  Li  Li27  1  0.50000000  0.50000000  0.00000000  1
  Li  Li28  1  0.00000000  0.00000000  0.00000000  1
  Li  Li29  1  0.50000000  0.00000000  0.50000000  1
  Li  Li30  1  0.00000000  0.50000000  0.00000000  1
  Li  Li31  1  0.50000000  0.50000000  0.50000000  1
  Li  Li32  1  0.59706771  0.88885802  0.63254841  1
  Li  Li33  1  -0.09706771  -0.88885802  1.13254841  1
  Li  Li34  1  -0.59706771  1.38885802  -0.63254841  1
  Li  Li35  1  1.09706771  -0.38885802  -0.13254841  1
  Li  Li36  1  -0.59706771  -0.88885802  -0.63254841  1
  Li  Li37  1  1.09706771  0.88885802  -0.13254841  1
  Li  Li38  1  0.59706771  -0.38885802  0.63254841  1
  Li  Li39  1  -0.09706771  1.38885802  1.13254841  1
  Li  Li40  1  0.10622402  0.07438216  0.07454113  1
  Li  Li41  1  0.39377598  0.92561784  0.57454113  1
  Li  Li42  1  0.89377598  0.57438216  0.92545887  1
  Li  Li43  1  0.60622402  0.42561784  0.42545887  1
  Li  Li44  1  0.89377598  0.92561784  0.92545887  1
  Li  Li45  1  0.60622402  0.07438216  0.42545887  1
  Li  Li46  1  0.10622402  0.42561784  0.07454113  1
  Li  Li47  1  0.39377598  0.57438216  0.57454113  1
