# generated using pymatgen
data_LiF
_symmetry_space_group_name_H-M   'P 1'
_cell_length_a   8.34897669
_cell_length_b   8.34897669
_cell_length_c   18.04120117
_cell_angle_alpha   90.00000000
_cell_angle_beta   90.00000000
_cell_angle_gamma   120.00000000
_symmetry_Int_Tables_number   1
_chemical_formula_structural   LiF
_chemical_formula_sum   'Li36 F36'
_cell_volume   1089.08701062
_cell_formula_units_Z   36
loop_
 _symmetry_equiv_pos_site_id
 _symmetry_equiv_pos_as_xyz
  1  'x, y, z'
loop_
 _atom_site_type_symbol
 _atom_site_label
 _atom_site_symmetry_multiplicity
 _atom_site_fract_x
 _atom_site_fract_y
 _atom_site_fract_z
 _atom_site_occupancy
  F  F0  1  0.48171842  0.33486750  0.27325348  1
  F  F1  1  -0.33486750  0.14685092  0.27325348  1
  F  F2  1  -0.14685092  -0.48171842  0.27325348  1
  F  F3  1  0.33486750  0.48171842  0.22674652  1
  F  F4  1  0.14685092  -0.33486750  0.22674652  1
  F  F5  1  -0.48171842  -0.14685092  0.22674652  1
  F  F6  1  -0.48171842  -0.33486750  -0.27325348  1
  F  F7  1  0.33486750  -0.14685092  -0.27325348  1
  F  F8  1  0.14685092  0.48171842  -0.27325348  1
  F  F9  1  -0.33486750  -0.48171842  0.77325348  1
  F  F10  1  -0.14685092  0.33486750  0.77325348  1
  F  F11  1  0.48171842  0.14685092  0.77325348  1
  F  F12  1  1.14838509  0.66820083  0.60658681  1
  F  F13  1  0.33179917  0.48018426  0.60658681  1
  F  F14  1  0.51981574  -0.14838509  0.60658681  1
  F  F15  1  1.00153416  0.81505175  0.56007985  1
  F  F16  1  0.81351759  -0.00153416  0.56007985  1
  F  F17  1  0.18494825  0.18648241  0.56007985  1
  F  F18  1  0.18494825  -0.00153416  0.06007985  1
  F  F19  1  1.00153416  0.18648241  0.06007985  1
  F  F20  1  0.81351759  0.81505175  0.06007985  1
  F  F21  1  0.33179917  -0.14838509  1.10658681  1
  F  F22  1  0.51981574  0.66820083  1.10658681  1
  F  F23  1  1.14838509  0.48018426  1.10658681  1
  F  F24  1  0.81505175  1.00153416  0.93992015  1
  F  F25  1  -0.00153416  0.81351759  0.93992015  1
  F  F26  1  0.18648241  0.18494825  0.93992015  1
  F  F27  1  0.66820083  1.14838509  0.89341319  1
  F  F28  1  0.48018426  0.33179917  0.89341319  1
  F  F29  1  -0.14838509  0.51981574  0.89341319  1
  F  F30  1  -0.14838509  0.33179917  0.39341319  1
  F  F31  1  0.66820083  0.51981574  0.39341319  1
  F  F32  1  0.48018426  1.14838509  0.39341319  1
  F  F33  1  -0.00153416  0.18494825  1.43992015  1
  F  F34  1  0.18648241  1.00153416  1.43992015  1
  F  F35  1  0.81505175  0.81351759  1.43992015  1
  Li  Li36  1  0.60446331  0.73594380  0.54158706  1
  Li  Li37  1  0.26405620  0.86851951  0.54158706  1
  Li  Li38  1  0.13148049  0.39553669  0.54158706  1
  Li  Li39  1  0.73594380  0.60446331  0.95841294  1
  Li  Li40  1  0.86851951  0.26405620  0.95841294  1
  Li  Li41  1  0.39553669  0.13148049  0.95841294  1
  Li  Li42  1  0.39553669  0.26405620  0.45841294  1
  Li  Li43  1  0.73594380  0.13148049  0.45841294  1
  Li  Li44  1  0.86851951  0.60446331  0.45841294  1
  Li  Li45  1  0.26405620  0.39553669  0.04158706  1
  Li  Li46  1  0.13148049  0.73594380  0.04158706  1
  Li  Li47  1  0.60446331  0.86851951  0.04158706  1
  Li  Li48  1  0.27112998  0.06927714  0.87492040  1
  Li  Li49  1  0.93072286  0.20185284  0.87492040  1
  Li  Li50  1  0.79814716  0.72887002  0.87492040  1
  Li  Li51  1  0.40261047  0.93779664  0.29174627  1
  Li  Li52  1  0.53518617  0.59738953  0.29174627  1
  Li  Li53  1  0.06220336  0.46481383  0.29174627  1
  Li  Li54  1  0.06220336  0.59738953  0.79174627  1
  Li  Li55  1  0.40261047  0.46481383  0.79174627  1
  Li  Li56  1  0.53518617  0.93779664  0.79174627  1
  Li  Li57  1  0.93072286  0.72887002  0.37492040  1
  Li  Li58  1  0.79814716  0.06927714  0.37492040  1
  Li  Li59  1  0.27112998  0.20185284  0.37492040  1
  Li  Li60  1  0.93779664  0.40261047  0.20825373  1
  Li  Li61  1  0.59738953  0.53518617  0.20825373  1
  Li  Li62  1  0.46481383  0.06220336  0.20825373  1
  Li  Li63  1  0.06927714  0.27112998  0.62507960  1
  Li  Li64  1  0.20185284  0.93072286  0.62507960  1
  Li  Li65  1  0.72887002  0.79814716  0.62507960  1
  Li  Li66  1  0.72887002  0.93072286  0.12507960  1
  Li  Li67  1  0.06927714  0.79814716  0.12507960  1
  Li  Li68  1  0.20185284  0.27112998  0.12507960  1
  Li  Li69  1  0.59738953  0.06220336  0.70825373  1
  Li  Li70  1  0.46481383  0.40261047  0.70825373  1
  Li  Li71  1  0.93779664  0.53518617  0.70825373  1
