# generated using pymatgen
data_LiF
_symmetry_space_group_name_H-M   'P 1'
_cell_length_a   7.46542274
_cell_length_b   7.46542274
_cell_length_c   7.46542274
_cell_angle_alpha   90.00000000
_cell_angle_beta   90.00000000
_cell_angle_gamma   90.00000000
_symmetry_Int_Tables_number   1
_chemical_formula_structural   LiF
_chemical_formula_sum   'Li16 F16'
_cell_volume   416.06694715
_cell_formula_units_Z   16
loop_
 _symmetry_equiv_pos_site_id
 _symmetry_equiv_pos_as_xyz
  1  'x, y, z'
loop_
 _atom_site_type_symbol
 _atom_site_label
 _atom_site_symmetry_multiplicity
 _atom_site_fract_x
 _atom_site_fract_y
 _atom_site_fract_z
 _atom_site_occupancy
  F  F0  1  0.24314094  0.24314094  0.24314094  1
  F  F1  1  0.25685906  -0.24314094  0.74314094  1
  F  F2  1  -0.24314094  0.74314094  0.25685906  1
  F  F3  1  0.74314094  0.25685906  -0.24314094  1
  F  F4  1  0.99314094  0.49314094  0.00685906  1
  F  F5  1  0.50685906  0.50685906  0.50685906  1
  F  F6  1  0.49314094  0.00685906  0.99314094  1
  F  F7  1  0.00685906  0.99314094  0.49314094  1
  F  F8  1  0.74314094  0.74314094  0.74314094  1
  F  F9  1  0.75685906  0.25685906  1.24314094  1
  F  F10  1  0.25685906  1.24314094  0.75685906  1
  F  F11  1  1.24314094  0.75685906  0.25685906  1
  F  F12  1  1.49314094  0.99314094  0.50685906  1
  F  F13  1  1.00685906  1.00685906  1.00685906  1
  F  F14  1  0.99314094  0.50685906  1.49314094  1
  F  F15  1  0.50685906  1.49314094  0.99314094  1
  Li  Li16  1  0.87500000  0.87500000  0.87500000  1
  Li  Li17  1  0.62500000  0.12500000  0.37500000  1
  Li  Li18  1  0.12500000  0.37500000  0.62500000  1
  Li  Li19  1  0.37500000  0.62500000  0.12500000  1
  Li  Li20  1  0.37500000  0.37500000  0.37500000  1
  Li  Li21  1  0.12500000  0.62500000  0.87500000  1
  Li  Li22  1  0.62500000  0.87500000  0.12500000  1
  Li  Li23  1  0.87500000  0.12500000  0.62500000  1
  Li  Li24  1  0.12500000  0.12500000  0.12500000  1
  Li  Li25  1  0.37500000  0.87500000  0.62500000  1
  Li  Li26  1  0.87500000  0.62500000  0.37500000  1
  Li  Li27  1  0.62500000  0.37500000  0.87500000  1
  Li  Li28  1  0.62500000  0.62500000  0.62500000  1
  Li  Li29  1  0.87500000  0.37500000  0.12500000  1
  Li  Li30  1  0.37500000  0.12500000  0.87500000  1
  Li  Li31  1  0.12500000  0.87500000  0.37500000  1
