# generated using pymatgen
data_Li2Y2MoP2Se
_symmetry_space_group_name_H-M   'P 1'
_cell_length_a   4.76393766
_cell_length_b   5.13325395
_cell_length_c   6.46245821
_cell_angle_alpha   93.34254459
_cell_angle_beta   97.74009405
_cell_angle_gamma   103.80100570
_symmetry_Int_Tables_number   1
_chemical_formula_structural   Li2Y2MoP2Se
_chemical_formula_sum   'Li2 Y2 Mo1 P2 Se1'
_cell_volume   151.40239523
_cell_formula_units_Z   1
loop_
 _symmetry_equiv_pos_site_id
 _symmetry_equiv_pos_as_xyz
  1  'x, y, z'
loop_
 _atom_site_type_symbol
 _atom_site_label
 _atom_site_symmetry_multiplicity
 _atom_site_fract_x
 _atom_site_fract_y
 _atom_site_fract_z
 _atom_site_occupancy
  Se  Se0  1  0.00000000  0.00000000  0.00000000  1
  P  P1  1  0.50000000  0.50000000  0.50000000  1
  P  P2  1  0.50000000  0.50000000  0.00000000  1
  Mo  Mo3  1  0.50000000  0.00000000  0.50000000  1
  Li  Li4  1  0.00000000  0.50000000  0.50000000  1
  Li  Li5  1  0.26937620  0.07462363  0.22360332  1
  Y  Y6  1  0.92281213  0.81554253  0.59261155  1
  Y  Y7  1  0.53358454  0.48964001  0.64642480  1
