# generated using pymatgen
data_Li2Y2As4P2Se
_symmetry_space_group_name_H-M   'P 1'
_cell_length_a   4.82307085
_cell_length_b   4.98806302
_cell_length_c   6.60564460
_cell_angle_alpha   94.43257666
_cell_angle_beta   99.02950790
_cell_angle_gamma   106.74806932
_symmetry_Int_Tables_number   1
_chemical_formula_structural   Li2Y2As4P2Se
_chemical_formula_sum   'Li2 Y2 As4 P2 Se1'
_cell_volume   149.02385108
_cell_formula_units_Z   1
loop_
 _symmetry_equiv_pos_site_id
 _symmetry_equiv_pos_as_xyz
  1  'x, y, z'
loop_
 _atom_site_type_symbol
 _atom_site_label
 _atom_site_symmetry_multiplicity
 _atom_site_fract_x
 _atom_site_fract_y
 _atom_site_fract_z
 _atom_site_occupancy
  Se  Se0  1  0.12500000  0.00000000  0.25000000  1
  Y  Y1  1  0.00000000  0.00000000  0.00000000  1
  Y  Y2  1  0.37500000  0.00000000  0.25000000  1
  P  P3  1  0.25000000  0.25000000  0.25000000  1
  P  P4  1  0.00000000  0.25000000  0.12500000  1
  As  As5  1  0.32903046  0.60805495  0.56428250  1
  As  As6  1  0.10304680  0.39688812  0.51762441  1
  As  As7  1  0.59875800  0.64120439  0.55999522  1
  As  As8  1  0.81601493  0.10317735  0.48265676  1
  Li  Li9  1  0.29317125  0.83064071  0.40274003  1
  Li  Li10  1  0.52674680  0.86836169  0.07443897  1
