# generated using pymatgen
data_LiF
_symmetry_space_group_name_H-M   'P 1'
_cell_length_a   15.61009702
_cell_length_b   15.61009702
_cell_length_c   4.54331068
_cell_angle_alpha   90.00000000
_cell_angle_beta   90.00000000
_cell_angle_gamma   90.00000000
_symmetry_Int_Tables_number   1
_chemical_formula_structural   LiF
_chemical_formula_sum   'Li64 F64'
_cell_volume   1107.09181629
_cell_formula_units_Z   64
loop_
 _symmetry_equiv_pos_site_id
 _symmetry_equiv_pos_as_xyz
  1  'x, y, z'
loop_
 _atom_site_type_symbol
 _atom_site_label
 _atom_site_symmetry_multiplicity
 _atom_site_fract_x
 _atom_site_fract_y
 _atom_site_fract_z
 _atom_site_occupancy
  F  F0  1  0.83266485  0.38866250  0.62649710  1
  F  F1  1  0.66733515  0.61133750  0.12649710  1
  F  F2  1  0.86133750  0.58266485  0.87649710  1
  F  F3  1  0.63866250  0.41733515  0.37649710  1
  F  F4  1  0.66733515  0.38866250  0.37350290  1
  F  F5  1  0.83266485  0.61133750  0.87350290  1
  F  F6  1  0.63866250  0.58266485  0.12350290  1
  F  F7  1  0.86133750  0.41733515  0.62350290  1
  F  F8  1  0.16733515  0.61133750  0.37350290  1
  F  F9  1  0.33266485  0.38866250  0.87350290  1
  F  F10  1  0.13866250  0.41733515  0.12350290  1
  F  F11  1  0.36133750  0.58266485  0.62350290  1
  F  F12  1  0.33266485  0.61133750  0.62649710  1
  F  F13  1  0.16733515  0.38866250  0.12649710  1
  F  F14  1  0.36133750  0.41733515  0.87649710  1
  F  F15  1  0.13866250  0.58266485  0.37649710  1
  F  F16  1  0.33266485  0.88866250  0.12649710  1
  F  F17  1  0.16733515  0.11133750  0.62649710  1
  F  F18  1  0.36133750  0.08266485  0.37649710  1
  F  F19  1  0.13866250  0.91733515  0.87649710  1
  F  F20  1  0.16733515  0.88866250  0.87350290  1
  F  F21  1  0.33266485  0.11133750  0.37350290  1
  F  F22  1  0.13866250  0.08266485  0.62350290  1
  F  F23  1  0.36133750  0.91733515  0.12350290  1
  F  F24  1  0.66733515  0.11133750  0.87350290  1
  F  F25  1  0.83266485  0.88866250  0.37350290  1
  F  F26  1  0.63866250  0.91733515  0.62350290  1
  F  F27  1  0.86133750  0.08266485  0.12350290  1
  F  F28  1  0.83266485  0.11133750  0.12649710  1
  F  F29  1  0.66733515  0.88866250  0.62649710  1
  F  F30  1  0.86133750  0.91733515  0.37649710  1
  F  F31  1  0.63866250  0.08266485  0.87649710  1
  F  F32  1  0.00000000  0.25000000  0.12500000  1
  F  F33  1  0.00000000  0.75000000  0.37500000  1
  F  F34  1  0.00000000  0.75000000  0.87500000  1
  F  F35  1  0.00000000  0.25000000  0.62500000  1
  F  F36  1  0.50000000  0.75000000  0.62500000  1
  F  F37  1  0.50000000  0.25000000  0.87500000  1
  F  F38  1  0.50000000  0.25000000  0.37500000  1
  F  F39  1  0.50000000  0.75000000  0.12500000  1
  F  F40  1  0.29104152  0.54104152  0.12500000  1
  F  F41  1  0.20895848  0.45895848  0.62500000  1
  F  F42  1  0.70895848  0.04104152  0.37500000  1
  F  F43  1  0.79104152  0.95895848  0.87500000  1
  F  F44  1  0.70895848  0.45895848  0.87500000  1
  F  F45  1  0.79104152  0.54104152  0.37500000  1
  F  F46  1  0.29104152  0.95895848  0.62500000  1
  F  F47  1  0.20895848  0.04104152  0.12500000  1
  F  F48  1  0.79104152  0.04104152  0.62500000  1
  F  F49  1  0.70895848  0.95895848  0.12500000  1
  F  F50  1  0.20895848  0.54104152  0.87500000  1
  F  F51  1  0.29104152  0.45895848  0.37500000  1
  F  F52  1  0.20895848  0.95895848  0.37500000  1
  F  F53  1  0.29104152  0.04104152  0.87500000  1
  F  F54  1  0.79104152  0.45895848  0.12500000  1
  F  F55  1  0.70895848  0.54104152  0.62500000  1
  F  F56  1  0.00000000  0.25000000  0.37500000  1
  F  F57  1  0.00000000  0.75000000  0.62500000  1
  F  F58  1  0.50000000  0.25000000  0.62500000  1
  F  F59  1  0.50000000  0.75000000  0.37500000  1
  F  F60  1  0.50000000  0.75000000  0.87500000  1
  F  F61  1  0.50000000  0.25000000  0.12500000  1
  F  F62  1  0.00000000  0.75000000  0.12500000  1
  F  F63  1  0.00000000  0.25000000  0.87500000  1
  Li  Li64  1  0.38959051  0.53949467  0.90889314  1
  Li  Li65  1  0.11040949  -0.53949467  1.40889314  1
  Li  Li66  1  -0.28949467  1.13959051  1.15889314  1
  Li  Li67  1  0.78949467  -0.13959051  1.65889314  1
  Li  Li68  1  0.11040949  0.53949467  -0.90889314  1
  Li  Li69  1  0.38959051  -0.53949467  -0.40889314  1
  Li  Li70  1  0.78949467  1.13959051  -0.15889314  1
  Li  Li71  1  -0.28949467  -0.13959051  -0.65889314  1
  Li  Li72  1  -0.38959051  -0.53949467  -0.90889314  1
  Li  Li73  1  0.88959051  0.53949467  -0.40889314  1
  Li  Li74  1  1.28949467  -0.13959051  -0.15889314  1
  Li  Li75  1  0.21050533  1.13959051  -0.65889314  1
  Li  Li76  1  0.88959051  -0.53949467  0.90889314  1
  Li  Li77  1  -0.38959051  0.53949467  1.40889314  1
  Li  Li78  1  0.21050533  -0.13959051  1.15889314  1
  Li  Li79  1  1.28949467  1.13959051  1.65889314  1
  Li  Li80  1  0.88959051  1.03949467  1.40889314  1
  Li  Li81  1  0.61040949  -0.03949467  1.90889314  1
  Li  Li82  1  0.21050533  1.63959051  1.65889314  1
  Li  Li83  1  1.28949467  0.36040949  2.15889314  1
  Li  Li84  1  0.61040949  1.03949467  -0.40889314  1
  Li  Li85  1  0.88959051  -0.03949467  0.09110686  1
  Li  Li86  1  1.28949467  1.63959051  0.34110686  1
  Li  Li87  1  0.21050533  0.36040949  -0.15889314  1
  Li  Li88  1  0.11040949  -0.03949467  -0.40889314  1
  Li  Li89  1  1.38959051  1.03949467  0.09110686  1
  Li  Li90  1  1.78949467  0.36040949  0.34110686  1
  Li  Li91  1  0.71050533  1.63959051  -0.15889314  1
  Li  Li92  1  1.38959051  -0.03949467  1.40889314  1
  Li  Li93  1  0.11040949  1.03949467  1.90889314  1
  Li  Li94  1  0.71050533  0.36040949  1.65889314  1
  Li  Li95  1  1.78949467  1.63959051  2.15889314  1
  Li  Li96  1  0.62753665  0.00000000  0.25000000  1
  Li  Li97  1  0.87246335  0.00000000  0.75000000  1
  Li  Li98  1  0.25000000  0.37753665  0.50000000  1
  Li  Li99  1  0.25000000  0.62246335  0.00000000  1
  Li  Li100  1  0.37246335  0.00000000  0.75000000  1
  Li  Li101  1  0.12753665  0.00000000  0.25000000  1
  Li  Li102  1  0.75000000  0.62246335  0.50000000  1
  Li  Li103  1  0.75000000  0.37753665  0.00000000  1
  Li  Li104  1  0.12753665  0.50000000  0.75000000  1
  Li  Li105  1  0.37246335  0.50000000  0.25000000  1
  Li  Li106  1  0.75000000  0.87753665  0.00000000  1
  Li  Li107  1  0.75000000  0.12246335  0.50000000  1
  Li  Li108  1  0.87246335  0.50000000  0.25000000  1
  Li  Li109  1  0.62753665  0.50000000  0.75000000  1
  Li  Li110  1  0.25000000  0.12246335  0.00000000  1
  Li  Li111  1  0.25000000  0.87753665  0.50000000  1
  Li  Li112  1  0.32037369  0.00000000  0.25000000  1
  Li  Li113  1  0.17962631  0.00000000  0.75000000  1
  Li  Li114  1  0.25000000  0.07037369  0.50000000  1
  Li  Li115  1  0.25000000  0.92962631  0.00000000  1
  Li  Li116  1  0.67962631  0.00000000  0.75000000  1
  Li  Li117  1  0.82037369  0.00000000  0.25000000  1
  Li  Li118  1  0.75000000  0.92962631  0.50000000  1
  Li  Li119  1  0.75000000  0.07037369  0.00000000  1
  Li  Li120  1  0.82037369  0.50000000  0.75000000  1
  Li  Li121  1  0.67962631  0.50000000  0.25000000  1
  Li  Li122  1  0.75000000  0.57037369  0.00000000  1
  Li  Li123  1  0.75000000  0.42962631  0.50000000  1
  Li  Li124  1  0.17962631  0.50000000  0.25000000  1
  Li  Li125  1  0.32037369  0.50000000  0.75000000  1
  Li  Li126  1  0.25000000  0.42962631  0.00000000  1
  Li  Li127  1  0.25000000  0.57037369  0.50000000  1
