# generated using pymatgen
data_Li2Si4Te3F12
_symmetry_space_group_name_H-M   'P 1'
_cell_length_a   8.10238565
_cell_length_b   8.10238565
_cell_length_c   19.70404399
_cell_angle_alpha   90.00000000
_cell_angle_beta   90.00000000
_cell_angle_gamma   90.00000000
_symmetry_Int_Tables_number   1
_chemical_formula_structural   Li2Si4Te3F12
_chemical_formula_sum   'Li8 Si16 Te12 F48'
_cell_volume   1293.54395083
_cell_formula_units_Z   4
loop_
 _symmetry_equiv_pos_site_id
 _symmetry_equiv_pos_as_xyz
  1  'x, y, z'
loop_
 _atom_site_type_symbol
 _atom_site_label
 _atom_site_symmetry_multiplicity
 _atom_site_fract_x
 _atom_site_fract_y
 _atom_site_fract_z
 _atom_site_occupancy
  F  F0  1  0.35410783  0.60410783  0.87500000  1
  F  F1  1  0.14589217  0.39589217  0.37500000  1
  F  F2  1  0.64589217  0.10410783  0.12500000  1
  F  F3  1  0.85410783  0.89589217  0.62500000  1
  F  F4  1  0.64589217  0.39589217  0.12500000  1
  F  F5  1  0.85410783  0.60410783  0.62500000  1
  F  F6  1  0.35410783  0.89589217  0.87500000  1
  F  F7  1  0.14589217  0.10410783  0.37500000  1
  F  F8  1  0.85410783  0.10410783  0.37500000  1
  F  F9  1  0.64589217  0.89589217  0.87500000  1
  F  F10  1  0.14589217  0.60410783  0.62500000  1
  F  F11  1  0.35410783  0.39589217  0.12500000  1
  F  F12  1  0.14589217  0.89589217  0.62500000  1
  F  F13  1  0.35410783  0.10410783  0.12500000  1
  F  F14  1  0.85410783  0.39589217  0.37500000  1
  F  F15  1  0.64589217  0.60410783  0.87500000  1
  F  F16  1  0.72119091  0.89307788  0.66188078  1
  F  F17  1  -0.22119091  -0.89307788  1.16188078  1
  F  F18  1  -0.64307788  1.47119091  0.91188078  1
  F  F19  1  1.14307788  -0.47119091  1.41188078  1
  F  F20  1  -0.22119091  0.89307788  -0.16188078  1
  F  F21  1  0.72119091  -0.89307788  -0.66188078  1
  F  F22  1  1.14307788  1.47119091  -0.41188078  1
  F  F23  1  -0.64307788  -0.47119091  0.08811922  1
  F  F24  1  -0.72119091  -0.89307788  -0.66188078  1
  F  F25  1  1.22119091  0.89307788  -0.16188078  1
  F  F26  1  1.64307788  -0.47119091  0.08811922  1
  F  F27  1  -0.14307788  1.47119091  -0.41188078  1
  F  F28  1  1.22119091  -0.89307788  1.16188078  1
  F  F29  1  -0.72119091  0.89307788  0.66188078  1
  F  F30  1  -0.14307788  -0.47119091  1.41188078  1
  F  F31  1  1.64307788  1.47119091  0.91188078  1
  F  F32  1  1.22119091  1.39307788  1.16188078  1
  F  F33  1  0.27880909  -0.39307788  1.66188078  1
  F  F34  1  -0.14307788  1.97119091  1.41188078  1
  F  F35  1  1.64307788  0.02880909  1.91188078  1
  F  F36  1  0.27880909  1.39307788  0.33811922  1
  F  F37  1  1.22119091  -0.39307788  -0.16188078  1
  F  F38  1  1.64307788  1.97119091  0.08811922  1
  F  F39  1  -0.14307788  0.02880909  0.58811922  1
  F  F40  1  -0.22119091  -0.39307788  -0.16188078  1
  F  F41  1  1.72119091  1.39307788  0.33811922  1
  F  F42  1  2.14307788  0.02880909  0.58811922  1
  F  F43  1  0.35692212  1.97119091  0.08811922  1
  F  F44  1  1.72119091  -0.39307788  1.66188078  1
  F  F45  1  -0.22119091  1.39307788  1.16188078  1
  F  F46  1  0.35692212  0.02880909  1.91188078  1
  F  F47  1  2.14307788  1.97119091  1.41188078  1
  Li  Li48  1  0.00000000  0.00000000  0.00000000  1
  Li  Li49  1  0.50000000  -0.00000000  0.50000000  1
  Li  Li50  1  0.25000000  0.75000000  0.25000000  1
  Li  Li51  1  0.25000000  0.25000000  0.75000000  1
  Li  Li52  1  0.50000000  0.50000000  0.50000000  1
  Li  Li53  1  0.00000000  0.50000000  0.00000000  1
  Li  Li54  1  0.75000000  0.25000000  0.75000000  1
  Li  Li55  1  0.75000000  0.75000000  0.25000000  1
  Si  Si56  1  0.42141575  -0.00000000  0.00000000  1
  Si  Si57  1  0.07858425  -0.00000000  0.50000000  1
  Si  Si58  1  0.25000000  0.17141575  0.25000000  1
  Si  Si59  1  0.25000000  0.82858425  0.75000000  1
  Si  Si60  1  0.57858425  -0.00000000  0.00000000  1
  Si  Si61  1  0.92141575  -0.00000000  0.50000000  1
  Si  Si62  1  0.75000000  0.82858425  0.75000000  1
  Si  Si63  1  0.75000000  0.17141575  0.25000000  1
  Si  Si64  1  0.92141575  0.50000000  0.50000000  1
  Si  Si65  1  0.57858425  0.50000000  -0.00000000  1
  Si  Si66  1  0.75000000  0.67141575  0.75000000  1
  Si  Si67  1  0.75000000  0.32858425  0.25000000  1
  Si  Si68  1  0.07858425  0.50000000  0.50000000  1
  Si  Si69  1  0.42141575  0.50000000  0.00000000  1
  Si  Si70  1  0.25000000  0.32858425  0.25000000  1
  Si  Si71  1  0.25000000  0.67141575  0.75000000  1
  Te  Te72  1  0.00000000  0.25000000  0.82251828  1
  Te  Te73  1  0.00000000  0.75000000  0.07251828  1
  Te  Te74  1  0.50000000  0.25000000  0.67748172  1
  Te  Te75  1  0.50000000  0.75000000  0.42748172  1
  Te  Te76  1  0.50000000  0.75000000  0.32251828  1
  Te  Te77  1  0.50000000  0.25000000  0.57251828  1
  Te  Te78  1  0.00000000  0.75000000  0.17748172  1
  Te  Te79  1  0.00000000  0.25000000  0.92748172  1
  Te  Te80  1  0.00000000  0.25000000  0.37500000  1
  Te  Te81  1  0.00000000  0.75000000  0.62500000  1
  Te  Te82  1  0.50000000  0.75000000  0.87500000  1
  Te  Te83  1  0.50000000  0.25000000  0.12500000  1
