# generated using pymatgen
data_LiF
_symmetry_space_group_name_H-M   'P 1'
_cell_length_a   3.67058723
_cell_length_b   5.22415165
_cell_length_c   4.13939952
_cell_angle_alpha   90.00000000
_cell_angle_beta   90.00000000
_cell_angle_gamma   90.00000000
_symmetry_Int_Tables_number   1
_chemical_formula_structural   LiF
_chemical_formula_sum   'Li4 F4'
_cell_volume   79.37590132
_cell_formula_units_Z   4
loop_
 _symmetry_equiv_pos_site_id
 _symmetry_equiv_pos_as_xyz
  1  'x, y, z'
loop_
 _atom_site_type_symbol
 _atom_site_label
 _atom_site_symmetry_multiplicity
 _atom_site_fract_x
 _atom_site_fract_y
 _atom_site_fract_z
 _atom_site_occupancy
  F  F0  1  0.73644191  0.74703873  0.50000000  1
  F  F1  1  -0.73644191  -0.74703873  0.50000000  1
  F  F2  1  -0.23644191  1.24703873  0.50000000  1
  F  F3  1  1.23644191  -0.24703873  0.50000000  1
  Li  Li4  1  0.00000000  0.00000000  0.82669775  1
  Li  Li5  1  0.50000000  0.50000000  0.17330225  1
  Li  Li6  1  0.00000000  0.00000000  0.17330225  1
  Li  Li7  1  0.50000000  0.50000000  0.82669775  1
