# generated using pymatgen
data_Li2Cu3P3Se
_symmetry_space_group_name_H-M   'P 1'
_cell_length_a   4.31417481
_cell_length_b   4.62719423
_cell_length_c   6.64876061
_cell_angle_alpha   95.46573051
_cell_angle_beta   101.39867962
_cell_angle_gamma   111.09957971
_symmetry_Int_Tables_number   1
_chemical_formula_structural   Li2Cu3P3Se
_chemical_formula_sum   'Li2 Cu3 P3 Se1'
_cell_volume   119.35914375
_cell_formula_units_Z   1
loop_
 _symmetry_equiv_pos_site_id
 _symmetry_equiv_pos_as_xyz
  1  'x, y, z'
loop_
 _atom_site_type_symbol
 _atom_site_label
 _atom_site_symmetry_multiplicity
 _atom_site_fract_x
 _atom_site_fract_y
 _atom_site_fract_z
 _atom_site_occupancy
  P  P0  1  0.12500000  0.12500000  0.12500000  1
  P  P1  1  0.50000000  0.50000000  0.50000000  1
  P  P2  1  0.25000000  0.25000000  0.25000000  1
  Se  Se3  1  0.75000000  0.75000000  0.75000000  1
  Li  Li4  1  0.29980794  0.71779944  0.18602344  1
  Li  Li5  1  0.68808052  0.10259938  0.10775564  1
  Cu  Cu6  1  0.53824071  0.38221684  0.14644382  1
  Cu  Cu7  1  0.67584325  0.32433997  0.36717787  1
  Cu  Cu8  1  0.01875218  0.29938849  0.84321695  1
