# generated using pymatgen
data_LiF
_symmetry_space_group_name_H-M   'P 1'
_cell_length_a   9.98096372
_cell_length_b   7.55061351
_cell_length_c   4.49040548
_cell_angle_alpha   90.00000000
_cell_angle_beta   90.00000000
_cell_angle_gamma   90.00000000
_symmetry_Int_Tables_number   1
_chemical_formula_structural   LiF
_chemical_formula_sum   'Li12 F12'
_cell_volume   338.40773190
_cell_formula_units_Z   12
loop_
 _symmetry_equiv_pos_site_id
 _symmetry_equiv_pos_as_xyz
  1  'x, y, z'
loop_
 _atom_site_type_symbol
 _atom_site_label
 _atom_site_symmetry_multiplicity
 _atom_site_fract_x
 _atom_site_fract_y
 _atom_site_fract_z
 _atom_site_occupancy
  F  F0  1  0.00000000  0.00000000  0.50000000  1
  F  F1  1  0.50000000  0.50000000  0.00000000  1
  F  F2  1  0.34119388  0.68709529  0.00000000  1
  F  F3  1  0.65880612  0.31290471  0.00000000  1
  F  F4  1  0.15880612  0.18709529  0.50000000  1
  F  F5  1  0.84119388  0.81290471  0.50000000  1
  F  F6  1  0.00000000  0.50000000  0.50000000  1
  F  F7  1  0.50000000  0.00000000  0.00000000  1
  F  F8  1  0.00000000  0.50000000  0.18127340  1
  F  F9  1  0.50000000  0.00000000  0.31872660  1
  F  F10  1  0.00000000  0.50000000  0.81872660  1
  F  F11  1  0.50000000  0.00000000  0.68127340  1
  Li  Li12  1  0.70584947  0.26332709  0.17605881  1
  Li  Li13  1  -0.70584947  -0.26332709  0.17605881  1
  Li  Li14  1  -0.20584947  0.76332709  0.32394119  1
  Li  Li15  1  1.20584947  0.23667291  0.32394119  1
  Li  Li16  1  -0.70584947  -0.26332709  -0.17605881  1
  Li  Li17  1  0.70584947  0.26332709  -0.17605881  1
  Li  Li18  1  1.20584947  0.23667291  0.67605881  1
  Li  Li19  1  -0.20584947  0.76332709  0.67605881  1
  Li  Li20  1  0.00000000  0.00000000  0.78422954  1
  Li  Li21  1  0.50000000  0.50000000  0.71577046  1
  Li  Li22  1  0.00000000  0.00000000  0.21577046  1
  Li  Li23  1  0.50000000  0.50000000  0.28422954  1
