# generated using pymatgen
data_Li2Y2MoP3Se2
_symmetry_space_group_name_H-M   'P 1'
_cell_length_a   4.98251427
_cell_length_b   5.29978765
_cell_length_c   7.16198099
_cell_angle_alpha   94.79259125
_cell_angle_beta   100.43726739
_cell_angle_gamma   109.24993428
_symmetry_Int_Tables_number   1
_chemical_formula_structural   Li2Y2MoP3Se2
_chemical_formula_sum   'Li2 Y2 Mo1 P3 Se2'
_cell_volume   173.48977229
_cell_formula_units_Z   1
loop_
 _symmetry_equiv_pos_site_id
 _symmetry_equiv_pos_as_xyz
  1  'x, y, z'
loop_
 _atom_site_type_symbol
 _atom_site_label
 _atom_site_symmetry_multiplicity
 _atom_site_fract_x
 _atom_site_fract_y
 _atom_site_fract_z
 _atom_site_occupancy
  Se  Se0  1  0.12500000  0.00000000  0.25000000  1
  Se  Se1  1  0.00000000  0.00000000  0.00000000  1
  Y  Y2  1  0.37500000  0.00000000  0.25000000  1
  Y  Y3  1  0.25000000  0.25000000  0.25000000  1
  P  P4  1  0.00000000  0.25000000  0.12500000  1
  P  P5  1  0.66651040  0.65810453  0.01320996  1
  P  P6  1  0.05641363  0.10035755  0.90692644  1
  Mo  Mo7  1  0.08143184  0.65909154  0.03538072  1
  Li  Li8  1  0.17071358  0.99971138  0.17232930  1
  Li  Li9  1  0.32167286  0.87795389  0.44329041  1
