# generated using pymatgen
data_Li2Y2As4P2Se
_symmetry_space_group_name_H-M   'P 1'
_cell_length_a   5.09725874
_cell_length_b   5.22984177
_cell_length_c   6.61684858
_cell_angle_alpha   94.09353065
_cell_angle_beta   97.13328603
_cell_angle_gamma   103.64810818
_symmetry_Int_Tables_number   1
_chemical_formula_structural   Li2Y2As4P2Se
_chemical_formula_sum   'Li2 Y2 As4 P2 Se1'
_cell_volume   169.15377732
_cell_formula_units_Z   1
loop_
 _symmetry_equiv_pos_site_id
 _symmetry_equiv_pos_as_xyz
  1  'x, y, z'
loop_
 _atom_site_type_symbol
 _atom_site_label
 _atom_site_symmetry_multiplicity
 _atom_site_fract_x
 _atom_site_fract_y
 _atom_site_fract_z
 _atom_site_occupancy
  Se  Se0  1  0.12500000  0.00000000  0.25000000  1
  Y  Y1  1  0.00000000  0.00000000  0.00000000  1
  Y  Y2  1  0.37500000  0.00000000  0.25000000  1
  P  P3  1  0.25000000  0.25000000  0.25000000  1
  P  P4  1  0.00000000  0.25000000  0.12500000  1
  As  As5  1  0.22811349  0.87071322  0.61391904  1
  As  As6  1  0.71047188  0.19233242  0.45396280  1
  As  As7  1  0.46080803  0.57462365  0.13334851  1
  As  As8  1  0.82362173  0.27198602  0.78094462  1
  Li  Li9  1  0.82070770  0.28114164  0.78262703  1
  Li  Li10  1  0.49388979  0.40998326  0.22349176  1
