# generated using pymatgen
data_LiF
_symmetry_space_group_name_H-M   'P 1'
_cell_length_a   8.28614632
_cell_length_b   3.90037564
_cell_length_c   7.08259049
_cell_angle_alpha   90.00000000
_cell_angle_beta   90.00000000
_cell_angle_gamma   90.00000000
_symmetry_Int_Tables_number   1
_chemical_formula_structural   LiF
_chemical_formula_sum   'Li8 F8'
_cell_volume   228.90283187
_cell_formula_units_Z   8
loop_
 _symmetry_equiv_pos_site_id
 _symmetry_equiv_pos_as_xyz
  1  'x, y, z'
loop_
 _atom_site_type_symbol
 _atom_site_label
 _atom_site_symmetry_multiplicity
 _atom_site_fract_x
 _atom_site_fract_y
 _atom_site_fract_z
 _atom_site_occupancy
  F  F0  1  0.21229517  0.49355793  0.20649612  1
  F  F1  1  -0.21229517  -0.49355793  0.20649612  1
  F  F2  1  0.28770483  0.99355793  0.29350388  1
  F  F3  1  0.71229517  0.00644207  0.29350388  1
  F  F4  1  -0.21229517  -0.49355793  -0.20649612  1
  F  F5  1  0.21229517  0.49355793  -0.20649612  1
  F  F6  1  0.71229517  0.00644207  0.70649612  1
  F  F7  1  0.28770483  0.99355793  0.70649612  1
  Li  Li8  1  0.00000000  0.50000000  0.21127305  1
  Li  Li9  1  0.50000000  0.00000000  0.28872695  1
  Li  Li10  1  0.00000000  0.50000000  0.78872695  1
  Li  Li11  1  0.50000000  0.00000000  0.71127305  1
  Li  Li12  1  0.00000000  0.00000000  0.50000000  1
  Li  Li13  1  0.50000000  0.50000000  -0.00000000  1
  Li  Li14  1  0.00000000  0.50000000  0.50000000  1
  Li  Li15  1  0.50000000  0.00000000  0.00000000  1
