# generated using pymatgen
data_LiCaF3
_symmetry_space_group_name_H-M   'P 1'
_cell_length_a   14.53419435
_cell_length_b   14.53419435
_cell_length_c   8.84283897
_cell_angle_alpha   90.00000000
_cell_angle_beta   90.00000000
_cell_angle_gamma   120.00000000
_symmetry_Int_Tables_number   1
_chemical_formula_structural   LiCaF3
_chemical_formula_sum   'Li18 Ca18 F54'
_cell_volume   1617.72342653
_cell_formula_units_Z   18
loop_
 _symmetry_equiv_pos_site_id
 _symmetry_equiv_pos_as_xyz
  1  'x, y, z'
loop_
 _atom_site_type_symbol
 _atom_site_label
 _atom_site_symmetry_multiplicity
 _atom_site_fract_x
 _atom_site_fract_y
 _atom_site_fract_z
 _atom_site_occupancy
  Ca  Ca0  1  0.50000000  -0.00000000  -0.00000000  1
  Ca  Ca1  1  0.00000000  0.50000000  0.00000000  1
  Ca  Ca2  1  0.50000000  0.50000000  0.00000000  1
  Ca  Ca3  1  0.00000000  0.50000000  0.50000000  1
  Ca  Ca4  1  0.50000000  -0.00000000  0.50000000  1
  Ca  Ca5  1  0.50000000  0.50000000  0.50000000  1
  Ca  Ca6  1  0.16666667  0.33333333  0.33333333  1
  Ca  Ca7  1  0.66666667  0.83333333  0.33333333  1
  Ca  Ca8  1  0.16666667  0.83333333  0.33333333  1
  Ca  Ca9  1  0.66666667  0.83333333  0.83333333  1
  Ca  Ca10  1  0.16666667  0.33333333  0.83333333  1
  Ca  Ca11  1  0.16666667  0.83333333  0.83333333  1
  Ca  Ca12  1  0.83333333  0.66666667  0.66666667  1
  Ca  Ca13  1  0.33333333  0.16666667  0.66666667  1
  Ca  Ca14  1  0.83333333  0.16666667  0.66666667  1
  Ca  Ca15  1  0.33333333  0.16666667  0.16666667  1
  Ca  Ca16  1  0.83333333  0.66666667  0.16666667  1
  Ca  Ca17  1  0.83333333  0.16666667  0.16666667  1
  F  F18  1  0.46641778  0.54725584  0.75279130  1
  F  F19  1  -0.54725584  -0.08083806  0.75279130  1
  F  F20  1  0.08083806  -0.46641778  0.75279130  1
  F  F21  1  0.54725584  0.46641778  -0.25279130  1
  F  F22  1  -0.08083806  -0.54725584  -0.25279130  1
  F  F23  1  -0.46641778  0.08083806  -0.25279130  1
  F  F24  1  -0.46641778  -0.54725584  -0.75279130  1
  F  F25  1  0.54725584  0.08083806  -0.75279130  1
  F  F26  1  -0.08083806  0.46641778  -0.75279130  1
  F  F27  1  -0.54725584  -0.46641778  1.25279130  1
  F  F28  1  0.08083806  0.54725584  1.25279130  1
  F  F29  1  0.46641778  -0.08083806  1.25279130  1
  F  F30  1  1.13308444  0.88058917  1.08612463  1
  F  F31  1  0.11941083  0.25249527  1.08612463  1
  F  F32  1  0.74750473  -0.13308444  1.08612463  1
  F  F33  1  1.21392250  0.79975111  0.08054204  1
  F  F34  1  0.58582861  -0.21392250  0.08054204  1
  F  F35  1  0.20024889  0.41417139  0.08054204  1
  F  F36  1  0.20024889  -0.21392250  -0.41945796  1
  F  F37  1  1.21392250  0.41417139  -0.41945796  1
  F  F38  1  0.58582861  0.79975111  -0.41945796  1
  F  F39  1  0.11941083  -0.13308444  1.58612463  1
  F  F40  1  0.74750473  0.88058917  1.58612463  1
  F  F41  1  1.13308444  0.25249527  1.58612463  1
  F  F42  1  0.79975111  1.21392250  1.41945796  1
  F  F43  1  -0.21392250  0.58582861  1.41945796  1
  F  F44  1  0.41417139  0.20024889  1.41945796  1
  F  F45  1  0.88058917  1.13308444  0.41387537  1
  F  F46  1  0.25249527  0.11941083  0.41387537  1
  F  F47  1  -0.13308444  0.74750473  0.41387537  1
  F  F48  1  -0.13308444  0.11941083  -0.08612463  1
  F  F49  1  0.88058917  0.74750473  -0.08612463  1
  F  F50  1  0.25249527  1.13308444  -0.08612463  1
  F  F51  1  -0.21392250  0.20024889  1.91945796  1
  F  F52  1  0.41417139  1.21392250  1.91945796  1
  F  F53  1  0.79975111  0.58582861  1.91945796  1
  F  F54  1  0.00000000  0.00000000  0.61289953  1
  F  F55  1  0.00000000  0.00000000  0.88710047  1
  F  F56  1  0.00000000  0.00000000  0.38710047  1
  F  F57  1  0.00000000  0.00000000  0.11289953  1
  F  F58  1  0.66666667  0.33333333  0.94623286  1
  F  F59  1  0.66666667  0.33333333  0.22043380  1
  F  F60  1  0.66666667  0.33333333  0.72043380  1
  F  F61  1  0.66666667  0.33333333  0.44623286  1
  F  F62  1  0.33333333  0.66666667  0.27956620  1
  F  F63  1  0.33333333  0.66666667  0.55376714  1
  F  F64  1  0.33333333  0.66666667  0.05376714  1
  F  F65  1  0.33333333  0.66666667  0.77956620  1
  F  F66  1  0.00000000  0.00000000  0.00000000  1
  F  F67  1  0.00000000  0.00000000  0.50000000  1
  F  F68  1  0.66666667  0.33333333  0.33333333  1
  F  F69  1  0.66666667  0.33333333  0.83333333  1
  F  F70  1  0.33333333  0.66666667  0.66666667  1
  F  F71  1  0.33333333  0.66666667  0.16666667  1
  Li  Li72  1  0.62324568  -0.00000000  0.25000000  1
  Li  Li73  1  0.00000000  0.62324568  0.25000000  1
  Li  Li74  1  0.37675432  0.37675432  0.25000000  1
  Li  Li75  1  0.37675432  -0.00000000  0.75000000  1
  Li  Li76  1  0.00000000  0.37675432  0.75000000  1
  Li  Li77  1  0.62324568  0.62324568  0.75000000  1
  Li  Li78  1  0.28991235  0.33333333  0.58333333  1
  Li  Li79  1  0.66666667  0.95657902  0.58333333  1
  Li  Li80  1  0.04342098  0.71008765  0.58333333  1
  Li  Li81  1  0.04342098  0.33333333  0.08333333  1
  Li  Li82  1  0.66666667  0.71008765  0.08333333  1
  Li  Li83  1  0.28991235  0.95657902  0.08333333  1
  Li  Li84  1  0.95657902  0.66666667  0.91666667  1
  Li  Li85  1  0.33333333  0.28991235  0.91666667  1
  Li  Li86  1  0.71008765  0.04342098  0.91666667  1
  Li  Li87  1  0.71008765  0.66666667  0.41666667  1
  Li  Li88  1  0.33333333  0.04342098  0.41666667  1
  Li  Li89  1  0.95657902  0.28991235  0.41666667  1
