# generated using pymatgen
data_LiF
_symmetry_space_group_name_H-M   'P 1'
_cell_length_a   6.82356636
_cell_length_b   6.82356636
_cell_length_c   14.47176399
_cell_angle_alpha   90.00000000
_cell_angle_beta   90.00000000
_cell_angle_gamma   120.00000000
_symmetry_Int_Tables_number   1
_chemical_formula_structural   LiF
_chemical_formula_sum   'Li32 F32'
_cell_volume   583.54579333
_cell_formula_units_Z   32
loop_
 _symmetry_equiv_pos_site_id
 _symmetry_equiv_pos_as_xyz
  1  'x, y, z'
loop_
 _atom_site_type_symbol
 _atom_site_label
 _atom_site_symmetry_multiplicity
 _atom_site_fract_x
 _atom_site_fract_y
 _atom_site_fract_z
 _atom_site_occupancy
  F  F0  1  0.33333333  0.66666667  0.80463737  1
  F  F1  1  0.33333333  0.66666667  0.19536263  1
  F  F2  1  0.04707174  0.52607364  0.03658649  1
  F  F3  1  0.47392636  0.52099810  0.03658649  1
  F  F4  1  0.47900190  0.95292826  0.03658649  1
  F  F5  1  0.47392636  0.95292826  0.96341351  1
  F  F6  1  0.47900190  0.52607364  0.96341351  1
  F  F7  1  0.04707174  0.52099810  0.96341351  1
  F  F8  1  0.81968136  0.43233346  0.91583090  1
  F  F9  1  0.56766654  0.38734790  0.91583090  1
  F  F10  1  0.61265210  0.18031864  0.91583090  1
  F  F11  1  0.56766654  0.18031864  0.08416910  1
  F  F12  1  0.61265210  0.43233346  0.08416910  1
  F  F13  1  0.81968136  0.38734790  0.08416910  1
  F  F14  1  0.65995227  0.62070313  0.58163700  1
  F  F15  1  0.37929687  0.03924914  0.58163700  1
  F  F16  1  0.96075086  0.34004773  0.58163700  1
  F  F17  1  0.37929687  0.34004773  0.41836300  1
  F  F18  1  0.96075086  0.62070313  0.41836300  1
  F  F19  1  0.65995227  0.03924914  0.41836300  1
  F  F20  1  0.32014195  0.37856463  0.12642230  1
  F  F21  1  0.62143537  0.94157732  0.12642230  1
  F  F22  1  0.05842268  0.67985805  0.12642230  1
  F  F23  1  0.62143537  0.67985805  0.87357770  1
  F  F24  1  0.05842268  0.37856463  0.87357770  1
  F  F25  1  0.32014195  0.94157732  0.87357770  1
  F  F26  1  0.00000000  0.00000000  0.00000000  1
  F  F27  1  0.71575989  0.28424011  0.50000000  1
  F  F28  1  0.71575989  0.43151978  0.50000000  1
  F  F29  1  0.56848022  0.28424011  0.50000000  1
  F  F30  1  0.33333333  0.66666667  0.85095026  1
  F  F31  1  0.33333333  0.66666667  0.14904974  1
  Li  Li32  1  0.15699183  0.09617113  0.82763228  1
  Li  Li33  1  -0.09617113  0.06082070  0.82763228  1
  Li  Li34  1  -0.06082070  -0.15699183  0.82763228  1
  Li  Li35  1  -0.09617113  -0.15699183  -0.82763228  1
  Li  Li36  1  -0.06082070  0.09617113  -0.82763228  1
  Li  Li37  1  0.15699183  0.06082070  -0.82763228  1
  Li  Li38  1  0.81276531  0.63150262  0.64351805  1
  Li  Li39  1  0.36849738  0.18126270  0.64351805  1
  Li  Li40  1  0.81873730  0.18723469  0.64351805  1
  Li  Li41  1  0.36849738  0.18723469  0.35648195  1
  Li  Li42  1  0.81873730  0.63150262  0.35648195  1
  Li  Li43  1  0.81276531  0.18126270  0.35648195  1
  Li  Li44  1  0.33333333  0.66666667  0.00000000  1
  Li  Li45  1  0.89507499  0.87240736  0.71024236  1
  Li  Li46  1  0.12759264  0.02266764  0.71024236  1
  Li  Li47  1  0.97733236  0.10492501  0.71024236  1
  Li  Li48  1  0.12759264  0.10492501  0.28975764  1
  Li  Li49  1  0.97733236  0.87240736  0.28975764  1
  Li  Li50  1  0.89507499  0.02266764  0.28975764  1
  Li  Li51  1  0.21627699  0.73553157  0.68146748  1
  Li  Li52  1  0.26446843  0.48074542  0.68146748  1
  Li  Li53  1  0.51925458  0.78372301  0.68146748  1
  Li  Li54  1  0.26446843  0.78372301  0.31853252  1
  Li  Li55  1  0.51925458  0.73553157  0.31853252  1
  Li  Li56  1  0.21627699  0.48074542  0.31853252  1
  Li  Li57  1  0.48539847  0.76902035  0.77743338  1
  Li  Li58  1  0.23097965  0.71637812  0.77743338  1
  Li  Li59  1  0.28362188  0.51460153  0.77743338  1
  Li  Li60  1  0.23097965  0.51460153  0.22256662  1
  Li  Li61  1  0.28362188  0.76902035  0.22256662  1
  Li  Li62  1  0.48539847  0.71637812  0.22256662  1
  Li  Li63  1  0.66666667  0.33333333  -0.00000000  1
