# generated using pymatgen
data_Li2Hf4(Se2S)3
_symmetry_space_group_name_H-M   'P 1'
_cell_length_a   21.05460717
_cell_length_b   21.05460717
_cell_length_c   21.05460717
_cell_angle_alpha   90.00000000
_cell_angle_beta   90.00000000
_cell_angle_gamma   90.00000000
_symmetry_Int_Tables_number   1
_chemical_formula_structural   Li2Hf4(Se2S)3
_chemical_formula_sum   'Li48 Hf96 Se144 S72'
_cell_volume   9333.43331559
_cell_formula_units_Z   24
loop_
 _symmetry_equiv_pos_site_id
 _symmetry_equiv_pos_as_xyz
  1  'x, y, z'
loop_
 _atom_site_type_symbol
 _atom_site_label
 _atom_site_symmetry_multiplicity
 _atom_site_fract_x
 _atom_site_fract_y
 _atom_site_fract_z
 _atom_site_occupancy
  Hf  Hf0  1  0.12500000  0.12500000  0.12500000  1
  Hf  Hf1  1  0.37500000  0.87500000  0.62500000  1
  Hf  Hf2  1  0.87500000  0.62500000  0.37500000  1
  Hf  Hf3  1  0.62500000  0.37500000  0.87500000  1
  Hf  Hf4  1  0.62500000  0.62500000  0.62500000  1
  Hf  Hf5  1  0.87500000  0.37500000  0.12500000  1
  Hf  Hf6  1  0.37500000  0.12500000  0.87500000  1
  Hf  Hf7  1  0.12500000  0.87500000  0.37500000  1
  Hf  Hf8  1  0.08163173  0.59336931  0.37883988  1
  Hf  Hf9  1  0.41836827  -0.59336931  0.87883988  1
  Hf  Hf10  1  -0.08163173  1.09336931  0.12116012  1
  Hf  Hf11  1  0.58163173  -0.09336931  -0.37883988  1
  Hf  Hf12  1  0.37883988  0.08163173  0.59336931  1
  Hf  Hf13  1  0.87883988  0.41836827  -0.59336931  1
  Hf  Hf14  1  0.12116012  -0.08163173  1.09336931  1
  Hf  Hf15  1  -0.37883988  0.58163173  -0.09336931  1
  Hf  Hf16  1  0.59336931  0.37883988  0.08163173  1
  Hf  Hf17  1  -0.59336931  0.87883988  0.41836827  1
  Hf  Hf18  1  1.09336931  0.12116012  -0.08163173  1
  Hf  Hf19  1  -0.09336931  -0.37883988  0.58163173  1
  Hf  Hf20  1  1.34336931  0.33163173  -0.12883988  1
  Hf  Hf21  1  0.15663069  0.66836827  0.37116012  1
  Hf  Hf22  1  0.84336931  0.16836827  1.12883988  1
  Hf  Hf23  1  -0.34336931  0.83163173  0.62883988  1
  Hf  Hf24  1  0.83163173  0.62883988  -0.34336931  1
  Hf  Hf25  1  0.16836827  1.12883988  0.84336931  1
  Hf  Hf26  1  0.66836827  0.37116012  0.15663069  1
  Hf  Hf27  1  0.33163173  -0.12883988  1.34336931  1
  Hf  Hf28  1  1.12883988  0.84336931  0.16836827  1
  Hf  Hf29  1  0.62883988  -0.34336931  0.83163173  1
  Hf  Hf30  1  -0.12883988  1.34336931  0.33163173  1
  Hf  Hf31  1  0.37116012  0.15663069  0.66836827  1
  Hf  Hf32  1  0.58163173  1.09336931  0.87883988  1
  Hf  Hf33  1  0.91836827  -0.09336931  1.37883988  1
  Hf  Hf34  1  0.41836827  1.59336931  0.62116012  1
  Hf  Hf35  1  1.08163173  0.40663069  0.12116012  1
  Hf  Hf36  1  0.87883988  0.58163173  1.09336931  1
  Hf  Hf37  1  1.37883988  0.91836827  -0.09336931  1
  Hf  Hf38  1  0.62116012  0.41836827  1.59336931  1
  Hf  Hf39  1  0.12116012  1.08163173  0.40663069  1
  Hf  Hf40  1  1.09336931  0.87883988  0.58163173  1
  Hf  Hf41  1  -0.09336931  1.37883988  0.91836827  1
  Hf  Hf42  1  1.59336931  0.62116012  0.41836827  1
  Hf  Hf43  1  0.40663069  0.12116012  1.08163173  1
  Hf  Hf44  1  1.84336931  0.83163173  0.37116012  1
  Hf  Hf45  1  0.65663069  1.16836827  0.87116012  1
  Hf  Hf46  1  1.34336931  0.66836827  1.62883988  1
  Hf  Hf47  1  0.15663069  1.33163173  1.12883988  1
  Hf  Hf48  1  1.33163173  1.12883988  0.15663069  1
  Hf  Hf49  1  0.66836827  1.62883988  1.34336931  1
  Hf  Hf50  1  1.16836827  0.87116012  0.65663069  1
  Hf  Hf51  1  0.83163173  0.37116012  1.84336931  1
  Hf  Hf52  1  1.62883988  1.34336931  0.66836827  1
  Hf  Hf53  1  1.12883988  0.15663069  1.33163173  1
  Hf  Hf54  1  0.37116012  1.84336931  0.83163173  1
  Hf  Hf55  1  0.87116012  0.65663069  1.16836827  1
  Hf  Hf56  1  0.12500000  0.19310769  0.05689231  1
  Hf  Hf57  1  0.37500000  0.80689231  0.55689231  1
  Hf  Hf58  1  0.87500000  0.69310769  0.44310769  1
  Hf  Hf59  1  0.62500000  0.30689231  0.94310769  1
  Hf  Hf60  1  0.05689231  0.12500000  0.19310769  1
  Hf  Hf61  1  0.55689231  0.37500000  0.80689231  1
  Hf  Hf62  1  0.44310769  0.87500000  0.69310769  1
  Hf  Hf63  1  0.94310769  0.62500000  0.30689231  1
  Hf  Hf64  1  0.19310769  0.05689231  0.12500000  1
  Hf  Hf65  1  0.80689231  0.55689231  0.37500000  1
  Hf  Hf66  1  0.69310769  0.44310769  0.87500000  1
  Hf  Hf67  1  0.30689231  0.94310769  0.62500000  1
  Hf  Hf68  1  0.62500000  0.69310769  0.55689231  1
  Hf  Hf69  1  0.87500000  0.30689231  0.05689231  1
  Hf  Hf70  1  0.37500000  0.19310769  0.94310769  1
  Hf  Hf71  1  0.12500000  0.80689231  0.44310769  1
  Hf  Hf72  1  0.55689231  0.62500000  0.69310769  1
  Hf  Hf73  1  0.05689231  0.87500000  0.30689231  1
  Hf  Hf74  1  0.94310769  0.37500000  0.19310769  1
  Hf  Hf75  1  0.44310769  0.12500000  0.80689231  1
  Hf  Hf76  1  0.69310769  0.55689231  0.62500000  1
  Hf  Hf77  1  0.30689231  0.05689231  0.87500000  1
  Hf  Hf78  1  0.19310769  0.94310769  0.37500000  1
  Hf  Hf79  1  0.80689231  0.44310769  0.12500000  1
  Hf  Hf80  1  0.29864375  0.29864375  0.29864375  1
  Hf  Hf81  1  0.20135625  0.70135625  0.79864375  1
  Hf  Hf82  1  0.70135625  0.79864375  0.20135625  1
  Hf  Hf83  1  0.79864375  0.20135625  0.70135625  1
  Hf  Hf84  1  0.04864375  0.54864375  0.95135625  1
  Hf  Hf85  1  0.45135625  0.45135625  0.45135625  1
  Hf  Hf86  1  0.54864375  0.95135625  0.04864375  1
  Hf  Hf87  1  0.95135625  0.04864375  0.54864375  1
  Hf  Hf88  1  0.79864375  0.79864375  0.79864375  1
  Hf  Hf89  1  0.70135625  0.20135625  0.29864375  1
  Hf  Hf90  1  0.20135625  0.29864375  0.70135625  1
  Hf  Hf91  1  0.29864375  0.70135625  0.20135625  1
  Hf  Hf92  1  0.54864375  0.04864375  0.45135625  1
  Hf  Hf93  1  0.95135625  0.95135625  0.95135625  1
  Hf  Hf94  1  0.04864375  0.45135625  0.54864375  1
  Hf  Hf95  1  0.45135625  0.54864375  0.04864375  1
  Li  Li96  1  0.87500000  0.87500000  0.87500000  1
  Li  Li97  1  0.62500000  0.12500000  0.37500000  1
  Li  Li98  1  0.12500000  0.37500000  0.62500000  1
  Li  Li99  1  0.37500000  0.62500000  0.12500000  1
  Li  Li100  1  0.37500000  0.37500000  0.37500000  1
  Li  Li101  1  0.12500000  0.62500000  0.87500000  1
  Li  Li102  1  0.62500000  0.87500000  0.12500000  1
  Li  Li103  1  0.87500000  0.12500000  0.62500000  1
  Li  Li104  1  0.12500000  0.94319057  0.30680943  1
  Li  Li105  1  0.37500000  0.05680943  0.80680943  1
  Li  Li106  1  0.87500000  0.44319057  0.19319057  1
  Li  Li107  1  0.62500000  0.55680943  0.69319057  1
  Li  Li108  1  0.30680943  0.12500000  0.94319057  1
  Li  Li109  1  0.80680943  0.37500000  0.05680943  1
  Li  Li110  1  0.19319057  0.87500000  0.44319057  1
  Li  Li111  1  0.69319057  0.62500000  0.55680943  1
  Li  Li112  1  0.94319057  0.30680943  0.12500000  1
  Li  Li113  1  0.05680943  0.80680943  0.37500000  1
  Li  Li114  1  0.44319057  0.19319057  0.87500000  1
  Li  Li115  1  0.55680943  0.69319057  0.62500000  1
  Li  Li116  1  0.62500000  0.44319057  0.80680943  1
  Li  Li117  1  0.87500000  0.55680943  0.30680943  1
  Li  Li118  1  0.37500000  0.94319057  0.69319057  1
  Li  Li119  1  0.12500000  0.05680943  0.19319057  1
  Li  Li120  1  0.80680943  0.62500000  0.44319057  1
  Li  Li121  1  0.30680943  0.87500000  0.55680943  1
  Li  Li122  1  0.69319057  0.37500000  0.94319057  1
  Li  Li123  1  0.19319057  0.12500000  0.05680943  1
  Li  Li124  1  0.44319057  0.80680943  0.62500000  1
  Li  Li125  1  0.55680943  0.30680943  0.87500000  1
  Li  Li126  1  0.94319057  0.69319057  0.37500000  1
  Li  Li127  1  0.05680943  0.19319057  0.12500000  1
  Li  Li128  1  0.58182082  0.58182082  0.58182082  1
  Li  Li129  1  0.91817918  0.41817918  0.08182082  1
  Li  Li130  1  0.41817918  0.08182082  0.91817918  1
  Li  Li131  1  0.08182082  0.91817918  0.41817918  1
  Li  Li132  1  0.33182082  0.83182082  0.66817918  1
  Li  Li133  1  0.16817918  0.16817918  0.16817918  1
  Li  Li134  1  0.83182082  0.66817918  0.33182082  1
  Li  Li135  1  0.66817918  0.33182082  0.83182082  1
  Li  Li136  1  0.08182082  0.08182082  0.08182082  1
  Li  Li137  1  0.41817918  0.91817918  0.58182082  1
  Li  Li138  1  0.91817918  0.58182082  0.41817918  1
  Li  Li139  1  0.58182082  0.41817918  0.91817918  1
  Li  Li140  1  0.83182082  0.33182082  0.16817918  1
  Li  Li141  1  0.66817918  0.66817918  0.66817918  1
  Li  Li142  1  0.33182082  0.16817918  0.83182082  1
  Li  Li143  1  0.16817918  0.83182082  0.33182082  1
  S  S144  1  0.45646381  0.99329749  0.02807883  1
  S  S145  1  0.04353619  0.00670251  0.52807883  1
  S  S146  1  0.54353619  0.49329749  0.47192117  1
  S  S147  1  0.95646381  0.50670251  0.97192117  1
  S  S148  1  0.02807883  0.45646381  0.99329749  1
  S  S149  1  0.52807883  0.04353619  0.00670251  1
  S  S150  1  0.47192117  0.54353619  0.49329749  1
  S  S151  1  0.97192117  0.95646381  0.50670251  1
  S  S152  1  0.99329749  0.02807883  0.45646381  1
  S  S153  1  0.00670251  0.52807883  0.04353619  1
  S  S154  1  0.49329749  0.47192117  0.54353619  1
  S  S155  1  0.50670251  0.97192117  0.95646381  1
  S  S156  1  0.74329749  0.70646381  0.22192117  1
  S  S157  1  0.75670251  0.29353619  0.72192117  1
  S  S158  1  0.24329749  0.79353619  0.77807883  1
  S  S159  1  0.25670251  0.20646381  0.27807883  1
  S  S160  1  0.20646381  0.27807883  0.25670251  1
  S  S161  1  0.79353619  0.77807883  0.24329749  1
  S  S162  1  0.29353619  0.72192117  0.75670251  1
  S  S163  1  0.70646381  0.22192117  0.74329749  1
  S  S164  1  0.77807883  0.24329749  0.79353619  1
  S  S165  1  0.27807883  0.25670251  0.20646381  1
  S  S166  1  0.22192117  0.74329749  0.70646381  1
  S  S167  1  0.72192117  0.75670251  0.29353619  1
  S  S168  1  0.95646381  0.49329749  0.52807883  1
  S  S169  1  0.54353619  0.50670251  0.02807883  1
  S  S170  1  0.04353619  0.99329749  0.97192117  1
  S  S171  1  0.45646381  0.00670251  0.47192117  1
  S  S172  1  0.52807883  0.95646381  0.49329749  1
  S  S173  1  0.02807883  0.54353619  0.50670251  1
  S  S174  1  0.97192117  0.04353619  0.99329749  1
  S  S175  1  0.47192117  0.45646381  0.00670251  1
  S  S176  1  0.49329749  0.52807883  0.95646381  1
  S  S177  1  0.50670251  0.02807883  0.54353619  1
  S  S178  1  0.99329749  0.97192117  0.04353619  1
  S  S179  1  0.00670251  0.47192117  0.45646381  1
  S  S180  1  0.24329749  0.20646381  0.72192117  1
  S  S181  1  0.25670251  0.79353619  0.22192117  1
  S  S182  1  0.74329749  0.29353619  0.27807883  1
  S  S183  1  0.75670251  0.70646381  0.77807883  1
  S  S184  1  0.70646381  0.77807883  0.75670251  1
  S  S185  1  0.29353619  0.27807883  0.74329749  1
  S  S186  1  0.79353619  0.22192117  0.25670251  1
  S  S187  1  0.20646381  0.72192117  0.24329749  1
  S  S188  1  0.27807883  0.74329749  0.29353619  1
  S  S189  1  0.77807883  0.75670251  0.70646381  1
  S  S190  1  0.72192117  0.24329749  0.20646381  1
  S  S191  1  0.22192117  0.25670251  0.79353619  1
  S  S192  1  0.39158153  0.00000000  0.25000000  1
  S  S193  1  0.10841847  -0.00000000  0.75000000  1
  S  S194  1  0.25000000  0.39158153  0.00000000  1
  S  S195  1  0.75000000  0.10841847  -0.00000000  1
  S  S196  1  0.00000000  0.25000000  0.39158153  1
  S  S197  1  0.00000000  0.75000000  0.10841847  1
  S  S198  1  0.75000000  0.64158153  -0.00000000  1
  S  S199  1  0.75000000  0.35841847  0.50000000  1
  S  S200  1  0.14158153  0.50000000  0.25000000  1
  S  S201  1  0.85841847  -0.00000000  0.25000000  1
  S  S202  1  0.00000000  0.25000000  0.85841847  1
  S  S203  1  0.50000000  0.25000000  0.14158153  1
  S  S204  1  0.89158153  0.50000000  0.75000000  1
  S  S205  1  0.60841847  0.50000000  0.25000000  1
  S  S206  1  0.75000000  0.89158153  0.50000000  1
  S  S207  1  0.25000000  0.60841847  0.50000000  1
  S  S208  1  0.50000000  0.75000000  0.89158153  1
  S  S209  1  0.50000000  0.25000000  0.60841847  1
  S  S210  1  0.25000000  0.14158153  0.50000000  1
  S  S211  1  0.25000000  0.85841847  0.00000000  1
  S  S212  1  0.64158153  -0.00000000  0.75000000  1
  S  S213  1  0.35841847  0.50000000  0.75000000  1
  S  S214  1  0.50000000  0.75000000  0.35841847  1
  S  S215  1  0.00000000  0.75000000  0.64158153  1
  Se  Se216  1  0.12500000  0.00000000  0.25000000  1
  Se  Se217  1  0.37500000  0.00000000  0.75000000  1
  Se  Se218  1  0.25000000  0.12500000  0.00000000  1
  Se  Se219  1  0.75000000  0.37500000  0.00000000  1
  Se  Se220  1  0.00000000  0.25000000  0.12500000  1
  Se  Se221  1  0.00000000  0.75000000  0.37500000  1
  Se  Se222  1  0.62500000  0.50000000  0.75000000  1
  Se  Se223  1  0.87500000  0.50000000  0.25000000  1
  Se  Se224  1  0.75000000  0.62500000  0.50000000  1
  Se  Se225  1  0.25000000  0.87500000  0.50000000  1
  Se  Se226  1  0.50000000  0.75000000  0.62500000  1
  Se  Se227  1  0.50000000  0.25000000  0.87500000  1
  Se  Se228  1  0.91811574  0.59495994  0.48250424  1
  Se  Se229  1  0.58188426  0.40504006  0.98250424  1
  Se  Se230  1  0.08188426  0.09495994  0.01749576  1
  Se  Se231  1  0.41811574  0.90504006  0.51749576  1
  Se  Se232  1  0.48250424  0.91811574  0.59495994  1
  Se  Se233  1  0.98250424  0.58188426  0.40504006  1
  Se  Se234  1  0.01749576  0.08188426  0.09495994  1
  Se  Se235  1  0.51749576  0.41811574  0.90504006  1
  Se  Se236  1  0.59495994  0.48250424  0.91811574  1
  Se  Se237  1  0.40504006  0.98250424  0.58188426  1
  Se  Se238  1  0.09495994  0.01749576  0.08188426  1
  Se  Se239  1  0.90504006  0.51749576  0.41811574  1
  Se  Se240  1  0.34495994  0.16811574  0.76749576  1
  Se  Se241  1  0.15504006  0.83188426  0.26749576  1
  Se  Se242  1  0.84495994  0.33188426  0.23250424  1
  Se  Se243  1  0.65504006  0.66811574  0.73250424  1
  Se  Se244  1  0.66811574  0.73250424  0.65504006  1
  Se  Se245  1  0.33188426  0.23250424  0.84495994  1
  Se  Se246  1  0.83188426  0.26749576  0.15504006  1
  Se  Se247  1  0.16811574  0.76749576  0.34495994  1
  Se  Se248  1  0.23250424  0.84495994  0.33188426  1
  Se  Se249  1  0.73250424  0.65504006  0.66811574  1
  Se  Se250  1  0.76749576  0.34495994  0.16811574  1
  Se  Se251  1  0.26749576  0.15504006  0.83188426  1
  Se  Se252  1  0.41811574  0.09495994  0.98250424  1
  Se  Se253  1  0.08188426  0.90504006  0.48250424  1
  Se  Se254  1  0.58188426  0.59495994  0.51749576  1
  Se  Se255  1  0.91811574  0.40504006  0.01749576  1
  Se  Se256  1  0.98250424  0.41811574  0.09495994  1
  Se  Se257  1  0.48250424  0.08188426  0.90504006  1
  Se  Se258  1  0.51749576  0.58188426  0.59495994  1
  Se  Se259  1  0.01749576  0.91811574  0.40504006  1
  Se  Se260  1  0.09495994  0.98250424  0.41811574  1
  Se  Se261  1  0.90504006  0.48250424  0.08188426  1
  Se  Se262  1  0.59495994  0.51749576  0.58188426  1
  Se  Se263  1  0.40504006  0.01749576  0.91811574  1
  Se  Se264  1  0.84495994  0.66811574  0.26749576  1
  Se  Se265  1  0.65504006  0.33188426  0.76749576  1
  Se  Se266  1  0.34495994  0.83188426  0.73250424  1
  Se  Se267  1  0.15504006  0.16811574  0.23250424  1
  Se  Se268  1  0.16811574  0.23250424  0.15504006  1
  Se  Se269  1  0.83188426  0.73250424  0.34495994  1
  Se  Se270  1  0.33188426  0.76749576  0.65504006  1
  Se  Se271  1  0.66811574  0.26749576  0.84495994  1
  Se  Se272  1  0.73250424  0.34495994  0.83188426  1
  Se  Se273  1  0.23250424  0.15504006  0.16811574  1
  Se  Se274  1  0.26749576  0.84495994  0.66811574  1
  Se  Se275  1  0.76749576  0.65504006  0.33188426  1
  Se  Se276  1  0.19972245  0.30797678  0.54925033  1
  Se  Se277  1  0.30027755  0.69202322  0.04925033  1
  Se  Se278  1  0.80027755  0.80797678  0.95074967  1
  Se  Se279  1  0.69972245  0.19202322  0.45074967  1
  Se  Se280  1  0.54925033  0.19972245  0.30797678  1
  Se  Se281  1  0.04925033  0.30027755  0.69202322  1
  Se  Se282  1  0.95074967  0.80027755  0.80797678  1
  Se  Se283  1  0.45074967  0.69972245  0.19202322  1
  Se  Se284  1  0.30797678  0.54925033  0.19972245  1
  Se  Se285  1  0.69202322  0.04925033  0.30027755  1
  Se  Se286  1  0.80797678  0.95074967  0.80027755  1
  Se  Se287  1  0.19202322  0.45074967  0.69972245  1
  Se  Se288  1  0.05797678  0.44972245  0.70074967  1
  Se  Se289  1  0.44202322  0.55027755  0.20074967  1
  Se  Se290  1  0.55797678  0.05027755  0.29925033  1
  Se  Se291  1  0.94202322  0.94972245  0.79925033  1
  Se  Se292  1  0.94972245  0.79925033  0.94202322  1
  Se  Se293  1  0.05027755  0.29925033  0.55797678  1
  Se  Se294  1  0.55027755  0.20074967  0.44202322  1
  Se  Se295  1  0.44972245  0.70074967  0.05797678  1
  Se  Se296  1  0.29925033  0.55797678  0.05027755  1
  Se  Se297  1  0.79925033  0.94202322  0.94972245  1
  Se  Se298  1  0.70074967  0.05797678  0.44972245  1
  Se  Se299  1  0.20074967  0.44202322  0.55027755  1
  Se  Se300  1  0.69972245  0.80797678  0.04925033  1
  Se  Se301  1  0.80027755  0.19202322  0.54925033  1
  Se  Se302  1  0.30027755  0.30797678  0.45074967  1
  Se  Se303  1  0.19972245  0.69202322  0.95074967  1
  Se  Se304  1  0.04925033  0.69972245  0.80797678  1
  Se  Se305  1  0.54925033  0.80027755  0.19202322  1
  Se  Se306  1  0.45074967  0.30027755  0.30797678  1
  Se  Se307  1  0.95074967  0.19972245  0.69202322  1
  Se  Se308  1  0.80797678  0.04925033  0.69972245  1
  Se  Se309  1  0.19202322  0.54925033  0.80027755  1
  Se  Se310  1  0.30797678  0.45074967  0.30027755  1
  Se  Se311  1  0.69202322  0.95074967  0.19972245  1
  Se  Se312  1  0.55797678  0.94972245  0.20074967  1
  Se  Se313  1  0.94202322  0.05027755  0.70074967  1
  Se  Se314  1  0.05797678  0.55027755  0.79925033  1
  Se  Se315  1  0.44202322  0.44972245  0.29925033  1
  Se  Se316  1  0.44972245  0.29925033  0.44202322  1
  Se  Se317  1  0.55027755  0.79925033  0.05797678  1
  Se  Se318  1  0.05027755  0.70074967  0.94202322  1
  Se  Se319  1  0.94972245  0.20074967  0.55797678  1
  Se  Se320  1  0.79925033  0.05797678  0.55027755  1
  Se  Se321  1  0.29925033  0.44202322  0.44972245  1
  Se  Se322  1  0.20074967  0.55797678  0.94972245  1
  Se  Se323  1  0.70074967  0.94202322  0.05027755  1
  Se  Se324  1  0.94983610  0.00000000  0.25000000  1
  Se  Se325  1  0.55016390  0.00000000  0.75000000  1
  Se  Se326  1  0.25000000  0.94983610  0.00000000  1
  Se  Se327  1  0.75000000  0.55016390  -0.00000000  1
  Se  Se328  1  0.00000000  0.25000000  0.94983610  1
  Se  Se329  1  0.00000000  0.75000000  0.55016390  1
  Se  Se330  1  0.75000000  0.19983610  0.00000000  1
  Se  Se331  1  0.75000000  0.80016390  0.50000000  1
  Se  Se332  1  0.69983610  0.50000000  0.25000000  1
  Se  Se333  1  0.30016390  0.00000000  0.25000000  1
  Se  Se334  1  0.00000000  0.25000000  0.30016390  1
  Se  Se335  1  0.50000000  0.25000000  0.69983610  1
  Se  Se336  1  0.44983610  0.50000000  0.75000000  1
  Se  Se337  1  0.05016390  0.50000000  0.25000000  1
  Se  Se338  1  0.75000000  0.44983610  0.50000000  1
  Se  Se339  1  0.25000000  0.05016390  0.50000000  1
  Se  Se340  1  0.50000000  0.75000000  0.44983610  1
  Se  Se341  1  0.50000000  0.25000000  0.05016390  1
  Se  Se342  1  0.25000000  0.69983610  0.50000000  1
  Se  Se343  1  0.25000000  0.30016390  0.00000000  1
  Se  Se344  1  0.19983610  -0.00000000  0.75000000  1
  Se  Se345  1  0.80016390  0.50000000  0.75000000  1
  Se  Se346  1  0.50000000  0.75000000  0.80016390  1
  Se  Se347  1  0.00000000  0.75000000  0.19983610  1
  Se  Se348  1  0.62500000  0.00000000  0.25000000  1
  Se  Se349  1  0.87500000  0.00000000  0.75000000  1
  Se  Se350  1  0.25000000  0.62500000  0.00000000  1
  Se  Se351  1  0.75000000  0.87500000  0.00000000  1
  Se  Se352  1  0.00000000  0.25000000  0.62500000  1
  Se  Se353  1  0.00000000  0.75000000  0.87500000  1
  Se  Se354  1  0.12500000  0.50000000  0.75000000  1
  Se  Se355  1  0.37500000  0.50000000  0.25000000  1
  Se  Se356  1  0.75000000  0.12500000  0.50000000  1
  Se  Se357  1  0.25000000  0.37500000  0.50000000  1
  Se  Se358  1  0.50000000  0.75000000  0.12500000  1
  Se  Se359  1  0.50000000  0.25000000  0.37500000  1
