# generated using pymatgen
data_Li2Mo(As2P)2
_symmetry_space_group_name_H-M   'P 1'
_cell_length_a   5.84037829
_cell_length_b   6.00983127
_cell_length_c   7.02422098
_cell_angle_alpha   92.38148854
_cell_angle_beta   95.68490640
_cell_angle_gamma   100.16742671
_symmetry_Int_Tables_number   1
_chemical_formula_structural   Li2Mo(As2P)2
_chemical_formula_sum   'Li2 Mo1 As4 P2'
_cell_volume   241.04355573
_cell_formula_units_Z   1
loop_
 _symmetry_equiv_pos_site_id
 _symmetry_equiv_pos_as_xyz
  1  'x, y, z'
loop_
 _atom_site_type_symbol
 _atom_site_label
 _atom_site_symmetry_multiplicity
 _atom_site_fract_x
 _atom_site_fract_y
 _atom_site_fract_z
 _atom_site_occupancy
  P  P0  1  0.00000000  0.00000000  0.00000000  1
  P  P1  1  0.50000000  0.50000000  0.50000000  1
  Mo  Mo2  1  0.25000000  0.25000000  0.25000000  1
  As  As3  1  0.75000000  0.25000000  0.00000000  1
  As  As4  1  0.25000000  0.75000000  0.50000000  1
  As  As5  1  0.23396612  0.09039345  0.23085974  1
  As  As6  1  0.33292496  0.65683527  0.64476628  1
  Li  Li7  1  0.15268177  0.02073324  0.33472256  1
  Li  Li8  1  0.19867552  0.09569227  0.64966150  1
