# generated using pymatgen
data_LiF
_symmetry_space_group_name_H-M   'P 1'
_cell_length_a   8.34379993
_cell_length_b   8.34379993
_cell_length_c   12.57919865
_cell_angle_alpha   90.00000000
_cell_angle_beta   90.00000000
_cell_angle_gamma   120.00000000
_symmetry_Int_Tables_number   1
_chemical_formula_structural   LiF
_chemical_formula_sum   'Li25 F25'
_cell_volume   758.42278296
_cell_formula_units_Z   25
loop_
 _symmetry_equiv_pos_site_id
 _symmetry_equiv_pos_as_xyz
  1  'x, y, z'
loop_
 _atom_site_type_symbol
 _atom_site_label
 _atom_site_symmetry_multiplicity
 _atom_site_fract_x
 _atom_site_fract_y
 _atom_site_fract_z
 _atom_site_occupancy
  F  F0  1  0.36575158  0.54992757  0.12852892  1
  F  F1  1  0.45007243  0.81582402  0.12852892  1
  F  F2  1  0.18417598  0.63424842  0.12852892  1
  F  F3  1  0.45007243  0.63424842  0.87147108  1
  F  F4  1  0.18417598  0.54992757  0.87147108  1
  F  F5  1  0.36575158  0.81582402  0.87147108  1
  F  F6  1  0.38455554  0.07194205  0.41939326  1
  F  F7  1  0.92805795  0.31261348  0.41939326  1
  F  F8  1  0.68738652  0.61544446  0.41939326  1
  F  F9  1  0.92805795  0.61544446  0.58060674  1
  F  F10  1  0.68738652  0.07194205  0.58060674  1
  F  F11  1  0.38455554  0.31261348  0.58060674  1
  F  F12  1  0.66666667  0.33333333  0.00000000  1
  F  F13  1  0.07259807  0.71728634  0.31731080  1
  F  F14  1  0.28271366  0.35531173  0.31731080  1
  F  F15  1  0.64468827  0.92740193  0.31731080  1
  F  F16  1  0.28271366  0.92740193  0.68268920  1
  F  F17  1  0.64468827  0.71728634  0.68268920  1
  F  F18  1  0.07259807  0.35531173  0.68268920  1
  F  F19  1  0.62090450  0.64249944  0.07079252  1
  F  F20  1  0.35750056  0.97840505  0.07079252  1
  F  F21  1  0.02159495  0.37909550  0.07079252  1
  F  F22  1  0.35750056  0.37909550  0.92920748  1
  F  F23  1  0.02159495  0.64249944  0.92920748  1
  F  F24  1  0.62090450  0.97840505  0.92920748  1
  Li  Li25  1  0.60190158  0.98437293  0.10502306  1
  Li  Li26  1  -0.98437293  -0.38247135  0.10502306  1
  Li  Li27  1  0.38247135  -0.60190158  0.10502306  1
  Li  Li28  1  -0.98437293  -0.60190158  -0.10502306  1
  Li  Li29  1  0.38247135  0.98437293  -0.10502306  1
  Li  Li30  1  0.60190158  -0.38247135  -0.10502306  1
  Li  Li31  1  0.96922630  0.80311389  0.56127820  1
  Li  Li32  1  0.19688611  0.16611241  0.56127820  1
  Li  Li33  1  0.83388759  0.03077370  0.56127820  1
  Li  Li34  1  0.19688611  0.03077370  0.43872180  1
  Li  Li35  1  0.83388759  0.80311389  0.43872180  1
  Li  Li36  1  0.96922630  0.16611241  0.43872180  1
  Li  Li37  1  0.66666667  0.33333333  0.50000000  1
  Li  Li38  1  0.66666667  0.33333333  0.69240352  1
  Li  Li39  1  0.66666667  0.33333333  0.30759648  1
  Li  Li40  1  0.33333333  0.66666667  0.00000000  1
  Li  Li41  1  0.00000000  0.00000000  0.50000000  1
  Li  Li42  1  0.48214477  0.64120191  0.68151036  1
  Li  Li43  1  0.35879809  0.84094286  0.68151036  1
  Li  Li44  1  0.15905714  0.51785523  0.68151036  1
  Li  Li45  1  0.35879809  0.51785523  0.31848964  1
  Li  Li46  1  0.15905714  0.64120191  0.31848964  1
  Li  Li47  1  0.48214477  0.84094286  0.31848964  1
  Li  Li48  1  0.66666667  0.33333333  0.07526285  1
  Li  Li49  1  0.66666667  0.33333333  0.92473715  1
