# generated using pymatgen
data_Li2Si4Te3F12
_symmetry_space_group_name_H-M   'P 1'
_cell_length_a   6.83044777
_cell_length_b   12.03132028
_cell_length_c   14.55467577
_cell_angle_alpha   90.00000000
_cell_angle_beta   90.00000000
_cell_angle_gamma   90.00000000
_symmetry_Int_Tables_number   1
_chemical_formula_structural   Li2Si4Te3F12
_chemical_formula_sum   'Li8 Si16 Te12 F48'
_cell_volume   1196.09313632
_cell_formula_units_Z   4
loop_
 _symmetry_equiv_pos_site_id
 _symmetry_equiv_pos_as_xyz
  1  'x, y, z'
loop_
 _atom_site_type_symbol
 _atom_site_label
 _atom_site_symmetry_multiplicity
 _atom_site_fract_x
 _atom_site_fract_y
 _atom_site_fract_z
 _atom_site_occupancy
  F  F0  1  0.55302834  0.54136661  0.32500585  1
  F  F1  1  0.44697166  0.45863339  0.32500585  1
  F  F2  1  0.94697166  0.04136661  0.67499415  1
  F  F3  1  0.05302834  0.95863339  0.67499415  1
  F  F4  1  0.44697166  0.45863339  0.67499415  1
  F  F5  1  0.55302834  0.54136661  0.67499415  1
  F  F6  1  0.05302834  0.95863339  0.32500585  1
  F  F7  1  0.94697166  0.04136661  0.32500585  1
  F  F8  1  0.87917957  0.88482040  0.60077109  1
  F  F9  1  0.12082043  0.11517960  0.60077109  1
  F  F10  1  0.62082043  0.38482040  0.39922891  1
  F  F11  1  0.37917957  0.61517960  0.39922891  1
  F  F12  1  0.12082043  0.11517960  0.39922891  1
  F  F13  1  0.87917957  0.88482040  0.39922891  1
  F  F14  1  0.37917957  0.61517960  0.60077109  1
  F  F15  1  0.62082043  0.38482040  0.60077109  1
  F  F16  1  0.00000000  0.00000000  0.68784799  1
  F  F17  1  0.50000000  0.50000000  0.31215201  1
  F  F18  1  0.00000000  0.00000000  0.31215201  1
  F  F19  1  0.50000000  0.50000000  0.68784799  1
  F  F20  1  0.39133978  0.55842239  0.43503715  1
  F  F21  1  0.60866022  0.44157761  0.43503715  1
  F  F22  1  0.10866022  0.05842239  0.56496285  1
  F  F23  1  0.89133978  0.94157761  0.56496285  1
  F  F24  1  0.60866022  0.44157761  0.56496285  1
  F  F25  1  0.39133978  0.55842239  0.56496285  1
  F  F26  1  0.89133978  0.94157761  0.43503715  1
  F  F27  1  0.10866022  0.05842239  0.43503715  1
  F  F28  1  0.68632000  0.80674621  0.82920742  1
  F  F29  1  0.31368000  0.19325379  0.82920742  1
  F  F30  1  0.81368000  0.30674621  0.17079258  1
  F  F31  1  0.18632000  0.69325379  0.17079258  1
  F  F32  1  0.31368000  0.19325379  0.17079258  1
  F  F33  1  0.68632000  0.80674621  0.17079258  1
  F  F34  1  0.18632000  0.69325379  0.82920742  1
  F  F35  1  0.81368000  0.30674621  0.82920742  1
  F  F36  1  0.55628864  0.64173311  0.11676516  1
  F  F37  1  0.44371136  0.35826689  0.11676516  1
  F  F38  1  0.94371136  0.14173311  0.88323484  1
  F  F39  1  0.05628864  0.85826689  0.88323484  1
  F  F40  1  0.44371136  0.35826689  0.88323484  1
  F  F41  1  0.55628864  0.64173311  0.88323484  1
  F  F42  1  0.05628864  0.85826689  0.11676516  1
  F  F43  1  0.94371136  0.14173311  0.11676516  1
  F  F44  1  0.35123700  0.64037561  0.50000000  1
  F  F45  1  0.64876300  0.35962439  0.50000000  1
  F  F46  1  0.14876300  0.14037561  0.50000000  1
  F  F47  1  0.85123700  0.85962439  0.50000000  1
  Li  Li48  1  0.00000000  0.50000000  0.00000000  1
  Li  Li49  1  0.50000000  0.00000000  0.00000000  1
  Li  Li50  1  0.00000000  0.00000000  0.50000000  1
  Li  Li51  1  0.50000000  0.50000000  0.50000000  1
  Li  Li52  1  0.35937327  0.39493627  0.50000000  1
  Li  Li53  1  0.64062673  0.60506373  0.50000000  1
  Li  Li54  1  0.14062673  0.89493627  0.50000000  1
  Li  Li55  1  0.85937327  0.10506373  0.50000000  1
  Si  Si56  1  0.00000000  0.00000000  0.00000000  1
  Si  Si57  1  0.50000000  0.50000000  0.00000000  1
  Si  Si58  1  0.16254070  0.60526035  0.82122813  1
  Si  Si59  1  -0.16254070  -0.60526035  0.82122813  1
  Si  Si60  1  0.33745930  1.10526035  -0.82122813  1
  Si  Si61  1  0.66254070  -0.10526035  -0.82122813  1
  Si  Si62  1  -0.16254070  -0.60526035  -0.82122813  1
  Si  Si63  1  0.16254070  0.60526035  -0.82122813  1
  Si  Si64  1  0.66254070  -0.10526035  0.82122813  1
  Si  Si65  1  0.33745930  1.10526035  0.82122813  1
  Si  Si66  1  0.43374809  0.85593012  0.50000000  1
  Si  Si67  1  0.56625191  0.14406988  0.50000000  1
  Si  Si68  1  0.06625191  0.35593012  0.50000000  1
  Si  Si69  1  0.93374809  0.64406988  0.50000000  1
  Si  Si70  1  0.00000000  0.50000000  0.50000000  1
  Si  Si71  1  0.50000000  0.00000000  0.50000000  1
  Te  Te72  1  0.59033794  0.34757185  0.89214101  1
  Te  Te73  1  0.40966206  0.65242815  0.89214101  1
  Te  Te74  1  0.90966206  0.84757185  0.10785899  1
  Te  Te75  1  0.09033794  0.15242815  0.10785899  1
  Te  Te76  1  0.40966206  0.65242815  0.10785899  1
  Te  Te77  1  0.59033794  0.34757185  0.10785899  1
  Te  Te78  1  0.09033794  0.15242815  0.89214101  1
  Te  Te79  1  0.90966206  0.84757185  0.89214101  1
  Te  Te80  1  0.00000000  0.00000000  0.84825427  1
  Te  Te81  1  0.50000000  0.50000000  0.15174573  1
  Te  Te82  1  0.00000000  0.00000000  0.15174573  1
  Te  Te83  1  0.50000000  0.50000000  0.84825427  1
