# generated using pymatgen
data_LiF
_symmetry_space_group_name_H-M   'P 1'
_cell_length_a   10.17921211
_cell_length_b   10.17921211
_cell_length_c   5.42509645
_cell_angle_alpha   90.00000000
_cell_angle_beta   90.00000000
_cell_angle_gamma   120.00000000
_symmetry_Int_Tables_number   1
_chemical_formula_structural   LiF
_chemical_formula_sum   'Li24 F24'
_cell_volume   486.81777089
_cell_formula_units_Z   24
loop_
 _symmetry_equiv_pos_site_id
 _symmetry_equiv_pos_as_xyz
  1  'x, y, z'
loop_
 _atom_site_type_symbol
 _atom_site_label
 _atom_site_symmetry_multiplicity
 _atom_site_fract_x
 _atom_site_fract_y
 _atom_site_fract_z
 _atom_site_occupancy
  F  F0  1  0.00000000  0.00000000  0.50000000  1
  F  F1  1  0.31156002  0.68843998  0.00000000  1
  F  F2  1  0.31156002  0.62312004  0.00000000  1
  F  F3  1  0.37687996  0.68843998  0.00000000  1
  F  F4  1  0.92262976  0.07737024  -0.00000000  1
  F  F5  1  0.92262976  0.84525952  0.00000000  1
  F  F6  1  0.15474048  0.07737024  0.00000000  1
  F  F7  1  0.16817617  0.83182383  0.50000000  1
  F  F8  1  0.16817617  0.33635235  0.50000000  1
  F  F9  1  0.66364765  0.83182383  0.50000000  1
  F  F10  1  0.83256638  0.32056357  0.21052802  1
  F  F11  1  0.67943643  0.51200281  0.21052802  1
  F  F12  1  0.48799719  0.16743362  0.21052802  1
  F  F13  1  0.67943643  0.16743362  0.78947198  1
  F  F14  1  0.48799719  0.32056357  0.78947198  1
  F  F15  1  0.83256638  0.51200281  0.78947198  1
  F  F16  1  0.43279246  0.26059478  0.97837158  1
  F  F17  1  0.73940522  0.17219768  0.97837158  1
  F  F18  1  0.82780232  0.56720754  0.97837158  1
  F  F19  1  0.73940522  0.56720754  0.02162842  1
  F  F20  1  0.82780232  0.26059478  0.02162842  1
  F  F21  1  0.43279246  0.17219768  0.02162842  1
  F  F22  1  0.00000000  0.00000000  0.28933000  1
  F  F23  1  0.00000000  0.00000000  0.71067000  1
  Li  Li24  1  0.73362891  0.69529222  0.15507898  1
  Li  Li25  1  -0.69529222  0.03833669  0.15507898  1
  Li  Li26  1  -0.03833669  -0.73362891  0.15507898  1
  Li  Li27  1  -0.69529222  -0.73362891  -0.15507898  1
  Li  Li28  1  -0.03833669  0.69529222  -0.15507898  1
  Li  Li29  1  0.73362891  0.03833669  -0.15507898  1
  Li  Li30  1  0.71772033  0.92162874  0.35199340  1
  Li  Li31  1  0.07837126  0.79609159  0.35199340  1
  Li  Li32  1  0.20390841  0.28227967  0.35199340  1
  Li  Li33  1  0.07837126  0.28227967  0.64800660  1
  Li  Li34  1  0.20390841  0.92162874  0.64800660  1
  Li  Li35  1  0.71772033  0.79609159  0.64800660  1
  Li  Li36  1  0.04696215  0.53727570  0.13268693  1
  Li  Li37  1  0.46272430  0.50968645  0.13268693  1
  Li  Li38  1  0.49031355  0.95303785  0.13268693  1
  Li  Li39  1  0.46272430  0.95303785  0.86731307  1
  Li  Li40  1  0.49031355  0.53727570  0.86731307  1
  Li  Li41  1  0.04696215  0.50968645  0.86731307  1
  Li  Li42  1  0.32552723  0.50403014  0.01844293  1
  Li  Li43  1  0.49596986  0.82149709  0.01844293  1
  Li  Li44  1  0.17850291  0.67447277  0.01844293  1
  Li  Li45  1  0.49596986  0.67447277  0.98155707  1
  Li  Li46  1  0.17850291  0.50403014  0.98155707  1
  Li  Li47  1  0.32552723  0.82149709  0.98155707  1
