# generated using pymatgen
data_LiF
_symmetry_space_group_name_H-M   'P 1'
_cell_length_a   8.55556302
_cell_length_b   8.55556302
_cell_length_c   7.84516876
_cell_angle_alpha   90.00000000
_cell_angle_beta   90.00000000
_cell_angle_gamma   120.00000000
_symmetry_Int_Tables_number   1
_chemical_formula_structural   LiF
_chemical_formula_sum   'Li26 F26'
_cell_volume   497.31334331
_cell_formula_units_Z   26
loop_
 _symmetry_equiv_pos_site_id
 _symmetry_equiv_pos_as_xyz
  1  'x, y, z'
loop_
 _atom_site_type_symbol
 _atom_site_label
 _atom_site_symmetry_multiplicity
 _atom_site_fract_x
 _atom_site_fract_y
 _atom_site_fract_z
 _atom_site_occupancy
  F  F0  1  0.38483747  0.15866934  0.47666072  1
  F  F1  1  0.84133066  0.22616813  0.47666072  1
  F  F2  1  0.77383187  0.61516253  0.47666072  1
  F  F3  1  0.84133066  0.61516253  0.52333928  1
  F  F4  1  0.77383187  0.15866934  0.52333928  1
  F  F5  1  0.38483747  0.22616813  0.52333928  1
  F  F6  1  0.65256097  0.15209396  0.07781370  1
  F  F7  1  0.84790604  0.50046701  0.07781370  1
  F  F8  1  0.49953299  0.34743903  0.07781370  1
  F  F9  1  0.84790604  0.34743903  0.92218630  1
  F  F10  1  0.49953299  0.15209396  0.92218630  1
  F  F11  1  0.65256097  0.50046701  0.92218630  1
  F  F12  1  0.00000000  0.00000000  0.72224064  1
  F  F13  1  0.00000000  0.00000000  0.27775936  1
  F  F14  1  0.63012200  0.94285513  0.98136592  1
  F  F15  1  0.05714487  0.68726688  0.98136592  1
  F  F16  1  0.31273312  0.36987800  0.98136592  1
  F  F17  1  0.05714487  0.36987800  0.01863408  1
  F  F18  1  0.31273312  0.94285513  0.01863408  1
  F  F19  1  0.63012200  0.68726688  0.01863408  1
  F  F20  1  0.48827841  0.62544861  0.77088847  1
  F  F21  1  0.37455139  0.86282980  0.77088847  1
  F  F22  1  0.13717020  0.51172159  0.77088847  1
  F  F23  1  0.37455139  0.51172159  0.22911153  1
  F  F24  1  0.13717020  0.62544861  0.22911153  1
  F  F25  1  0.48827841  0.86282980  0.22911153  1
  Li  Li26  1  0.10008493  0.54507623  0.91160854  1
  Li  Li27  1  -0.54507623  -0.44499130  0.91160854  1
  Li  Li28  1  0.44499130  -0.10008493  0.91160854  1
  Li  Li29  1  -0.54507623  -0.10008493  -0.91160854  1
  Li  Li30  1  0.44499130  0.54507623  -0.91160854  1
  Li  Li31  1  0.10008493  -0.44499130  -0.91160854  1
  Li  Li32  1  0.33333333  0.66666667  0.00000000  1
  Li  Li33  1  0.00076429  0.18962110  0.08116230  1
  Li  Li34  1  0.81037890  0.81114319  0.08116230  1
  Li  Li35  1  0.18885681  0.99923571  0.08116230  1
  Li  Li36  1  0.81037890  0.99923571  0.91883770  1
  Li  Li37  1  0.18885681  0.18962110  0.91883770  1
  Li  Li38  1  0.00076429  0.81114319  0.91883770  1
  Li  Li39  1  0.25539859  0.49072785  0.65275332  1
  Li  Li40  1  0.50927215  0.76467074  0.65275332  1
  Li  Li41  1  0.23532926  0.74460141  0.65275332  1
  Li  Li42  1  0.50927215  0.74460141  0.34724668  1
  Li  Li43  1  0.23532926  0.49072785  0.34724668  1
  Li  Li44  1  0.25539859  0.76467074  0.34724668  1
  Li  Li45  1  0.21461154  0.27728508  0.73889866  1
  Li  Li46  1  0.72271492  0.93732646  0.73889866  1
  Li  Li47  1  0.06267354  0.78538846  0.73889866  1
  Li  Li48  1  0.72271492  0.78538846  0.26110134  1
  Li  Li49  1  0.06267354  0.27728508  0.26110134  1
  Li  Li50  1  0.21461154  0.93732646  0.26110134  1
  Li  Li51  1  0.00000000  0.00000000  0.50000000  1
