# generated using pymatgen
data_Li4TeF2
_symmetry_space_group_name_H-M   'P 1'
_cell_length_a   11.96741783
_cell_length_b   11.96741783
_cell_length_c   21.82816504
_cell_angle_alpha   90.00000000
_cell_angle_beta   90.00000000
_cell_angle_gamma   120.00000000
_symmetry_Int_Tables_number   1
_chemical_formula_structural   Li4TeF2
_chemical_formula_sum   'Li96 Te24 F48'
_cell_volume   2707.37720893
_cell_formula_units_Z   24
loop_
 _symmetry_equiv_pos_site_id
 _symmetry_equiv_pos_as_xyz
  1  'x, y, z'
loop_
 _atom_site_type_symbol
 _atom_site_label
 _atom_site_symmetry_multiplicity
 _atom_site_fract_x
 _atom_site_fract_y
 _atom_site_fract_z
 _atom_site_occupancy
  F  F0  1  0.14430033  0.61159805  0.45943548  1
  F  F1  1  -0.61159805  -0.46729773  0.45943548  1
  F  F2  1  0.46729773  -0.14430033  0.45943548  1
  F  F3  1  -0.61159805  -0.14430033  -0.45943548  1
  F  F4  1  0.46729773  0.61159805  -0.45943548  1
  F  F5  1  0.14430033  -0.46729773  -0.45943548  1
  F  F6  1  0.15369906  0.90431920  0.13336185  1
  F  F7  1  0.09568080  0.24937987  0.13336185  1
  F  F8  1  0.75062013  0.84630094  0.13336185  1
  F  F9  1  0.09568080  0.84630094  0.86663815  1
  F  F10  1  0.75062013  0.90431920  0.86663815  1
  F  F11  1  0.15369906  0.24937987  0.86663815  1
  F  F12  1  0.30220139  0.10038335  0.20033048  1
  F  F13  1  0.89961665  0.20181804  0.20033048  1
  F  F14  1  0.79818196  0.69779861  0.20033048  1
  F  F15  1  0.89961665  0.69779861  0.79966952  1
  F  F16  1  0.79818196  0.10038335  0.79966952  1
  F  F17  1  0.30220139  0.20181804  0.79966952  1
  F  F18  1  0.00000000  0.00000000  0.50000000  1
  F  F19  1  0.63378016  0.36621984  0.50000000  1
  F  F20  1  0.63378016  0.26756032  0.50000000  1
  F  F21  1  0.73243968  0.36621984  0.50000000  1
  F  F22  1  0.18470675  0.77970717  0.70538831  1
  F  F23  1  0.22029283  0.40499958  0.70538831  1
  F  F24  1  0.59500042  0.81529325  0.70538831  1
  F  F25  1  0.22029283  0.81529325  0.29461169  1
  F  F26  1  0.59500042  0.77970717  0.29461169  1
  F  F27  1  0.18470675  0.40499958  0.29461169  1
  F  F28  1  0.25505293  0.20283589  0.02250524  1
  F  F29  1  0.79716411  0.05221703  0.02250524  1
  F  F30  1  0.94778297  0.74494707  0.02250524  1
  F  F31  1  0.79716411  0.74494707  0.97749476  1
  F  F32  1  0.94778297  0.20283589  0.97749476  1
  F  F33  1  0.25505293  0.05221703  0.97749476  1
  F  F34  1  0.33333333  0.66666667  0.09595385  1
  F  F35  1  0.33333333  0.66666667  0.90404615  1
  F  F36  1  0.51106712  0.70297617  0.67207173  1
  F  F37  1  0.29702383  0.80809095  0.67207173  1
  F  F38  1  0.19190905  0.48893288  0.67207173  1
  F  F39  1  0.29702383  0.48893288  0.32792827  1
  F  F40  1  0.19190905  0.70297617  0.32792827  1
  F  F41  1  0.51106712  0.80809095  0.32792827  1
  F  F42  1  0.90983642  0.69274875  0.20213022  1
  F  F43  1  0.30725125  0.21708768  0.20213022  1
  F  F44  1  0.78291232  0.09016358  0.20213022  1
  F  F45  1  0.30725125  0.09016358  0.79786978  1
  F  F46  1  0.78291232  0.69274875  0.79786978  1
  F  F47  1  0.90983642  0.21708768  0.79786978  1
  Li  Li48  1  0.30644863  0.50827107  0.95630548  1
  Li  Li49  1  0.49172893  0.79817755  0.95630548  1
  Li  Li50  1  0.20182245  0.69355137  0.95630548  1
  Li  Li51  1  0.49172893  0.69355137  0.04369452  1
  Li  Li52  1  0.20182245  0.50827107  0.04369452  1
  Li  Li53  1  0.30644863  0.79817755  0.04369452  1
  Li  Li54  1  0.66666667  0.33333333  0.00000000  1
  Li  Li55  1  0.00000000  0.00000000  0.00000000  1
  Li  Li56  1  0.07771997  0.92228003  0.00000000  1
  Li  Li57  1  0.07771997  0.15543995  0.00000000  1
  Li  Li58  1  0.84456005  0.92228003  0.00000000  1
  Li  Li59  1  0.96663951  0.14115434  0.84095753  1
  Li  Li60  1  0.85884566  0.82548516  0.84095753  1
  Li  Li61  1  0.17451484  0.03336049  0.84095753  1
  Li  Li62  1  0.85884566  0.03336049  0.15904247  1
  Li  Li63  1  0.17451484  0.14115434  0.15904247  1
  Li  Li64  1  0.96663951  0.82548516  0.15904247  1
  Li  Li65  1  0.94464810  0.16364286  0.06051699  1
  Li  Li66  1  0.83635714  0.78100524  0.06051699  1
  Li  Li67  1  0.21899476  0.05535190  0.06051699  1
  Li  Li68  1  0.83635714  0.05535190  0.93948301  1
  Li  Li69  1  0.21899476  0.16364286  0.93948301  1
  Li  Li70  1  0.94464810  0.78100524  0.93948301  1
  Li  Li71  1  0.52259585  0.47740415  0.50000000  1
  Li  Li72  1  0.52259585  0.04519171  0.50000000  1
  Li  Li73  1  0.95480829  0.47740415  0.50000000  1
  Li  Li74  1  0.38358755  0.34852716  0.68605768  1
  Li  Li75  1  0.65147284  0.03506039  0.68605768  1
  Li  Li76  1  0.96493961  0.61641245  0.68605768  1
  Li  Li77  1  0.65147284  0.61641245  0.31394232  1
  Li  Li78  1  0.96493961  0.34852716  0.31394232  1
  Li  Li79  1  0.38358755  0.03506039  0.31394232  1
  Li  Li80  1  0.00000000  0.00000000  0.40810167  1
  Li  Li81  1  0.00000000  0.00000000  0.59189833  1
  Li  Li82  1  0.33333333  0.66666667  0.25024090  1
  Li  Li83  1  0.33333333  0.66666667  0.74975910  1
  Li  Li84  1  0.78740981  0.21259019  0.00000000  1
  Li  Li85  1  0.78740981  0.57481961  0.00000000  1
  Li  Li86  1  0.42518039  0.21259019  0.00000000  1
  Li  Li87  1  0.46179014  0.46370660  0.75537275  1
  Li  Li88  1  0.53629340  0.99808354  0.75537275  1
  Li  Li89  1  0.00191646  0.53820986  0.75537275  1
  Li  Li90  1  0.53629340  0.53820986  0.24462725  1
  Li  Li91  1  0.00191646  0.46370660  0.24462725  1
  Li  Li92  1  0.46179014  0.99808354  0.24462725  1
  Li  Li93  1  0.37714994  0.87922752  0.97054101  1
  Li  Li94  1  0.12077248  0.49792242  0.97054101  1
  Li  Li95  1  0.50207758  0.62285006  0.97054101  1
  Li  Li96  1  0.12077248  0.62285006  0.02945899  1
  Li  Li97  1  0.50207758  0.87922752  0.02945899  1
  Li  Li98  1  0.37714994  0.49792242  0.02945899  1
  Li  Li99  1  0.53302107  0.19065496  0.30108412  1
  Li  Li100  1  0.80934504  0.34236611  0.30108412  1
  Li  Li101  1  0.65763389  0.46697893  0.30108412  1
  Li  Li102  1  0.80934504  0.46697893  0.69891588  1
  Li  Li103  1  0.65763389  0.19065496  0.69891588  1
  Li  Li104  1  0.53302107  0.34236611  0.69891588  1
  Li  Li105  1  0.29691413  0.29434901  0.95762974  1
  Li  Li106  1  0.70565099  0.00256512  0.95762974  1
  Li  Li107  1  0.99743488  0.70308587  0.95762974  1
  Li  Li108  1  0.70565099  0.70308587  0.04237026  1
  Li  Li109  1  0.99743488  0.29434901  0.04237026  1
  Li  Li110  1  0.29691413  0.00256512  0.04237026  1
  Li  Li111  1  0.43153572  0.79692057  0.19353292  1
  Li  Li112  1  0.20307943  0.63461514  0.19353292  1
  Li  Li113  1  0.36538486  0.56846428  0.19353292  1
  Li  Li114  1  0.20307943  0.56846428  0.80646708  1
  Li  Li115  1  0.36538486  0.79692057  0.80646708  1
  Li  Li116  1  0.43153572  0.63461514  0.80646708  1
  Li  Li117  1  0.54410333  0.24280740  0.87209699  1
  Li  Li118  1  0.75719260  0.30129593  0.87209699  1
  Li  Li119  1  0.69870407  0.45589667  0.87209699  1
  Li  Li120  1  0.75719260  0.45589667  0.12790301  1
  Li  Li121  1  0.69870407  0.24280740  0.12790301  1
  Li  Li122  1  0.54410333  0.30129593  0.12790301  1
  Li  Li123  1  0.00000000  0.00000000  0.71141109  1
  Li  Li124  1  0.00000000  0.00000000  0.28858891  1
  Li  Li125  1  0.87554843  0.25588233  0.48445683  1
  Li  Li126  1  0.74411767  0.61966610  0.48445683  1
  Li  Li127  1  0.38033390  0.12445157  0.48445683  1
  Li  Li128  1  0.74411767  0.12445157  0.51554317  1
  Li  Li129  1  0.38033390  0.25588233  0.51554317  1
  Li  Li130  1  0.87554843  0.61966610  0.51554317  1
  Li  Li131  1  0.71763471  0.77101454  0.42670639  1
  Li  Li132  1  0.22898546  0.94662016  0.42670639  1
  Li  Li133  1  0.05337984  0.28236529  0.42670639  1
  Li  Li134  1  0.22898546  0.28236529  0.57329361  1
  Li  Li135  1  0.05337984  0.77101454  0.57329361  1
  Li  Li136  1  0.71763471  0.94662016  0.57329361  1
  Li  Li137  1  0.33333333  0.66666667  0.50000000  1
  Li  Li138  1  0.96986490  0.18725695  0.20227923  1
  Li  Li139  1  0.81274305  0.78260795  0.20227923  1
  Li  Li140  1  0.21739205  0.03013510  0.20227923  1
  Li  Li141  1  0.81274305  0.03013510  0.79772077  1
  Li  Li142  1  0.21739205  0.18725695  0.79772077  1
  Li  Li143  1  0.96986490  0.78260795  0.79772077  1
  Te  Te144  1  0.33333333  0.66666667  0.00000000  1
  Te  Te145  1  0.65074592  0.69153230  0.97830234  1
  Te  Te146  1  0.30846770  0.95921362  0.97830234  1
  Te  Te147  1  0.04078638  0.34925408  0.97830234  1
  Te  Te148  1  0.30846770  0.34925408  0.02169766  1
  Te  Te149  1  0.04078638  0.69153230  0.02169766  1
  Te  Te150  1  0.65074592  0.95921362  0.02169766  1
  Te  Te151  1  0.17166398  0.01491783  0.14351151  1
  Te  Te152  1  0.98508217  0.15674615  0.14351151  1
  Te  Te153  1  0.84325385  0.82833602  0.14351151  1
  Te  Te154  1  0.98508217  0.82833602  0.85648849  1
  Te  Te155  1  0.84325385  0.01491783  0.85648849  1
  Te  Te156  1  0.17166398  0.15674615  0.85648849  1
  Te  Te157  1  0.29489176  0.81507430  0.32423928  1
  Te  Te158  1  0.18492570  0.47981746  0.32423928  1
  Te  Te159  1  0.52018254  0.70510824  0.32423928  1
  Te  Te160  1  0.18492570  0.70510824  0.67576072  1
  Te  Te161  1  0.52018254  0.81507430  0.67576072  1
  Te  Te162  1  0.29489176  0.47981746  0.67576072  1
  Te  Te163  1  0.88935354  0.11064646  0.50000000  1
  Te  Te164  1  0.88935354  0.77870707  0.50000000  1
  Te  Te165  1  0.22129293  0.11064646  0.50000000  1
  Te  Te166  1  0.66666667  0.33333333  0.63218863  1
  Te  Te167  1  0.66666667  0.33333333  0.36781137  1
