# generated using pymatgen
data_LiF
_symmetry_space_group_name_H-M   'P 1'
_cell_length_a   13.18410312
_cell_length_b   6.57809226
_cell_length_c   11.03116982
_cell_angle_alpha   90.00000000
_cell_angle_beta   90.00000000
_cell_angle_gamma   90.00000000
_symmetry_Int_Tables_number   1
_chemical_formula_structural   LiF
_chemical_formula_sum   'Li24 F24'
_cell_volume   956.69195561
_cell_formula_units_Z   24
loop_
 _symmetry_equiv_pos_site_id
 _symmetry_equiv_pos_as_xyz
  1  'x, y, z'
loop_
 _atom_site_type_symbol
 _atom_site_label
 _atom_site_symmetry_multiplicity
 _atom_site_fract_x
 _atom_site_fract_y
 _atom_site_fract_z
 _atom_site_occupancy
  F  F0  1  0.50079718  0.13249037  0.75924402  1
  F  F1  1  -0.00079718  -0.13249037  1.25924402  1
  F  F2  1  -0.50079718  0.63249037  -0.75924402  1
  F  F3  1  1.00079718  0.36750963  -0.25924402  1
  F  F4  1  -0.50079718  -0.13249037  -0.75924402  1
  F  F5  1  1.00079718  0.13249037  -0.25924402  1
  F  F6  1  0.50079718  0.36750963  0.75924402  1
  F  F7  1  -0.00079718  0.63249037  1.25924402  1
  F  F8  1  0.83548653  0.83977729  0.53656729  1
  F  F9  1  0.66451347  0.16022271  0.03656729  1
  F  F10  1  0.16451347  0.33977729  0.46343271  1
  F  F11  1  0.33548653  0.66022271  0.96343271  1
  F  F12  1  0.16451347  0.16022271  0.46343271  1
  F  F13  1  0.33548653  0.83977729  0.96343271  1
  F  F14  1  0.83548653  0.66022271  0.53656729  1
  F  F15  1  0.66451347  0.33977729  0.03656729  1
  F  F16  1  0.16534594  0.25000000  0.39741586  1
  F  F17  1  0.33465406  0.75000000  0.89741586  1
  F  F18  1  0.83465406  0.75000000  0.60258414  1
  F  F19  1  0.66534594  0.25000000  0.10258414  1
  F  F20  1  0.00000000  0.00000000  0.50000000  1
  F  F21  1  0.50000000  0.00000000  -0.00000000  1
  F  F22  1  0.00000000  0.50000000  0.50000000  1
  F  F23  1  0.50000000  0.50000000  -0.00000000  1
  Li  Li24  1  0.00000000  0.00000000  0.00000000  1
  Li  Li25  1  0.50000000  0.00000000  0.50000000  1
  Li  Li26  1  0.00000000  0.50000000  0.00000000  1
  Li  Li27  1  0.50000000  0.50000000  0.50000000  1
  Li  Li28  1  0.29231818  0.25000000  0.83740228  1
  Li  Li29  1  0.20768182  0.75000000  0.33740228  1
  Li  Li30  1  0.70768182  0.75000000  0.16259772  1
  Li  Li31  1  0.79231818  0.25000000  0.66259772  1
  Li  Li32  1  0.66036965  0.25000000  0.37725872  1
  Li  Li33  1  0.83963035  0.75000000  0.87725872  1
  Li  Li34  1  0.33963035  0.75000000  0.62274128  1
  Li  Li35  1  0.16036965  0.25000000  0.12274128  1
  Li  Li36  1  0.80843934  0.25000000  0.38332025  1
  Li  Li37  1  0.69156066  0.75000000  0.88332025  1
  Li  Li38  1  0.19156066  0.75000000  0.61667975  1
  Li  Li39  1  0.30843934  0.25000000  0.11667975  1
  Li  Li40  1  0.94312644  0.25000000  0.58066356  1
  Li  Li41  1  0.55687356  0.75000000  0.08066356  1
  Li  Li42  1  0.05687356  0.75000000  0.41933644  1
  Li  Li43  1  0.44312644  0.25000000  0.91933644  1
  Li  Li44  1  0.10758811  0.25000000  0.59814175  1
  Li  Li45  1  0.39241189  0.75000000  0.09814175  1
  Li  Li46  1  0.89241189  0.75000000  0.40185825  1
  Li  Li47  1  0.60758811  0.25000000  0.90185825  1
