# generated using pymatgen
data_Li3Y2MoP3Se2
_symmetry_space_group_name_H-M   'P 1'
_cell_length_a   6.00913693
_cell_length_b   6.09106831
_cell_length_c   7.44153291
_cell_angle_alpha   92.96979543
_cell_angle_beta   96.46759704
_cell_angle_gamma   101.92848792
_symmetry_Int_Tables_number   1
_chemical_formula_structural   Li3Y2MoP3Se2
_chemical_formula_sum   'Li3 Y2 Mo1 P3 Se2'
_cell_volume   264.00675292
_cell_formula_units_Z   1
loop_
 _symmetry_equiv_pos_site_id
 _symmetry_equiv_pos_as_xyz
  1  'x, y, z'
loop_
 _atom_site_type_symbol
 _atom_site_label
 _atom_site_symmetry_multiplicity
 _atom_site_fract_x
 _atom_site_fract_y
 _atom_site_fract_z
 _atom_site_occupancy
  Se  Se0  1  0.00000000  0.00000000  0.00000000  1
  Se  Se1  1  0.50000000  0.50000000  0.50000000  1
  Y  Y2  1  0.50000000  0.50000000  0.00000000  1
  Y  Y3  1  0.50000000  0.00000000  0.50000000  1
  P  P4  1  0.00000000  0.50000000  0.50000000  1
  P  P5  1  0.38280334  0.95134230  0.84544879  1
  P  P6  1  0.05707199  0.24823943  0.44060842  1
  Mo  Mo7  1  0.72353621  0.12910373  0.29071362  1
  Li  Li8  1  0.89532057  0.98767521  0.48009267  1
  Li  Li9  1  0.42604442  0.85230485  0.99565279  1
  Li  Li10  1  0.04632288  0.84049759  0.43618153  1
