# generated using pymatgen
data_LiY2As4P2Se
_symmetry_space_group_name_H-M   'P 1'
_cell_length_a   3.98581993
_cell_length_b   4.21196011
_cell_length_c   6.36225989
_cell_angle_alpha   96.47661131
_cell_angle_beta   102.79455344
_cell_angle_gamma   112.86025363
_symmetry_Int_Tables_number   1
_chemical_formula_structural   LiY2As4P2Se
_chemical_formula_sum   'Li1 Y2 As4 P2 Se1'
_cell_volume   93.59811616
_cell_formula_units_Z   1
loop_
 _symmetry_equiv_pos_site_id
 _symmetry_equiv_pos_as_xyz
  1  'x, y, z'
loop_
 _atom_site_type_symbol
 _atom_site_label
 _atom_site_symmetry_multiplicity
 _atom_site_fract_x
 _atom_site_fract_y
 _atom_site_fract_z
 _atom_site_occupancy
  P  P0  1  0.12500000  0.00000000  0.25000000  1
  P  P1  1  0.00000000  0.00000000  0.00000000  1
  Se  Se2  1  0.37500000  0.00000000  0.25000000  1
  As  As3  1  0.25000000  0.25000000  0.25000000  1
  As  As4  1  0.00000000  0.25000000  0.12500000  1
  As  As5  1  0.20445877  0.86386522  0.00165225  1
  As  As6  1  0.59734818  0.37419844  0.18886100  1
  Li  Li7  1  0.94698518  0.31114027  0.87545161  1
  Y  Y8  1  0.76922519  0.76266497  0.82748508  1
  Y  Y9  1  0.60567661  0.67397678  0.01020773  1
