# generated using pymatgen
data_LiF
_symmetry_space_group_name_H-M   'P 1'
_cell_length_a   4.87251875
_cell_length_b   10.69444766
_cell_length_c   8.23901645
_cell_angle_alpha   90.00000000
_cell_angle_beta   90.00000000
_cell_angle_gamma   90.00000000
_symmetry_Int_Tables_number   1
_chemical_formula_structural   LiF
_chemical_formula_sum   'Li22 F22'
_cell_volume   429.32605684
_cell_formula_units_Z   22
loop_
 _symmetry_equiv_pos_site_id
 _symmetry_equiv_pos_as_xyz
  1  'x, y, z'
loop_
 _atom_site_type_symbol
 _atom_site_label
 _atom_site_symmetry_multiplicity
 _atom_site_fract_x
 _atom_site_fract_y
 _atom_site_fract_z
 _atom_site_occupancy
  F  F0  1  0.00000000  0.00000000  0.50000000  1
  F  F1  1  0.50000000  0.50000000  0.50000000  1
  F  F2  1  0.00000000  0.50000000  0.50000000  1
  F  F3  1  0.50000000  0.00000000  0.50000000  1
  F  F4  1  0.24863294  0.06756671  0.00000000  1
  F  F5  1  0.75136706  0.93243329  0.00000000  1
  F  F6  1  0.25136706  0.56756671  0.00000000  1
  F  F7  1  0.74863294  0.43243329  -0.00000000  1
  F  F8  1  0.02890613  0.56848701  0.07988945  1
  F  F9  1  -0.02890613  -0.56848701  0.07988945  1
  F  F10  1  0.47109387  1.06848701  -0.07988945  1
  F  F11  1  0.52890613  -0.06848701  -0.07988945  1
  F  F12  1  -0.02890613  -0.56848701  -0.07988945  1
  F  F13  1  0.02890613  0.56848701  -0.07988945  1
  F  F14  1  0.52890613  -0.06848701  0.07988945  1
  F  F15  1  0.47109387  1.06848701  0.07988945  1
  F  F16  1  0.39749730  0.59824364  0.00000000  1
  F  F17  1  0.60250270  0.40175636  0.00000000  1
  F  F18  1  0.10250270  0.09824364  0.00000000  1
  F  F19  1  0.89749730  0.90175636  0.00000000  1
  F  F20  1  0.00000000  0.00000000  0.00000000  1
  F  F21  1  0.50000000  0.50000000  0.00000000  1
  Li  Li22  1  0.28108489  0.67005294  0.67691332  1
  Li  Li23  1  0.71891511  0.32994706  0.67691332  1
  Li  Li24  1  0.21891511  0.17005294  0.32308668  1
  Li  Li25  1  0.78108489  0.82994706  0.32308668  1
  Li  Li26  1  0.71891511  0.32994706  0.32308668  1
  Li  Li27  1  0.28108489  0.67005294  0.32308668  1
  Li  Li28  1  0.78108489  0.82994706  0.67691332  1
  Li  Li29  1  0.21891511  0.17005294  0.67691332  1
  Li  Li30  1  0.00000000  0.00000000  0.73961199  1
  Li  Li31  1  0.50000000  0.50000000  0.26038801  1
  Li  Li32  1  0.00000000  0.00000000  0.26038801  1
  Li  Li33  1  0.50000000  0.50000000  0.73961199  1
  Li  Li34  1  0.00000000  0.50000000  0.00000000  1
  Li  Li35  1  0.50000000  0.00000000  0.00000000  1
  Li  Li36  1  0.81527084  0.14422278  0.59325924  1
  Li  Li37  1  0.18472916  0.85577722  0.59325924  1
  Li  Li38  1  0.68472916  0.64422278  0.40674076  1
  Li  Li39  1  0.31527084  0.35577722  0.40674076  1
  Li  Li40  1  0.18472916  0.85577722  0.40674076  1
  Li  Li41  1  0.81527084  0.14422278  0.40674076  1
  Li  Li42  1  0.31527084  0.35577722  0.59325924  1
  Li  Li43  1  0.68472916  0.64422278  0.59325924  1
