# generated using pymatgen
data_LiF
_symmetry_space_group_name_H-M   'P 1'
_cell_length_a   12.48351496
_cell_length_b   12.48351496
_cell_length_c   3.05219180
_cell_angle_alpha   90.00000000
_cell_angle_beta   90.00000000
_cell_angle_gamma   120.00000000
_symmetry_Int_Tables_number   1
_chemical_formula_structural   LiF
_chemical_formula_sum   'Li15 F15'
_cell_volume   411.92317332
_cell_formula_units_Z   15
loop_
 _symmetry_equiv_pos_site_id
 _symmetry_equiv_pos_as_xyz
  1  'x, y, z'
loop_
 _atom_site_type_symbol
 _atom_site_label
 _atom_site_symmetry_multiplicity
 _atom_site_fract_x
 _atom_site_fract_y
 _atom_site_fract_z
 _atom_site_occupancy
  F  F0  1  0.93379221  0.06620779  0.00000000  1
  F  F1  1  0.93379221  0.86758442  0.00000000  1
  F  F2  1  0.13241558  0.06620779  0.00000000  1
  F  F3  1  0.79540051  0.20459949  0.50000000  1
  F  F4  1  0.79540051  0.59080102  0.50000000  1
  F  F5  1  0.40919898  0.20459949  0.50000000  1
  F  F6  1  0.87717022  0.37228567  0.16464486  1
  F  F7  1  0.62771433  0.50488454  0.16464486  1
  F  F8  1  0.49511546  0.12282978  0.16464486  1
  F  F9  1  0.62771433  0.12282978  0.83535514  1
  F  F10  1  0.49511546  0.37228567  0.83535514  1
  F  F11  1  0.87717022  0.50488454  0.83535514  1
  F  F12  1  0.00000000  0.00000000  0.20124846  1
  F  F13  1  0.00000000  0.00000000  0.79875154  1
  F  F14  1  0.00000000  0.00000000  0.50000000  1
  Li  Li15  1  0.24289599  0.75710401  0.50000000  1
  Li  Li16  1  0.24289599  0.48579197  0.50000000  1
  Li  Li17  1  0.51420803  0.75710401  0.50000000  1
  Li  Li18  1  0.30216274  0.02916792  0.57825796  1
  Li  Li19  1  -0.02916792  0.27299482  0.57825796  1
  Li  Li20  1  -0.27299482  -0.30216274  0.57825796  1
  Li  Li21  1  -0.02916792  -0.30216274  -0.57825796  1
  Li  Li22  1  -0.27299482  0.02916792  -0.57825796  1
  Li  Li23  1  0.30216274  0.27299482  -0.57825796  1
  Li  Li24  1  0.66666667  0.33333333  0.50000000  1
  Li  Li25  1  0.16191270  0.83808730  0.50000000  1
  Li  Li26  1  0.16191270  0.32382540  0.50000000  1
  Li  Li27  1  0.67617460  0.83808730  0.50000000  1
  Li  Li28  1  0.33333333  0.66666667  0.00000000  1
  Li  Li29  1  0.33333333  0.66666667  0.50000000  1
