# generated using pymatgen
data_LiF
_symmetry_space_group_name_H-M   'P 1'
_cell_length_a   10.36389051
_cell_length_b   10.36389051
_cell_length_c   11.62589301
_cell_angle_alpha   90.00000000
_cell_angle_beta   90.00000000
_cell_angle_gamma   120.00000000
_symmetry_Int_Tables_number   1
_chemical_formula_structural   LiF
_chemical_formula_sum   'Li36 F36'
_cell_volume   1081.44039042
_cell_formula_units_Z   36
loop_
 _symmetry_equiv_pos_site_id
 _symmetry_equiv_pos_as_xyz
  1  'x, y, z'
loop_
 _atom_site_type_symbol
 _atom_site_label
 _atom_site_symmetry_multiplicity
 _atom_site_fract_x
 _atom_site_fract_y
 _atom_site_fract_z
 _atom_site_occupancy
  F  F0  1  0.42457455  -0.00000000  0.63424886  1
  F  F1  1  0.00000000  0.42457455  0.63424886  1
  F  F2  1  0.57542545  0.57542545  0.63424886  1
  F  F3  1  0.42457455  -0.00000000  0.36575114  1
  F  F4  1  0.00000000  0.42457455  0.36575114  1
  F  F5  1  0.57542545  0.57542545  0.36575114  1
  F  F6  1  0.60961879  0.72339056  0.75709532  1
  F  F7  1  0.27660944  0.88622824  0.75709532  1
  F  F8  1  0.11377176  0.39038121  0.75709532  1
  F  F9  1  0.60961879  0.72339056  0.24290468  1
  F  F10  1  0.27660944  0.88622824  0.24290468  1
  F  F11  1  0.11377176  0.39038121  0.24290468  1
  F  F12  1  0.72339056  0.60961879  0.24290468  1
  F  F13  1  0.88622824  0.27660944  0.24290468  1
  F  F14  1  0.39038121  0.11377176  0.24290468  1
  F  F15  1  0.72339056  0.60961879  0.75709532  1
  F  F16  1  0.88622824  0.27660944  0.75709532  1
  F  F17  1  0.39038121  0.11377176  0.75709532  1
  F  F18  1  0.33333333  0.66666667  0.50000000  1
  F  F19  1  0.66666667  0.33333333  0.50000000  1
  F  F20  1  0.81859345  -0.00000000  0.00000000  1
  F  F21  1  0.00000000  0.81859345  0.00000000  1
  F  F22  1  0.18140655  0.18140655  0.00000000  1
  F  F23  1  0.33059615  -0.00000000  0.07178167  1
  F  F24  1  0.00000000  0.33059615  0.07178167  1
  F  F25  1  0.66940385  0.66940385  0.07178167  1
  F  F26  1  0.33059615  -0.00000000  0.92821833  1
  F  F27  1  0.00000000  0.33059615  0.92821833  1
  F  F28  1  0.66940385  0.66940385  0.92821833  1
  F  F29  1  0.39059713  0.00000000  0.31157445  1
  F  F30  1  0.00000000  0.39059713  0.31157445  1
  F  F31  1  0.60940287  0.60940287  0.31157445  1
  F  F32  1  0.39059713  0.00000000  0.68842555  1
  F  F33  1  0.00000000  0.39059713  0.68842555  1
  F  F34  1  0.60940287  0.60940287  0.68842555  1
  F  F35  1  0.00000000  0.00000000  0.00000000  1
  Li  Li36  1  0.72601406  0.88870366  0.06161421  1
  Li  Li37  1  -0.88870366  -0.16268961  0.06161421  1
  Li  Li38  1  0.16268961  -0.72601406  0.06161421  1
  Li  Li39  1  0.72601406  0.88870366  -0.06161421  1
  Li  Li40  1  -0.88870366  -0.16268961  -0.06161421  1
  Li  Li41  1  0.16268961  -0.72601406  -0.06161421  1
  Li  Li42  1  0.88870366  0.72601406  -0.06161421  1
  Li  Li43  1  -0.16268961  -0.88870366  -0.06161421  1
  Li  Li44  1  -0.72601406  0.16268961  -0.06161421  1
  Li  Li45  1  0.88870366  0.72601406  0.06161421  1
  Li  Li46  1  -0.16268961  -0.88870366  0.06161421  1
  Li  Li47  1  -0.72601406  0.16268961  0.06161421  1
  Li  Li48  1  0.00000000  0.00000000  0.85072525  1
  Li  Li49  1  0.00000000  0.00000000  0.14927475  1
  Li  Li50  1  0.59758634  0.41918288  0.50000000  1
  Li  Li51  1  0.58081712  0.17840345  0.50000000  1
  Li  Li52  1  0.82159655  0.40241366  0.50000000  1
  Li  Li53  1  0.41918288  0.59758634  0.50000000  1
  Li  Li54  1  0.17840345  0.58081712  0.50000000  1
  Li  Li55  1  0.40241366  0.82159655  0.50000000  1
  Li  Li56  1  0.09130301  0.85121777  0.77626243  1
  Li  Li57  1  0.14878223  0.24008524  0.77626243  1
  Li  Li58  1  0.75991476  0.90869699  0.77626243  1
  Li  Li59  1  0.09130301  0.85121777  0.22373757  1
  Li  Li60  1  0.14878223  0.24008524  0.22373757  1
  Li  Li61  1  0.75991476  0.90869699  0.22373757  1
  Li  Li62  1  0.85121777  0.09130301  0.22373757  1
  Li  Li63  1  0.24008524  0.14878223  0.22373757  1
  Li  Li64  1  0.90869699  0.75991476  0.22373757  1
  Li  Li65  1  0.85121777  0.09130301  0.77626243  1
  Li  Li66  1  0.24008524  0.14878223  0.77626243  1
  Li  Li67  1  0.90869699  0.75991476  0.77626243  1
  Li  Li68  1  0.33333333  0.66666667  0.80671640  1
  Li  Li69  1  0.33333333  0.66666667  0.19328360  1
  Li  Li70  1  0.66666667  0.33333333  0.19328360  1
  Li  Li71  1  0.66666667  0.33333333  0.80671640  1
