# generated using pymatgen
data_K4Li3B3(SO3)2
_symmetry_space_group_name_H-M   'P 1'
_cell_length_a   16.31824792
_cell_length_b   16.31824792
_cell_length_c   15.67719376
_cell_angle_alpha   90.00000000
_cell_angle_beta   90.00000000
_cell_angle_gamma   90.00000000
_symmetry_Int_Tables_number   1
_chemical_formula_structural   K4Li3B3(SO3)2
_chemical_formula_sum   'K32 Li24 B24 S16 O48'
_cell_volume   4174.60491091
_cell_formula_units_Z   8
loop_
 _symmetry_equiv_pos_site_id
 _symmetry_equiv_pos_as_xyz
  1  'x, y, z'
loop_
 _atom_site_type_symbol
 _atom_site_label
 _atom_site_symmetry_multiplicity
 _atom_site_fract_x
 _atom_site_fract_y
 _atom_site_fract_z
 _atom_site_occupancy
  B  B0  1  0.00000000  0.71953448  0.20800108  1
  B  B1  1  0.50000000  0.28046552  0.70800108  1
  B  B2  1  0.53046552  0.75000000  0.45800108  1
  B  B3  1  0.96953448  0.25000000  0.95800108  1
  B  B4  1  0.50000000  0.71953448  0.29199892  1
  B  B5  1  0.00000000  0.28046552  0.79199892  1
  B  B6  1  0.96953448  0.75000000  0.04199892  1
  B  B7  1  0.53046552  0.25000000  0.54199892  1
  B  B8  1  0.50000000  0.21953448  0.70800108  1
  B  B9  1  0.00000000  0.78046552  0.20800108  1
  B  B10  1  0.03046552  0.25000000  0.95800108  1
  B  B11  1  0.46953448  0.75000000  0.45800108  1
  B  B12  1  0.00000000  0.21953448  0.79199892  1
  B  B13  1  0.50000000  0.78046552  0.29199892  1
  B  B14  1  0.46953448  0.25000000  0.54199892  1
  B  B15  1  0.03046552  0.75000000  0.04199892  1
  B  B16  1  0.00000000  0.25000000  0.74648874  1
  B  B17  1  0.00000000  0.75000000  0.99648874  1
  B  B18  1  0.50000000  0.25000000  0.75351126  1
  B  B19  1  0.50000000  0.75000000  0.50351126  1
  B  B20  1  0.50000000  0.75000000  0.24648874  1
  B  B21  1  0.50000000  0.25000000  0.49648874  1
  B  B22  1  0.00000000  0.75000000  0.25351126  1
  B  B23  1  0.00000000  0.25000000  0.00351126  1
  K  K24  1  0.00000000  0.62532475  0.51641428  1
  K  K25  1  0.50000000  0.37467525  0.01641428  1
  K  K26  1  0.62467525  0.75000000  0.76641428  1
  K  K27  1  0.87532475  0.25000000  0.26641428  1
  K  K28  1  0.50000000  0.62532475  0.98358572  1
  K  K29  1  0.00000000  0.37467525  0.48358572  1
  K  K30  1  0.87532475  0.75000000  0.73358572  1
  K  K31  1  0.62467525  0.25000000  0.23358572  1
  K  K32  1  0.50000000  0.12532475  0.01641428  1
  K  K33  1  0.00000000  0.87467525  0.51641428  1
  K  K34  1  0.12467525  0.25000000  0.26641428  1
  K  K35  1  0.37532475  0.75000000  0.76641428  1
  K  K36  1  0.00000000  0.12532475  0.48358572  1
  K  K37  1  0.50000000  0.87467525  0.98358572  1
  K  K38  1  0.37532475  0.25000000  0.23358572  1
  K  K39  1  0.12467525  0.75000000  0.73358572  1
  K  K40  1  0.81624051  0.06624051  0.87500000  1
  K  K41  1  0.68375949  0.93375949  0.37500000  1
  K  K42  1  0.18375949  0.56624051  0.12500000  1
  K  K43  1  0.31624051  0.43375949  0.62500000  1
  K  K44  1  0.18375949  0.93375949  0.12500000  1
  K  K45  1  0.31624051  0.06624051  0.62500000  1
  K  K46  1  0.81624051  0.43375949  0.87500000  1
  K  K47  1  0.68375949  0.56624051  0.37500000  1
  K  K48  1  0.31624051  0.56624051  0.37500000  1
  K  K49  1  0.18375949  0.43375949  0.87500000  1
  K  K50  1  0.68375949  0.06624051  0.62500000  1
  K  K51  1  0.81624051  0.93375949  0.12500000  1
  K  K52  1  0.68375949  0.43375949  0.62500000  1
  K  K53  1  0.81624051  0.56624051  0.12500000  1
  K  K54  1  0.31624051  0.93375949  0.37500000  1
  K  K55  1  0.18375949  0.06624051  0.87500000  1
  Li  Li56  1  0.00000000  0.00000000  0.50000000  1
  Li  Li57  1  0.50000000  0.00000000  0.00000000  1
  Li  Li58  1  0.25000000  0.75000000  0.75000000  1
  Li  Li59  1  0.25000000  0.25000000  0.25000000  1
  Li  Li60  1  0.50000000  0.50000000  0.00000000  1
  Li  Li61  1  0.00000000  0.50000000  0.50000000  1
  Li  Li62  1  0.75000000  0.25000000  0.25000000  1
  Li  Li63  1  0.75000000  0.75000000  0.75000000  1
  Li  Li64  1  0.64868161  -0.00000000  -0.00000000  1
  Li  Li65  1  0.85131839  0.00000000  0.50000000  1
  Li  Li66  1  0.25000000  0.39868161  0.25000000  1
  Li  Li67  1  0.25000000  0.60131839  0.75000000  1
  Li  Li68  1  0.35131839  0.00000000  -0.00000000  1
  Li  Li69  1  0.14868161  0.00000000  0.50000000  1
  Li  Li70  1  0.75000000  0.60131839  0.75000000  1
  Li  Li71  1  0.75000000  0.39868161  0.25000000  1
  Li  Li72  1  0.14868161  0.50000000  0.50000000  1
  Li  Li73  1  0.35131839  0.50000000  -0.00000000  1
  Li  Li74  1  0.75000000  0.89868161  0.75000000  1
  Li  Li75  1  0.75000000  0.10131839  0.25000000  1
  Li  Li76  1  0.85131839  0.50000000  0.50000000  1
  Li  Li77  1  0.64868161  0.50000000  -0.00000000  1
  Li  Li78  1  0.25000000  0.10131839  0.25000000  1
  Li  Li79  1  0.25000000  0.89868161  0.75000000  1
  O  O80  1  0.53095091  0.95382095  0.07822632  1
  O  O81  1  -0.03095091  -0.95382095  0.57822632  1
  O  O82  1  -0.70382095  1.28095091  0.32822632  1
  O  O83  1  1.20382095  -0.28095091  0.82822632  1
  O  O84  1  -0.03095091  0.95382095  0.42177368  1
  O  O85  1  0.53095091  -0.95382095  -0.07822632  1
  O  O86  1  1.20382095  1.28095091  0.17177368  1
  O  O87  1  -0.70382095  -0.28095091  0.67177368  1
  O  O88  1  -0.53095091  -0.95382095  -0.07822632  1
  O  O89  1  1.03095091  0.95382095  0.42177368  1
  O  O90  1  1.70382095  -0.28095091  0.67177368  1
  O  O91  1  -0.20382095  1.28095091  0.17177368  1
  O  O92  1  1.03095091  -0.95382095  0.57822632  1
  O  O93  1  -0.53095091  0.95382095  0.07822632  1
  O  O94  1  -0.20382095  -0.28095091  0.82822632  1
  O  O95  1  1.70382095  1.28095091  0.32822632  1
  O  O96  1  1.03095091  1.45382095  0.57822632  1
  O  O97  1  0.46904909  -0.45382095  1.07822632  1
  O  O98  1  -0.20382095  1.78095091  0.82822632  1
  O  O99  1  1.70382095  0.21904909  1.32822632  1
  O  O100  1  0.46904909  1.45382095  0.92177368  1
  O  O101  1  1.03095091  -0.45382095  0.42177368  1
  O  O102  1  1.70382095  1.78095091  0.67177368  1
  O  O103  1  -0.20382095  0.21904909  1.17177368  1
  O  O104  1  -0.03095091  -0.45382095  0.42177368  1
  O  O105  1  1.53095091  1.45382095  0.92177368  1
  O  O106  1  2.20382095  0.21904909  1.17177368  1
  O  O107  1  0.29617905  1.78095091  0.67177368  1
  O  O108  1  1.53095091  -0.45382095  1.07822632  1
  O  O109  1  -0.03095091  1.45382095  0.57822632  1
  O  O110  1  0.29617905  0.21904909  1.32822632  1
  O  O111  1  2.20382095  1.78095091  0.82822632  1
  O  O112  1  0.46390387  0.71390387  0.87500000  1
  O  O113  1  0.03609613  0.28609613  0.37500000  1
  O  O114  1  0.53609613  0.21390387  0.12500000  1
  O  O115  1  0.96390387  0.78609613  0.62500000  1
  O  O116  1  0.53609613  0.28609613  0.12500000  1
  O  O117  1  0.96390387  0.71390387  0.62500000  1
  O  O118  1  0.46390387  0.78609613  0.87500000  1
  O  O119  1  0.03609613  0.21390387  0.37500000  1
  O  O120  1  0.96390387  0.21390387  0.37500000  1
  O  O121  1  0.53609613  0.78609613  0.87500000  1
  O  O122  1  0.03609613  0.71390387  0.62500000  1
  O  O123  1  0.46390387  0.28609613  0.12500000  1
  O  O124  1  0.03609613  0.78609613  0.62500000  1
  O  O125  1  0.46390387  0.21390387  0.12500000  1
  O  O126  1  0.96390387  0.28609613  0.37500000  1
  O  O127  1  0.53609613  0.71390387  0.87500000  1
  S  S128  1  0.28509361  0.53509361  0.87500000  1
  S  S129  1  0.21490639  0.46490639  0.37500000  1
  S  S130  1  0.71490639  0.03509361  0.12500000  1
  S  S131  1  0.78509361  0.96490639  0.62500000  1
  S  S132  1  0.71490639  0.46490639  0.12500000  1
  S  S133  1  0.78509361  0.53509361  0.62500000  1
  S  S134  1  0.28509361  0.96490639  0.87500000  1
  S  S135  1  0.21490639  0.03509361  0.37500000  1
  S  S136  1  0.78509361  0.03509361  0.37500000  1
  S  S137  1  0.71490639  0.96490639  0.87500000  1
  S  S138  1  0.21490639  0.53509361  0.62500000  1
  S  S139  1  0.28509361  0.46490639  0.12500000  1
  S  S140  1  0.21490639  0.96490639  0.62500000  1
  S  S141  1  0.28509361  0.03509361  0.12500000  1
  S  S142  1  0.78509361  0.46490639  0.37500000  1
  S  S143  1  0.71490639  0.53509361  0.87500000  1
