# generated using pymatgen
data_Li2Ca3F8
_symmetry_space_group_name_H-M   'P 1'
_cell_length_a   10.93841541
_cell_length_b   10.93841541
_cell_length_c   16.45170981
_cell_angle_alpha   90.00000000
_cell_angle_beta   90.00000000
_cell_angle_gamma   120.00000000
_symmetry_Int_Tables_number   1
_chemical_formula_structural   Li2Ca3F8
_chemical_formula_sum   'Li16 Ca24 F64'
_cell_volume   1704.70995482
_cell_formula_units_Z   8
loop_
 _symmetry_equiv_pos_site_id
 _symmetry_equiv_pos_as_xyz
  1  'x, y, z'
loop_
 _atom_site_type_symbol
 _atom_site_label
 _atom_site_symmetry_multiplicity
 _atom_site_fract_x
 _atom_site_fract_y
 _atom_site_fract_z
 _atom_site_occupancy
  Ca  Ca0  1  0.29365115  0.25126066  0.77966121  1
  Ca  Ca1  1  0.74873934  0.04239049  0.77966121  1
  Ca  Ca2  1  0.95760951  0.70634885  0.77966121  1
  Ca  Ca3  1  0.74873934  0.70634885  0.22033879  1
  Ca  Ca4  1  0.95760951  0.25126066  0.22033879  1
  Ca  Ca5  1  0.29365115  0.04239049  0.22033879  1
  Ca  Ca6  1  0.40269604  0.08748142  0.06365804  1
  Ca  Ca7  1  0.91251858  0.31521463  0.06365804  1
  Ca  Ca8  1  0.68478537  0.59730396  0.06365804  1
  Ca  Ca9  1  0.91251858  0.59730396  0.93634196  1
  Ca  Ca10  1  0.68478537  0.08748142  0.93634196  1
  Ca  Ca11  1  0.40269604  0.31521463  0.93634196  1
  Ca  Ca12  1  0.69927545  0.47927729  0.67560306  1
  Ca  Ca13  1  0.52072271  0.21999816  0.67560306  1
  Ca  Ca14  1  0.78000184  0.30072455  0.67560306  1
  Ca  Ca15  1  0.52072271  0.30072455  0.32439694  1
  Ca  Ca16  1  0.78000184  0.47927729  0.32439694  1
  Ca  Ca17  1  0.69927545  0.21999816  0.32439694  1
  Ca  Ca18  1  0.14054422  0.09372194  0.70188691  1
  Ca  Ca19  1  0.90627806  0.04682228  0.70188691  1
  Ca  Ca20  1  0.95317772  0.85945578  0.70188691  1
  Ca  Ca21  1  0.90627806  0.85945578  0.29811309  1
  Ca  Ca22  1  0.95317772  0.09372194  0.29811309  1
  Ca  Ca23  1  0.14054422  0.04682228  0.29811309  1
  F  F24  1  0.23854443  0.06112710  0.14510997  1
  F  F25  1  -0.06112710  0.17741732  0.14510997  1
  F  F26  1  -0.17741732  -0.23854443  0.14510997  1
  F  F27  1  -0.06112710  -0.23854443  -0.14510997  1
  F  F28  1  -0.17741732  0.06112710  -0.14510997  1
  F  F29  1  0.23854443  0.17741732  -0.14510997  1
  F  F30  1  0.40367812  0.51262197  0.97839046  1
  F  F31  1  0.48737803  0.89105615  0.97839046  1
  F  F32  1  0.10894385  0.59632188  0.97839046  1
  F  F33  1  0.48737803  0.59632188  0.02160954  1
  F  F34  1  0.10894385  0.51262197  0.02160954  1
  F  F35  1  0.40367812  0.89105615  0.02160954  1
  F  F36  1  0.00000000  0.00000000  0.50000000  1
  F  F37  1  0.00000000  0.00000000  0.86218340  1
  F  F38  1  0.00000000  0.00000000  0.13781660  1
  F  F39  1  0.20849162  0.73933602  0.30729559  1
  F  F40  1  0.26066398  0.46915561  0.30729559  1
  F  F41  1  0.53084439  0.79150838  0.30729559  1
  F  F42  1  0.26066398  0.79150838  0.69270441  1
  F  F43  1  0.53084439  0.73933602  0.69270441  1
  F  F44  1  0.20849162  0.46915561  0.69270441  1
  F  F45  1  0.00000000  0.00000000  0.00000000  1
  F  F46  1  0.66666667  0.33333333  0.00000000  1
  F  F47  1  0.06582212  0.76846985  0.32721934  1
  F  F48  1  0.23153015  0.29735226  0.32721934  1
  F  F49  1  0.70264774  0.93417788  0.32721934  1
  F  F50  1  0.23153015  0.93417788  0.67278066  1
  F  F51  1  0.70264774  0.76846985  0.67278066  1
  F  F52  1  0.06582212  0.29735226  0.67278066  1
  F  F53  1  0.16842804  0.83157196  0.00000000  1
  F  F54  1  0.16842804  0.33685607  -0.00000000  1
  F  F55  1  0.66314393  0.83157196  -0.00000000  1
  F  F56  1  0.77321785  0.27244553  0.98024824  1
  F  F57  1  0.72755447  0.50077232  0.98024824  1
  F  F58  1  0.49922768  0.22678215  0.98024824  1
  F  F59  1  0.72755447  0.22678215  0.01975176  1
  F  F60  1  0.49922768  0.27244553  0.01975176  1
  F  F61  1  0.77321785  0.50077232  0.01975176  1
  F  F62  1  0.13189093  0.73597039  0.41182664  1
  F  F63  1  0.26402961  0.39592054  0.41182664  1
  F  F64  1  0.60407946  0.86810907  0.41182664  1
  F  F65  1  0.26402961  0.86810907  0.58817336  1
  F  F66  1  0.60407946  0.73597039  0.58817336  1
  F  F67  1  0.13189093  0.39592054  0.58817336  1
  F  F68  1  0.99876384  0.64347361  0.18382128  1
  F  F69  1  0.35652639  0.35529023  0.18382128  1
  F  F70  1  0.64470977  0.00123616  0.18382128  1
  F  F71  1  0.35652639  0.00123616  0.81617872  1
  F  F72  1  0.64470977  0.64347361  0.81617872  1
  F  F73  1  0.99876384  0.35529023  0.81617872  1
  F  F74  1  0.70210648  0.73901840  0.90028528  1
  F  F75  1  0.26098160  0.96308808  0.90028528  1
  F  F76  1  0.03691192  0.29789352  0.90028528  1
  F  F77  1  0.26098160  0.29789352  0.09971472  1
  F  F78  1  0.03691192  0.73901840  0.09971472  1
  F  F79  1  0.70210648  0.96308808  0.09971472  1
  F  F80  1  0.45126535  0.81771551  0.82727050  1
  F  F81  1  0.18228449  0.63354984  0.82727050  1
  F  F82  1  0.36645016  0.54873465  0.82727050  1
  F  F83  1  0.18228449  0.54873465  0.17272950  1
  F  F84  1  0.36645016  0.81771551  0.17272950  1
  F  F85  1  0.45126535  0.63354984  0.17272950  1
  F  F86  1  0.33333333  0.66666667  0.65325975  1
  F  F87  1  0.33333333  0.66666667  0.34674025  1
  Li  Li88  1  0.98258270  0.14280957  0.78056441  1
  Li  Li89  1  0.85719043  0.83977314  0.78056441  1
  Li  Li90  1  0.16022686  0.01741730  0.78056441  1
  Li  Li91  1  0.85719043  0.01741730  0.21943559  1
  Li  Li92  1  0.16022686  0.14280957  0.21943559  1
  Li  Li93  1  0.98258270  0.83977314  0.21943559  1
  Li  Li94  1  0.74229947  0.86708300  0.13569286  1
  Li  Li95  1  0.13291700  0.87521647  0.13569286  1
  Li  Li96  1  0.12478353  0.25770053  0.13569286  1
  Li  Li97  1  0.13291700  0.25770053  0.86430714  1
  Li  Li98  1  0.12478353  0.86708300  0.86430714  1
  Li  Li99  1  0.74229947  0.87521647  0.86430714  1
  Li  Li100  1  0.94253376  0.05746624  0.50000000  1
  Li  Li101  1  0.94253376  0.88506751  0.50000000  1
  Li  Li102  1  0.11493249  0.05746624  0.50000000  1
  Li  Li103  1  0.33333333  0.66666667  0.50000000  1
