# generated using pymatgen
data_LiF
_symmetry_space_group_name_H-M   'P 1'
_cell_length_a   12.29944813
_cell_length_b   12.29944813
_cell_length_c   7.54866689
_cell_angle_alpha   90.00000000
_cell_angle_beta   90.00000000
_cell_angle_gamma   90.00000000
_symmetry_Int_Tables_number   1
_chemical_formula_structural   LiF
_chemical_formula_sum   'Li64 F64'
_cell_volume   1141.93533612
_cell_formula_units_Z   64
loop_
 _symmetry_equiv_pos_site_id
 _symmetry_equiv_pos_as_xyz
  1  'x, y, z'
loop_
 _atom_site_type_symbol
 _atom_site_label
 _atom_site_symmetry_multiplicity
 _atom_site_fract_x
 _atom_site_fract_y
 _atom_site_fract_z
 _atom_site_occupancy
  F  F0  1  0.00000000  0.00000000  0.00000000  1
  F  F1  1  0.50000000  0.00000000  0.50000000  1
  F  F2  1  0.25000000  0.75000000  0.25000000  1
  F  F3  1  0.25000000  0.25000000  0.75000000  1
  F  F4  1  0.50000000  0.00000000  0.00000000  1
  F  F5  1  0.00000000  0.00000000  0.50000000  1
  F  F6  1  0.25000000  0.75000000  0.75000000  1
  F  F7  1  0.25000000  0.25000000  0.25000000  1
  F  F8  1  0.50000000  0.50000000  0.50000000  1
  F  F9  1  0.00000000  0.50000000  0.00000000  1
  F  F10  1  0.75000000  0.25000000  0.75000000  1
  F  F11  1  0.75000000  0.75000000  0.25000000  1
  F  F12  1  0.00000000  0.50000000  0.50000000  1
  F  F13  1  0.50000000  0.50000000  0.00000000  1
  F  F14  1  0.75000000  0.25000000  0.25000000  1
  F  F15  1  0.75000000  0.75000000  0.75000000  1
  F  F16  1  0.00000000  0.25000000  0.37500000  1
  F  F17  1  0.00000000  0.75000000  0.62500000  1
  F  F18  1  0.50000000  0.25000000  0.62500000  1
  F  F19  1  0.50000000  0.75000000  0.37500000  1
  F  F20  1  0.50000000  0.75000000  0.87500000  1
  F  F21  1  0.50000000  0.25000000  0.12500000  1
  F  F22  1  0.00000000  0.75000000  0.12500000  1
  F  F23  1  0.00000000  0.25000000  0.87500000  1
  F  F24  1  0.60309443  0.00000000  0.25000000  1
  F  F25  1  0.89690557  0.00000000  0.75000000  1
  F  F26  1  0.25000000  0.35309443  0.50000000  1
  F  F27  1  0.25000000  0.64690557  0.00000000  1
  F  F28  1  0.39690557  0.00000000  0.75000000  1
  F  F29  1  0.10309443  0.00000000  0.25000000  1
  F  F30  1  0.75000000  0.64690557  0.50000000  1
  F  F31  1  0.75000000  0.35309443  0.00000000  1
  F  F32  1  0.10309443  0.50000000  0.75000000  1
  F  F33  1  0.39690557  0.50000000  0.25000000  1
  F  F34  1  0.75000000  0.85309443  0.00000000  1
  F  F35  1  0.75000000  0.14690557  0.50000000  1
  F  F36  1  0.89690557  0.50000000  0.25000000  1
  F  F37  1  0.60309443  0.50000000  0.75000000  1
  F  F38  1  0.25000000  0.14690557  0.00000000  1
  F  F39  1  0.25000000  0.85309443  0.50000000  1
  F  F40  1  0.00000000  0.25000000  0.12500000  1
  F  F41  1  0.00000000  0.75000000  0.37500000  1
  F  F42  1  0.00000000  0.75000000  0.87500000  1
  F  F43  1  0.00000000  0.25000000  0.62500000  1
  F  F44  1  0.50000000  0.75000000  0.62500000  1
  F  F45  1  0.50000000  0.25000000  0.87500000  1
  F  F46  1  0.50000000  0.25000000  0.37500000  1
  F  F47  1  0.50000000  0.75000000  0.12500000  1
  F  F48  1  0.00000000  0.25000000  0.49731530  1
  F  F49  1  0.00000000  0.75000000  0.74731530  1
  F  F50  1  0.50000000  0.25000000  0.50268470  1
  F  F51  1  0.50000000  0.75000000  0.25268470  1
  F  F52  1  0.00000000  0.75000000  0.50268470  1
  F  F53  1  0.00000000  0.25000000  0.25268470  1
  F  F54  1  0.50000000  0.75000000  0.49731530  1
  F  F55  1  0.50000000  0.25000000  0.74731530  1
  F  F56  1  0.50000000  0.75000000  0.99731530  1
  F  F57  1  0.50000000  0.25000000  0.24731530  1
  F  F58  1  0.00000000  0.75000000  0.00268470  1
  F  F59  1  0.00000000  0.25000000  0.75268470  1
  F  F60  1  0.50000000  0.25000000  0.00268470  1
  F  F61  1  0.50000000  0.75000000  0.75268470  1
  F  F62  1  0.00000000  0.25000000  0.99731530  1
  F  F63  1  0.00000000  0.75000000  0.24731530  1
  Li  Li64  1  0.32094549  0.57094549  0.12500000  1
  Li  Li65  1  0.17905451  0.42905451  0.62500000  1
  Li  Li66  1  0.67905451  0.07094549  0.37500000  1
  Li  Li67  1  0.82094549  0.92905451  0.87500000  1
  Li  Li68  1  0.67905451  0.42905451  0.87500000  1
  Li  Li69  1  0.82094549  0.57094549  0.37500000  1
  Li  Li70  1  0.32094549  0.92905451  0.62500000  1
  Li  Li71  1  0.17905451  0.07094549  0.12500000  1
  Li  Li72  1  0.82094549  0.07094549  0.62500000  1
  Li  Li73  1  0.67905451  0.92905451  0.12500000  1
  Li  Li74  1  0.17905451  0.57094549  0.87500000  1
  Li  Li75  1  0.32094549  0.42905451  0.37500000  1
  Li  Li76  1  0.17905451  0.92905451  0.37500000  1
  Li  Li77  1  0.32094549  0.07094549  0.87500000  1
  Li  Li78  1  0.82094549  0.42905451  0.12500000  1
  Li  Li79  1  0.67905451  0.57094549  0.62500000  1
  Li  Li80  1  0.11685508  0.42115148  0.78606519  1
  Li  Li81  1  0.38314492  -0.42115148  1.28606519  1
  Li  Li82  1  -0.17115148  0.86685508  1.03606519  1
  Li  Li83  1  0.67115148  0.13314492  1.53606519  1
  Li  Li84  1  0.38314492  0.42115148  -0.78606519  1
  Li  Li85  1  0.11685508  -0.42115148  -0.28606519  1
  Li  Li86  1  0.67115148  0.86685508  -0.03606519  1
  Li  Li87  1  -0.17115148  0.13314492  -0.53606519  1
  Li  Li88  1  -0.11685508  -0.42115148  -0.78606519  1
  Li  Li89  1  0.61685508  0.42115148  -0.28606519  1
  Li  Li90  1  1.17115148  0.13314492  -0.03606519  1
  Li  Li91  1  0.32884852  0.86685508  -0.53606519  1
  Li  Li92  1  0.61685508  -0.42115148  0.78606519  1
  Li  Li93  1  -0.11685508  0.42115148  1.28606519  1
  Li  Li94  1  0.32884852  0.13314492  1.03606519  1
  Li  Li95  1  1.17115148  0.86685508  1.53606519  1
  Li  Li96  1  0.61685508  0.92115148  1.28606519  1
  Li  Li97  1  0.88314492  0.07884852  1.78606519  1
  Li  Li98  1  0.32884852  1.36685508  1.53606519  1
  Li  Li99  1  1.17115148  0.63314492  2.03606519  1
  Li  Li100  1  0.88314492  0.92115148  -0.28606519  1
  Li  Li101  1  0.61685508  0.07884852  0.21393481  1
  Li  Li102  1  1.17115148  1.36685508  0.46393481  1
  Li  Li103  1  0.32884852  0.63314492  -0.03606519  1
  Li  Li104  1  0.38314492  0.07884852  -0.28606519  1
  Li  Li105  1  1.11685508  0.92115148  0.21393481  1
  Li  Li106  1  1.67115148  0.63314492  0.46393481  1
  Li  Li107  1  0.82884852  1.36685508  -0.03606519  1
  Li  Li108  1  1.11685508  0.07884852  1.28606519  1
  Li  Li109  1  0.38314492  0.92115148  1.78606519  1
  Li  Li110  1  0.82884852  0.63314492  1.53606519  1
  Li  Li111  1  1.67115148  1.36685508  2.03606519  1
  Li  Li112  1  0.46071538  0.00000000  0.25000000  1
  Li  Li113  1  0.03928462  0.00000000  0.75000000  1
  Li  Li114  1  0.25000000  0.21071538  0.50000000  1
  Li  Li115  1  0.25000000  0.78928462  0.00000000  1
  Li  Li116  1  0.53928462  0.00000000  0.75000000  1
  Li  Li117  1  0.96071538  0.00000000  0.25000000  1
  Li  Li118  1  0.75000000  0.78928462  0.50000000  1
  Li  Li119  1  0.75000000  0.21071538  0.00000000  1
  Li  Li120  1  0.96071538  0.50000000  0.75000000  1
  Li  Li121  1  0.53928462  0.50000000  0.25000000  1
  Li  Li122  1  0.75000000  0.71071538  0.00000000  1
  Li  Li123  1  0.75000000  0.28928462  0.50000000  1
  Li  Li124  1  0.03928462  0.50000000  0.25000000  1
  Li  Li125  1  0.46071538  0.50000000  0.75000000  1
  Li  Li126  1  0.25000000  0.28928462  0.00000000  1
  Li  Li127  1  0.25000000  0.71071538  0.50000000  1
