# generated using pymatgen
data_LiYPSe
_symmetry_space_group_name_H-M   'P 1'
_cell_length_a   5.71349098
_cell_length_b   5.89855160
_cell_length_c   7.27607989
_cell_angle_alpha   93.49277539
_cell_angle_beta   97.60653866
_cell_angle_gamma   104.02909055
_symmetry_Int_Tables_number   1
_chemical_formula_structural   LiYPSe
_chemical_formula_sum   'Li2 Y2 P2 Se2'
_cell_volume   234.70047342
_cell_formula_units_Z   2
loop_
 _symmetry_equiv_pos_site_id
 _symmetry_equiv_pos_as_xyz
  1  'x, y, z'
loop_
 _atom_site_type_symbol
 _atom_site_label
 _atom_site_symmetry_multiplicity
 _atom_site_fract_x
 _atom_site_fract_y
 _atom_site_fract_z
 _atom_site_occupancy
  Se  Se0  1  0.00000000  0.00000000  0.00000000  1
  Se  Se1  1  0.33300000  0.66700000  0.25000000  1
  Y  Y2  1  0.66700000  0.33300000  0.50000000  1
  Y  Y3  1  0.00000000  0.00000000  0.75000000  1
  P  P4  1  0.91216142  0.68773663  0.42110370  1
  P  P5  1  0.68016278  0.93253935  0.46802899  1
  Li  Li6  1  0.59696166  0.11766702  0.23712135  1
  Li  Li7  1  0.61682842  0.82090652  0.03513756  1
