# generated using pymatgen
data_Li2S
_symmetry_space_group_name_H-M   'P 1'
_cell_length_a   18.42532558
_cell_length_b   18.42532558
_cell_length_c   3.44651378
_cell_angle_alpha   90.00000000
_cell_angle_beta   90.00000000
_cell_angle_gamma   120.00000000
_symmetry_Int_Tables_number   1
_chemical_formula_structural   Li2S
_chemical_formula_sum   'Li32 S16'
_cell_volume   1013.30688300
_cell_formula_units_Z   16
loop_
 _symmetry_equiv_pos_site_id
 _symmetry_equiv_pos_as_xyz
  1  'x, y, z'
loop_
 _atom_site_type_symbol
 _atom_site_label
 _atom_site_symmetry_multiplicity
 _atom_site_fract_x
 _atom_site_fract_y
 _atom_site_fract_z
 _atom_site_occupancy
  Li  Li0  1  0.30598121  0.34122479  0.55907247  1
  Li  Li1  1  0.65877521  0.96475642  0.55907247  1
  Li  Li2  1  0.03524358  0.69401879  0.55907247  1
  Li  Li3  1  0.69401879  0.65877521  0.05907247  1
  Li  Li4  1  0.34122479  0.03524358  0.05907247  1
  Li  Li5  1  0.96475642  0.30598121  0.05907247  1
  Li  Li6  1  0.69401879  0.65877521  0.44092753  1
  Li  Li7  1  0.34122479  0.03524358  0.44092753  1
  Li  Li8  1  0.96475642  0.30598121  0.44092753  1
  Li  Li9  1  0.30598121  0.34122479  0.94092753  1
  Li  Li10  1  0.65877521  0.96475642  0.94092753  1
  Li  Li11  1  0.03524358  0.69401879  0.94092753  1
  Li  Li12  1  0.11269838  0.29414648  0.01976893  1
  Li  Li13  1  0.70585352  0.81855190  0.01976893  1
  Li  Li14  1  0.18144810  0.88730162  0.01976893  1
  Li  Li15  1  0.88730162  0.70585352  0.51976893  1
  Li  Li16  1  0.29414648  0.18144810  0.51976893  1
  Li  Li17  1  0.81855190  0.11269838  0.51976893  1
  Li  Li18  1  0.88730162  0.70585352  0.98023107  1
  Li  Li19  1  0.29414648  0.18144810  0.98023107  1
  Li  Li20  1  0.81855190  0.11269838  0.98023107  1
  Li  Li21  1  0.11269838  0.29414648  0.48023107  1
  Li  Li22  1  0.70585352  0.81855190  0.48023107  1
  Li  Li23  1  0.18144810  0.88730162  0.48023107  1
  Li  Li24  1  0.50000000  0.00000000  -0.00000000  1
  Li  Li25  1  0.00000000  0.50000000  -0.00000000  1
  Li  Li26  1  0.50000000  0.50000000  -0.00000000  1
  Li  Li27  1  0.50000000  0.00000000  0.50000000  1
  Li  Li28  1  0.00000000  0.50000000  0.50000000  1
  Li  Li29  1  0.50000000  0.50000000  0.50000000  1
  Li  Li30  1  0.66666667  0.33333333  0.25000000  1
  Li  Li31  1  0.33333333  0.66666667  0.75000000  1
  S  S32  1  0.24233599  0.77220414  0.97749595  1
  S  S33  1  -0.77220414  -0.52986815  0.97749595  1
  S  S34  1  0.52986815  -0.24233599  0.97749595  1
  S  S35  1  -0.24233599  -0.77220414  1.47749595  1
  S  S36  1  0.77220414  0.52986815  1.47749595  1
  S  S37  1  -0.52986815  0.24233599  1.47749595  1
  S  S38  1  -0.24233599  -0.77220414  -0.97749595  1
  S  S39  1  0.77220414  0.52986815  -0.97749595  1
  S  S40  1  -0.52986815  0.24233599  -0.97749595  1
  S  S41  1  0.24233599  0.77220414  -0.47749595  1
  S  S42  1  -0.77220414  -0.52986815  -0.47749595  1
  S  S43  1  0.52986815  -0.24233599  -0.47749595  1
  S  S44  1  0.33333333  0.66666667  0.25000000  1
  S  S45  1  0.66666667  0.33333333  0.75000000  1
  S  S46  1  0.00000000  0.00000000  0.25000000  1
  S  S47  1  0.00000000  0.00000000  0.75000000  1
