# generated using pymatgen
data_Li2Y2Te4P2Se
_symmetry_space_group_name_H-M   'P 1'
_cell_length_a   4.04005272
_cell_length_b   4.28629140
_cell_length_c   6.73823666
_cell_angle_alpha   96.32771929
_cell_angle_beta   103.85709603
_cell_angle_gamma   115.50847060
_symmetry_Int_Tables_number   1
_chemical_formula_structural   Li2Y2Te4P2Se
_chemical_formula_sum   'Li2 Y2 Te4 P2 Se1'
_cell_volume   99.16864741
_cell_formula_units_Z   1
loop_
 _symmetry_equiv_pos_site_id
 _symmetry_equiv_pos_as_xyz
  1  'x, y, z'
loop_
 _atom_site_type_symbol
 _atom_site_label
 _atom_site_symmetry_multiplicity
 _atom_site_fract_x
 _atom_site_fract_y
 _atom_site_fract_z
 _atom_site_occupancy
  Se  Se0  1  0.00000000  0.00000000  0.00000000  1
  Te  Te1  1  0.50000000  0.50000000  0.50000000  1
  Te  Te2  1  0.25000000  0.25000000  0.25000000  1
  Te  Te3  1  0.75000000  0.25000000  0.00000000  1
  Te  Te4  1  0.25000000  0.75000000  0.50000000  1
  P  P5  1  0.12671677  0.92937477  0.45098321  1
  P  P6  1  0.21468071  0.19050904  0.49012290  1
  Li  Li7  1  0.60506735  0.62196756  0.75459495  1
  Li  Li8  1  0.26961131  0.28112383  0.98012256  1
  Y  Y9  1  0.47855162  0.32299748  0.37464918  1
  Y  Y10  1  0.82024025  0.14799305  0.57216028  1
