# generated using pymatgen
data_LiF
_symmetry_space_group_name_H-M   'P 1'
_cell_length_a   7.15522543
_cell_length_b   17.38864049
_cell_length_c   4.11818190
_cell_angle_alpha   90.00000000
_cell_angle_beta   90.00000000
_cell_angle_gamma   90.00000000
_symmetry_Int_Tables_number   1
_chemical_formula_structural   LiF
_chemical_formula_sum   'Li24 F24'
_cell_volume   512.38272016
_cell_formula_units_Z   24
loop_
 _symmetry_equiv_pos_site_id
 _symmetry_equiv_pos_as_xyz
  1  'x, y, z'
loop_
 _atom_site_type_symbol
 _atom_site_label
 _atom_site_symmetry_multiplicity
 _atom_site_fract_x
 _atom_site_fract_y
 _atom_site_fract_z
 _atom_site_occupancy
  F  F0  1  0.14235371  0.01426684  0.30258592  1
  F  F1  1  0.35764629  0.98573316  0.80258592  1
  F  F2  1  0.85764629  0.51426684  0.69741408  1
  F  F3  1  0.64235371  0.48573316  0.19741408  1
  F  F4  1  0.85764629  0.98573316  0.69741408  1
  F  F5  1  0.64235371  0.01426684  0.19741408  1
  F  F6  1  0.14235371  0.48573316  0.30258592  1
  F  F7  1  0.35764629  0.51426684  0.80258592  1
  F  F8  1  0.00000000  0.00000000  0.50000000  1
  F  F9  1  0.50000000  -0.00000000  -0.00000000  1
  F  F10  1  0.00000000  0.50000000  0.50000000  1
  F  F11  1  0.50000000  0.50000000  0.00000000  1
  F  F12  1  0.66157514  0.25000000  0.00987110  1
  F  F13  1  0.83842486  0.75000000  0.50987110  1
  F  F14  1  0.33842486  0.75000000  0.99012890  1
  F  F15  1  0.16157514  0.25000000  0.49012890  1
  F  F16  1  0.34939038  0.25000000  0.01000498  1
  F  F17  1  0.15060962  0.75000000  0.51000498  1
  F  F18  1  0.65060962  0.75000000  0.98999502  1
  F  F19  1  0.84939038  0.25000000  0.48999502  1
  F  F20  1  0.00000000  0.00000000  0.00000000  1
  F  F21  1  0.50000000  -0.00000000  0.50000000  1
  F  F22  1  0.00000000  0.50000000  0.00000000  1
  F  F23  1  0.50000000  0.50000000  0.50000000  1
  Li  Li24  1  0.57334409  0.25000000  0.58116678  1
  Li  Li25  1  0.92665591  0.75000000  0.08116678  1
  Li  Li26  1  0.42665591  0.75000000  0.41883322  1
  Li  Li27  1  0.07334409  0.25000000  0.91883322  1
  Li  Li28  1  0.11936799  0.38737613  0.58921888  1
  Li  Li29  1  0.38063201  -0.38737613  1.08921888  1
  Li  Li30  1  -0.11936799  0.88737613  -0.58921888  1
  Li  Li31  1  0.61936799  0.11262387  -0.08921888  1
  Li  Li32  1  -0.11936799  -0.38737613  -0.58921888  1
  Li  Li33  1  0.61936799  0.38737613  -0.08921888  1
  Li  Li34  1  0.11936799  0.11262387  0.58921888  1
  Li  Li35  1  0.38063201  0.88737613  1.08921888  1
  Li  Li36  1  0.28717443  0.80963597  0.80859346  1
  Li  Li37  1  0.21282557  0.19036403  0.30859346  1
  Li  Li38  1  0.71282557  0.30963597  0.19140654  1
  Li  Li39  1  0.78717443  0.69036403  0.69140654  1
  Li  Li40  1  0.71282557  0.19036403  0.19140654  1
  Li  Li41  1  0.78717443  0.80963597  0.69140654  1
  Li  Li42  1  0.28717443  0.69036403  0.80859346  1
  Li  Li43  1  0.21282557  0.30963597  0.30859346  1
  Li  Li44  1  0.02907934  0.25000000  0.59123474  1
  Li  Li45  1  0.47092066  0.75000000  0.09123474  1
  Li  Li46  1  0.97092066  0.75000000  0.40876526  1
  Li  Li47  1  0.52907934  0.25000000  0.90876526  1
