# generated using pymatgen
data_Sr3TiS2O3
_symmetry_space_group_name_H-M   'P 1'
_cell_length_a   25.94059478
_cell_length_b   25.94059478
_cell_length_c   17.13343897
_cell_angle_alpha   90.00000000
_cell_angle_beta   90.00000000
_cell_angle_gamma   120.00000000
_symmetry_Int_Tables_number   1
_chemical_formula_structural   Sr3TiS2O3
_chemical_formula_sum   'Sr108 Ti36 S72 O108'
_cell_volume   9984.70028324
_cell_formula_units_Z   36
loop_
 _symmetry_equiv_pos_site_id
 _symmetry_equiv_pos_as_xyz
  1  'x, y, z'
loop_
 _atom_site_type_symbol
 _atom_site_label
 _atom_site_symmetry_multiplicity
 _atom_site_fract_x
 _atom_site_fract_y
 _atom_site_fract_z
 _atom_site_occupancy
  O  O0  1  0.03445757  0.96554243  0.05457790  1
  O  O1  1  0.03445757  0.06891513  0.05457790  1
  O  O2  1  0.93108487  0.96554243  0.05457790  1
  O  O3  1  0.96554243  0.03445757  0.94542210  1
  O  O4  1  0.06891513  0.03445757  0.94542210  1
  O  O5  1  0.96554243  0.93108487  0.94542210  1
  O  O6  1  0.70112423  0.29887577  0.38791124  1
  O  O7  1  0.70112423  0.40224847  0.38791124  1
  O  O8  1  0.59775153  0.29887577  0.38791124  1
  O  O9  1  0.63220910  0.36779090  0.27875543  1
  O  O10  1  0.73558180  0.36779090  0.27875543  1
  O  O11  1  0.63220910  0.26441820  0.27875543  1
  O  O12  1  0.36779090  0.63220910  0.72124457  1
  O  O13  1  0.36779090  0.73558180  0.72124457  1
  O  O14  1  0.26441820  0.63220910  0.72124457  1
  O  O15  1  0.29887577  0.70112423  0.61208876  1
  O  O16  1  0.40224847  0.70112423  0.61208876  1
  O  O17  1  0.29887577  0.59775153  0.61208876  1
  O  O18  1  0.26652488  0.35837410  0.49001576  1
  O  O19  1  0.64162590  0.90815079  0.49001576  1
  O  O20  1  0.09184921  0.73347512  0.49001576  1
  O  O21  1  0.35837410  0.26652488  0.50998424  1
  O  O22  1  0.90815079  0.64162590  0.50998424  1
  O  O23  1  0.73347512  0.09184921  0.50998424  1
  O  O24  1  0.73347512  0.64162590  0.50998424  1
  O  O25  1  0.35837410  0.09184921  0.50998424  1
  O  O26  1  0.90815079  0.26652488  0.50998424  1
  O  O27  1  0.64162590  0.73347512  0.49001576  1
  O  O28  1  0.09184921  0.35837410  0.49001576  1
  O  O29  1  0.26652488  0.90815079  0.49001576  1
  O  O30  1  0.93319155  0.69170743  0.82334909  1
  O  O31  1  0.30829257  0.24148412  0.82334909  1
  O  O32  1  0.75851588  0.06680845  0.82334909  1
  O  O33  1  0.02504076  0.59985822  0.84331758  1
  O  O34  1  0.57481745  0.97495924  0.84331758  1
  O  O35  1  0.40014178  0.42518255  0.84331758  1
  O  O36  1  0.40014178  0.97495924  0.84331758  1
  O  O37  1  0.02504076  0.42518255  0.84331758  1
  O  O38  1  0.57481745  0.59985822  0.84331758  1
  O  O39  1  0.30829257  0.06680845  0.82334909  1
  O  O40  1  0.75851588  0.69170743  0.82334909  1
  O  O41  1  0.93319155  0.24148412  0.82334909  1
  O  O42  1  0.59985822  0.02504076  0.15668242  1
  O  O43  1  0.97495924  0.57481745  0.15668242  1
  O  O44  1  0.42518255  0.40014178  0.15668242  1
  O  O45  1  0.69170743  0.93319155  0.17665091  1
  O  O46  1  0.24148412  0.30829257  0.17665091  1
  O  O47  1  0.06680845  0.75851588  0.17665091  1
  O  O48  1  0.06680845  0.30829257  0.17665091  1
  O  O49  1  0.69170743  0.75851588  0.17665091  1
  O  O50  1  0.24148412  0.93319155  0.17665091  1
  O  O51  1  0.97495924  0.40014178  0.15668242  1
  O  O52  1  0.42518255  0.02504076  0.15668242  1
  O  O53  1  0.59985822  0.57481745  0.15668242  1
  O  O54  1  0.50466717  0.18673852  0.10948433  1
  O  O55  1  0.81326148  0.31792864  0.10948433  1
  O  O56  1  0.68207136  0.49533283  0.10948433  1
  O  O57  1  0.18673852  0.50466717  0.89051567  1
  O  O58  1  0.31792864  0.81326148  0.89051567  1
  O  O59  1  0.49533283  0.68207136  0.89051567  1
  O  O60  1  0.49533283  0.81326148  0.89051567  1
  O  O61  1  0.18673852  0.68207136  0.89051567  1
  O  O62  1  0.31792864  0.50466717  0.89051567  1
  O  O63  1  0.81326148  0.49533283  0.10948433  1
  O  O64  1  0.68207136  0.18673852  0.10948433  1
  O  O65  1  0.50466717  0.31792864  0.10948433  1
  O  O66  1  0.17133383  0.52007186  0.44281766  1
  O  O67  1  0.47992814  0.65126198  0.44281766  1
  O  O68  1  0.34873802  0.82866617  0.44281766  1
  O  O69  1  0.85340519  0.83800050  0.22384900  1
  O  O70  1  0.98459531  0.14659481  0.22384900  1
  O  O71  1  0.16199950  0.01540469  0.22384900  1
  O  O72  1  0.16199950  0.14659481  0.22384900  1
  O  O73  1  0.85340519  0.01540469  0.22384900  1
  O  O74  1  0.98459531  0.83800050  0.22384900  1
  O  O75  1  0.47992814  0.82866617  0.44281766  1
  O  O76  1  0.34873802  0.52007186  0.44281766  1
  O  O77  1  0.17133383  0.65126198  0.44281766  1
  O  O78  1  0.83800050  0.85340519  0.77615100  1
  O  O79  1  0.14659481  0.98459531  0.77615100  1
  O  O80  1  0.01540469  0.16199950  0.77615100  1
  O  O81  1  0.52007186  0.17133383  0.55718234  1
  O  O82  1  0.65126198  0.47992814  0.55718234  1
  O  O83  1  0.82866617  0.34873802  0.55718234  1
  O  O84  1  0.82866617  0.47992814  0.55718234  1
  O  O85  1  0.52007186  0.34873802  0.55718234  1
  O  O86  1  0.65126198  0.17133383  0.55718234  1
  O  O87  1  0.14659481  0.16199950  0.77615100  1
  O  O88  1  0.01540469  0.85340519  0.77615100  1
  O  O89  1  0.83800050  0.98459531  0.77615100  1
  O  O90  1  0.94678666  0.00000000  0.50000000  1
  O  O91  1  0.00000000  0.94678666  0.50000000  1
  O  O92  1  0.05321334  0.05321334  0.50000000  1
  O  O93  1  0.05321334  -0.00000000  0.50000000  1
  O  O94  1  0.00000000  0.05321334  0.50000000  1
  O  O95  1  0.94678666  0.94678666  0.50000000  1
  O  O96  1  0.61345332  0.33333333  0.83333333  1
  O  O97  1  0.66666667  0.28011999  0.83333333  1
  O  O98  1  0.71988001  0.38654668  0.83333333  1
  O  O99  1  0.71988001  0.33333333  0.83333333  1
  O  O100  1  0.66666667  0.38654668  0.83333333  1
  O  O101  1  0.61345332  0.28011999  0.83333333  1
  O  O102  1  0.28011999  0.66666667  0.16666667  1
  O  O103  1  0.33333333  0.61345332  0.16666667  1
  O  O104  1  0.38654668  0.71988001  0.16666667  1
  O  O105  1  0.38654668  0.66666667  0.16666667  1
  O  O106  1  0.33333333  0.71988001  0.16666667  1
  O  O107  1  0.28011999  0.61345332  0.16666667  1
  S  S108  1  0.24399266  0.00000000  0.00000000  1
  S  S109  1  0.00000000  0.24399266  0.00000000  1
  S  S110  1  0.75600734  0.75600734  0.00000000  1
  S  S111  1  0.75600734  0.00000000  -0.00000000  1
  S  S112  1  0.00000000  0.75600734  0.00000000  1
  S  S113  1  0.24399266  0.24399266  0.00000000  1
  S  S114  1  0.91065933  0.33333333  0.33333333  1
  S  S115  1  0.66666667  0.57732600  0.33333333  1
  S  S116  1  0.42267400  0.08934067  0.33333333  1
  S  S117  1  0.42267400  0.33333333  0.33333333  1
  S  S118  1  0.66666667  0.08934067  0.33333333  1
  S  S119  1  0.91065933  0.57732600  0.33333333  1
  S  S120  1  0.57732600  0.66666667  0.66666667  1
  S  S121  1  0.33333333  0.91065933  0.66666667  1
  S  S122  1  0.08934067  0.42267400  0.66666667  1
  S  S123  1  0.08934067  0.66666667  0.66666667  1
  S  S124  1  0.33333333  0.42267400  0.66666667  1
  S  S125  1  0.57732600  0.91065933  0.66666667  1
  S  S126  1  0.02431065  0.42300209  0.63012806  1
  S  S127  1  -0.42300209  -0.39869144  0.63012806  1
  S  S128  1  0.39869144  -0.02431065  0.63012806  1
  S  S129  1  0.42300209  0.02431065  -0.63012806  1
  S  S130  1  -0.39869144  -0.42300209  -0.63012806  1
  S  S131  1  -0.02431065  0.39869144  -0.63012806  1
  S  S132  1  -0.02431065  -0.42300209  -0.63012806  1
  S  S133  1  0.42300209  0.39869144  -0.63012806  1
  S  S134  1  -0.39869144  0.02431065  -0.63012806  1
  S  S135  1  -0.42300209  -0.02431065  0.63012806  1
  S  S136  1  0.39869144  0.42300209  0.63012806  1
  S  S137  1  0.02431065  -0.39869144  0.63012806  1
  S  S138  1  0.69097732  0.75633542  0.96346139  1
  S  S139  1  0.24366458  -0.06535810  0.96346139  1
  S  S140  1  1.06535810  0.30902268  0.96346139  1
  S  S141  1  1.08966876  0.35764399  -0.29679473  1
  S  S142  1  0.26797523  -0.08966876  -0.29679473  1
  S  S143  1  0.64235601  0.73202477  -0.29679473  1
  S  S144  1  0.64235601  -0.08966876  -0.29679473  1
  S  S145  1  1.08966876  0.73202477  -0.29679473  1
  S  S146  1  0.26797523  0.35764399  -0.29679473  1
  S  S147  1  0.24366458  0.30902268  0.96346139  1
  S  S148  1  1.06535810  0.75633542  0.96346139  1
  S  S149  1  0.69097732  -0.06535810  0.96346139  1
  S  S150  1  0.35764399  1.08966876  1.29679473  1
  S  S151  1  -0.08966876  0.26797523  1.29679473  1
  S  S152  1  0.73202477  0.64235601  1.29679473  1
  S  S153  1  0.75633542  0.69097732  0.03653861  1
  S  S154  1  -0.06535810  0.24366458  0.03653861  1
  S  S155  1  0.30902268  1.06535810  0.03653861  1
  S  S156  1  0.30902268  0.24366458  0.03653861  1
  S  S157  1  0.75633542  1.06535810  0.03653861  1
  S  S158  1  -0.06535810  0.69097732  0.03653861  1
  S  S159  1  -0.08966876  0.64235601  1.29679473  1
  S  S160  1  0.73202477  1.08966876  1.29679473  1
  S  S161  1  0.35764399  0.26797523  1.29679473  1
  S  S162  1  0.50000000  0.00000000  -0.00000000  1
  S  S163  1  0.00000000  0.50000000  -0.00000000  1
  S  S164  1  0.50000000  0.50000000  -0.00000000  1
  S  S165  1  0.16666667  0.33333333  0.33333333  1
  S  S166  1  0.66666667  0.83333333  0.33333333  1
  S  S167  1  0.16666667  0.83333333  0.33333333  1
  S  S168  1  0.83333333  0.66666667  0.66666667  1
  S  S169  1  0.33333333  0.16666667  0.66666667  1
  S  S170  1  0.83333333  0.16666667  0.66666667  1
  S  S171  1  0.00000000  0.00000000  0.50000000  1
  S  S172  1  0.66666667  0.33333333  0.83333333  1
  S  S173  1  0.33333333  0.66666667  0.16666667  1
  S  S174  1  0.00000000  0.00000000  0.73075466  1
  S  S175  1  0.00000000  0.00000000  0.26924534  1
  S  S176  1  0.66666667  0.33333333  0.06408799  1
  S  S177  1  0.66666667  0.33333333  0.60257868  1
  S  S178  1  0.33333333  0.66666667  0.39742132  1
  S  S179  1  0.33333333  0.66666667  0.93591201  1
  Sr  Sr180  1  0.27248993  0.72751007  0.32136087  1
  Sr  Sr181  1  0.27248993  0.54497986  0.32136087  1
  Sr  Sr182  1  0.45502014  0.72751007  0.32136087  1
  Sr  Sr183  1  0.72751007  0.27248993  0.67863913  1
  Sr  Sr184  1  0.54497986  0.27248993  0.67863913  1
  Sr  Sr185  1  0.72751007  0.45502014  0.67863913  1
  Sr  Sr186  1  0.93915660  0.06084340  0.65469420  1
  Sr  Sr187  1  0.93915660  0.87831319  0.65469420  1
  Sr  Sr188  1  0.12168681  0.06084340  0.65469420  1
  Sr  Sr189  1  0.39417674  0.60582326  0.01197247  1
  Sr  Sr190  1  0.21164652  0.60582326  0.01197247  1
  Sr  Sr191  1  0.39417674  0.78835348  0.01197247  1
  Sr  Sr192  1  0.60582326  0.39417674  0.98802753  1
  Sr  Sr193  1  0.60582326  0.21164652  0.98802753  1
  Sr  Sr194  1  0.78835348  0.39417674  0.98802753  1
  Sr  Sr195  1  0.06084340  0.93915660  0.34530580  1
  Sr  Sr196  1  0.87831319  0.93915660  0.34530580  1
  Sr  Sr197  1  0.06084340  0.12168681  0.34530580  1
  Sr  Sr198  1  0.13446157  0.86553843  0.21759098  1
  Sr  Sr199  1  0.13446157  0.26892313  0.21759098  1
  Sr  Sr200  1  0.73107687  0.86553843  0.21759098  1
  Sr  Sr201  1  0.86553843  0.13446157  0.78240902  1
  Sr  Sr202  1  0.26892313  0.13446157  0.78240902  1
  Sr  Sr203  1  0.86553843  0.73107687  0.78240902  1
  Sr  Sr204  1  0.80112823  0.19887177  0.55092431  1
  Sr  Sr205  1  0.80112823  0.60225647  0.55092431  1
  Sr  Sr206  1  0.39774353  0.19887177  0.55092431  1
  Sr  Sr207  1  0.53220510  0.46779490  0.11574236  1
  Sr  Sr208  1  0.93558980  0.46779490  0.11574236  1
  Sr  Sr209  1  0.53220510  0.06441020  0.11574236  1
  Sr  Sr210  1  0.46779490  0.53220510  0.88425764  1
  Sr  Sr211  1  0.46779490  0.93558980  0.88425764  1
  Sr  Sr212  1  0.06441020  0.53220510  0.88425764  1
  Sr  Sr213  1  0.19887177  0.80112823  0.44907569  1
  Sr  Sr214  1  0.60225647  0.80112823  0.44907569  1
  Sr  Sr215  1  0.19887177  0.39774353  0.44907569  1
  Sr  Sr216  1  0.50000000  0.00000000  0.50000000  1
  Sr  Sr217  1  0.00000000  0.50000000  0.50000000  1
  Sr  Sr218  1  0.50000000  0.50000000  0.50000000  1
  Sr  Sr219  1  0.16666667  0.33333333  0.83333333  1
  Sr  Sr220  1  0.66666667  0.83333333  0.83333333  1
  Sr  Sr221  1  0.16666667  0.83333333  0.83333333  1
  Sr  Sr222  1  0.83333333  0.66666667  0.16666667  1
  Sr  Sr223  1  0.33333333  0.16666667  0.16666667  1
  Sr  Sr224  1  0.83333333  0.16666667  0.16666667  1
  Sr  Sr225  1  0.08877456  0.78898269  0.77368025  1
  Sr  Sr226  1  0.21101731  0.29979187  0.77368025  1
  Sr  Sr227  1  0.70020813  0.91122544  0.77368025  1
  Sr  Sr228  1  0.78898269  0.08877456  0.22631975  1
  Sr  Sr229  1  0.29979187  0.21101731  0.22631975  1
  Sr  Sr230  1  0.91122544  0.70020813  0.22631975  1
  Sr  Sr231  1  0.91122544  0.21101731  0.22631975  1
  Sr  Sr232  1  0.78898269  0.70020813  0.22631975  1
  Sr  Sr233  1  0.29979187  0.08877456  0.22631975  1
  Sr  Sr234  1  0.21101731  0.91122544  0.77368025  1
  Sr  Sr235  1  0.70020813  0.78898269  0.77368025  1
  Sr  Sr236  1  0.08877456  0.29979187  0.77368025  1
  Sr  Sr237  1  0.75544122  0.12231602  0.10701358  1
  Sr  Sr238  1  0.87768398  0.63312520  0.10701358  1
  Sr  Sr239  1  0.36687480  0.24455878  0.10701358  1
  Sr  Sr240  1  0.45564936  0.42210789  0.55965308  1
  Sr  Sr241  1  0.96645854  0.54435064  0.55965308  1
  Sr  Sr242  1  0.57789211  0.03354146  0.55965308  1
  Sr  Sr243  1  0.57789211  0.54435064  0.55965308  1
  Sr  Sr244  1  0.45564936  0.03354146  0.55965308  1
  Sr  Sr245  1  0.96645854  0.42210789  0.55965308  1
  Sr  Sr246  1  0.87768398  0.24455878  0.10701358  1
  Sr  Sr247  1  0.36687480  0.12231602  0.10701358  1
  Sr  Sr248  1  0.75544122  0.63312520  0.10701358  1
  Sr  Sr249  1  0.42210789  0.45564936  0.44034692  1
  Sr  Sr250  1  0.54435064  0.96645854  0.44034692  1
  Sr  Sr251  1  0.03354146  0.57789211  0.44034692  1
  Sr  Sr252  1  0.12231602  0.75544122  0.89298642  1
  Sr  Sr253  1  0.63312520  0.87768398  0.89298642  1
  Sr  Sr254  1  0.24455878  0.36687480  0.89298642  1
  Sr  Sr255  1  0.24455878  0.87768398  0.89298642  1
  Sr  Sr256  1  0.12231602  0.36687480  0.89298642  1
  Sr  Sr257  1  0.63312520  0.75544122  0.89298642  1
  Sr  Sr258  1  0.54435064  0.57789211  0.44034692  1
  Sr  Sr259  1  0.03354146  0.45564936  0.44034692  1
  Sr  Sr260  1  0.42210789  0.96645854  0.44034692  1
  Sr  Sr261  1  0.00000000  0.00000000  0.00000000  1
  Sr  Sr262  1  0.66666667  0.33333333  0.33333333  1
  Sr  Sr263  1  0.33333333  0.66666667  0.66666667  1
  Sr  Sr264  1  0.60269161  0.00000000  0.00000000  1
  Sr  Sr265  1  0.00000000  0.60269161  -0.00000000  1
  Sr  Sr266  1  0.39730839  0.39730839  0.00000000  1
  Sr  Sr267  1  0.39730839  0.00000000  -0.00000000  1
  Sr  Sr268  1  0.00000000  0.39730839  0.00000000  1
  Sr  Sr269  1  0.60269161  0.60269161  -0.00000000  1
  Sr  Sr270  1  0.26935828  0.33333333  0.33333333  1
  Sr  Sr271  1  0.66666667  0.93602494  0.33333333  1
  Sr  Sr272  1  0.06397506  0.73064172  0.33333333  1
  Sr  Sr273  1  0.06397506  0.33333333  0.33333333  1
  Sr  Sr274  1  0.66666667  0.73064172  0.33333333  1
  Sr  Sr275  1  0.26935828  0.93602494  0.33333333  1
  Sr  Sr276  1  0.93602494  0.66666667  0.66666667  1
  Sr  Sr277  1  0.33333333  0.26935828  0.66666667  1
  Sr  Sr278  1  0.73064172  0.06397506  0.66666667  1
  Sr  Sr279  1  0.73064172  0.66666667  0.66666667  1
  Sr  Sr280  1  0.33333333  0.06397506  0.66666667  1
  Sr  Sr281  1  0.93602494  0.26935828  0.66666667  1
  Sr  Sr282  1  0.00000000  0.00000000  0.60881067  1
  Sr  Sr283  1  0.00000000  0.00000000  0.39118933  1
  Sr  Sr284  1  0.66666667  0.33333333  0.94214401  1
  Sr  Sr285  1  0.66666667  0.33333333  0.72452266  1
  Sr  Sr286  1  0.33333333  0.66666667  0.27547734  1
  Sr  Sr287  1  0.33333333  0.66666667  0.05785599  1
  Ti  Ti288  1  0.90085280  0.00000000  0.50000000  1
  Ti  Ti289  1  0.00000000  0.90085280  0.50000000  1
  Ti  Ti290  1  0.09914720  0.09914720  0.50000000  1
  Ti  Ti291  1  0.09914720  0.00000000  0.50000000  1
  Ti  Ti292  1  0.00000000  0.09914720  0.50000000  1
  Ti  Ti293  1  0.90085280  0.90085280  0.50000000  1
  Ti  Ti294  1  0.56751946  0.33333333  0.83333333  1
  Ti  Ti295  1  0.66666667  0.23418613  0.83333333  1
  Ti  Ti296  1  0.76581387  0.43248054  0.83333333  1
  Ti  Ti297  1  0.76581387  0.33333333  0.83333333  1
  Ti  Ti298  1  0.66666667  0.43248054  0.83333333  1
  Ti  Ti299  1  0.56751946  0.23418613  0.83333333  1
  Ti  Ti300  1  0.23418613  0.66666667  0.16666667  1
  Ti  Ti301  1  0.33333333  0.56751946  0.16666667  1
  Ti  Ti302  1  0.43248054  0.76581387  0.16666667  1
  Ti  Ti303  1  0.43248054  0.66666667  0.16666667  1
  Ti  Ti304  1  0.33333333  0.76581387  0.16666667  1
  Ti  Ti305  1  0.23418613  0.56751946  0.16666667  1
  Ti  Ti306  1  0.56316577  0.43683423  0.22431592  1
  Ti  Ti307  1  0.56316577  0.12633153  0.22431592  1
  Ti  Ti308  1  0.87366847  0.43683423  0.22431592  1
  Ti  Ti309  1  0.43683423  0.56316577  0.77568408  1
  Ti  Ti310  1  0.12633153  0.56316577  0.77568408  1
  Ti  Ti311  1  0.43683423  0.87366847  0.77568408  1
  Ti  Ti312  1  0.22983243  0.77016757  0.55764926  1
  Ti  Ti313  1  0.22983243  0.45966487  0.55764926  1
  Ti  Ti314  1  0.54033513  0.77016757  0.55764926  1
  Ti  Ti315  1  0.10350090  0.89649910  0.10901741  1
  Ti  Ti316  1  0.79299820  0.89649910  0.10901741  1
  Ti  Ti317  1  0.10350090  0.20700180  0.10901741  1
  Ti  Ti318  1  0.89649910  0.10350090  0.89098259  1
  Ti  Ti319  1  0.89649910  0.79299820  0.89098259  1
  Ti  Ti320  1  0.20700180  0.10350090  0.89098259  1
  Ti  Ti321  1  0.77016757  0.22983243  0.44235074  1
  Ti  Ti322  1  0.45966487  0.22983243  0.44235074  1
  Ti  Ti323  1  0.77016757  0.54033513  0.44235074  1
