# generated using pymatgen
data_LiF
_symmetry_space_group_name_H-M   'P 1'
_cell_length_a   18.62272297
_cell_length_b   18.62272297
_cell_length_c   5.48287371
_cell_angle_alpha   90.00000000
_cell_angle_beta   90.00000000
_cell_angle_gamma   90.00000000
_symmetry_Int_Tables_number   1
_chemical_formula_structural   LiF
_chemical_formula_sum   'Li64 F64'
_cell_volume   1901.49246520
_cell_formula_units_Z   64
loop_
 _symmetry_equiv_pos_site_id
 _symmetry_equiv_pos_as_xyz
  1  'x, y, z'
loop_
 _atom_site_type_symbol
 _atom_site_label
 _atom_site_symmetry_multiplicity
 _atom_site_fract_x
 _atom_site_fract_y
 _atom_site_fract_z
 _atom_site_occupancy
  F  F0  1  0.65998561  0.17428273  0.74166308  1
  F  F1  1  0.84001439  0.82571727  0.24166308  1
  F  F2  1  0.07571727  0.40998561  0.99166308  1
  F  F3  1  0.42428273  0.59001439  0.49166308  1
  F  F4  1  0.84001439  0.17428273  0.25833692  1
  F  F5  1  0.65998561  0.82571727  0.75833692  1
  F  F6  1  0.42428273  0.40998561  0.00833692  1
  F  F7  1  0.07571727  0.59001439  0.50833692  1
  F  F8  1  0.34001439  0.82571727  0.25833692  1
  F  F9  1  0.15998561  0.17428273  0.75833692  1
  F  F10  1  0.92428273  0.59001439  0.00833692  1
  F  F11  1  0.57571727  0.40998561  0.50833692  1
  F  F12  1  0.15998561  0.82571727  0.74166308  1
  F  F13  1  0.34001439  0.17428273  0.24166308  1
  F  F14  1  0.57571727  0.59001439  0.99166308  1
  F  F15  1  0.92428273  0.40998561  0.49166308  1
  F  F16  1  0.15998561  0.67428273  0.24166308  1
  F  F17  1  0.34001439  0.32571727  0.74166308  1
  F  F18  1  0.57571727  0.90998561  0.49166308  1
  F  F19  1  0.92428273  0.09001439  0.99166308  1
  F  F20  1  0.34001439  0.67428273  0.75833692  1
  F  F21  1  0.15998561  0.32571727  0.25833692  1
  F  F22  1  0.92428273  0.90998561  0.50833692  1
  F  F23  1  0.57571727  0.09001439  0.00833692  1
  F  F24  1  0.84001439  0.32571727  0.75833692  1
  F  F25  1  0.65998561  0.67428273  0.25833692  1
  F  F26  1  0.42428273  0.09001439  0.50833692  1
  F  F27  1  0.07571727  0.90998561  0.00833692  1
  F  F28  1  0.65998561  0.32571727  0.24166308  1
  F  F29  1  0.84001439  0.67428273  0.74166308  1
  F  F30  1  0.07571727  0.09001439  0.49166308  1
  F  F31  1  0.42428273  0.90998561  0.99166308  1
  F  F32  1  0.37129180  0.43994864  0.31786164  1
  F  F33  1  0.12870820  0.56005136  0.81786164  1
  F  F34  1  0.81005136  0.12129180  0.56786164  1
  F  F35  1  0.68994864  0.87870820  0.06786164  1
  F  F36  1  0.12870820  0.43994864  0.68213836  1
  F  F37  1  0.37129180  0.56005136  0.18213836  1
  F  F38  1  0.68994864  0.12129180  0.43213836  1
  F  F39  1  0.81005136  0.87870820  0.93213836  1
  F  F40  1  0.62870820  0.56005136  0.68213836  1
  F  F41  1  0.87129180  0.43994864  0.18213836  1
  F  F42  1  0.18994864  0.87870820  0.43213836  1
  F  F43  1  0.31005136  0.12129180  0.93213836  1
  F  F44  1  0.87129180  0.56005136  0.31786164  1
  F  F45  1  0.62870820  0.43994864  0.81786164  1
  F  F46  1  0.31005136  0.87870820  0.56786164  1
  F  F47  1  0.18994864  0.12129180  0.06786164  1
  F  F48  1  0.87129180  0.93994864  0.81786164  1
  F  F49  1  0.62870820  0.06005136  0.31786164  1
  F  F50  1  0.31005136  0.62129180  0.06786164  1
  F  F51  1  0.18994864  0.37870820  0.56786164  1
  F  F52  1  0.62870820  0.93994864  0.18213836  1
  F  F53  1  0.87129180  0.06005136  0.68213836  1
  F  F54  1  0.18994864  0.62129180  0.93213836  1
  F  F55  1  0.31005136  0.37870820  0.43213836  1
  F  F56  1  0.12870820  0.06005136  0.18213836  1
  F  F57  1  0.37129180  0.93994864  0.68213836  1
  F  F58  1  0.68994864  0.37870820  0.93213836  1
  F  F59  1  0.81005136  0.62129180  0.43213836  1
  F  F60  1  0.37129180  0.06005136  0.81786164  1
  F  F61  1  0.12870820  0.93994864  0.31786164  1
  F  F62  1  0.81005136  0.37870820  0.06786164  1
  F  F63  1  0.68994864  0.62129180  0.56786164  1
  Li  Li64  1  0.56614302  0.58699169  0.59828261  1
  Li  Li65  1  -0.06614302  -0.58699169  1.09828261  1
  Li  Li66  1  -0.33699169  1.31614302  0.84828261  1
  Li  Li67  1  0.83699169  -0.31614302  1.34828261  1
  Li  Li68  1  -0.06614302  0.58699169  -0.59828261  1
  Li  Li69  1  0.56614302  -0.58699169  -0.09828261  1
  Li  Li70  1  0.83699169  1.31614302  0.15171739  1
  Li  Li71  1  -0.33699169  -0.31614302  -0.34828261  1
  Li  Li72  1  -0.56614302  -0.58699169  -0.59828261  1
  Li  Li73  1  1.06614302  0.58699169  -0.09828261  1
  Li  Li74  1  1.33699169  -0.31614302  0.15171739  1
  Li  Li75  1  0.16300831  1.31614302  -0.34828261  1
  Li  Li76  1  1.06614302  -0.58699169  0.59828261  1
  Li  Li77  1  -0.56614302  0.58699169  1.09828261  1
  Li  Li78  1  0.16300831  -0.31614302  0.84828261  1
  Li  Li79  1  1.33699169  1.31614302  1.34828261  1
  Li  Li80  1  1.06614302  1.08699169  1.09828261  1
  Li  Li81  1  0.43385698  -0.08699169  1.59828261  1
  Li  Li82  1  0.16300831  1.81614302  1.34828261  1
  Li  Li83  1  1.33699169  0.18385698  1.84828261  1
  Li  Li84  1  0.43385698  1.08699169  -0.09828261  1
  Li  Li85  1  1.06614302  -0.08699169  0.40171739  1
  Li  Li86  1  1.33699169  1.81614302  0.65171739  1
  Li  Li87  1  0.16300831  0.18385698  0.15171739  1
  Li  Li88  1  -0.06614302  -0.08699169  -0.09828261  1
  Li  Li89  1  1.56614302  1.08699169  0.40171739  1
  Li  Li90  1  1.83699169  0.18385698  0.65171739  1
  Li  Li91  1  0.66300831  1.81614302  0.15171739  1
  Li  Li92  1  1.56614302  -0.08699169  1.09828261  1
  Li  Li93  1  -0.06614302  1.08699169  1.59828261  1
  Li  Li94  1  0.66300831  0.18385698  1.34828261  1
  Li  Li95  1  1.83699169  1.81614302  1.84828261  1
  Li  Li96  1  0.89123865  0.14123865  0.12500000  1
  Li  Li97  1  0.60876135  0.85876135  0.62500000  1
  Li  Li98  1  0.10876135  0.64123865  0.37500000  1
  Li  Li99  1  0.39123865  0.35876135  0.87500000  1
  Li  Li100  1  0.10876135  0.85876135  0.87500000  1
  Li  Li101  1  0.39123865  0.14123865  0.37500000  1
  Li  Li102  1  0.89123865  0.35876135  0.62500000  1
  Li  Li103  1  0.60876135  0.64123865  0.12500000  1
  Li  Li104  1  0.39123865  0.64123865  0.62500000  1
  Li  Li105  1  0.10876135  0.35876135  0.12500000  1
  Li  Li106  1  0.60876135  0.14123865  0.87500000  1
  Li  Li107  1  0.89123865  0.85876135  0.37500000  1
  Li  Li108  1  0.60876135  0.35876135  0.37500000  1
  Li  Li109  1  0.89123865  0.64123865  0.87500000  1
  Li  Li110  1  0.39123865  0.85876135  0.12500000  1
  Li  Li111  1  0.10876135  0.14123865  0.62500000  1
  Li  Li112  1  0.00000000  0.25000000  0.12500000  1
  Li  Li113  1  0.00000000  0.75000000  0.37500000  1
  Li  Li114  1  0.00000000  0.75000000  0.87500000  1
  Li  Li115  1  0.00000000  0.25000000  0.62500000  1
  Li  Li116  1  0.50000000  0.75000000  0.62500000  1
  Li  Li117  1  0.50000000  0.25000000  0.87500000  1
  Li  Li118  1  0.50000000  0.25000000  0.37500000  1
  Li  Li119  1  0.50000000  0.75000000  0.12500000  1
  Li  Li120  1  0.00000000  0.25000000  0.37500000  1
  Li  Li121  1  0.00000000  0.75000000  0.62500000  1
  Li  Li122  1  0.50000000  0.25000000  0.62500000  1
  Li  Li123  1  0.50000000  0.75000000  0.37500000  1
  Li  Li124  1  0.50000000  0.75000000  0.87500000  1
  Li  Li125  1  0.50000000  0.25000000  0.12500000  1
  Li  Li126  1  0.00000000  0.75000000  0.12500000  1
  Li  Li127  1  0.00000000  0.25000000  0.87500000  1
