# generated using pymatgen
data_LiF
_symmetry_space_group_name_H-M   'P 1'
_cell_length_a   13.86624171
_cell_length_b   13.86624171
_cell_length_c   10.84948845
_cell_angle_alpha   90.00000000
_cell_angle_beta   90.00000000
_cell_angle_gamma   90.00000000
_symmetry_Int_Tables_number   1
_chemical_formula_structural   LiF
_chemical_formula_sum   'Li64 F64'
_cell_volume   2086.05999582
_cell_formula_units_Z   64
loop_
 _symmetry_equiv_pos_site_id
 _symmetry_equiv_pos_as_xyz
  1  'x, y, z'
loop_
 _atom_site_type_symbol
 _atom_site_label
 _atom_site_symmetry_multiplicity
 _atom_site_fract_x
 _atom_site_fract_y
 _atom_site_fract_z
 _atom_site_occupancy
  F  F0  1  0.43541836  0.23587751  0.23187547  1
  F  F1  1  0.06458164  -0.23587751  0.73187547  1
  F  F2  1  0.01412249  1.18541836  0.48187547  1
  F  F3  1  0.48587751  -0.18541836  0.98187547  1
  F  F4  1  0.06458164  0.23587751  -0.23187547  1
  F  F5  1  0.43541836  -0.23587751  0.26812453  1
  F  F6  1  0.48587751  1.18541836  0.51812453  1
  F  F7  1  0.01412249  -0.18541836  0.01812453  1
  F  F8  1  -0.43541836  -0.23587751  -0.23187547  1
  F  F9  1  0.93541836  0.23587751  0.26812453  1
  F  F10  1  0.98587751  -0.18541836  0.51812453  1
  F  F11  1  0.51412249  1.18541836  0.01812453  1
  F  F12  1  0.93541836  -0.23587751  0.23187547  1
  F  F13  1  -0.43541836  0.23587751  0.73187547  1
  F  F14  1  0.51412249  -0.18541836  0.48187547  1
  F  F15  1  0.98587751  1.18541836  0.98187547  1
  F  F16  1  0.93541836  0.73587751  0.73187547  1
  F  F17  1  0.56458164  0.26412249  1.23187547  1
  F  F18  1  0.51412249  1.68541836  0.98187547  1
  F  F19  1  0.98587751  0.31458164  1.48187547  1
  F  F20  1  0.56458164  0.73587751  0.26812453  1
  F  F21  1  0.93541836  0.26412249  0.76812453  1
  F  F22  1  0.98587751  1.68541836  1.01812453  1
  F  F23  1  0.51412249  0.31458164  0.51812453  1
  F  F24  1  0.06458164  0.26412249  0.26812453  1
  F  F25  1  1.43541836  0.73587751  0.76812453  1
  F  F26  1  1.48587751  0.31458164  1.01812453  1
  F  F27  1  1.01412249  1.68541836  0.51812453  1
  F  F28  1  1.43541836  0.26412249  0.73187547  1
  F  F29  1  0.06458164  0.73587751  1.23187547  1
  F  F30  1  1.01412249  0.31458164  0.98187547  1
  F  F31  1  1.48587751  1.68541836  1.48187547  1
  F  F32  1  0.76101088  0.64654382  0.59382243  1
  F  F33  1  0.73898912  0.35345618  0.09382243  1
  F  F34  1  0.60345618  0.51101088  0.84382243  1
  F  F35  1  0.89654382  0.48898912  0.34382243  1
  F  F36  1  0.73898912  0.64654382  0.40617757  1
  F  F37  1  0.76101088  0.35345618  0.90617757  1
  F  F38  1  0.89654382  0.51101088  0.15617757  1
  F  F39  1  0.60345618  0.48898912  0.65617757  1
  F  F40  1  0.23898912  0.35345618  0.40617757  1
  F  F41  1  0.26101088  0.64654382  0.90617757  1
  F  F42  1  0.39654382  0.48898912  0.15617757  1
  F  F43  1  0.10345618  0.51101088  0.65617757  1
  F  F44  1  0.26101088  0.35345618  0.59382243  1
  F  F45  1  0.23898912  0.64654382  0.09382243  1
  F  F46  1  0.10345618  0.48898912  0.84382243  1
  F  F47  1  0.39654382  0.51101088  0.34382243  1
  F  F48  1  0.26101088  0.14654382  0.09382243  1
  F  F49  1  0.23898912  0.85345618  0.59382243  1
  F  F50  1  0.10345618  0.01101088  0.34382243  1
  F  F51  1  0.39654382  0.98898912  0.84382243  1
  F  F52  1  0.23898912  0.14654382  0.90617757  1
  F  F53  1  0.26101088  0.85345618  0.40617757  1
  F  F54  1  0.39654382  0.01101088  0.65617757  1
  F  F55  1  0.10345618  0.98898912  0.15617757  1
  F  F56  1  0.73898912  0.85345618  0.90617757  1
  F  F57  1  0.76101088  0.14654382  0.40617757  1
  F  F58  1  0.89654382  0.98898912  0.65617757  1
  F  F59  1  0.60345618  0.01101088  0.15617757  1
  F  F60  1  0.76101088  0.85345618  0.09382243  1
  F  F61  1  0.73898912  0.14654382  0.59382243  1
  F  F62  1  0.60345618  0.98898912  0.34382243  1
  F  F63  1  0.89654382  0.01101088  0.84382243  1
  Li  Li64  1  0.87118259  0.43838752  0.26323620  1
  Li  Li65  1  0.62881741  0.56161248  0.76323620  1
  Li  Li66  1  0.81161248  0.62118259  0.51323620  1
  Li  Li67  1  0.68838752  0.37881741  0.01323620  1
  Li  Li68  1  0.62881741  0.43838752  0.73676380  1
  Li  Li69  1  0.87118259  0.56161248  0.23676380  1
  Li  Li70  1  0.68838752  0.62118259  0.48676380  1
  Li  Li71  1  0.81161248  0.37881741  0.98676380  1
  Li  Li72  1  0.12881741  0.56161248  0.73676380  1
  Li  Li73  1  0.37118259  0.43838752  0.23676380  1
  Li  Li74  1  0.18838752  0.37881741  0.48676380  1
  Li  Li75  1  0.31161248  0.62118259  0.98676380  1
  Li  Li76  1  0.37118259  0.56161248  0.26323620  1
  Li  Li77  1  0.12881741  0.43838752  0.76323620  1
  Li  Li78  1  0.31161248  0.37881741  0.51323620  1
  Li  Li79  1  0.18838752  0.62118259  0.01323620  1
  Li  Li80  1  0.37118259  0.93838752  0.76323620  1
  Li  Li81  1  0.12881741  0.06161248  0.26323620  1
  Li  Li82  1  0.31161248  0.12118259  0.01323620  1
  Li  Li83  1  0.18838752  0.87881741  0.51323620  1
  Li  Li84  1  0.12881741  0.93838752  0.23676380  1
  Li  Li85  1  0.37118259  0.06161248  0.73676380  1
  Li  Li86  1  0.18838752  0.12118259  0.98676380  1
  Li  Li87  1  0.31161248  0.87881741  0.48676380  1
  Li  Li88  1  0.62881741  0.06161248  0.23676380  1
  Li  Li89  1  0.87118259  0.93838752  0.73676380  1
  Li  Li90  1  0.68838752  0.87881741  0.98676380  1
  Li  Li91  1  0.81161248  0.12118259  0.48676380  1
  Li  Li92  1  0.87118259  0.06161248  0.76323620  1
  Li  Li93  1  0.62881741  0.93838752  0.26323620  1
  Li  Li94  1  0.81161248  0.87881741  0.01323620  1
  Li  Li95  1  0.68838752  0.12118259  0.51323620  1
  Li  Li96  1  0.00000000  0.00000000  0.00000000  1
  Li  Li97  1  0.50000000  0.00000000  0.50000000  1
  Li  Li98  1  0.25000000  0.75000000  0.25000000  1
  Li  Li99  1  0.25000000  0.25000000  0.75000000  1
  Li  Li100  1  0.50000000  0.00000000  0.00000000  1
  Li  Li101  1  0.00000000  0.00000000  0.50000000  1
  Li  Li102  1  0.25000000  0.75000000  0.75000000  1
  Li  Li103  1  0.25000000  0.25000000  0.25000000  1
  Li  Li104  1  0.50000000  0.50000000  0.50000000  1
  Li  Li105  1  0.00000000  0.50000000  0.00000000  1
  Li  Li106  1  0.75000000  0.25000000  0.75000000  1
  Li  Li107  1  0.75000000  0.75000000  0.25000000  1
  Li  Li108  1  0.00000000  0.50000000  0.50000000  1
  Li  Li109  1  0.50000000  0.50000000  0.00000000  1
  Li  Li110  1  0.75000000  0.25000000  0.25000000  1
  Li  Li111  1  0.75000000  0.75000000  0.75000000  1
  Li  Li112  1  0.43116968  0.00000000  0.25000000  1
  Li  Li113  1  0.06883032  -0.00000000  0.75000000  1
  Li  Li114  1  0.25000000  0.18116968  0.50000000  1
  Li  Li115  1  0.25000000  0.81883032  0.00000000  1
  Li  Li116  1  0.56883032  -0.00000000  0.75000000  1
  Li  Li117  1  0.93116968  0.00000000  0.25000000  1
  Li  Li118  1  0.75000000  0.81883032  0.50000000  1
  Li  Li119  1  0.75000000  0.18116968  0.00000000  1
  Li  Li120  1  0.93116968  0.50000000  0.75000000  1
  Li  Li121  1  0.56883032  0.50000000  0.25000000  1
  Li  Li122  1  0.75000000  0.68116968  0.00000000  1
  Li  Li123  1  0.75000000  0.31883032  0.50000000  1
  Li  Li124  1  0.06883032  0.50000000  0.25000000  1
  Li  Li125  1  0.43116968  0.50000000  0.75000000  1
  Li  Li126  1  0.25000000  0.31883032  0.00000000  1
  Li  Li127  1  0.25000000  0.68116968  0.50000000  1
