# generated using pymatgen
data_LiF
_symmetry_space_group_name_H-M   'P 1'
_cell_length_a   13.86017771
_cell_length_b   13.86017771
_cell_length_c   4.60588263
_cell_angle_alpha   90.00000000
_cell_angle_beta   90.00000000
_cell_angle_gamma   120.00000000
_symmetry_Int_Tables_number   1
_chemical_formula_structural   LiF
_chemical_formula_sum   'Li33 F33'
_cell_volume   766.26871691
_cell_formula_units_Z   33
loop_
 _symmetry_equiv_pos_site_id
 _symmetry_equiv_pos_as_xyz
  1  'x, y, z'
loop_
 _atom_site_type_symbol
 _atom_site_label
 _atom_site_symmetry_multiplicity
 _atom_site_fract_x
 _atom_site_fract_y
 _atom_site_fract_z
 _atom_site_occupancy
  F  F0  1  0.78261463  0.80799619  0.14602688  1
  F  F1  1  0.19200381  0.97461845  0.14602688  1
  F  F2  1  0.02538155  0.21738537  0.14602688  1
  F  F3  1  0.19200381  0.21738537  0.85397312  1
  F  F4  1  0.02538155  0.80799619  0.85397312  1
  F  F5  1  0.78261463  0.97461845  0.85397312  1
  F  F6  1  0.56090648  0.75148592  0.24265489  1
  F  F7  1  0.24851408  0.80942056  0.24265489  1
  F  F8  1  0.19057944  0.43909352  0.24265489  1
  F  F9  1  0.24851408  0.43909352  0.75734511  1
  F  F10  1  0.19057944  0.75148592  0.75734511  1
  F  F11  1  0.56090648  0.80942056  0.75734511  1
  F  F12  1  0.66666667  0.33333333  0.22411536  1
  F  F13  1  0.66666667  0.33333333  0.77588464  1
  F  F14  1  0.34918050  0.84283050  0.92952977  1
  F  F15  1  0.15716950  0.50635000  0.92952977  1
  F  F16  1  0.49365000  0.65081950  0.92952977  1
  F  F17  1  0.15716950  0.65081950  0.07047023  1
  F  F18  1  0.49365000  0.84283050  0.07047023  1
  F  F19  1  0.34918050  0.50635000  0.07047023  1
  F  F20  1  0.33333333  0.66666667  0.30894439  1
  F  F21  1  0.33333333  0.66666667  0.69105561  1
  F  F22  1  0.56115235  0.52503578  0.01078058  1
  F  F23  1  0.47496422  0.03611657  0.01078058  1
  F  F24  1  0.96388343  0.43884765  0.01078058  1
  F  F25  1  0.47496422  0.43884765  0.98921942  1
  F  F26  1  0.96388343  0.52503578  0.98921942  1
  F  F27  1  0.56115235  0.03611657  0.98921942  1
  F  F28  1  0.73622772  0.26377228  0.50000000  1
  F  F29  1  0.73622772  0.47245544  0.50000000  1
  F  F30  1  0.52754456  0.26377228  0.50000000  1
  F  F31  1  0.66666667  0.33333333  -0.00000000  1
  F  F32  1  0.33333333  0.66666667  0.50000000  1
  Li  Li33  1  0.01731043  0.68693482  0.49934569  1
  Li  Li34  1  -0.68693482  -0.66962439  0.49934569  1
  Li  Li35  1  0.66962439  -0.01731043  0.49934569  1
  Li  Li36  1  -0.68693482  -0.01731043  -0.49934569  1
  Li  Li37  1  0.66962439  0.68693482  -0.49934569  1
  Li  Li38  1  0.01731043  -0.66962439  -0.49934569  1
  Li  Li39  1  0.00000000  0.00000000  0.00000000  1
  Li  Li40  1  0.00000000  0.00000000  0.50000000  1
  Li  Li41  1  0.54160036  0.05848591  0.70308055  1
  Li  Li42  1  0.94151409  0.48311444  0.70308055  1
  Li  Li43  1  0.51688556  0.45839964  0.70308055  1
  Li  Li44  1  0.94151409  0.45839964  0.29691945  1
  Li  Li45  1  0.51688556  0.05848591  0.29691945  1
  Li  Li46  1  0.54160036  0.48311444  0.29691945  1
  Li  Li47  1  0.19784817  0.80215183  0.00000000  1
  Li  Li48  1  0.19784817  0.39569635  0.00000000  1
  Li  Li49  1  0.60430365  0.80215183  -0.00000000  1
  Li  Li50  1  0.73170838  0.12604909  0.72384023  1
  Li  Li51  1  0.87395091  0.60565929  0.72384023  1
  Li  Li52  1  0.39434071  0.26829162  0.72384023  1
  Li  Li53  1  0.87395091  0.26829162  0.27615977  1
  Li  Li54  1  0.39434071  0.12604909  0.27615977  1
  Li  Li55  1  0.73170838  0.60565929  0.27615977  1
  Li  Li56  1  0.03340356  0.76526187  0.14481159  1
  Li  Li57  1  0.23473813  0.26814168  0.14481159  1
  Li  Li58  1  0.73185832  0.96659644  0.14481159  1
  Li  Li59  1  0.23473813  0.96659644  0.85518841  1
  Li  Li60  1  0.73185832  0.76526187  0.85518841  1
  Li  Li61  1  0.03340356  0.26814168  0.85518841  1
  Li  Li62  1  0.62020257  0.37979743  0.00000000  1
  Li  Li63  1  0.62020257  0.24040514  0.00000000  1
  Li  Li64  1  0.75959486  0.37979743  0.00000000  1
  Li  Li65  1  0.66666667  0.33333333  0.50000000  1
