# generated using pymatgen
data_Li2YMoP3Se2
_symmetry_space_group_name_H-M   'P 1'
_cell_length_a   4.67132157
_cell_length_b   4.87504282
_cell_length_c   7.08125291
_cell_angle_alpha   95.91130189
_cell_angle_beta   102.51827347
_cell_angle_gamma   112.01664371
_symmetry_Int_Tables_number   1
_chemical_formula_structural   Li2YMoP3Se2
_chemical_formula_sum   'Li2 Y1 Mo1 P3 Se2'
_cell_volume   142.89034731
_cell_formula_units_Z   1
loop_
 _symmetry_equiv_pos_site_id
 _symmetry_equiv_pos_as_xyz
  1  'x, y, z'
loop_
 _atom_site_type_symbol
 _atom_site_label
 _atom_site_symmetry_multiplicity
 _atom_site_fract_x
 _atom_site_fract_y
 _atom_site_fract_z
 _atom_site_occupancy
  Se  Se0  1  0.12500000  0.00000000  0.25000000  1
  Se  Se1  1  0.00000000  0.00000000  0.00000000  1
  P  P2  1  0.37500000  0.00000000  0.25000000  1
  P  P3  1  0.25000000  0.25000000  0.25000000  1
  P  P4  1  0.00000000  0.25000000  0.12500000  1
  Mo  Mo5  1  0.02231095  0.71548909  0.49374169  1
  Li  Li6  1  0.66697379  0.05852550  0.34825849  1
  Li  Li7  1  0.36267444  0.74694512  0.94421083  1
  Y  Y8  1  0.08073600  0.18672817  0.39462479  1
