# generated using pymatgen
data_LiF
_symmetry_space_group_name_H-M   'P 1'
_cell_length_a   17.98725392
_cell_length_b   17.98725392
_cell_length_c   11.81611629
_cell_angle_alpha   90.00000000
_cell_angle_beta   90.00000000
_cell_angle_gamma   120.00000000
_symmetry_Int_Tables_number   1
_chemical_formula_structural   LiF
_chemical_formula_sum   'Li108 F108'
_cell_volume   3310.81656254
_cell_formula_units_Z   108
loop_
 _symmetry_equiv_pos_site_id
 _symmetry_equiv_pos_as_xyz
  1  'x, y, z'
loop_
 _atom_site_type_symbol
 _atom_site_label
 _atom_site_symmetry_multiplicity
 _atom_site_fract_x
 _atom_site_fract_y
 _atom_site_fract_z
 _atom_site_occupancy
  F  F0  1  0.66374332  0.17482868  0.38316991  1
  F  F1  1  0.82517132  0.48891465  0.38316991  1
  F  F2  1  0.51108535  0.33625668  0.38316991  1
  F  F3  1  0.17482868  0.66374332  0.11683009  1
  F  F4  1  0.48891465  0.82517132  0.11683009  1
  F  F5  1  0.33625668  0.51108535  0.11683009  1
  F  F6  1  0.33625668  0.82517132  0.61683009  1
  F  F7  1  0.17482868  0.51108535  0.61683009  1
  F  F8  1  0.48891465  0.66374332  0.61683009  1
  F  F9  1  0.82517132  0.33625668  0.88316991  1
  F  F10  1  0.51108535  0.17482868  0.88316991  1
  F  F11  1  0.66374332  0.48891465  0.88316991  1
  F  F12  1  0.33040999  0.50816201  0.71650324  1
  F  F13  1  0.49183799  0.82224798  0.71650324  1
  F  F14  1  0.17775202  0.66959001  0.71650324  1
  F  F15  1  0.84149534  0.99707665  0.45016343  1
  F  F16  1  0.15558131  0.15850466  0.45016343  1
  F  F17  1  0.00292335  0.84441869  0.45016343  1
  F  F18  1  0.00292335  0.15850466  0.95016343  1
  F  F19  1  0.84149534  0.84441869  0.95016343  1
  F  F20  1  0.15558131  0.99707665  0.95016343  1
  F  F21  1  0.49183799  0.66959001  0.21650324  1
  F  F22  1  0.17775202  0.50816201  0.21650324  1
  F  F23  1  0.33040999  0.82224798  0.21650324  1
  F  F24  1  0.99707665  0.84149534  0.04983657  1
  F  F25  1  0.15850466  0.15558131  0.04983657  1
  F  F26  1  0.84441869  0.00292335  0.04983657  1
  F  F27  1  0.50816201  0.33040999  0.78349676  1
  F  F28  1  0.82224798  0.49183799  0.78349676  1
  F  F29  1  0.66959001  0.17775202  0.78349676  1
  F  F30  1  0.66959001  0.49183799  0.28349676  1
  F  F31  1  0.50816201  0.17775202  0.28349676  1
  F  F32  1  0.82224798  0.33040999  0.28349676  1
  F  F33  1  0.15850466  0.00292335  0.54983657  1
  F  F34  1  0.84441869  0.84149534  0.54983657  1
  F  F35  1  0.99707665  0.15558131  0.54983657  1
  F  F36  1  0.11668404  0.42376642  0.80825160  1
  F  F37  1  0.57623358  0.69291763  0.80825160  1
  F  F38  1  0.30708237  0.88331596  0.80825160  1
  F  F39  1  0.42376642  0.11668404  0.69174840  1
  F  F40  1  0.69291763  0.57623358  0.69174840  1
  F  F41  1  0.88331596  0.30708237  0.69174840  1
  F  F42  1  0.88331596  0.57623358  0.19174840  1
  F  F43  1  0.42376642  0.30708237  0.19174840  1
  F  F44  1  0.69291763  0.11668404  0.19174840  1
  F  F45  1  0.57623358  0.88331596  0.30825160  1
  F  F46  1  0.30708237  0.42376642  0.30825160  1
  F  F47  1  0.11668404  0.69291763  0.30825160  1
  F  F48  1  0.78335071  0.75709975  0.14158494  1
  F  F49  1  0.24290025  0.02625096  0.14158494  1
  F  F50  1  0.97374904  0.21664929  0.14158494  1
  F  F51  1  0.09043308  0.45001738  0.02508173  1
  F  F52  1  0.35958429  0.90956692  0.02508173  1
  F  F53  1  0.54998262  0.64041571  0.02508173  1
  F  F54  1  0.54998262  0.90956692  0.52508173  1
  F  F55  1  0.09043308  0.64041571  0.52508173  1
  F  F56  1  0.35958429  0.45001738  0.52508173  1
  F  F57  1  0.24290025  0.21664929  0.64158494  1
  F  F58  1  0.97374904  0.75709975  0.64158494  1
  F  F59  1  0.78335071  0.02625096  0.64158494  1
  F  F60  1  0.45001738  0.09043308  0.47491827  1
  F  F61  1  0.90956692  0.35958429  0.47491827  1
  F  F62  1  0.64041571  0.54998262  0.47491827  1
  F  F63  1  0.75709975  0.78335071  0.35841506  1
  F  F64  1  0.02625096  0.24290025  0.35841506  1
  F  F65  1  0.21664929  0.97374904  0.35841506  1
  F  F66  1  0.21664929  0.24290025  0.85841506  1
  F  F67  1  0.75709975  0.97374904  0.85841506  1
  F  F68  1  0.02625096  0.78335071  0.85841506  1
  F  F69  1  0.90956692  0.54998262  0.97491827  1
  F  F70  1  0.64041571  0.09043308  0.97491827  1
  F  F71  1  0.45001738  0.35958429  0.97491827  1
  F  F72  1  0.72385523  0.05039286  0.74306579  1
  F  F73  1  0.94960714  0.67346237  0.74306579  1
  F  F74  1  0.32653763  0.27614477  0.74306579  1
  F  F75  1  0.05039286  0.72385523  0.75693421  1
  F  F76  1  0.67346237  0.94960714  0.75693421  1
  F  F77  1  0.27614477  0.32653763  0.75693421  1
  F  F78  1  0.27614477  0.94960714  0.25693421  1
  F  F79  1  0.05039286  0.32653763  0.25693421  1
  F  F80  1  0.67346237  0.72385523  0.25693421  1
  F  F81  1  0.94960714  0.27614477  0.24306579  1
  F  F82  1  0.32653763  0.05039286  0.24306579  1
  F  F83  1  0.72385523  0.67346237  0.24306579  1
  F  F84  1  0.39052190  0.38372619  0.07639912  1
  F  F85  1  0.61627381  0.00679571  0.07639912  1
  F  F86  1  0.99320429  0.60947810  0.07639912  1
  F  F87  1  0.71705952  0.05718856  0.09026755  1
  F  F88  1  0.34012904  0.28294048  0.09026755  1
  F  F89  1  0.94281144  0.65987096  0.09026755  1
  F  F90  1  0.94281144  0.28294048  0.59026755  1
  F  F91  1  0.71705952  0.65987096  0.59026755  1
  F  F92  1  0.34012904  0.05718856  0.59026755  1
  F  F93  1  0.61627381  0.60947810  0.57639912  1
  F  F94  1  0.99320429  0.38372619  0.57639912  1
  F  F95  1  0.39052190  0.00679571  0.57639912  1
  F  F96  1  0.05718856  0.71705952  0.40973245  1
  F  F97  1  0.28294048  0.34012904  0.40973245  1
  F  F98  1  0.65987096  0.94281144  0.40973245  1
  F  F99  1  0.38372619  0.39052190  0.42360088  1
  F  F100  1  0.00679571  0.61627381  0.42360088  1
  F  F101  1  0.60947810  0.99320429  0.42360088  1
  F  F102  1  0.60947810  0.61627381  0.92360088  1
  F  F103  1  0.38372619  0.99320429  0.92360088  1
  F  F104  1  0.00679571  0.39052190  0.92360088  1
  F  F105  1  0.28294048  0.94281144  0.90973245  1
  F  F106  1  0.65987096  0.71705952  0.90973245  1
  F  F107  1  0.05718856  0.34012904  0.90973245  1
  Li  Li108  1  0.23745849  0.00000000  0.25000000  1
  Li  Li109  1  0.00000000  0.23745849  0.25000000  1
  Li  Li110  1  0.76254151  0.76254151  0.25000000  1
  Li  Li111  1  0.76254151  0.00000000  0.75000000  1
  Li  Li112  1  0.00000000  0.76254151  0.75000000  1
  Li  Li113  1  0.23745849  0.23745849  0.75000000  1
  Li  Li114  1  0.90412516  0.33333333  0.58333333  1
  Li  Li115  1  0.66666667  0.57079182  0.58333333  1
  Li  Li116  1  0.42920818  0.09587484  0.58333333  1
  Li  Li117  1  0.42920818  0.33333333  0.08333333  1
  Li  Li118  1  0.66666667  0.09587484  0.08333333  1
  Li  Li119  1  0.90412516  0.57079182  0.08333333  1
  Li  Li120  1  0.57079182  0.66666667  0.91666667  1
  Li  Li121  1  0.33333333  0.90412516  0.91666667  1
  Li  Li122  1  0.09587484  0.42920818  0.91666667  1
  Li  Li123  1  0.09587484  0.66666667  0.41666667  1
  Li  Li124  1  0.33333333  0.42920818  0.41666667  1
  Li  Li125  1  0.57079182  0.90412516  0.41666667  1
  Li  Li126  1  0.50000000  0.00000000  -0.00000000  1
  Li  Li127  1  0.00000000  0.50000000  0.00000000  1
  Li  Li128  1  0.50000000  0.50000000  -0.00000000  1
  Li  Li129  1  0.00000000  0.50000000  0.50000000  1
  Li  Li130  1  0.50000000  0.00000000  0.50000000  1
  Li  Li131  1  0.50000000  0.50000000  0.50000000  1
  Li  Li132  1  0.16666667  0.33333333  0.33333333  1
  Li  Li133  1  0.66666667  0.83333333  0.33333333  1
  Li  Li134  1  0.16666667  0.83333333  0.33333333  1
  Li  Li135  1  0.66666667  0.83333333  0.83333333  1
  Li  Li136  1  0.16666667  0.33333333  0.83333333  1
  Li  Li137  1  0.16666667  0.83333333  0.83333333  1
  Li  Li138  1  0.83333333  0.66666667  0.66666667  1
  Li  Li139  1  0.33333333  0.16666667  0.66666667  1
  Li  Li140  1  0.83333333  0.16666667  0.66666667  1
  Li  Li141  1  0.33333333  0.16666667  0.16666667  1
  Li  Li142  1  0.83333333  0.66666667  0.16666667  1
  Li  Li143  1  0.83333333  0.16666667  0.16666667  1
  Li  Li144  1  0.57412459  0.00000000  0.25000000  1
  Li  Li145  1  0.00000000  0.57412459  0.25000000  1
  Li  Li146  1  0.42587541  0.42587541  0.25000000  1
  Li  Li147  1  0.42587541  0.00000000  0.75000000  1
  Li  Li148  1  0.00000000  0.42587541  0.75000000  1
  Li  Li149  1  0.57412459  0.57412459  0.75000000  1
  Li  Li150  1  0.24079125  0.33333333  0.58333333  1
  Li  Li151  1  0.66666667  0.90745792  0.58333333  1
  Li  Li152  1  0.09254208  0.75920875  0.58333333  1
  Li  Li153  1  0.09254208  0.33333333  0.08333333  1
  Li  Li154  1  0.66666667  0.75920875  0.08333333  1
  Li  Li155  1  0.24079125  0.90745792  0.08333333  1
  Li  Li156  1  0.90745792  0.66666667  0.91666667  1
  Li  Li157  1  0.33333333  0.24079125  0.91666667  1
  Li  Li158  1  0.75920875  0.09254208  0.91666667  1
  Li  Li159  1  0.75920875  0.66666667  0.41666667  1
  Li  Li160  1  0.33333333  0.09254208  0.41666667  1
  Li  Li161  1  0.90745792  0.24079125  0.41666667  1
  Li  Li162  1  0.20325194  0.05116593  0.96617509  1
  Li  Li163  1  -0.05116593  0.15208602  0.96617509  1
  Li  Li164  1  -0.15208602  -0.20325194  0.96617509  1
  Li  Li165  1  0.05116593  0.20325194  -0.46617509  1
  Li  Li166  1  0.15208602  -0.05116593  -0.46617509  1
  Li  Li167  1  -0.20325194  -0.15208602  -0.46617509  1
  Li  Li168  1  -0.20325194  -0.05116593  -0.96617509  1
  Li  Li169  1  0.05116593  -0.15208602  -0.96617509  1
  Li  Li170  1  0.15208602  0.20325194  -0.96617509  1
  Li  Li171  1  -0.05116593  -0.20325194  1.46617509  1
  Li  Li172  1  -0.15208602  0.05116593  1.46617509  1
  Li  Li173  1  0.20325194  0.15208602  1.46617509  1
  Li  Li174  1  0.86991861  0.38449926  1.29950842  1
  Li  Li175  1  0.61550074  0.48541935  1.29950842  1
  Li  Li176  1  0.51458065  0.13008139  1.29950842  1
  Li  Li177  1  0.71783259  0.53658528  -0.13284175  1
  Li  Li178  1  0.81875268  0.28216741  -0.13284175  1
  Li  Li179  1  0.46341472  0.18124732  -0.13284175  1
  Li  Li180  1  0.46341472  0.28216741  -0.63284175  1
  Li  Li181  1  0.71783259  0.18124732  -0.63284175  1
  Li  Li182  1  0.81875268  0.53658528  -0.63284175  1
  Li  Li183  1  0.61550074  0.13008139  1.79950842  1
  Li  Li184  1  0.51458065  0.38449926  1.79950842  1
  Li  Li185  1  0.86991861  0.48541935  1.79950842  1
  Li  Li186  1  0.53658528  0.71783259  1.63284175  1
  Li  Li187  1  0.28216741  0.81875268  1.63284175  1
  Li  Li188  1  0.18124732  0.46341472  1.63284175  1
  Li  Li189  1  0.38449926  0.86991861  0.20049158  1
  Li  Li190  1  0.48541935  0.61550074  0.20049158  1
  Li  Li191  1  0.13008139  0.51458065  0.20049158  1
  Li  Li192  1  0.13008139  0.61550074  -0.29950842  1
  Li  Li193  1  0.38449926  0.51458065  -0.29950842  1
  Li  Li194  1  0.48541935  0.86991861  -0.29950842  1
  Li  Li195  1  0.28216741  0.46341472  2.13284175  1
  Li  Li196  1  0.18124732  0.71783259  2.13284175  1
  Li  Li197  1  0.53658528  0.81875268  2.13284175  1
  Li  Li198  1  0.71360613  0.00000000  0.25000000  1
  Li  Li199  1  0.00000000  0.71360613  0.25000000  1
  Li  Li200  1  0.28639387  0.28639387  0.25000000  1
  Li  Li201  1  0.28639387  0.00000000  0.75000000  1
  Li  Li202  1  0.00000000  0.28639387  0.75000000  1
  Li  Li203  1  0.71360613  0.71360613  0.75000000  1
  Li  Li204  1  0.38027279  0.33333333  0.58333333  1
  Li  Li205  1  0.66666667  0.04693946  0.58333333  1
  Li  Li206  1  0.95306054  0.61972721  0.58333333  1
  Li  Li207  1  0.95306054  0.33333333  0.08333333  1
  Li  Li208  1  0.66666667  0.61972721  0.08333333  1
  Li  Li209  1  0.38027279  0.04693946  0.08333333  1
  Li  Li210  1  0.04693946  0.66666667  0.91666667  1
  Li  Li211  1  0.33333333  0.38027279  0.91666667  1
  Li  Li212  1  0.61972721  0.95306054  0.91666667  1
  Li  Li213  1  0.61972721  0.66666667  0.41666667  1
  Li  Li214  1  0.33333333  0.95306054  0.41666667  1
  Li  Li215  1  0.04693946  0.38027279  0.41666667  1
