# generated using pymatgen
data_LiF
_symmetry_space_group_name_H-M   'P 1'
_cell_length_a   4.97636730
_cell_length_b   4.97636730
_cell_length_c   9.29337837
_cell_angle_alpha   90.00000000
_cell_angle_beta   90.00000000
_cell_angle_gamma   120.00000000
_symmetry_Int_Tables_number   1
_chemical_formula_structural   LiF
_chemical_formula_sum   'Li7 F7'
_cell_volume   199.31000783
_cell_formula_units_Z   7
loop_
 _symmetry_equiv_pos_site_id
 _symmetry_equiv_pos_as_xyz
  1  'x, y, z'
loop_
 _atom_site_type_symbol
 _atom_site_label
 _atom_site_symmetry_multiplicity
 _atom_site_fract_x
 _atom_site_fract_y
 _atom_site_fract_z
 _atom_site_occupancy
  F  F0  1  0.84998006  -0.00000000  0.50000000  1
  F  F1  1  0.00000000  0.84998006  0.50000000  1
  F  F2  1  0.15001994  0.15001994  0.50000000  1
  F  F3  1  0.64793347  -0.00000000  0.50000000  1
  F  F4  1  0.00000000  0.64793347  0.50000000  1
  F  F5  1  0.35206653  0.35206653  0.50000000  1
  F  F6  1  0.00000000  0.00000000  0.00000000  1
  Li  Li7  1  0.49567611  0.00000000  0.00000000  1
  Li  Li8  1  0.00000000  0.49567611  0.00000000  1
  Li  Li9  1  0.50432389  0.50432389  0.00000000  1
  Li  Li10  1  0.33333333  0.66666667  0.80127421  1
  Li  Li11  1  0.33333333  0.66666667  -0.80127421  1
  Li  Li12  1  0.66666667  0.33333333  -0.80127421  1
  Li  Li13  1  0.66666667  0.33333333  0.80127421  1
