# generated using pymatgen
data_LiF
_symmetry_space_group_name_H-M   'P 1'
_cell_length_a   5.52870800
_cell_length_b   6.64387125
_cell_length_c   5.03346236
_cell_angle_alpha   90.00000000
_cell_angle_beta   90.00000000
_cell_angle_gamma   90.00000000
_symmetry_Int_Tables_number   1
_chemical_formula_structural   LiF
_chemical_formula_sum   'Li8 F8'
_cell_volume   184.88926063
_cell_formula_units_Z   8
loop_
 _symmetry_equiv_pos_site_id
 _symmetry_equiv_pos_as_xyz
  1  'x, y, z'
loop_
 _atom_site_type_symbol
 _atom_site_label
 _atom_site_symmetry_multiplicity
 _atom_site_fract_x
 _atom_site_fract_y
 _atom_site_fract_z
 _atom_site_occupancy
  F  F0  1  0.00000000  0.00000000  0.37643500  1
  F  F1  1  0.50000000  0.50000000  0.12356500  1
  F  F2  1  0.00000000  0.00000000  0.62356500  1
  F  F3  1  0.50000000  0.50000000  0.87643500  1
  F  F4  1  0.00000000  0.00000000  0.50000000  1
  F  F5  1  0.50000000  0.50000000  -0.00000000  1
  F  F6  1  0.00000000  0.50000000  0.00000000  1
  F  F7  1  0.50000000  0.00000000  0.50000000  1
  Li  Li8  1  0.28362734  0.76424530  0.14733196  1
  Li  Li9  1  -0.28362734  -0.76424530  0.14733196  1
  Li  Li10  1  0.21637266  1.26424530  0.35266804  1
  Li  Li11  1  0.78362734  -0.26424530  0.35266804  1
  Li  Li12  1  -0.28362734  -0.76424530  -0.14733196  1
  Li  Li13  1  0.28362734  0.76424530  -0.14733196  1
  Li  Li14  1  0.78362734  -0.26424530  0.64733196  1
  Li  Li15  1  0.21637266  1.26424530  0.64733196  1
