# generated using pymatgen
data_LiF
_symmetry_space_group_name_H-M   'P 1'
_cell_length_a   10.34199570
_cell_length_b   10.34199570
_cell_length_c   28.45480723
_cell_angle_alpha   90.00000000
_cell_angle_beta   90.00000000
_cell_angle_gamma   120.00000000
_symmetry_Int_Tables_number   1
_chemical_formula_structural   LiF
_chemical_formula_sum   'Li97 F97'
_cell_volume   2635.69398504
_cell_formula_units_Z   97
loop_
 _symmetry_equiv_pos_site_id
 _symmetry_equiv_pos_as_xyz
  1  'x, y, z'
loop_
 _atom_site_type_symbol
 _atom_site_label
 _atom_site_symmetry_multiplicity
 _atom_site_fract_x
 _atom_site_fract_y
 _atom_site_fract_z
 _atom_site_occupancy
  F  F0  1  0.33333333  0.66666667  0.56005978  1
  F  F1  1  0.33333333  0.66666667  0.43994022  1
  F  F2  1  0.74125988  0.89620213  0.79883947  1
  F  F3  1  0.10379787  0.84505775  0.79883947  1
  F  F4  1  0.15494225  0.25874012  0.79883947  1
  F  F5  1  0.10379787  0.25874012  0.20116053  1
  F  F6  1  0.15494225  0.89620213  0.20116053  1
  F  F7  1  0.74125988  0.84505775  0.20116053  1
  F  F8  1  0.27022709  0.75266359  0.79383314  1
  F  F9  1  0.24733641  0.51756350  0.79383314  1
  F  F10  1  0.48243650  0.72977291  0.79383314  1
  F  F11  1  0.24733641  0.72977291  0.20616686  1
  F  F12  1  0.48243650  0.75266359  0.20616686  1
  F  F13  1  0.27022709  0.51756350  0.20616686  1
  F  F14  1  0.16322662  0.15270231  0.98779114  1
  F  F15  1  0.84729769  0.01052432  0.98779114  1
  F  F16  1  0.98947568  0.83677338  0.98779114  1
  F  F17  1  0.84729769  0.83677338  0.01220886  1
  F  F18  1  0.98947568  0.15270231  0.01220886  1
  F  F19  1  0.16322662  0.01052432  0.01220886  1
  F  F20  1  0.32473710  0.37207466  0.50730340  1
  F  F21  1  0.62792534  0.95266244  0.50730340  1
  F  F22  1  0.04733756  0.67526290  0.50730340  1
  F  F23  1  0.62792534  0.67526290  0.49269660  1
  F  F24  1  0.04733756  0.37207466  0.49269660  1
  F  F25  1  0.32473710  0.95266244  0.49269660  1
  F  F26  1  0.00000000  0.00000000  0.23293680  1
  F  F27  1  0.00000000  0.00000000  0.76706320  1
  F  F28  1  0.33333333  0.66666667  0.21044147  1
  F  F29  1  0.33333333  0.66666667  0.78955853  1
  F  F30  1  0.14746478  0.69456395  0.73153033  1
  F  F31  1  0.30543605  0.45290082  0.73153033  1
  F  F32  1  0.54709918  0.85253522  0.73153033  1
  F  F33  1  0.30543605  0.85253522  0.26846967  1
  F  F34  1  0.54709918  0.69456395  0.26846967  1
  F  F35  1  0.14746478  0.45290082  0.26846967  1
  F  F36  1  0.82494068  0.17505932  -0.00000000  1
  F  F37  1  0.82494068  0.64988137  0.00000000  1
  F  F38  1  0.35011863  0.17505932  -0.00000000  1
  F  F39  1  0.39106069  0.52837625  0.19941505  1
  F  F40  1  0.47162375  0.86268444  0.19941505  1
  F  F41  1  0.13731556  0.60893931  0.19941505  1
  F  F42  1  0.47162375  0.60893931  0.80058495  1
  F  F43  1  0.13731556  0.52837625  0.80058495  1
  F  F44  1  0.39106069  0.86268444  0.80058495  1
  F  F45  1  0.68424815  0.82950801  0.96442376  1
  F  F46  1  0.17049199  0.85474013  0.96442376  1
  F  F47  1  0.14525987  0.31575185  0.96442376  1
  F  F48  1  0.17049199  0.31575185  0.03557624  1
  F  F49  1  0.14525987  0.82950801  0.03557624  1
  F  F50  1  0.68424815  0.85474013  0.03557624  1
  F  F51  1  0.00491785  0.79382515  0.85842751  1
  F  F52  1  0.20617485  0.21109270  0.85842751  1
  F  F53  1  0.78890730  0.99508215  0.85842751  1
  F  F54  1  0.20617485  0.99508215  0.14157249  1
  F  F55  1  0.78890730  0.79382515  0.14157249  1
  F  F56  1  0.00491785  0.21109270  0.14157249  1
  F  F57  1  0.38207478  0.43215194  0.28577107  1
  F  F58  1  0.56784806  0.94992284  0.28577107  1
  F  F59  1  0.05007716  0.61792522  0.28577107  1
  F  F60  1  0.56784806  0.61792522  0.71422893  1
  F  F61  1  0.05007716  0.43215194  0.71422893  1
  F  F62  1  0.38207478  0.94992284  0.71422893  1
  F  F63  1  0.49844259  0.78588832  0.48658212  1
  F  F64  1  0.21411168  0.71255427  0.48658212  1
  F  F65  1  0.28744573  0.50155741  0.48658212  1
  F  F66  1  0.21411168  0.50155741  0.51341788  1
  F  F67  1  0.28744573  0.78588832  0.51341788  1
  F  F68  1  0.49844259  0.71255427  0.51341788  1
  F  F69  1  0.05453259  0.73474046  0.38537131  1
  F  F70  1  0.26525954  0.31979213  0.38537131  1
  F  F71  1  0.68020787  0.94546741  0.38537131  1
  F  F72  1  0.26525954  0.94546741  0.61462869  1
  F  F73  1  0.68020787  0.73474046  0.61462869  1
  F  F74  1  0.05453259  0.31979213  0.61462869  1
  F  F75  1  0.69923441  0.72997677  0.82275050  1
  F  F76  1  0.27002323  0.96925764  0.82275050  1
  F  F77  1  0.03074236  0.30076559  0.82275050  1
  F  F78  1  0.27002323  0.30076559  0.17724950  1
  F  F79  1  0.03074236  0.72997677  0.17724950  1
  F  F80  1  0.69923441  0.96925764  0.17724950  1
  F  F81  1  0.64400507  0.45643629  0.91090606  1
  F  F82  1  0.54356371  0.18756878  0.91090606  1
  F  F83  1  0.81243122  0.35599493  0.91090606  1
  F  F84  1  0.54356371  0.35599493  0.08909394  1
  F  F85  1  0.81243122  0.45643629  0.08909394  1
  F  F86  1  0.64400507  0.18756878  0.08909394  1
  F  F87  1  0.02063545  0.97192716  0.64716616  1
  F  F88  1  0.02807284  0.04870829  0.64716616  1
  F  F89  1  0.95129171  0.97936455  0.64716616  1
  F  F90  1  0.02807284  0.97936455  0.35283384  1
  F  F91  1  0.95129171  0.97192716  0.35283384  1
  F  F92  1  0.02063545  0.04870829  0.35283384  1
  F  F93  1  0.66666667  0.33333333  0.35252392  1
  F  F94  1  0.66666667  0.33333333  0.64747608  1
  F  F95  1  0.66666667  0.33333333  0.80350633  1
  F  F96  1  0.66666667  0.33333333  0.19649367  1
  Li  Li97  1  0.33333333  0.66666667  0.68670215  1
  Li  Li98  1  0.33333333  0.66666667  0.31329785  1
  Li  Li99  1  0.58639177  0.41360823  0.50000000  1
  Li  Li100  1  0.58639177  0.17278355  0.50000000  1
  Li  Li101  1  0.82721645  0.41360823  0.50000000  1
  Li  Li102  1  0.66666667  0.33333333  0.50000000  1
  Li  Li103  1  0.56653429  0.46420096  0.82007557  1
  Li  Li104  1  -0.46420096  0.10233332  0.82007557  1
  Li  Li105  1  -0.10233332  -0.56653429  0.82007557  1
  Li  Li106  1  -0.46420096  -0.56653429  -0.82007557  1
  Li  Li107  1  -0.10233332  0.46420096  -0.82007557  1
  Li  Li108  1  0.56653429  0.10233332  -0.82007557  1
  Li  Li109  1  0.33333333  0.66666667  0.00000000  1
  Li  Li110  1  0.81774879  0.11481989  0.96395057  1
  Li  Li111  1  0.88518011  0.70292890  0.96395057  1
  Li  Li112  1  0.29707110  0.18225121  0.96395057  1
  Li  Li113  1  0.88518011  0.18225121  0.03604943  1
  Li  Li114  1  0.29707110  0.11481989  0.03604943  1
  Li  Li115  1  0.81774879  0.70292890  0.03604943  1
  Li  Li116  1  0.68093667  0.06943239  0.03348953  1
  Li  Li117  1  0.93056761  0.61150428  0.03348953  1
  Li  Li118  1  0.38849572  0.31906333  0.03348953  1
  Li  Li119  1  0.93056761  0.31906333  0.96651047  1
  Li  Li120  1  0.38849572  0.06943239  0.96651047  1
  Li  Li121  1  0.68093667  0.61150428  0.96651047  1
  Li  Li122  1  0.77384170  0.06589808  0.56724845  1
  Li  Li123  1  0.93410192  0.70794362  0.56724845  1
  Li  Li124  1  0.29205638  0.22615830  0.56724845  1
  Li  Li125  1  0.93410192  0.22615830  0.43275155  1
  Li  Li126  1  0.29205638  0.06589808  0.43275155  1
  Li  Li127  1  0.77384170  0.70794362  0.43275155  1
  Li  Li128  1  0.66666667  0.33333333  0.22907817  1
  Li  Li129  1  0.66666667  0.33333333  0.77092183  1
  Li  Li130  1  0.66666667  0.33333333  0.00000000  1
  Li  Li131  1  0.00000000  0.00000000  0.69148139  1
  Li  Li132  1  0.00000000  0.00000000  0.30851861  1
  Li  Li133  1  0.61923403  0.54811604  0.34503506  1
  Li  Li134  1  0.45188396  0.07111799  0.34503506  1
  Li  Li135  1  0.92888201  0.38076597  0.34503506  1
  Li  Li136  1  0.45188396  0.38076597  0.65496494  1
  Li  Li137  1  0.92888201  0.54811604  0.65496494  1
  Li  Li138  1  0.61923403  0.07111799  0.65496494  1
  Li  Li139  1  0.07288902  0.92711098  0.50000000  1
  Li  Li140  1  0.07288902  0.14577804  0.50000000  1
  Li  Li141  1  0.85422196  0.92711098  0.50000000  1
  Li  Li142  1  0.91672620  0.92309152  0.17520715  1
  Li  Li143  1  0.07690848  0.99363469  0.17520715  1
  Li  Li144  1  0.00636531  0.08327380  0.17520715  1
  Li  Li145  1  0.07690848  0.08327380  0.82479285  1
  Li  Li146  1  0.00636531  0.92309152  0.82479285  1
  Li  Li147  1  0.91672620  0.99363469  0.82479285  1
  Li  Li148  1  0.17268080  0.82731920  -0.00000000  1
  Li  Li149  1  0.17268080  0.34536161  0.00000000  1
  Li  Li150  1  0.65463839  0.82731920  -0.00000000  1
  Li  Li151  1  0.00000000  0.00000000  0.50000000  1
  Li  Li152  1  0.41110580  0.59200583  0.58160657  1
  Li  Li153  1  0.40799417  0.81909998  0.58160657  1
  Li  Li154  1  0.18090002  0.58889420  0.58160657  1
  Li  Li155  1  0.40799417  0.58889420  0.41839343  1
  Li  Li156  1  0.18090002  0.59200583  0.41839343  1
  Li  Li157  1  0.41110580  0.81909998  0.41839343  1
  Li  Li158  1  0.25614265  0.74051314  0.37513538  1
  Li  Li159  1  0.25948686  0.51562951  0.37513538  1
  Li  Li160  1  0.48437049  0.74385735  0.37513538  1
  Li  Li161  1  0.25948686  0.74385735  0.62486462  1
  Li  Li162  1  0.48437049  0.74051314  0.62486462  1
  Li  Li163  1  0.25614265  0.51562951  0.62486462  1
  Li  Li164  1  0.82046137  0.16167702  0.20827322  1
  Li  Li165  1  0.83832298  0.65878435  0.20827322  1
  Li  Li166  1  0.34121565  0.17953863  0.20827322  1
  Li  Li167  1  0.83832298  0.17953863  0.79172678  1
  Li  Li168  1  0.34121565  0.16167702  0.79172678  1
  Li  Li169  1  0.82046137  0.65878435  0.79172678  1
  Li  Li170  1  0.04129872  0.29776245  0.78993231  1
  Li  Li171  1  0.70223755  0.74353627  0.78993231  1
  Li  Li172  1  0.25646373  0.95870128  0.78993231  1
  Li  Li173  1  0.70223755  0.95870128  0.21006769  1
  Li  Li174  1  0.25646373  0.29776245  0.21006769  1
  Li  Li175  1  0.04129872  0.74353627  0.21006769  1
  Li  Li176  1  0.33333333  0.66666667  0.50000000  1
  Li  Li177  1  0.33333333  0.66666667  0.84569862  1
  Li  Li178  1  0.33333333  0.66666667  0.15430138  1
  Li  Li179  1  0.88490355  0.79744156  0.88120565  1
  Li  Li180  1  0.20255844  0.08746199  0.88120565  1
  Li  Li181  1  0.91253801  0.11509645  0.88120565  1
  Li  Li182  1  0.20255844  0.11509645  0.11879435  1
  Li  Li183  1  0.91253801  0.79744156  0.11879435  1
  Li  Li184  1  0.88490355  0.08746199  0.11879435  1
  Li  Li185  1  0.41226773  0.51622804  0.53267216  1
  Li  Li186  1  0.48377196  0.89603969  0.53267216  1
  Li  Li187  1  0.10396031  0.58773227  0.53267216  1
  Li  Li188  1  0.48377196  0.58773227  0.46732784  1
  Li  Li189  1  0.10396031  0.51622804  0.46732784  1
  Li  Li190  1  0.41226773  0.89603969  0.46732784  1
  Li  Li191  1  0.74964770  0.25035230  0.00000000  1
  Li  Li192  1  0.74964770  0.49929539  0.00000000  1
  Li  Li193  1  0.50070461  0.25035230  0.00000000  1
