# generated using pymatgen
data_Li2S
_symmetry_space_group_name_H-M   'P 1'
_cell_length_a   11.75455871
_cell_length_b   8.70205692
_cell_length_c   8.68009847
_cell_angle_alpha   90.00000000
_cell_angle_beta   90.00000000
_cell_angle_gamma   90.00000000
_symmetry_Int_Tables_number   1
_chemical_formula_structural   Li2S
_chemical_formula_sum   'Li32 S16'
_cell_volume   887.87719475
_cell_formula_units_Z   16
loop_
 _symmetry_equiv_pos_site_id
 _symmetry_equiv_pos_as_xyz
  1  'x, y, z'
loop_
 _atom_site_type_symbol
 _atom_site_label
 _atom_site_symmetry_multiplicity
 _atom_site_fract_x
 _atom_site_fract_y
 _atom_site_fract_z
 _atom_site_occupancy
  Li  Li0  1  0.15228079  0.72396086  0.09503759  1
  Li  Li1  1  0.84771921  0.27603914  0.09503759  1
  Li  Li2  1  0.34771921  0.22396086  0.40496241  1
  Li  Li3  1  0.65228079  0.77603914  0.40496241  1
  Li  Li4  1  0.84771921  0.27603914  0.90496241  1
  Li  Li5  1  0.15228079  0.72396086  0.90496241  1
  Li  Li6  1  0.65228079  0.77603914  0.59503759  1
  Li  Li7  1  0.34771921  0.22396086  0.59503759  1
  Li  Li8  1  0.22130038  0.08590107  0.65461594  1
  Li  Li9  1  0.77869962  0.91409893  0.65461594  1
  Li  Li10  1  0.27869962  0.58590107  0.84538406  1
  Li  Li11  1  0.72130038  0.41409893  0.84538406  1
  Li  Li12  1  0.77869962  0.91409893  0.34538406  1
  Li  Li13  1  0.22130038  0.08590107  0.34538406  1
  Li  Li14  1  0.72130038  0.41409893  0.15461594  1
  Li  Li15  1  0.27869962  0.58590107  0.15461594  1
  Li  Li16  1  0.19109896  0.20517060  0.12277868  1
  Li  Li17  1  0.80890104  0.79482940  0.12277868  1
  Li  Li18  1  0.30890104  0.70517060  0.37722132  1
  Li  Li19  1  0.69109896  0.29482940  0.37722132  1
  Li  Li20  1  0.80890104  0.79482940  0.87722132  1
  Li  Li21  1  0.19109896  0.20517060  0.87722132  1
  Li  Li22  1  0.69109896  0.29482940  0.62277868  1
  Li  Li23  1  0.30890104  0.70517060  0.62277868  1
  Li  Li24  1  0.29619272  0.34194222  0.20691891  1
  Li  Li25  1  0.70380728  0.65805778  0.20691891  1
  Li  Li26  1  0.20380728  0.84194222  0.29308109  1
  Li  Li27  1  0.79619272  0.15805778  0.29308109  1
  Li  Li28  1  0.70380728  0.65805778  0.79308109  1
  Li  Li29  1  0.29619272  0.34194222  0.79308109  1
  Li  Li30  1  0.79619272  0.15805778  0.70691891  1
  Li  Li31  1  0.20380728  0.84194222  0.70691891  1
  S  S32  1  0.99722235  0.20045017  -0.00000000  1
  S  S33  1  0.00277765  0.79954983  -0.00000000  1
  S  S34  1  0.50277765  0.70045017  0.50000000  1
  S  S35  1  0.49722235  0.29954983  0.50000000  1
  S  S36  1  0.86248667  0.69223542  0.61784463  1
  S  S37  1  -0.86248667  -0.69223542  0.61784463  1
  S  S38  1  -0.36248667  1.19223542  -0.11784463  1
  S  S39  1  1.36248667  -0.19223542  -0.11784463  1
  S  S40  1  -0.86248667  -0.69223542  -0.61784463  1
  S  S41  1  0.86248667  0.69223542  -0.61784463  1
  S  S42  1  1.36248667  -0.19223542  1.11784463  1
  S  S43  1  -0.36248667  1.19223542  1.11784463  1
  S  S44  1  0.00000000  0.50000000  0.00000000  1
  S  S45  1  0.50000000  0.00000000  0.50000000  1
  S  S46  1  0.00000000  0.50000000  0.50000000  1
  S  S47  1  0.50000000  0.00000000  0.00000000  1
