# generated using pymatgen
data_Li2Ca2TiSO4
_symmetry_space_group_name_H-M   'P 1'
_cell_length_a   10.50117855
_cell_length_b   10.50117855
_cell_length_c   12.64740656
_cell_angle_alpha   90.00000000
_cell_angle_beta   90.00000000
_cell_angle_gamma   120.00000000
_symmetry_Int_Tables_number   1
_chemical_formula_structural   Li2Ca2TiSO4
_chemical_formula_sum   'Li12 Ca12 Ti6 S6 O24'
_cell_volume   1207.83663181
_cell_formula_units_Z   6
loop_
 _symmetry_equiv_pos_site_id
 _symmetry_equiv_pos_as_xyz
  1  'x, y, z'
loop_
 _atom_site_type_symbol
 _atom_site_label
 _atom_site_symmetry_multiplicity
 _atom_site_fract_x
 _atom_site_fract_y
 _atom_site_fract_z
 _atom_site_occupancy
  Ca  Ca0  1  0.66666667  0.33333333  0.25000000  1
  Ca  Ca1  1  0.33333333  0.66666667  0.75000000  1
  Ca  Ca2  1  0.42850436  0.11616915  0.25000000  1
  Ca  Ca3  1  0.88383085  0.31233520  0.25000000  1
  Ca  Ca4  1  0.68766480  0.57149564  0.25000000  1
  Ca  Ca5  1  0.57149564  0.88383085  0.75000000  1
  Ca  Ca6  1  0.11616915  0.68766480  0.75000000  1
  Ca  Ca7  1  0.31233520  0.42850436  0.75000000  1
  Ca  Ca8  1  0.00000000  0.00000000  0.25000000  1
  Ca  Ca9  1  0.00000000  0.00000000  0.75000000  1
  Ca  Ca10  1  0.00000000  0.00000000  0.00000000  1
  Ca  Ca11  1  0.00000000  0.00000000  0.50000000  1
  Li  Li12  1  0.00783070  0.28020269  0.97788909  1
  Li  Li13  1  0.71979731  0.72762801  0.97788909  1
  Li  Li14  1  0.27237199  0.99216930  0.97788909  1
  Li  Li15  1  0.99216930  0.71979731  0.47788909  1
  Li  Li16  1  0.28020269  0.27237199  0.47788909  1
  Li  Li17  1  0.72762801  0.00783070  0.47788909  1
  Li  Li18  1  0.99216930  0.71979731  0.02211091  1
  Li  Li19  1  0.28020269  0.27237199  0.02211091  1
  Li  Li20  1  0.72762801  0.00783070  0.02211091  1
  Li  Li21  1  0.00783070  0.28020269  0.52211091  1
  Li  Li22  1  0.71979731  0.72762801  0.52211091  1
  Li  Li23  1  0.27237199  0.99216930  0.52211091  1
  O  O24  1  0.39796618  0.86735628  0.25000000  1
  O  O25  1  0.13264372  0.53060990  0.25000000  1
  O  O26  1  0.46939010  0.60203382  0.25000000  1
  O  O27  1  0.60203382  0.13264372  0.75000000  1
  O  O28  1  0.86735628  0.46939010  0.75000000  1
  O  O29  1  0.53060990  0.39796618  0.75000000  1
  O  O30  1  0.59181303  0.73234397  0.78110870  1
  O  O31  1  -0.73234397  -0.14053095  0.78110870  1
  O  O32  1  0.14053095  -0.59181303  0.78110870  1
  O  O33  1  -0.59181303  -0.73234397  1.28110870  1
  O  O34  1  0.73234397  0.14053095  1.28110870  1
  O  O35  1  -0.14053095  0.59181303  1.28110870  1
  O  O36  1  -0.59181303  -0.73234397  -0.78110870  1
  O  O37  1  0.73234397  0.14053095  -0.78110870  1
  O  O38  1  -0.14053095  0.59181303  -0.78110870  1
  O  O39  1  0.59181303  0.73234397  -0.28110870  1
  O  O40  1  -0.73234397  -0.14053095  -0.28110870  1
  O  O41  1  0.14053095  -0.59181303  -0.28110870  1
  O  O42  1  0.33333333  0.66666667  0.25000000  1
  O  O43  1  0.66666667  0.33333333  0.75000000  1
  O  O44  1  0.00000000  0.00000000  0.10520656  1
  O  O45  1  0.00000000  0.00000000  0.60520656  1
  O  O46  1  0.00000000  0.00000000  0.89479344  1
  O  O47  1  0.00000000  0.00000000  0.39479344  1
  S  S48  1  0.50000000  0.00000000  -0.00000000  1
  S  S49  1  0.00000000  0.50000000  0.00000000  1
  S  S50  1  0.50000000  0.50000000  0.00000000  1
  S  S51  1  0.50000000  0.00000000  0.50000000  1
  S  S52  1  0.00000000  0.50000000  0.50000000  1
  S  S53  1  0.50000000  0.50000000  0.50000000  1
  Ti  Ti54  1  0.60449555  0.08291095  0.25000000  1
  Ti  Ti55  1  0.91708905  0.52158460  0.25000000  1
  Ti  Ti56  1  0.47841540  0.39550445  0.25000000  1
  Ti  Ti57  1  0.39550445  0.91708905  0.75000000  1
  Ti  Ti58  1  0.08291095  0.47841540  0.75000000  1
  Ti  Ti59  1  0.52158460  0.60449555  0.75000000  1
