# generated using pymatgen
data_Li2Ca3F8
_symmetry_space_group_name_H-M   'P 1'
_cell_length_a   21.56745363
_cell_length_b   21.56745363
_cell_length_c   5.77794747
_cell_angle_alpha   90.00000000
_cell_angle_beta   90.00000000
_cell_angle_gamma   120.00000000
_symmetry_Int_Tables_number   1
_chemical_formula_structural   Li2Ca3F8
_chemical_formula_sum   'Li16 Ca24 F64'
_cell_volume   2327.56579829
_cell_formula_units_Z   8
loop_
 _symmetry_equiv_pos_site_id
 _symmetry_equiv_pos_as_xyz
  1  'x, y, z'
loop_
 _atom_site_type_symbol
 _atom_site_label
 _atom_site_symmetry_multiplicity
 _atom_site_fract_x
 _atom_site_fract_y
 _atom_site_fract_z
 _atom_site_occupancy
  Ca  Ca0  1  0.61240391  0.00000000  0.50000000  1
  Ca  Ca1  1  0.00000000  0.61240391  0.50000000  1
  Ca  Ca2  1  0.38759609  0.38759609  0.50000000  1
  Ca  Ca3  1  0.60900427  0.00000000  -0.00000000  1
  Ca  Ca4  1  0.00000000  0.60900427  0.00000000  1
  Ca  Ca5  1  0.39099573  0.39099573  0.00000000  1
  Ca  Ca6  1  0.19466810  0.47231616  0.50000000  1
  Ca  Ca7  1  0.52768384  0.72235194  0.50000000  1
  Ca  Ca8  1  0.27764806  0.80533190  0.50000000  1
  Ca  Ca9  1  0.47231616  0.19466810  0.50000000  1
  Ca  Ca10  1  0.72235194  0.52768384  0.50000000  1
  Ca  Ca11  1  0.80533190  0.27764806  0.50000000  1
  Ca  Ca12  1  0.06985789  0.93351926  0.68123364  1
  Ca  Ca13  1  0.06648074  0.13633863  0.68123364  1
  Ca  Ca14  1  0.86366137  0.93014211  0.68123364  1
  Ca  Ca15  1  0.06985789  0.93351926  0.31876636  1
  Ca  Ca16  1  0.06648074  0.13633863  0.31876636  1
  Ca  Ca17  1  0.86366137  0.93014211  0.31876636  1
  Ca  Ca18  1  0.93351926  0.06985789  0.31876636  1
  Ca  Ca19  1  0.13633863  0.06648074  0.31876636  1
  Ca  Ca20  1  0.93014211  0.86366137  0.31876636  1
  Ca  Ca21  1  0.93351926  0.06985789  0.68123364  1
  Ca  Ca22  1  0.13633863  0.06648074  0.68123364  1
  Ca  Ca23  1  0.93014211  0.86366137  0.68123364  1
  F  F24  1  0.78849665  0.05035162  0.36371854  1
  F  F25  1  -0.05035162  0.73814502  0.36371854  1
  F  F26  1  -0.73814502  -0.78849665  0.36371854  1
  F  F27  1  0.78849665  0.05035162  -0.36371854  1
  F  F28  1  -0.05035162  0.73814502  -0.36371854  1
  F  F29  1  -0.73814502  -0.78849665  -0.36371854  1
  F  F30  1  0.05035162  0.78849665  -0.36371854  1
  F  F31  1  0.73814502  -0.05035162  -0.36371854  1
  F  F32  1  -0.78849665  -0.73814502  -0.36371854  1
  F  F33  1  0.05035162  0.78849665  0.36371854  1
  F  F34  1  0.73814502  -0.05035162  0.36371854  1
  F  F35  1  -0.78849665  -0.73814502  0.36371854  1
  F  F36  1  0.75979027  0.31221969  0.42901172  1
  F  F37  1  0.68778031  0.44757059  0.42901172  1
  F  F38  1  0.55242941  0.24020973  0.42901172  1
  F  F39  1  0.75979027  0.31221969  0.57098828  1
  F  F40  1  0.68778031  0.44757059  0.57098828  1
  F  F41  1  0.55242941  0.24020973  0.57098828  1
  F  F42  1  0.31221969  0.75979027  0.57098828  1
  F  F43  1  0.44757059  0.68778031  0.57098828  1
  F  F44  1  0.24020973  0.55242941  0.57098828  1
  F  F45  1  0.31221969  0.75979027  0.42901172  1
  F  F46  1  0.44757059  0.68778031  0.42901172  1
  F  F47  1  0.24020973  0.55242941  0.42901172  1
  F  F48  1  0.65105898  0.74417859  0.21820645  1
  F  F49  1  0.25582141  0.90688039  0.21820645  1
  F  F50  1  0.09311961  0.34894102  0.21820645  1
  F  F51  1  0.65105898  0.74417859  0.78179355  1
  F  F52  1  0.25582141  0.90688039  0.78179355  1
  F  F53  1  0.09311961  0.34894102  0.78179355  1
  F  F54  1  0.74417859  0.65105898  0.78179355  1
  F  F55  1  0.90688039  0.25582141  0.78179355  1
  F  F56  1  0.34894102  0.09311961  0.78179355  1
  F  F57  1  0.74417859  0.65105898  0.21820645  1
  F  F58  1  0.90688039  0.25582141  0.21820645  1
  F  F59  1  0.34894102  0.09311961  0.21820645  1
  F  F60  1  0.49810953  0.35179587  0.81350331  1
  F  F61  1  0.64820413  0.14631366  0.81350331  1
  F  F62  1  0.85368634  0.50189047  0.81350331  1
  F  F63  1  0.49810953  0.35179587  0.18649669  1
  F  F64  1  0.64820413  0.14631366  0.18649669  1
  F  F65  1  0.85368634  0.50189047  0.18649669  1
  F  F66  1  0.35179587  0.49810953  0.18649669  1
  F  F67  1  0.14631366  0.64820413  0.18649669  1
  F  F68  1  0.50189047  0.85368634  0.18649669  1
  F  F69  1  0.35179587  0.49810953  0.81350331  1
  F  F70  1  0.14631366  0.64820413  0.81350331  1
  F  F71  1  0.50189047  0.85368634  0.81350331  1
  F  F72  1  0.84963965  0.96971396  0.41112675  1
  F  F73  1  0.03028604  0.87992569  0.41112675  1
  F  F74  1  0.12007431  0.15036035  0.41112675  1
  F  F75  1  0.84963965  0.96971396  0.58887325  1
  F  F76  1  0.03028604  0.87992569  0.58887325  1
  F  F77  1  0.12007431  0.15036035  0.58887325  1
  F  F78  1  0.96971396  0.84963965  0.58887325  1
  F  F79  1  0.87992569  0.03028604  0.58887325  1
  F  F80  1  0.15036035  0.12007431  0.58887325  1
  F  F81  1  0.96971396  0.84963965  0.41112675  1
  F  F82  1  0.87992569  0.03028604  0.41112675  1
  F  F83  1  0.15036035  0.12007431  0.41112675  1
  F  F84  1  0.00000000  0.00000000  0.00000000  1
  F  F85  1  0.95196837  0.00000000  -0.00000000  1
  F  F86  1  0.00000000  0.95196837  -0.00000000  1
  F  F87  1  0.04803163  0.04803163  -0.00000000  1
  Li  Li88  1  0.84784375  0.48705987  0.00000000  1
  Li  Li89  1  0.51294013  0.36078389  0.00000000  1
  Li  Li90  1  0.63921611  0.15215625  -0.00000000  1
  Li  Li91  1  0.48705987  0.84784375  0.00000000  1
  Li  Li92  1  0.36078389  0.51294013  -0.00000000  1
  Li  Li93  1  0.15215625  0.63921611  -0.00000000  1
  Li  Li94  1  0.33333333  0.66666667  0.36899927  1
  Li  Li95  1  0.33333333  0.66666667  0.63100073  1
  Li  Li96  1  0.66666667  0.33333333  0.63100073  1
  Li  Li97  1  0.66666667  0.33333333  0.36899927  1
  Li  Li98  1  0.41741158  0.19276148  -0.00000000  1
  Li  Li99  1  0.80723852  0.22465010  -0.00000000  1
  Li  Li100  1  0.77534990  0.58258842  -0.00000000  1
  Li  Li101  1  0.19276148  0.41741158  0.00000000  1
  Li  Li102  1  0.22465010  0.80723852  -0.00000000  1
  Li  Li103  1  0.58258842  0.77534990  -0.00000000  1
