# generated using pymatgen
data_LiTe4P2Se
_symmetry_space_group_name_H-M   'P 1'
_cell_length_a   5.45538899
_cell_length_b   5.54448021
_cell_length_c   7.17660747
_cell_angle_alpha   93.88783783
_cell_angle_beta   97.83159065
_cell_angle_gamma   104.61956220
_symmetry_Int_Tables_number   1
_chemical_formula_structural   LiTe4P2Se
_chemical_formula_sum   'Li1 Te4 P2 Se1'
_cell_volume   206.89980078
_cell_formula_units_Z   1
loop_
 _symmetry_equiv_pos_site_id
 _symmetry_equiv_pos_as_xyz
  1  'x, y, z'
loop_
 _atom_site_type_symbol
 _atom_site_label
 _atom_site_symmetry_multiplicity
 _atom_site_fract_x
 _atom_site_fract_y
 _atom_site_fract_z
 _atom_site_occupancy
  Se  Se0  1  0.00000000  0.00000000  0.00000000  1
  Te  Te1  1  0.50000000  0.50000000  0.50000000  1
  Te  Te2  1  0.25000000  0.25000000  0.25000000  1
  Te  Te3  1  0.75000000  0.25000000  0.00000000  1
  Te  Te4  1  0.25000000  0.75000000  0.50000000  1
  P  P5  1  0.68870660  0.77261344  0.04462238  1
  P  P6  1  0.09139728  0.61326312  0.81883278  1
  Li  Li7  1  0.55012381  0.65652810  0.66567094  1
