# generated using pymatgen
data_Li2Y2As2P4Se
_symmetry_space_group_name_H-M   'P 1'
_cell_length_a   5.30607493
_cell_length_b   5.34818122
_cell_length_c   7.43086334
_cell_angle_alpha   94.29668525
_cell_angle_beta   99.35728722
_cell_angle_gamma   107.25807698
_symmetry_Int_Tables_number   1
_chemical_formula_structural   Li2Y2As2P4Se
_chemical_formula_sum   'Li2 Y2 As2 P4 Se1'
_cell_volume   196.99394587
_cell_formula_units_Z   1
loop_
 _symmetry_equiv_pos_site_id
 _symmetry_equiv_pos_as_xyz
  1  'x, y, z'
loop_
 _atom_site_type_symbol
 _atom_site_label
 _atom_site_symmetry_multiplicity
 _atom_site_fract_x
 _atom_site_fract_y
 _atom_site_fract_z
 _atom_site_occupancy
  Se  Se0  1  0.00000000  0.00000000  0.00000000  1
  Y  Y1  1  0.50000000  0.50000000  0.50000000  1
  Y  Y2  1  0.25000000  0.25000000  0.25000000  1
  P  P3  1  0.75000000  0.25000000  0.00000000  1
  P  P4  1  0.25000000  0.75000000  0.50000000  1
  P  P5  1  0.84445775  0.04134905  0.94678724  1
  P  P6  1  0.28081952  0.46048212  0.87905112  1
  As  As7  1  0.14751912  0.00579363  0.60564208  1
  As  As8  1  0.86005965  0.79872846  0.00792145  1
  Li  Li9  1  0.00613159  0.86213431  0.36136192  1
  Li  Li10  1  0.51736229  0.90385629  0.10749078  1
