# generated using pymatgen
data_LiYP2
_symmetry_space_group_name_H-M   'P 1'
_cell_length_a   4.71105049
_cell_length_b   5.02071669
_cell_length_c   7.07678938
_cell_angle_alpha   95.22913034
_cell_angle_beta   101.38795876
_cell_angle_gamma   111.00333829
_symmetry_Int_Tables_number   1
_chemical_formula_structural   LiYP2
_chemical_formula_sum   'Li2 Y2 P4'
_cell_volume   150.77218282
_cell_formula_units_Z   2
loop_
 _symmetry_equiv_pos_site_id
 _symmetry_equiv_pos_as_xyz
  1  'x, y, z'
loop_
 _atom_site_type_symbol
 _atom_site_label
 _atom_site_symmetry_multiplicity
 _atom_site_fract_x
 _atom_site_fract_y
 _atom_site_fract_z
 _atom_site_occupancy
  P  P0  1  0.12500000  0.12500000  0.12500000  1
  P  P1  1  0.50000000  0.50000000  0.50000000  1
  P  P2  1  0.25000000  0.25000000  0.25000000  1
  P  P3  1  0.75000000  0.75000000  0.75000000  1
  Li  Li4  1  0.40909110  0.48256586  0.81112259  1
  Li  Li5  1  0.19078172  0.80714977  0.67262642  1
  Y  Y6  1  0.33057340  0.64963325  0.44194670  1
  Y  Y7  1  0.17459039  0.47187571  0.00683657  1
