# generated using pymatgen
data_Li3Y2As4P3Se
_symmetry_space_group_name_H-M   'P 1'
_cell_length_a   5.91036009
_cell_length_b   6.11014035
_cell_length_c   7.12371455
_cell_angle_alpha   92.24317989
_cell_angle_beta   95.35502209
_cell_angle_gamma   99.57727021
_symmetry_Int_Tables_number   1
_chemical_formula_structural   Li3Y2As4P3Se
_chemical_formula_sum   'Li3 Y2 As4 P3 Se1'
_cell_volume   252.17494786
_cell_formula_units_Z   1
loop_
 _symmetry_equiv_pos_site_id
 _symmetry_equiv_pos_as_xyz
  1  'x, y, z'
loop_
 _atom_site_type_symbol
 _atom_site_label
 _atom_site_symmetry_multiplicity
 _atom_site_fract_x
 _atom_site_fract_y
 _atom_site_fract_z
 _atom_site_occupancy
  Se  Se0  1  0.00000000  0.00000000  0.00000000  1
  P  P1  1  0.50000000  0.50000000  0.50000000  1
  P  P2  1  0.25000000  0.25000000  0.25000000  1
  P  P3  1  0.75000000  0.25000000  0.00000000  1
  As  As4  1  0.25000000  0.75000000  0.50000000  1
  As  As5  1  0.39950750  0.62750545  0.22525262  1
  As  As6  1  0.85223567  0.84832026  0.70099503  1
  As  As7  1  0.91896380  0.25849610  0.49571045  1
  Li  Li8  1  0.16067377  0.67905711  0.13671560  1
  Li  Li9  1  0.71038955  0.60890466  0.51853818  1
  Li  Li10  1  0.69660748  0.57500816  0.67865462  1
  Y  Y11  1  0.91883894  0.98455649  0.34507798  1
  Y  Y12  1  0.73230742  0.06342234  0.66178333  1
