# generated using pymatgen
data_Li4TeF2
_symmetry_space_group_name_H-M   'P 1'
_cell_length_a   13.77551490
_cell_length_b   13.77551490
_cell_length_c   13.77551490
_cell_angle_alpha   90.00000000
_cell_angle_beta   90.00000000
_cell_angle_gamma   90.00000000
_symmetry_Int_Tables_number   1
_chemical_formula_structural   Li4TeF2
_chemical_formula_sum   'Li96 Te24 F48'
_cell_volume   2614.10797773
_cell_formula_units_Z   24
loop_
 _symmetry_equiv_pos_site_id
 _symmetry_equiv_pos_as_xyz
  1  'x, y, z'
loop_
 _atom_site_type_symbol
 _atom_site_label
 _atom_site_symmetry_multiplicity
 _atom_site_fract_x
 _atom_site_fract_y
 _atom_site_fract_z
 _atom_site_occupancy
  F  F0  1  0.12798929  0.97371288  0.62703193  1
  F  F1  1  0.37201071  -0.97371288  1.12703193  1
  F  F2  1  -0.12798929  1.47371288  -0.12703193  1
  F  F3  1  0.62798929  -0.47371288  -0.62703193  1
  F  F4  1  0.62703193  0.12798929  0.97371288  1
  F  F5  1  1.12703193  0.37201071  -0.97371288  1
  F  F6  1  -0.12703193  -0.12798929  1.47371288  1
  F  F7  1  -0.62703193  0.62798929  -0.47371288  1
  F  F8  1  0.97371288  0.62703193  0.12798929  1
  F  F9  1  -0.97371288  1.12703193  0.37201071  1
  F  F10  1  1.47371288  -0.12703193  -0.12798929  1
  F  F11  1  -0.47371288  -0.62703193  0.62798929  1
  F  F12  1  1.72371288  0.37798929  -0.37703193  1
  F  F13  1  -0.22371288  0.62201071  0.12296807  1
  F  F14  1  1.22371288  0.12201071  1.37703193  1
  F  F15  1  -0.72371288  0.87798929  0.87703193  1
  F  F16  1  0.87798929  0.87703193  -0.72371288  1
  F  F17  1  0.12201071  1.37703193  1.22371288  1
  F  F18  1  0.62201071  0.12296807  -0.22371288  1
  F  F19  1  0.37798929  -0.37703193  1.72371288  1
  F  F20  1  1.37703193  1.22371288  0.12201071  1
  F  F21  1  0.87703193  -0.72371288  0.87798929  1
  F  F22  1  -0.37703193  1.72371288  0.37798929  1
  F  F23  1  0.12296807  -0.22371288  0.62201071  1
  F  F24  1  0.62798929  1.47371288  1.12703193  1
  F  F25  1  0.87201071  -0.47371288  1.62703193  1
  F  F26  1  0.37201071  1.97371288  0.37296807  1
  F  F27  1  1.12798929  0.02628712  -0.12703193  1
  F  F28  1  1.12703193  0.62798929  1.47371288  1
  F  F29  1  1.62703193  0.87201071  -0.47371288  1
  F  F30  1  0.37296807  0.37201071  1.97371288  1
  F  F31  1  -0.12703193  1.12798929  0.02628712  1
  F  F32  1  1.47371288  1.12703193  0.62798929  1
  F  F33  1  -0.47371288  1.62703193  0.87201071  1
  F  F34  1  1.97371288  0.37296807  0.37201071  1
  F  F35  1  0.02628712  -0.12703193  1.12798929  1
  F  F36  1  2.22371288  0.87798929  0.12296807  1
  F  F37  1  0.27628712  1.12201071  0.62296807  1
  F  F38  1  1.72371288  0.62201071  1.87703193  1
  F  F39  1  -0.22371288  1.37798929  1.37703193  1
  F  F40  1  1.37798929  1.37703193  -0.22371288  1
  F  F41  1  0.62201071  1.87703193  1.72371288  1
  F  F42  1  1.12201071  0.62296807  0.27628712  1
  F  F43  1  0.87798929  0.12296807  2.22371288  1
  F  F44  1  1.87703193  1.72371288  0.62201071  1
  F  F45  1  1.37703193  -0.22371288  1.37798929  1
  F  F46  1  0.12296807  2.22371288  0.87798929  1
  F  F47  1  0.62296807  0.27628712  1.12201071  1
  Li  Li48  1  0.12500000  0.12500000  0.12500000  1
  Li  Li49  1  0.37500000  0.87500000  0.62500000  1
  Li  Li50  1  0.87500000  0.62500000  0.37500000  1
  Li  Li51  1  0.62500000  0.37500000  0.87500000  1
  Li  Li52  1  0.62500000  0.62500000  0.62500000  1
  Li  Li53  1  0.87500000  0.37500000  0.12500000  1
  Li  Li54  1  0.37500000  0.12500000  0.87500000  1
  Li  Li55  1  0.12500000  0.87500000  0.37500000  1
  Li  Li56  1  0.12500000  0.77382095  0.02382095  1
  Li  Li57  1  0.37500000  0.22617905  0.52382095  1
  Li  Li58  1  0.87500000  0.27382095  0.47617905  1
  Li  Li59  1  0.62500000  0.72617905  0.97617905  1
  Li  Li60  1  0.02382095  0.12500000  0.77382095  1
  Li  Li61  1  0.52382095  0.37500000  0.22617905  1
  Li  Li62  1  0.47617905  0.87500000  0.27382095  1
  Li  Li63  1  0.97617905  0.62500000  0.72617905  1
  Li  Li64  1  0.77382095  0.02382095  0.12500000  1
  Li  Li65  1  0.22617905  0.52382095  0.37500000  1
  Li  Li66  1  0.27382095  0.47617905  0.87500000  1
  Li  Li67  1  0.72617905  0.97617905  0.62500000  1
  Li  Li68  1  0.62500000  0.27382095  0.52382095  1
  Li  Li69  1  0.87500000  0.72617905  0.02382095  1
  Li  Li70  1  0.37500000  0.77382095  0.97617905  1
  Li  Li71  1  0.12500000  0.22617905  0.47617905  1
  Li  Li72  1  0.52382095  0.62500000  0.27382095  1
  Li  Li73  1  0.02382095  0.87500000  0.72617905  1
  Li  Li74  1  0.97617905  0.37500000  0.77382095  1
  Li  Li75  1  0.47617905  0.12500000  0.22617905  1
  Li  Li76  1  0.27382095  0.52382095  0.62500000  1
  Li  Li77  1  0.72617905  0.02382095  0.87500000  1
  Li  Li78  1  0.77382095  0.97617905  0.37500000  1
  Li  Li79  1  0.22617905  0.47617905  0.12500000  1
  Li  Li80  1  0.83544213  0.47895120  0.40542349  1
  Li  Li81  1  0.66455787  0.52104880  0.90542349  1
  Li  Li82  1  0.16455787  0.97895120  0.09457651  1
  Li  Li83  1  0.33544213  0.02104880  0.59457651  1
  Li  Li84  1  0.40542349  0.83544213  0.47895120  1
  Li  Li85  1  0.90542349  0.66455787  0.52104880  1
  Li  Li86  1  0.09457651  0.16455787  0.97895120  1
  Li  Li87  1  0.59457651  0.33544213  0.02104880  1
  Li  Li88  1  0.47895120  0.40542349  0.83544213  1
  Li  Li89  1  0.52104880  0.90542349  0.66455787  1
  Li  Li90  1  0.97895120  0.09457651  0.16455787  1
  Li  Li91  1  0.02104880  0.59457651  0.33544213  1
  Li  Li92  1  0.22895120  0.08544213  0.84457651  1
  Li  Li93  1  0.27104880  0.91455787  0.34457651  1
  Li  Li94  1  0.72895120  0.41455787  0.15542349  1
  Li  Li95  1  0.77104880  0.58544213  0.65542349  1
  Li  Li96  1  0.58544213  0.65542349  0.77104880  1
  Li  Li97  1  0.41455787  0.15542349  0.72895120  1
  Li  Li98  1  0.91455787  0.34457651  0.27104880  1
  Li  Li99  1  0.08544213  0.84457651  0.22895120  1
  Li  Li100  1  0.15542349  0.72895120  0.41455787  1
  Li  Li101  1  0.65542349  0.77104880  0.58544213  1
  Li  Li102  1  0.84457651  0.22895120  0.08544213  1
  Li  Li103  1  0.34457651  0.27104880  0.91455787  1
  Li  Li104  1  0.33544213  0.97895120  0.90542349  1
  Li  Li105  1  0.16455787  0.02104880  0.40542349  1
  Li  Li106  1  0.66455787  0.47895120  0.59457651  1
  Li  Li107  1  0.83544213  0.52104880  0.09457651  1
  Li  Li108  1  0.90542349  0.33544213  0.97895120  1
  Li  Li109  1  0.40542349  0.16455787  0.02104880  1
  Li  Li110  1  0.59457651  0.66455787  0.47895120  1
  Li  Li111  1  0.09457651  0.83544213  0.52104880  1
  Li  Li112  1  0.97895120  0.90542349  0.33544213  1
  Li  Li113  1  0.02104880  0.40542349  0.16455787  1
  Li  Li114  1  0.47895120  0.59457651  0.66455787  1
  Li  Li115  1  0.52104880  0.09457651  0.83544213  1
  Li  Li116  1  0.72895120  0.58544213  0.34457651  1
  Li  Li117  1  0.77104880  0.41455787  0.84457651  1
  Li  Li118  1  0.22895120  0.91455787  0.65542349  1
  Li  Li119  1  0.27104880  0.08544213  0.15542349  1
  Li  Li120  1  0.08544213  0.15542349  0.27104880  1
  Li  Li121  1  0.91455787  0.65542349  0.22895120  1
  Li  Li122  1  0.41455787  0.84457651  0.77104880  1
  Li  Li123  1  0.58544213  0.34457651  0.72895120  1
  Li  Li124  1  0.65542349  0.22895120  0.91455787  1
  Li  Li125  1  0.15542349  0.27104880  0.08544213  1
  Li  Li126  1  0.34457651  0.72895120  0.58544213  1
  Li  Li127  1  0.84457651  0.77104880  0.41455787  1
  Li  Li128  1  0.03714750  0.03714750  0.03714750  1
  Li  Li129  1  0.46285250  0.96285250  0.53714750  1
  Li  Li130  1  0.96285250  0.53714750  0.46285250  1
  Li  Li131  1  0.53714750  0.46285250  0.96285250  1
  Li  Li132  1  0.78714750  0.28714750  0.21285250  1
  Li  Li133  1  0.71285250  0.71285250  0.71285250  1
  Li  Li134  1  0.28714750  0.21285250  0.78714750  1
  Li  Li135  1  0.21285250  0.78714750  0.28714750  1
  Li  Li136  1  0.53714750  0.53714750  0.53714750  1
  Li  Li137  1  0.96285250  0.46285250  0.03714750  1
  Li  Li138  1  0.46285250  0.03714750  0.96285250  1
  Li  Li139  1  0.03714750  0.96285250  0.46285250  1
  Li  Li140  1  0.28714750  0.78714750  0.71285250  1
  Li  Li141  1  0.21285250  0.21285250  0.21285250  1
  Li  Li142  1  0.78714750  0.71285250  0.28714750  1
  Li  Li143  1  0.71285250  0.28714750  0.78714750  1
  Te  Te144  1  0.12500000  0.27499215  0.97500785  1
  Te  Te145  1  0.37500000  0.72500785  0.47500785  1
  Te  Te146  1  0.87500000  0.77499215  0.52499215  1
  Te  Te147  1  0.62500000  0.22500785  0.02499215  1
  Te  Te148  1  0.97500785  0.12500000  0.27499215  1
  Te  Te149  1  0.47500785  0.37500000  0.72500785  1
  Te  Te150  1  0.52499215  0.87500000  0.77499215  1
  Te  Te151  1  0.02499215  0.62500000  0.22500785  1
  Te  Te152  1  0.27499215  0.97500785  0.12500000  1
  Te  Te153  1  0.72500785  0.47500785  0.37500000  1
  Te  Te154  1  0.77499215  0.52499215  0.87500000  1
  Te  Te155  1  0.22500785  0.02499215  0.62500000  1
  Te  Te156  1  0.62500000  0.77499215  0.47500785  1
  Te  Te157  1  0.87500000  0.22500785  0.97500785  1
  Te  Te158  1  0.37500000  0.27499215  0.02499215  1
  Te  Te159  1  0.12500000  0.72500785  0.52499215  1
  Te  Te160  1  0.47500785  0.62500000  0.77499215  1
  Te  Te161  1  0.97500785  0.87500000  0.22500785  1
  Te  Te162  1  0.02499215  0.37500000  0.27499215  1
  Te  Te163  1  0.52499215  0.12500000  0.72500785  1
  Te  Te164  1  0.77499215  0.47500785  0.62500000  1
  Te  Te165  1  0.22500785  0.97500785  0.87500000  1
  Te  Te166  1  0.27499215  0.02499215  0.37500000  1
  Te  Te167  1  0.72500785  0.52499215  0.12500000  1
