# generated using pymatgen
data_LiY2MoP2
_symmetry_space_group_name_H-M   'P 1'
_cell_length_a   5.37515458
_cell_length_b   5.48008384
_cell_length_c   6.92313525
_cell_angle_alpha   93.85317028
_cell_angle_beta   97.34143774
_cell_angle_gamma   103.83002892
_symmetry_Int_Tables_number   1
_chemical_formula_structural   LiY2MoP2
_chemical_formula_sum   'Li1 Y2 Mo1 P2'
_cell_volume   195.38035272
_cell_formula_units_Z   1
loop_
 _symmetry_equiv_pos_site_id
 _symmetry_equiv_pos_as_xyz
  1  'x, y, z'
loop_
 _atom_site_type_symbol
 _atom_site_label
 _atom_site_symmetry_multiplicity
 _atom_site_fract_x
 _atom_site_fract_y
 _atom_site_fract_z
 _atom_site_occupancy
  P  P0  1  0.00000000  0.00000000  0.00000000  1
  P  P1  1  0.50000000  0.50000000  0.50000000  1
  Mo  Mo2  1  0.50000000  0.50000000  0.00000000  1
  Li  Li3  1  0.50000000  0.00000000  0.50000000  1
  Y  Y4  1  0.00000000  0.50000000  0.50000000  1
  Y  Y5  1  0.67650272  0.99281190  0.99372447  1
