# generated using pymatgen
data_LiF
_symmetry_space_group_name_H-M   'P 1'
_cell_length_a   7.41981936
_cell_length_b   9.90192672
_cell_length_c   9.34787244
_cell_angle_alpha   90.00000000
_cell_angle_beta   90.00000000
_cell_angle_gamma   90.00000000
_symmetry_Int_Tables_number   1
_chemical_formula_structural   LiF
_chemical_formula_sum   'Li20 F20'
_cell_volume   686.79293233
_cell_formula_units_Z   20
loop_
 _symmetry_equiv_pos_site_id
 _symmetry_equiv_pos_as_xyz
  1  'x, y, z'
loop_
 _atom_site_type_symbol
 _atom_site_label
 _atom_site_symmetry_multiplicity
 _atom_site_fract_x
 _atom_site_fract_y
 _atom_site_fract_z
 _atom_site_occupancy
  F  F0  1  0.31562423  0.70371271  0.31048924  1
  F  F1  1  0.18437577  0.29628729  0.81048924  1
  F  F2  1  0.68437577  0.20371271  0.68951076  1
  F  F3  1  0.81562423  0.79628729  0.18951076  1
  F  F4  1  0.68437577  0.29628729  0.68951076  1
  F  F5  1  0.81562423  0.70371271  0.18951076  1
  F  F6  1  0.31562423  0.79628729  0.31048924  1
  F  F7  1  0.18437577  0.20371271  0.81048924  1
  F  F8  1  0.60637674  0.60158422  0.34467466  1
  F  F9  1  0.89362326  0.39841578  0.84467466  1
  F  F10  1  0.39362326  0.10158422  0.65532534  1
  F  F11  1  0.10637674  0.89841578  0.15532534  1
  F  F12  1  0.39362326  0.39841578  0.65532534  1
  F  F13  1  0.10637674  0.60158422  0.15532534  1
  F  F14  1  0.60637674  0.89841578  0.34467466  1
  F  F15  1  0.89362326  0.10158422  0.84467466  1
  F  F16  1  0.00000000  0.00000000  0.00000000  1
  F  F17  1  0.50000000  0.00000000  0.50000000  1
  F  F18  1  0.00000000  0.50000000  0.00000000  1
  F  F19  1  0.50000000  0.50000000  0.50000000  1
  Li  Li20  1  0.12929102  0.41007201  0.11385800  1
  Li  Li21  1  0.37070898  -0.41007201  0.61385800  1
  Li  Li22  1  -0.12929102  0.91007201  -0.11385800  1
  Li  Li23  1  0.62929102  0.08992799  0.38614200  1
  Li  Li24  1  -0.12929102  -0.41007201  -0.11385800  1
  Li  Li25  1  0.62929102  0.41007201  0.38614200  1
  Li  Li26  1  0.12929102  0.08992799  0.11385800  1
  Li  Li27  1  0.37070898  0.91007201  0.61385800  1
  Li  Li28  1  0.17705841  0.12631771  0.65616840  1
  Li  Li29  1  0.32294159  0.87368229  0.15616840  1
  Li  Li30  1  0.82294159  0.62631771  0.34383160  1
  Li  Li31  1  0.67705841  0.37368229  0.84383160  1
  Li  Li32  1  0.82294159  0.87368229  0.34383160  1
  Li  Li33  1  0.67705841  0.12631771  0.84383160  1
  Li  Li34  1  0.17705841  0.37368229  0.65616840  1
  Li  Li35  1  0.32294159  0.62631771  0.15616840  1
  Li  Li36  1  0.00000000  0.00000000  0.50000000  1
  Li  Li37  1  0.50000000  0.00000000  0.00000000  1
  Li  Li38  1  0.00000000  0.50000000  0.50000000  1
  Li  Li39  1  0.50000000  0.50000000  0.00000000  1
