# generated using pymatgen
data_Li3Y2P3Se2
_symmetry_space_group_name_H-M   'P 1'
_cell_length_a   5.59235300
_cell_length_b   5.80038785
_cell_length_c   7.28513710
_cell_angle_alpha   93.64131564
_cell_angle_beta   97.93002845
_cell_angle_gamma   104.62571772
_symmetry_Int_Tables_number   1
_chemical_formula_structural   Li3Y2P3Se2
_chemical_formula_sum   'Li3 Y2 P3 Se2'
_cell_volume   225.27418154
_cell_formula_units_Z   1
loop_
 _symmetry_equiv_pos_site_id
 _symmetry_equiv_pos_as_xyz
  1  'x, y, z'
loop_
 _atom_site_type_symbol
 _atom_site_label
 _atom_site_symmetry_multiplicity
 _atom_site_fract_x
 _atom_site_fract_y
 _atom_site_fract_z
 _atom_site_occupancy
  P  P0  1  0.12500000  0.12500000  0.12500000  1
  P  P1  1  0.50000000  0.50000000  0.50000000  1
  P  P2  1  0.25000000  0.25000000  0.25000000  1
  Se  Se3  1  0.75000000  0.75000000  0.75000000  1
  Se  Se4  1  0.03175141  0.65544142  0.11307440  1
  Li  Li5  1  0.23713308  0.18110061  0.23668172  1
  Li  Li6  1  0.16904180  0.67484575  0.41302526  1
  Li  Li7  1  0.05114510  0.03419083  0.31510711  1
  Y  Y8  1  0.23682309  0.39659493  0.65113993  1
  Y  Y9  1  0.36413307  0.94211965  0.87639720  1
