# generated using pymatgen
data_LiYSbPSe
_symmetry_space_group_name_H-M   'P 1'
_cell_length_a   5.41354758
_cell_length_b   5.68187804
_cell_length_c   7.23012091
_cell_angle_alpha   93.90240929
_cell_angle_beta   98.17359979
_cell_angle_gamma   105.16468413
_symmetry_Int_Tables_number   1
_chemical_formula_structural   LiYSbPSe
_chemical_formula_sum   'Li2 Y2 Sb2 P2 Se2'
_cell_volume   211.17432432
_cell_formula_units_Z   2
loop_
 _symmetry_equiv_pos_site_id
 _symmetry_equiv_pos_as_xyz
  1  'x, y, z'
loop_
 _atom_site_type_symbol
 _atom_site_label
 _atom_site_symmetry_multiplicity
 _atom_site_fract_x
 _atom_site_fract_y
 _atom_site_fract_z
 _atom_site_occupancy
  Se  Se0  1  0.12500000  0.00000000  0.25000000  1
  Se  Se1  1  0.00000000  0.00000000  0.00000000  1
  Y  Y2  1  0.37500000  0.00000000  0.25000000  1
  Y  Y3  1  0.25000000  0.25000000  0.25000000  1
  P  P4  1  0.00000000  0.25000000  0.12500000  1
  P  P5  1  0.32786481  0.60555362  0.75596002  1
  Li  Li6  1  0.87307009  0.46999262  0.06401871  1
  Li  Li7  1  0.60480495  0.67900161  0.93590115  1
  Sb  Sb8  1  0.35156790  0.82323460  0.79009690  1
  Sb  Sb9  1  0.68154076  0.92719261  0.05411947  1
