# generated using pymatgen
data_Li3LaTiO
_symmetry_space_group_name_H-M   'P 1'
_cell_length_a   3.52496322
_cell_length_b   2.88673615
_cell_length_c   6.06840047
_cell_angle_alpha   100.79228141
_cell_angle_beta   110.51132146
_cell_angle_gamma   95.70661660
_symmetry_Int_Tables_number   1
_chemical_formula_structural   Li3LaTiO
_chemical_formula_sum   'Li3 La1 Ti1 O1'
_cell_volume   55.89053175
_cell_formula_units_Z   1
loop_
 _symmetry_equiv_pos_site_id
 _symmetry_equiv_pos_as_xyz
  1  'x, y, z'
loop_
 _atom_site_type_symbol
 _atom_site_label
 _atom_site_symmetry_multiplicity
 _atom_site_fract_x
 _atom_site_fract_y
 _atom_site_fract_z
 _atom_site_occupancy
  O  O0  1  0.12500000  0.00000000  0.25000000  1
  Li  Li1  1  0.00000000  0.00000000  0.00000000  1
  Li  Li2  1  0.37500000  0.00000000  0.25000000  1
  Li  Li3  1  0.25000000  0.25000000  0.25000000  1
  Ti  Ti4  1  0.00000000  0.25000000  0.12500000  1
  La  La5  1  0.85665365  0.61172174  0.72857746  1
