# generated using pymatgen
data_LiCaF3
_symmetry_space_group_name_H-M   'P 1'
_cell_length_a   9.82274767
_cell_length_b   9.82274767
_cell_length_c   16.50648291
_cell_angle_alpha   90.00000000
_cell_angle_beta   90.00000000
_cell_angle_gamma   120.00000000
_symmetry_Int_Tables_number   1
_chemical_formula_structural   LiCaF3
_chemical_formula_sum   'Li18 Ca18 F54'
_cell_volume   1379.27591970
_cell_formula_units_Z   18
loop_
 _symmetry_equiv_pos_site_id
 _symmetry_equiv_pos_as_xyz
  1  'x, y, z'
loop_
 _atom_site_type_symbol
 _atom_site_label
 _atom_site_symmetry_multiplicity
 _atom_site_fract_x
 _atom_site_fract_y
 _atom_site_fract_z
 _atom_site_occupancy
  Ca  Ca0  1  0.72679765  0.55279220  0.92554337  1
  Ca  Ca1  1  -0.55279220  0.17400545  0.92554337  1
  Ca  Ca2  1  -0.17400545  -0.72679765  0.92554337  1
  Ca  Ca3  1  -0.72679765  -0.55279220  1.42554337  1
  Ca  Ca4  1  0.55279220  -0.17400545  1.42554337  1
  Ca  Ca5  1  0.17400545  0.72679765  1.42554337  1
  Ca  Ca6  1  -0.72679765  -0.55279220  -0.92554337  1
  Ca  Ca7  1  0.55279220  -0.17400545  -0.92554337  1
  Ca  Ca8  1  0.17400545  0.72679765  -0.92554337  1
  Ca  Ca9  1  0.72679765  0.55279220  -0.42554337  1
  Ca  Ca10  1  -0.55279220  0.17400545  -0.42554337  1
  Ca  Ca11  1  -0.17400545  -0.72679765  -0.42554337  1
  Ca  Ca12  1  0.33333333  0.66666667  0.48726890  1
  Ca  Ca13  1  0.66666667  0.33333333  0.98726890  1
  Ca  Ca14  1  0.66666667  0.33333333  0.51273110  1
  Ca  Ca15  1  0.33333333  0.66666667  0.01273110  1
  Ca  Ca16  1  0.33333333  0.66666667  0.25000000  1
  Ca  Ca17  1  0.66666667  0.33333333  0.75000000  1
  F  F18  1  0.33333333  0.66666667  0.09113612  1
  F  F19  1  0.66666667  0.33333333  0.59113612  1
  F  F20  1  0.66666667  0.33333333  0.90886388  1
  F  F21  1  0.33333333  0.66666667  0.40886388  1
  F  F22  1  0.45927343  0.83542245  0.21327175  1
  F  F23  1  0.16457755  0.62385098  0.21327175  1
  F  F24  1  0.37614902  0.54072657  0.21327175  1
  F  F25  1  0.54072657  0.16457755  0.71327175  1
  F  F26  1  0.83542245  0.37614902  0.71327175  1
  F  F27  1  0.62385098  0.45927343  0.71327175  1
  F  F28  1  0.54072657  0.16457755  0.78672825  1
  F  F29  1  0.83542245  0.37614902  0.78672825  1
  F  F30  1  0.62385098  0.45927343  0.78672825  1
  F  F31  1  0.45927343  0.83542245  0.28672825  1
  F  F32  1  0.16457755  0.62385098  0.28672825  1
  F  F33  1  0.37614902  0.54072657  0.28672825  1
  F  F34  1  0.00000000  0.00000000  0.58290783  1
  F  F35  1  0.00000000  0.00000000  0.08290783  1
  F  F36  1  0.00000000  0.00000000  0.41709217  1
  F  F37  1  0.00000000  0.00000000  0.91709217  1
  F  F38  1  0.66666667  0.33333333  0.25000000  1
  F  F39  1  0.33333333  0.66666667  0.75000000  1
  F  F40  1  0.20759052  0.59411214  0.66731009  1
  F  F41  1  0.40588786  0.61347838  0.66731009  1
  F  F42  1  0.38652162  0.79240948  0.66731009  1
  F  F43  1  0.79240948  0.40588786  0.16731009  1
  F  F44  1  0.59411214  0.38652162  0.16731009  1
  F  F45  1  0.61347838  0.20759052  0.16731009  1
  F  F46  1  0.79240948  0.40588786  0.33268991  1
  F  F47  1  0.59411214  0.38652162  0.33268991  1
  F  F48  1  0.61347838  0.20759052  0.33268991  1
  F  F49  1  0.20759052  0.59411214  0.83268991  1
  F  F50  1  0.40588786  0.61347838  0.83268991  1
  F  F51  1  0.38652162  0.79240948  0.83268991  1
  F  F52  1  0.37154547  0.54033537  0.98731625  1
  F  F53  1  0.45966463  0.83121010  0.98731625  1
  F  F54  1  0.16878990  0.62845453  0.98731625  1
  F  F55  1  0.62845453  0.45966463  0.48731625  1
  F  F56  1  0.54033537  0.16878990  0.48731625  1
  F  F57  1  0.83121010  0.37154547  0.48731625  1
  F  F58  1  0.62845453  0.45966463  0.01268375  1
  F  F59  1  0.54033537  0.16878990  0.01268375  1
  F  F60  1  0.83121010  0.37154547  0.01268375  1
  F  F61  1  0.37154547  0.54033537  0.51268375  1
  F  F62  1  0.45966463  0.83121010  0.51268375  1
  F  F63  1  0.16878990  0.62845453  0.51268375  1
  F  F64  1  0.50000000  0.00000000  -0.00000000  1
  F  F65  1  0.00000000  0.50000000  0.00000000  1
  F  F66  1  0.50000000  0.50000000  -0.00000000  1
  F  F67  1  0.50000000  0.00000000  0.50000000  1
  F  F68  1  0.00000000  0.50000000  0.50000000  1
  F  F69  1  0.50000000  0.50000000  0.50000000  1
  F  F70  1  0.00000000  0.00000000  0.00000000  1
  F  F71  1  0.00000000  0.00000000  0.50000000  1
  Li  Li72  1  0.07910974  0.64938904  0.25000000  1
  Li  Li73  1  0.35061096  0.42972070  0.25000000  1
  Li  Li74  1  0.57027930  0.92089026  0.25000000  1
  Li  Li75  1  0.92089026  0.35061096  0.75000000  1
  Li  Li76  1  0.64938904  0.57027930  0.75000000  1
  Li  Li77  1  0.42972070  0.07910974  0.75000000  1
  Li  Li78  1  0.33333333  0.66666667  0.62874866  1
  Li  Li79  1  0.66666667  0.33333333  0.12874866  1
  Li  Li80  1  0.66666667  0.33333333  0.37125134  1
  Li  Li81  1  0.33333333  0.66666667  0.87125134  1
  Li  Li82  1  0.00000000  0.00000000  0.25000000  1
  Li  Li83  1  0.00000000  0.00000000  0.75000000  1
  Li  Li84  1  0.07146234  0.29006615  0.25000000  1
  Li  Li85  1  0.70993385  0.78139619  0.25000000  1
  Li  Li86  1  0.21860381  0.92853766  0.25000000  1
  Li  Li87  1  0.92853766  0.70993385  0.75000000  1
  Li  Li88  1  0.29006615  0.21860381  0.75000000  1
  Li  Li89  1  0.78139619  0.07146234  0.75000000  1
