# generated using pymatgen
data_LiF
_symmetry_space_group_name_H-M   'P 1'
_cell_length_a   13.32862529
_cell_length_b   11.56749246
_cell_length_c   6.74132683
_cell_angle_alpha   90.00000000
_cell_angle_beta   90.00000000
_cell_angle_gamma   90.00000000
_symmetry_Int_Tables_number   1
_chemical_formula_structural   LiF
_chemical_formula_sum   'Li48 F48'
_cell_volume   1039.36949635
_cell_formula_units_Z   48
loop_
 _symmetry_equiv_pos_site_id
 _symmetry_equiv_pos_as_xyz
  1  'x, y, z'
loop_
 _atom_site_type_symbol
 _atom_site_label
 _atom_site_symmetry_multiplicity
 _atom_site_fract_x
 _atom_site_fract_y
 _atom_site_fract_z
 _atom_site_occupancy
  F  F0  1  0.75232894  0.79573295  0.35347193  1
  F  F1  1  -0.75232894  -0.79573295  0.35347193  1
  F  F2  1  -0.25232894  1.29573295  -0.35347193  1
  F  F3  1  1.25232894  -0.29573295  -0.35347193  1
  F  F4  1  -0.75232894  -0.79573295  -0.35347193  1
  F  F5  1  0.75232894  0.79573295  -0.35347193  1
  F  F6  1  1.25232894  -0.29573295  0.35347193  1
  F  F7  1  -0.25232894  1.29573295  0.35347193  1
  F  F8  1  0.00000000  0.50000000  0.95509690  1
  F  F9  1  0.50000000  -0.00000000  0.04490310  1
  F  F10  1  0.00000000  0.50000000  0.04490310  1
  F  F11  1  0.50000000  -0.00000000  0.95509690  1
  F  F12  1  0.25432311  0.67171100  0.50000000  1
  F  F13  1  0.74567689  0.32828900  0.50000000  1
  F  F14  1  0.24567689  0.17171100  0.50000000  1
  F  F15  1  0.75432311  0.82828900  0.50000000  1
  F  F16  1  0.33677938  0.09006653  0.39482377  1
  F  F17  1  0.66322062  0.90993347  0.39482377  1
  F  F18  1  0.16322062  0.59006653  0.60517623  1
  F  F19  1  0.83677938  0.40993347  0.60517623  1
  F  F20  1  0.66322062  0.90993347  0.60517623  1
  F  F21  1  0.33677938  0.09006653  0.60517623  1
  F  F22  1  0.83677938  0.40993347  0.39482377  1
  F  F23  1  0.16322062  0.59006653  0.39482377  1
  F  F24  1  0.72979580  0.93792503  -0.00000000  1
  F  F25  1  0.27020420  0.06207497  -0.00000000  1
  F  F26  1  0.77020420  0.43792503  0.00000000  1
  F  F27  1  0.22979580  0.56207497  0.00000000  1
  F  F28  1  0.01522193  0.16900528  0.85111387  1
  F  F29  1  0.98477807  0.83099472  0.85111387  1
  F  F30  1  0.48477807  0.66900528  0.14888613  1
  F  F31  1  0.51522193  0.33099472  0.14888613  1
  F  F32  1  0.98477807  0.83099472  0.14888613  1
  F  F33  1  0.01522193  0.16900528  0.14888613  1
  F  F34  1  0.51522193  0.33099472  0.85111387  1
  F  F35  1  0.48477807  0.66900528  0.85111387  1
  F  F36  1  0.00270859  0.83534553  0.50000000  1
  F  F37  1  0.99729141  0.16465447  0.50000000  1
  F  F38  1  0.49729141  0.33534553  0.50000000  1
  F  F39  1  0.50270859  0.66465447  0.50000000  1
  F  F40  1  0.32273024  0.35176259  0.40728202  1
  F  F41  1  0.67726976  0.64823741  0.40728202  1
  F  F42  1  0.17726976  0.85176259  0.59271798  1
  F  F43  1  0.82273024  0.14823741  0.59271798  1
  F  F44  1  0.67726976  0.64823741  0.59271798  1
  F  F45  1  0.32273024  0.35176259  0.59271798  1
  F  F46  1  0.82273024  0.14823741  0.40728202  1
  F  F47  1  0.17726976  0.85176259  0.40728202  1
  Li  Li48  1  0.59698071  0.48078692  0.50000000  1
  Li  Li49  1  0.40301929  0.51921308  0.50000000  1
  Li  Li50  1  0.90301929  0.98078692  0.50000000  1
  Li  Li51  1  0.09698071  0.01921308  0.50000000  1
  Li  Li52  1  0.54456250  0.39293655  -0.00000000  1
  Li  Li53  1  0.45543750  0.60706345  -0.00000000  1
  Li  Li54  1  0.95543750  0.89293655  0.00000000  1
  Li  Li55  1  0.04456250  0.10706345  -0.00000000  1
  Li  Li56  1  0.20950704  0.52914238  0.81053734  1
  Li  Li57  1  0.79049296  0.47085762  0.81053734  1
  Li  Li58  1  0.29049296  0.02914238  0.18946266  1
  Li  Li59  1  0.70950704  0.97085762  0.18946266  1
  Li  Li60  1  0.79049296  0.47085762  0.18946266  1
  Li  Li61  1  0.20950704  0.52914238  0.18946266  1
  Li  Li62  1  0.70950704  0.97085762  0.81053734  1
  Li  Li63  1  0.29049296  0.02914238  0.81053734  1
  Li  Li64  1  0.19897610  0.94907172  0.79088679  1
  Li  Li65  1  0.80102390  0.05092828  0.79088679  1
  Li  Li66  1  0.30102390  0.44907172  0.20911321  1
  Li  Li67  1  0.69897610  0.55092828  0.20911321  1
  Li  Li68  1  0.80102390  0.05092828  0.20911321  1
  Li  Li69  1  0.19897610  0.94907172  0.20911321  1
  Li  Li70  1  0.69897610  0.55092828  0.79088679  1
  Li  Li71  1  0.30102390  0.44907172  0.79088679  1
  Li  Li72  1  0.82636068  0.72262959  0.16434583  1
  Li  Li73  1  0.17363932  0.27737041  0.16434583  1
  Li  Li74  1  0.67363932  0.22262959  0.83565417  1
  Li  Li75  1  0.32636068  0.77737041  0.83565417  1
  Li  Li76  1  0.17363932  0.27737041  0.83565417  1
  Li  Li77  1  0.82636068  0.72262959  0.83565417  1
  Li  Li78  1  0.32636068  0.77737041  0.16434583  1
  Li  Li79  1  0.67363932  0.22262959  0.16434583  1
  Li  Li80  1  0.59619328  0.13006247  0.50000000  1
  Li  Li81  1  0.40380672  0.86993753  0.50000000  1
  Li  Li82  1  0.90380672  0.63006247  0.50000000  1
  Li  Li83  1  0.09619328  0.36993753  0.50000000  1
  Li  Li84  1  0.58465625  0.20699294  0.34222074  1
  Li  Li85  1  0.41534375  0.79300706  0.34222074  1
  Li  Li86  1  0.91534375  0.70699294  0.65777926  1
  Li  Li87  1  0.08465625  0.29300706  0.65777926  1
  Li  Li88  1  0.41534375  0.79300706  0.65777926  1
  Li  Li89  1  0.58465625  0.20699294  0.65777926  1
  Li  Li90  1  0.08465625  0.29300706  0.34222074  1
  Li  Li91  1  0.91534375  0.70699294  0.34222074  1
  Li  Li92  1  0.00000000  0.50000000  0.28804069  1
  Li  Li93  1  0.50000000  -0.00000000  0.71195931  1
  Li  Li94  1  0.00000000  0.50000000  0.71195931  1
  Li  Li95  1  0.50000000  -0.00000000  0.28804069  1
