# generated using pymatgen
data_LiF
_symmetry_space_group_name_H-M   'P 1'
_cell_length_a   6.54472038
_cell_length_b   6.54472038
_cell_length_c   8.01877376
_cell_angle_alpha   90.00000000
_cell_angle_beta   90.00000000
_cell_angle_gamma   120.00000000
_symmetry_Int_Tables_number   1
_chemical_formula_structural   LiF
_chemical_formula_sum   'Li20 F20'
_cell_volume   297.45466496
_cell_formula_units_Z   20
loop_
 _symmetry_equiv_pos_site_id
 _symmetry_equiv_pos_as_xyz
  1  'x, y, z'
loop_
 _atom_site_type_symbol
 _atom_site_label
 _atom_site_symmetry_multiplicity
 _atom_site_fract_x
 _atom_site_fract_y
 _atom_site_fract_z
 _atom_site_occupancy
  F  F0  1  0.33333333  0.66666667  0.50000000  1
  F  F1  1  0.00000000  0.00000000  0.16227105  1
  F  F2  1  0.00000000  0.00000000  0.83772895  1
  F  F3  1  0.66666667  0.33333333  0.50000000  1
  F  F4  1  0.22257648  0.20425272  0.64643877  1
  F  F5  1  0.79574728  0.01832376  0.64643877  1
  F  F6  1  0.98167624  0.77742352  0.64643877  1
  F  F7  1  0.79574728  0.77742352  0.35356123  1
  F  F8  1  0.98167624  0.20425272  0.35356123  1
  F  F9  1  0.22257648  0.01832376  0.35356123  1
  F  F10  1  0.61507259  0.38492741  0.50000000  1
  F  F11  1  0.61507259  0.23014519  0.50000000  1
  F  F12  1  0.76985481  0.38492741  0.50000000  1
  F  F13  1  0.00000000  0.00000000  0.50000000  1
  F  F14  1  0.20846822  0.09472350  0.76731331  1
  F  F15  1  0.90527650  0.11374472  0.76731331  1
  F  F16  1  0.88625528  0.79153178  0.76731331  1
  F  F17  1  0.90527650  0.79153178  0.23268669  1
  F  F18  1  0.88625528  0.09472350  0.23268669  1
  F  F19  1  0.20846822  0.11374472  0.23268669  1
  Li  Li20  1  0.54710328  0.45289672  0.00000000  1
  Li  Li21  1  0.54710328  0.09420656  0.00000000  1
  Li  Li22  1  0.90579344  0.45289672  0.00000000  1
  Li  Li23  1  0.00000000  0.00000000  0.66193729  1
  Li  Li24  1  0.00000000  0.00000000  0.33806271  1
  Li  Li25  1  0.82080763  0.25019446  0.78526019  1
  Li  Li26  1  -0.25019446  0.57061318  0.78526019  1
  Li  Li27  1  -0.57061318  -0.82080763  0.78526019  1
  Li  Li28  1  -0.25019446  -0.82080763  -0.78526019  1
  Li  Li29  1  -0.57061318  0.25019446  -0.78526019  1
  Li  Li30  1  0.82080763  0.57061318  -0.78526019  1
  Li  Li31  1  0.81524305  0.18475695  0.50000000  1
  Li  Li32  1  0.81524305  0.63048610  0.50000000  1
  Li  Li33  1  0.36951390  0.18475695  0.50000000  1
  Li  Li34  1  0.28128469  0.44260765  0.16319671  1
  Li  Li35  1  0.55739235  0.83867704  0.16319671  1
  Li  Li36  1  0.16132296  0.71871531  0.16319671  1
  Li  Li37  1  0.55739235  0.71871531  0.83680329  1
  Li  Li38  1  0.16132296  0.44260765  0.83680329  1
  Li  Li39  1  0.28128469  0.83867704  0.83680329  1
