# generated using pymatgen
data_LiF
_symmetry_space_group_name_H-M   'P 1'
_cell_length_a   11.52308688
_cell_length_b   11.52308688
_cell_length_c   7.30215479
_cell_angle_alpha   90.00000000
_cell_angle_beta   90.00000000
_cell_angle_gamma   120.00000000
_symmetry_Int_Tables_number   1
_chemical_formula_structural   LiF
_chemical_formula_sum   'Li35 F35'
_cell_volume   839.69069122
_cell_formula_units_Z   35
loop_
 _symmetry_equiv_pos_site_id
 _symmetry_equiv_pos_as_xyz
  1  'x, y, z'
loop_
 _atom_site_type_symbol
 _atom_site_label
 _atom_site_symmetry_multiplicity
 _atom_site_fract_x
 _atom_site_fract_y
 _atom_site_fract_z
 _atom_site_occupancy
  F  F0  1  0.94758983  0.03192094  0.45444265  1
  F  F1  1  0.96807906  0.91566889  0.45444265  1
  F  F2  1  0.08433111  0.05241017  0.45444265  1
  F  F3  1  0.96807906  0.05241017  0.54555735  1
  F  F4  1  0.08433111  0.03192094  0.54555735  1
  F  F5  1  0.94758983  0.91566889  0.54555735  1
  F  F6  1  0.87008207  0.81869388  0.83996514  1
  F  F7  1  0.18130612  0.05138819  0.83996514  1
  F  F8  1  0.94861181  0.12991793  0.83996514  1
  F  F9  1  0.18130612  0.12991793  0.16003486  1
  F  F10  1  0.94861181  0.81869388  0.16003486  1
  F  F11  1  0.87008207  0.05138819  0.16003486  1
  F  F12  1  0.66666667  0.33333333  0.84809004  1
  F  F13  1  0.66666667  0.33333333  0.15190996  1
  F  F14  1  0.77202938  0.40227162  0.82162720  1
  F  F15  1  0.59772838  0.36975776  0.82162720  1
  F  F16  1  0.63024224  0.22797062  0.82162720  1
  F  F17  1  0.59772838  0.22797062  0.17837280  1
  F  F18  1  0.63024224  0.40227162  0.17837280  1
  F  F19  1  0.77202938  0.36975776  0.17837280  1
  F  F20  1  0.00000000  0.00000000  0.50000000  1
  F  F21  1  0.84906374  0.88555763  0.19057021  1
  F  F22  1  0.11444237  0.96350611  0.19057021  1
  F  F23  1  0.03649389  0.15093626  0.19057021  1
  F  F24  1  0.11444237  0.15093626  0.80942979  1
  F  F25  1  0.03649389  0.88555763  0.80942979  1
  F  F26  1  0.84906374  0.96350611  0.80942979  1
  F  F27  1  0.33333333  0.66666667  0.00000000  1
  F  F28  1  0.26974076  0.73025924  0.00000000  1
  F  F29  1  0.26974076  0.53948153  0.00000000  1
  F  F30  1  0.46051847  0.73025924  0.00000000  1
  F  F31  1  0.09392020  0.90607980  0.00000000  1
  F  F32  1  0.09392020  0.18784039  0.00000000  1
  F  F33  1  0.81215961  0.90607980  0.00000000  1
  F  F34  1  0.66666667  0.33333333  0.50000000  1
  Li  Li35  1  0.64126341  0.55224100  0.12883684  1
  Li  Li36  1  -0.55224100  0.08902241  0.12883684  1
  Li  Li37  1  -0.08902241  -0.64126341  0.12883684  1
  Li  Li38  1  -0.55224100  -0.64126341  -0.12883684  1
  Li  Li39  1  -0.08902241  0.55224100  -0.12883684  1
  Li  Li40  1  0.64126341  0.08902241  -0.12883684  1
  Li  Li41  1  0.81825984  0.32402190  0.27775225  1
  Li  Li42  1  0.67597810  0.49423794  0.27775225  1
  Li  Li43  1  0.50576206  0.18174016  0.27775225  1
  Li  Li44  1  0.67597810  0.18174016  0.72224775  1
  Li  Li45  1  0.50576206  0.32402190  0.72224775  1
  Li  Li46  1  0.81825984  0.49423794  0.72224775  1
  Li  Li47  1  0.66666667  0.33333333  0.00000000  1
  Li  Li48  1  0.00000000  0.00000000  0.80241653  1
  Li  Li49  1  0.00000000  0.00000000  0.19758347  1
  Li  Li50  1  0.04968908  0.54845945  0.75873347  1
  Li  Li51  1  0.45154055  0.50122963  0.75873347  1
  Li  Li52  1  0.49877037  0.95031092  0.75873347  1
  Li  Li53  1  0.45154055  0.95031092  0.24126653  1
  Li  Li54  1  0.49877037  0.54845945  0.24126653  1
  Li  Li55  1  0.04968908  0.50122963  0.24126653  1
  Li  Li56  1  0.17176508  0.54123860  0.33438957  1
  Li  Li57  1  0.45876140  0.63052648  0.33438957  1
  Li  Li58  1  0.36947352  0.82823492  0.33438957  1
  Li  Li59  1  0.45876140  0.82823492  0.66561043  1
  Li  Li60  1  0.36947352  0.54123860  0.66561043  1
  Li  Li61  1  0.17176508  0.63052648  0.66561043  1
  Li  Li62  1  0.25931358  0.96255419  0.55934035  1
  Li  Li63  1  0.03744581  0.29675940  0.55934035  1
  Li  Li64  1  0.70324060  0.74068642  0.55934035  1
  Li  Li65  1  0.03744581  0.74068642  0.44065965  1
  Li  Li66  1  0.70324060  0.96255419  0.44065965  1
  Li  Li67  1  0.25931358  0.29675940  0.44065965  1
  Li  Li68  1  0.33333333  0.66666667  0.75408988  1
  Li  Li69  1  0.33333333  0.66666667  0.24591012  1
