# generated using pymatgen
data_Li2Y2As2P2Se
_symmetry_space_group_name_H-M   'P 1'
_cell_length_a   4.03114002
_cell_length_b   4.24309550
_cell_length_c   6.64677249
_cell_angle_alpha   96.46973344
_cell_angle_beta   103.44942638
_cell_angle_gamma   112.87465839
_symmetry_Int_Tables_number   1
_chemical_formula_structural   Li2Y2As2P2Se
_chemical_formula_sum   'Li2 Y2 As2 P2 Se1'
_cell_volume   99.22532870
_cell_formula_units_Z   1
loop_
 _symmetry_equiv_pos_site_id
 _symmetry_equiv_pos_as_xyz
  1  'x, y, z'
loop_
 _atom_site_type_symbol
 _atom_site_label
 _atom_site_symmetry_multiplicity
 _atom_site_fract_x
 _atom_site_fract_y
 _atom_site_fract_z
 _atom_site_occupancy
  Se  Se0  1  0.00000000  0.00000000  0.00000000  1
  P  P1  1  0.50000000  0.50000000  0.50000000  1
  P  P2  1  0.25000000  0.25000000  0.25000000  1
  As  As3  1  0.75000000  0.25000000  0.00000000  1
  As  As4  1  0.25000000  0.75000000  0.50000000  1
  Li  Li5  1  0.29173415  0.10827296  0.64676219  1
  Li  Li6  1  0.79355154  0.20461984  0.95919473  1
  Y  Y7  1  0.28901087  0.17580511  0.22373833  1
  Y  Y8  1  0.03181982  0.51455455  0.70809755  1
