# generated using pymatgen
data_Li2Y2P4Se
_symmetry_space_group_name_H-M   'P 1'
_cell_length_a   5.33646507
_cell_length_b   5.54670930
_cell_length_c   7.37548373
_cell_angle_alpha   94.16374674
_cell_angle_beta   99.06777476
_cell_angle_gamma   106.72411578
_symmetry_Int_Tables_number   1
_chemical_formula_structural   Li2Y2P4Se
_chemical_formula_sum   'Li2 Y2 P4 Se1'
_cell_volume   204.85343436
_cell_formula_units_Z   1
loop_
 _symmetry_equiv_pos_site_id
 _symmetry_equiv_pos_as_xyz
  1  'x, y, z'
loop_
 _atom_site_type_symbol
 _atom_site_label
 _atom_site_symmetry_multiplicity
 _atom_site_fract_x
 _atom_site_fract_y
 _atom_site_fract_z
 _atom_site_occupancy
  Se  Se0  1  0.12500000  0.00000000  0.25000000  1
  Y  Y1  1  0.00000000  0.00000000  0.00000000  1
  Y  Y2  1  0.37500000  0.00000000  0.25000000  1
  P  P3  1  0.25000000  0.25000000  0.25000000  1
  P  P4  1  0.00000000  0.25000000  0.12500000  1
  P  P5  1  0.03277124  0.73647428  0.34322923  1
  P  P6  1  0.92055562  0.76050441  0.66952987  1
  Li  Li7  1  0.65311303  0.47991889  0.21501777  1
  Li  Li8  1  0.39262268  0.56969120  0.64134192  1
