# generated using pymatgen
data_LiF
_symmetry_space_group_name_H-M   'P 1'
_cell_length_a   6.97026713
_cell_length_b   6.97026713
_cell_length_c   13.96417918
_cell_angle_alpha   90.00000000
_cell_angle_beta   90.00000000
_cell_angle_gamma   90.00000000
_symmetry_Int_Tables_number   1
_chemical_formula_structural   LiF
_chemical_formula_sum   'Li46 F46'
_cell_volume   678.44439252
_cell_formula_units_Z   46
loop_
 _symmetry_equiv_pos_site_id
 _symmetry_equiv_pos_as_xyz
  1  'x, y, z'
loop_
 _atom_site_type_symbol
 _atom_site_label
 _atom_site_symmetry_multiplicity
 _atom_site_fract_x
 _atom_site_fract_y
 _atom_site_fract_z
 _atom_site_occupancy
  F  F0  1  0.00000000  0.50000000  0.50000000  1
  F  F1  1  0.50000000  0.00000000  0.50000000  1
  F  F2  1  0.22362008  0.93028893  0.11254651  1
  F  F3  1  -0.22362008  -0.93028893  0.11254651  1
  F  F4  1  -0.93028893  0.22362008  0.11254651  1
  F  F5  1  0.93028893  -0.22362008  0.11254651  1
  F  F6  1  -0.22362008  0.93028893  -0.11254651  1
  F  F7  1  0.22362008  -0.93028893  -0.11254651  1
  F  F8  1  0.93028893  0.22362008  -0.11254651  1
  F  F9  1  -0.93028893  -0.22362008  -0.11254651  1
  F  F10  1  -0.22362008  -0.93028893  -0.11254651  1
  F  F11  1  0.22362008  0.93028893  -0.11254651  1
  F  F12  1  0.93028893  -0.22362008  -0.11254651  1
  F  F13  1  -0.93028893  0.22362008  -0.11254651  1
  F  F14  1  0.22362008  -0.93028893  0.11254651  1
  F  F15  1  -0.22362008  0.93028893  0.11254651  1
  F  F16  1  -0.93028893  -0.22362008  0.11254651  1
  F  F17  1  0.93028893  0.22362008  0.11254651  1
  F  F18  1  0.64106603  0.78731682  0.09008322  1
  F  F19  1  0.35893397  0.21268318  0.09008322  1
  F  F20  1  0.21268318  0.64106603  0.09008322  1
  F  F21  1  0.78731682  0.35893397  0.09008322  1
  F  F22  1  0.35893397  0.78731682  0.90991678  1
  F  F23  1  0.64106603  0.21268318  0.90991678  1
  F  F24  1  0.78731682  0.64106603  0.90991678  1
  F  F25  1  0.21268318  0.35893397  0.90991678  1
  F  F26  1  0.35893397  0.21268318  0.90991678  1
  F  F27  1  0.64106603  0.78731682  0.90991678  1
  F  F28  1  0.78731682  0.35893397  0.90991678  1
  F  F29  1  0.21268318  0.64106603  0.90991678  1
  F  F30  1  0.64106603  0.21268318  0.09008322  1
  F  F31  1  0.35893397  0.78731682  0.09008322  1
  F  F32  1  0.21268318  0.35893397  0.09008322  1
  F  F33  1  0.78731682  0.64106603  0.09008322  1
  F  F34  1  0.14739551  0.14739551  0.50000000  1
  F  F35  1  0.85260449  0.85260449  0.50000000  1
  F  F36  1  0.85260449  0.14739551  0.50000000  1
  F  F37  1  0.14739551  0.85260449  0.50000000  1
  F  F38  1  0.32307092  0.50000000  0.39007188  1
  F  F39  1  0.67692908  0.50000000  0.39007188  1
  F  F40  1  0.50000000  0.32307092  0.39007188  1
  F  F41  1  0.50000000  0.67692908  0.39007188  1
  F  F42  1  0.67692908  0.50000000  0.60992812  1
  F  F43  1  0.32307092  0.50000000  0.60992812  1
  F  F44  1  0.50000000  0.32307092  0.60992812  1
  F  F45  1  0.50000000  0.67692908  0.60992812  1
  Li  Li46  1  0.14488395  0.00000000  0.93834781  1
  Li  Li47  1  0.85511605  -0.00000000  0.93834781  1
  Li  Li48  1  0.00000000  0.14488395  0.93834781  1
  Li  Li49  1  0.00000000  0.85511605  0.93834781  1
  Li  Li50  1  0.85511605  -0.00000000  0.06165219  1
  Li  Li51  1  0.14488395  0.00000000  0.06165219  1
  Li  Li52  1  0.00000000  0.14488395  0.06165219  1
  Li  Li53  1  0.00000000  0.85511605  0.06165219  1
  Li  Li54  1  0.16520280  0.50000000  0.89889824  1
  Li  Li55  1  0.83479720  0.50000000  0.89889824  1
  Li  Li56  1  0.50000000  0.16520280  0.89889824  1
  Li  Li57  1  0.50000000  0.83479720  0.89889824  1
  Li  Li58  1  0.83479720  0.50000000  0.10110176  1
  Li  Li59  1  0.16520280  0.50000000  0.10110176  1
  Li  Li60  1  0.50000000  0.16520280  0.10110176  1
  Li  Li61  1  0.50000000  0.83479720  0.10110176  1
  Li  Li62  1  0.14659737  0.50000000  0.50000000  1
  Li  Li63  1  0.85340263  0.50000000  0.50000000  1
  Li  Li64  1  0.50000000  0.14659737  0.50000000  1
  Li  Li65  1  0.50000000  0.85340263  0.50000000  1
  Li  Li66  1  0.83850859  0.00000000  0.40603365  1
  Li  Li67  1  0.16149141  -0.00000000  0.40603365  1
  Li  Li68  1  0.00000000  0.83850859  0.40603365  1
  Li  Li69  1  0.00000000  0.16149141  0.40603365  1
  Li  Li70  1  0.16149141  -0.00000000  0.59396635  1
  Li  Li71  1  0.83850859  0.00000000  0.59396635  1
  Li  Li72  1  0.00000000  0.83850859  0.59396635  1
  Li  Li73  1  0.00000000  0.16149141  0.59396635  1
  Li  Li74  1  0.34985072  -0.00000000  0.89163429  1
  Li  Li75  1  0.65014928  -0.00000000  0.89163429  1
  Li  Li76  1  0.00000000  0.34985072  0.89163429  1
  Li  Li77  1  0.00000000  0.65014928  0.89163429  1
  Li  Li78  1  0.65014928  -0.00000000  0.10836571  1
  Li  Li79  1  0.34985072  -0.00000000  0.10836571  1
  Li  Li80  1  0.00000000  0.34985072  0.10836571  1
  Li  Li81  1  0.00000000  0.65014928  0.10836571  1
  Li  Li82  1  0.86891731  0.86891731  0.75744128  1
  Li  Li83  1  0.13108269  0.13108269  0.75744128  1
  Li  Li84  1  0.13108269  0.86891731  0.75744128  1
  Li  Li85  1  0.86891731  0.13108269  0.75744128  1
  Li  Li86  1  0.13108269  0.86891731  0.24255872  1
  Li  Li87  1  0.86891731  0.13108269  0.24255872  1
  Li  Li88  1  0.86891731  0.86891731  0.24255872  1
  Li  Li89  1  0.13108269  0.13108269  0.24255872  1
  Li  Li90  1  0.00000000  0.50000000  0.00000000  1
  Li  Li91  1  0.50000000  0.00000000  0.00000000  1
