# generated using pymatgen
data_LiF
_symmetry_space_group_name_H-M   'P 1'
_cell_length_a   13.94731847
_cell_length_b   13.94731847
_cell_length_c   12.18870586
_cell_angle_alpha   90.00000000
_cell_angle_beta   90.00000000
_cell_angle_gamma   90.00000000
_symmetry_Int_Tables_number   1
_chemical_formula_structural   LiF
_chemical_formula_sum   'Li64 F64'
_cell_volume   2371.04082733
_cell_formula_units_Z   64
loop_
 _symmetry_equiv_pos_site_id
 _symmetry_equiv_pos_as_xyz
  1  'x, y, z'
loop_
 _atom_site_type_symbol
 _atom_site_label
 _atom_site_symmetry_multiplicity
 _atom_site_fract_x
 _atom_site_fract_y
 _atom_site_fract_z
 _atom_site_occupancy
  F  F0  1  0.70818098  0.89305698  0.62788862  1
  F  F1  1  0.79181902  0.10694302  0.12788862  1
  F  F2  1  0.35694302  0.45818098  0.87788862  1
  F  F3  1  0.14305698  0.54181902  0.37788862  1
  F  F4  1  0.79181902  0.89305698  0.37211138  1
  F  F5  1  0.70818098  0.10694302  0.87211138  1
  F  F6  1  0.14305698  0.45818098  0.12211138  1
  F  F7  1  0.35694302  0.54181902  0.62211138  1
  F  F8  1  0.29181902  0.10694302  0.37211138  1
  F  F9  1  0.20818098  0.89305698  0.87211138  1
  F  F10  1  0.64305698  0.54181902  0.12211138  1
  F  F11  1  0.85694302  0.45818098  0.62211138  1
  F  F12  1  0.20818098  0.10694302  0.62788862  1
  F  F13  1  0.29181902  0.89305698  0.12788862  1
  F  F14  1  0.85694302  0.54181902  0.87788862  1
  F  F15  1  0.64305698  0.45818098  0.37788862  1
  F  F16  1  0.20818098  0.39305698  0.12788862  1
  F  F17  1  0.29181902  0.60694302  0.62788862  1
  F  F18  1  0.85694302  0.95818098  0.37788862  1
  F  F19  1  0.64305698  0.04181902  0.87788862  1
  F  F20  1  0.29181902  0.39305698  0.87211138  1
  F  F21  1  0.20818098  0.60694302  0.37211138  1
  F  F22  1  0.64305698  0.95818098  0.62211138  1
  F  F23  1  0.85694302  0.04181902  0.12211138  1
  F  F24  1  0.79181902  0.60694302  0.87211138  1
  F  F25  1  0.70818098  0.39305698  0.37211138  1
  F  F26  1  0.14305698  0.04181902  0.62211138  1
  F  F27  1  0.35694302  0.95818098  0.12211138  1
  F  F28  1  0.70818098  0.60694302  0.12788862  1
  F  F29  1  0.79181902  0.39305698  0.62788862  1
  F  F30  1  0.35694302  0.04181902  0.37788862  1
  F  F31  1  0.14305698  0.95818098  0.87788862  1
  F  F32  1  0.14619954  0.60001116  0.04695227  1
  F  F33  1  0.35380046  0.39998884  0.54695227  1
  F  F34  1  0.64998884  0.89619954  0.29695227  1
  F  F35  1  0.85001116  0.10380046  0.79695227  1
  F  F36  1  0.35380046  0.60001116  0.95304773  1
  F  F37  1  0.14619954  0.39998884  0.45304773  1
  F  F38  1  0.85001116  0.89619954  0.70304773  1
  F  F39  1  0.64998884  0.10380046  0.20304773  1
  F  F40  1  0.85380046  0.39998884  0.95304773  1
  F  F41  1  0.64619954  0.60001116  0.45304773  1
  F  F42  1  0.35001116  0.10380046  0.70304773  1
  F  F43  1  0.14998884  0.89619954  0.20304773  1
  F  F44  1  0.64619954  0.39998884  0.04695227  1
  F  F45  1  0.85380046  0.60001116  0.54695227  1
  F  F46  1  0.14998884  0.10380046  0.29695227  1
  F  F47  1  0.35001116  0.89619954  0.79695227  1
  F  F48  1  0.64619954  0.10001116  0.54695227  1
  F  F49  1  0.85380046  0.89998884  0.04695227  1
  F  F50  1  0.14998884  0.39619954  0.79695227  1
  F  F51  1  0.35001116  0.60380046  0.29695227  1
  F  F52  1  0.85380046  0.10001116  0.45304773  1
  F  F53  1  0.64619954  0.89998884  0.95304773  1
  F  F54  1  0.35001116  0.39619954  0.20304773  1
  F  F55  1  0.14998884  0.60380046  0.70304773  1
  F  F56  1  0.35380046  0.89998884  0.45304773  1
  F  F57  1  0.14619954  0.10001116  0.95304773  1
  F  F58  1  0.85001116  0.60380046  0.20304773  1
  F  F59  1  0.64998884  0.39619954  0.70304773  1
  F  F60  1  0.14619954  0.89998884  0.54695227  1
  F  F61  1  0.35380046  0.10001116  0.04695227  1
  F  F62  1  0.64998884  0.60380046  0.79695227  1
  F  F63  1  0.85001116  0.39619954  0.29695227  1
  Li  Li64  1  0.00000000  0.25000000  0.00845587  1
  Li  Li65  1  0.00000000  0.75000000  0.25845587  1
  Li  Li66  1  0.50000000  0.25000000  0.99154413  1
  Li  Li67  1  0.50000000  0.75000000  0.74154413  1
  Li  Li68  1  0.00000000  0.75000000  0.99154413  1
  Li  Li69  1  0.00000000  0.25000000  0.74154413  1
  Li  Li70  1  0.50000000  0.75000000  0.00845587  1
  Li  Li71  1  0.50000000  0.25000000  0.25845587  1
  Li  Li72  1  0.50000000  0.75000000  0.50845587  1
  Li  Li73  1  0.50000000  0.25000000  0.75845587  1
  Li  Li74  1  0.00000000  0.75000000  0.49154413  1
  Li  Li75  1  0.00000000  0.25000000  0.24154413  1
  Li  Li76  1  0.50000000  0.25000000  0.49154413  1
  Li  Li77  1  0.50000000  0.75000000  0.24154413  1
  Li  Li78  1  0.00000000  0.25000000  0.50845587  1
  Li  Li79  1  0.00000000  0.75000000  0.75845587  1
  Li  Li80  1  0.71989272  0.90925085  0.32677790  1
  Li  Li81  1  -0.21989272  -0.90925085  0.82677790  1
  Li  Li82  1  -0.65925085  1.46989272  0.57677790  1
  Li  Li83  1  1.15925085  -0.46989272  1.07677790  1
  Li  Li84  1  -0.21989272  0.90925085  -0.32677790  1
  Li  Li85  1  0.71989272  -0.90925085  0.17322210  1
  Li  Li86  1  1.15925085  1.46989272  0.42322210  1
  Li  Li87  1  -0.65925085  -0.46989272  -0.07677790  1
  Li  Li88  1  -0.71989272  -0.90925085  -0.32677790  1
  Li  Li89  1  1.21989272  0.90925085  0.17322210  1
  Li  Li90  1  1.65925085  -0.46989272  0.42322210  1
  Li  Li91  1  -0.15925085  1.46989272  -0.07677790  1
  Li  Li92  1  1.21989272  -0.90925085  0.32677790  1
  Li  Li93  1  -0.71989272  0.90925085  0.82677790  1
  Li  Li94  1  -0.15925085  -0.46989272  0.57677790  1
  Li  Li95  1  1.65925085  1.46989272  1.07677790  1
  Li  Li96  1  1.21989272  1.40925085  0.82677790  1
  Li  Li97  1  0.28010728  -0.40925085  1.32677790  1
  Li  Li98  1  -0.15925085  1.96989272  1.07677790  1
  Li  Li99  1  1.65925085  0.03010728  1.57677790  1
  Li  Li100  1  0.28010728  1.40925085  0.17322210  1
  Li  Li101  1  1.21989272  -0.40925085  0.67322210  1
  Li  Li102  1  1.65925085  1.96989272  0.92322210  1
  Li  Li103  1  -0.15925085  0.03010728  0.42322210  1
  Li  Li104  1  -0.21989272  -0.40925085  0.17322210  1
  Li  Li105  1  1.71989272  1.40925085  0.67322210  1
  Li  Li106  1  2.15925085  0.03010728  0.92322210  1
  Li  Li107  1  0.34074915  1.96989272  0.42322210  1
  Li  Li108  1  1.71989272  -0.40925085  0.82677790  1
  Li  Li109  1  -0.21989272  1.40925085  1.32677790  1
  Li  Li110  1  0.34074915  0.03010728  1.07677790  1
  Li  Li111  1  2.15925085  1.96989272  1.57677790  1
  Li  Li112  1  0.00000000  0.00000000  0.00000000  1
  Li  Li113  1  0.50000000  0.00000000  0.50000000  1
  Li  Li114  1  0.25000000  0.75000000  0.25000000  1
  Li  Li115  1  0.25000000  0.25000000  0.75000000  1
  Li  Li116  1  0.50000000  0.00000000  0.00000000  1
  Li  Li117  1  0.00000000  0.00000000  0.50000000  1
  Li  Li118  1  0.25000000  0.75000000  0.75000000  1
  Li  Li119  1  0.25000000  0.25000000  0.25000000  1
  Li  Li120  1  0.50000000  0.50000000  0.50000000  1
  Li  Li121  1  0.00000000  0.50000000  0.00000000  1
  Li  Li122  1  0.75000000  0.25000000  0.75000000  1
  Li  Li123  1  0.75000000  0.75000000  0.25000000  1
  Li  Li124  1  0.00000000  0.50000000  0.50000000  1
  Li  Li125  1  0.50000000  0.50000000  0.00000000  1
  Li  Li126  1  0.75000000  0.25000000  0.25000000  1
  Li  Li127  1  0.75000000  0.75000000  0.75000000  1
