# generated using pymatgen
data_LiY2(CuP)3
_symmetry_space_group_name_H-M   'P 1'
_cell_length_a   3.78698262
_cell_length_b   4.01793616
_cell_length_c   6.59076169
_cell_angle_alpha   96.82630457
_cell_angle_beta   104.61863434
_cell_angle_gamma   117.03019070
_symmetry_Int_Tables_number   1
_chemical_formula_structural   LiY2(CuP)3
_chemical_formula_sum   'Li1 Y2 Cu3 P3'
_cell_volume   83.20403857
_cell_formula_units_Z   1
loop_
 _symmetry_equiv_pos_site_id
 _symmetry_equiv_pos_as_xyz
  1  'x, y, z'
loop_
 _atom_site_type_symbol
 _atom_site_label
 _atom_site_symmetry_multiplicity
 _atom_site_fract_x
 _atom_site_fract_y
 _atom_site_fract_z
 _atom_site_occupancy
  P  P0  1  0.00000000  0.00000000  0.00000000  1
  P  P1  1  0.50000000  0.50000000  0.50000000  1
  P  P2  1  0.25000000  0.25000000  0.25000000  1
  Li  Li3  1  0.75000000  0.25000000  0.00000000  1
  Y  Y4  1  0.25000000  0.75000000  0.50000000  1
  Y  Y5  1  0.26296642  0.87099995  0.79580940  1
  Cu  Cu6  1  0.41516272  0.74997468  0.74321045  1
  Cu  Cu7  1  0.48701203  0.64626885  0.40666413  1
  Cu  Cu8  1  0.23826143  0.01013091  0.15176610  1
