# generated using pymatgen
data_LiYSbP
_symmetry_space_group_name_H-M   'P 1'
_cell_length_a   5.22184175
_cell_length_b   5.35457889
_cell_length_c   7.03872169
_cell_angle_alpha   94.20195398
_cell_angle_beta   98.62946478
_cell_angle_gamma   106.05970177
_symmetry_Int_Tables_number   1
_chemical_formula_structural   LiYSbP
_chemical_formula_sum   'Li2 Y2 Sb2 P2'
_cell_volume   185.61681705
_cell_formula_units_Z   2
loop_
 _symmetry_equiv_pos_site_id
 _symmetry_equiv_pos_as_xyz
  1  'x, y, z'
loop_
 _atom_site_type_symbol
 _atom_site_label
 _atom_site_symmetry_multiplicity
 _atom_site_fract_x
 _atom_site_fract_y
 _atom_site_fract_z
 _atom_site_occupancy
  Y  Y0  1  0.00000000  0.00000000  0.00000000  1
  Y  Y1  1  0.33300000  0.66700000  0.25000000  1
  P  P2  1  0.66700000  0.33300000  0.50000000  1
  P  P3  1  0.00000000  0.00000000  0.75000000  1
  Li  Li4  1  0.05381600  0.00281097  0.16272692  1
  Li  Li5  1  0.32041870  0.06698938  0.62334912  1
  Sb  Sb6  1  0.08721748  0.32488093  0.05444253  1
  Sb  Sb7  1  0.58161309  0.00197946  0.16096782  1
