# generated using pymatgen
data_LiF
_symmetry_space_group_name_H-M   'P 1'
_cell_length_a   7.04371110
_cell_length_b   7.04371110
_cell_length_c   15.36396621
_cell_angle_alpha   90.00000000
_cell_angle_beta   90.00000000
_cell_angle_gamma   120.00000000
_symmetry_Int_Tables_number   1
_chemical_formula_structural   LiF
_chemical_formula_sum   'Li24 F24'
_cell_volume   660.14151443
_cell_formula_units_Z   24
loop_
 _symmetry_equiv_pos_site_id
 _symmetry_equiv_pos_as_xyz
  1  'x, y, z'
loop_
 _atom_site_type_symbol
 _atom_site_label
 _atom_site_symmetry_multiplicity
 _atom_site_fract_x
 _atom_site_fract_y
 _atom_site_fract_z
 _atom_site_occupancy
  F  F0  1  0.66666667  0.33333333  0.50000000  1
  F  F1  1  0.06199417  0.62947240  0.11086504  1
  F  F2  1  0.37052760  0.43252177  0.11086504  1
  F  F3  1  0.56747823  0.93800583  0.11086504  1
  F  F4  1  0.37052760  0.93800583  0.88913496  1
  F  F5  1  0.56747823  0.62947240  0.88913496  1
  F  F6  1  0.06199417  0.43252177  0.88913496  1
  F  F7  1  0.18464320  0.95169306  0.92801009  1
  F  F8  1  0.04830694  0.23295014  0.92801009  1
  F  F9  1  0.76704986  0.81535680  0.92801009  1
  F  F10  1  0.04830694  0.81535680  0.07198991  1
  F  F11  1  0.76704986  0.95169306  0.07198991  1
  F  F12  1  0.18464320  0.23295014  0.07198991  1
  F  F13  1  0.51503730  0.95344487  0.37655477  1
  F  F14  1  0.04655513  0.56159243  0.37655477  1
  F  F15  1  0.43840757  0.48496270  0.37655477  1
  F  F16  1  0.04655513  0.48496270  0.62344523  1
  F  F17  1  0.43840757  0.95344487  0.62344523  1
  F  F18  1  0.51503730  0.56159243  0.62344523  1
  F  F19  1  0.47295995  0.52704005  0.00000000  1
  F  F20  1  0.47295995  0.94591990  0.00000000  1
  F  F21  1  0.05408010  0.52704005  0.00000000  1
  F  F22  1  0.66666667  0.33333333  0.91080005  1
  F  F23  1  0.66666667  0.33333333  0.08919995  1
  Li  Li24  1  0.00000000  0.00000000  0.50000000  1
  Li  Li25  1  0.33333333  0.66666667  0.62627869  1
  Li  Li26  1  0.33333333  0.66666667  0.37372131  1
  Li  Li27  1  0.00000000  0.00000000  0.00000000  1
  Li  Li28  1  0.13139405  0.86860595  0.00000000  1
  Li  Li29  1  0.13139405  0.26278809  0.00000000  1
  Li  Li30  1  0.73721191  0.86860595  0.00000000  1
  Li  Li31  1  0.79015354  0.53842400  0.80959859  1
  Li  Li32  1  -0.53842400  0.25172954  0.80959859  1
  Li  Li33  1  -0.25172954  -0.79015354  0.80959859  1
  Li  Li34  1  -0.53842400  -0.79015354  -0.80959859  1
  Li  Li35  1  -0.25172954  0.53842400  -0.80959859  1
  Li  Li36  1  0.79015354  0.25172954  -0.80959859  1
  Li  Li37  1  0.33333333  0.66666667  0.18519620  1
  Li  Li38  1  0.33333333  0.66666667  0.81480380  1
  Li  Li39  1  0.15803339  0.84196661  0.50000000  1
  Li  Li40  1  0.15803339  0.31606677  0.50000000  1
  Li  Li41  1  0.68393323  0.84196661  0.50000000  1
  Li  Li42  1  0.14927845  0.27298393  0.79719077  1
  Li  Li43  1  0.72701607  0.87629451  0.79719077  1
  Li  Li44  1  0.12370549  0.85072155  0.79719077  1
  Li  Li45  1  0.72701607  0.85072155  0.20280923  1
  Li  Li46  1  0.12370549  0.27298393  0.20280923  1
  Li  Li47  1  0.14927845  0.87629451  0.20280923  1
