# generated using pymatgen
data_LiF
_symmetry_space_group_name_H-M   'P 1'
_cell_length_a   9.21600848
_cell_length_b   9.21600848
_cell_length_c   5.91951916
_cell_angle_alpha   90.00000000
_cell_angle_beta   90.00000000
_cell_angle_gamma   120.00000000
_symmetry_Int_Tables_number   1
_chemical_formula_structural   LiF
_chemical_formula_sum   'Li24 F24'
_cell_volume   435.41440572
_cell_formula_units_Z   24
loop_
 _symmetry_equiv_pos_site_id
 _symmetry_equiv_pos_as_xyz
  1  'x, y, z'
loop_
 _atom_site_type_symbol
 _atom_site_label
 _atom_site_symmetry_multiplicity
 _atom_site_fract_x
 _atom_site_fract_y
 _atom_site_fract_z
 _atom_site_occupancy
  F  F0  1  0.01745433  0.61499210  0.21205065  1
  F  F1  1  0.38500790  0.40246224  0.21205065  1
  F  F2  1  0.59753776  0.98254567  0.21205065  1
  F  F3  1  0.38500790  0.98254567  0.78794935  1
  F  F4  1  0.59753776  0.61499210  0.78794935  1
  F  F5  1  0.01745433  0.40246224  0.78794935  1
  F  F6  1  0.40015774  0.53018606  0.94543873  1
  F  F7  1  0.46981394  0.86997169  0.94543873  1
  F  F8  1  0.13002831  0.59984226  0.94543873  1
  F  F9  1  0.46981394  0.59984226  0.05456127  1
  F  F10  1  0.13002831  0.53018606  0.05456127  1
  F  F11  1  0.40015774  0.86997169  0.05456127  1
  F  F12  1  0.09358960  0.75522017  0.66758402  1
  F  F13  1  0.24477983  0.33836943  0.66758402  1
  F  F14  1  0.66163057  0.90641040  0.66758402  1
  F  F15  1  0.24477983  0.90641040  0.33241598  1
  F  F16  1  0.66163057  0.75522017  0.33241598  1
  F  F17  1  0.09358960  0.33836943  0.33241598  1
  F  F18  1  0.50783746  0.42624099  0.11035707  1
  F  F19  1  0.57375901  0.08159647  0.11035707  1
  F  F20  1  0.91840353  0.49216254  0.11035707  1
  F  F21  1  0.57375901  0.49216254  0.88964293  1
  F  F22  1  0.91840353  0.42624099  0.88964293  1
  F  F23  1  0.50783746  0.08159647  0.88964293  1
  Li  Li24  1  0.20925247  0.79074753  0.50000000  1
  Li  Li25  1  0.20925247  0.41850494  0.50000000  1
  Li  Li26  1  0.58149506  0.79074753  0.50000000  1
  Li  Li27  1  0.66666667  0.33333333  0.50000000  1
  Li  Li28  1  0.25268151  0.74731849  0.00000000  1
  Li  Li29  1  0.25268151  0.50536302  0.00000000  1
  Li  Li30  1  0.49463698  0.74731849  0.00000000  1
  Li  Li31  1  0.00000000  0.00000000  0.50000000  1
  Li  Li32  1  0.66666667  0.33333333  0.00000000  1
  Li  Li33  1  0.33333333  0.66666667  0.00000000  1
  Li  Li34  1  0.60265825  0.59386849  0.63410635  1
  Li  Li35  1  -0.59386849  0.00878976  0.63410635  1
  Li  Li36  1  -0.00878976  -0.60265825  0.63410635  1
  Li  Li37  1  -0.59386849  -0.60265825  -0.63410635  1
  Li  Li38  1  -0.00878976  0.59386849  -0.63410635  1
  Li  Li39  1  0.60265825  0.00878976  -0.63410635  1
  Li  Li40  1  0.82668678  0.03464327  0.88513987  1
  Li  Li41  1  0.96535673  0.79204351  0.88513987  1
  Li  Li42  1  0.20795649  0.17331322  0.88513987  1
  Li  Li43  1  0.96535673  0.17331322  0.11486013  1
  Li  Li44  1  0.20795649  0.03464327  0.11486013  1
  Li  Li45  1  0.82668678  0.79204351  0.11486013  1
  Li  Li46  1  0.00000000  0.00000000  0.81692687  1
  Li  Li47  1  0.00000000  0.00000000  0.18307313  1
