# generated using pymatgen
data_Li2Y2MoP3Se2
_symmetry_space_group_name_H-M   'P 1'
_cell_length_a   6.11084013
_cell_length_b   6.46484333
_cell_length_c   7.56511739
_cell_angle_alpha   92.86963269
_cell_angle_beta   96.24946341
_cell_angle_gamma   101.52617399
_symmetry_Int_Tables_number   1
_chemical_formula_structural   Li2Y2MoP3Se2
_chemical_formula_sum   'Li2 Y2 Mo1 P3 Se2'
_cell_volume   290.30508303
_cell_formula_units_Z   1
loop_
 _symmetry_equiv_pos_site_id
 _symmetry_equiv_pos_as_xyz
  1  'x, y, z'
loop_
 _atom_site_type_symbol
 _atom_site_label
 _atom_site_symmetry_multiplicity
 _atom_site_fract_x
 _atom_site_fract_y
 _atom_site_fract_z
 _atom_site_occupancy
  Se  Se0  1  0.00000000  0.00000000  0.00000000  1
  Se  Se1  1  0.50000000  0.50000000  0.50000000  1
  P  P2  1  0.50000000  0.50000000  0.00000000  1
  P  P3  1  0.50000000  0.00000000  0.50000000  1
  P  P4  1  0.00000000  0.50000000  0.50000000  1
  Mo  Mo5  1  0.57301195  0.44412291  0.73430992  1
  Li  Li6  1  0.25196512  0.96949352  0.10357108  1
  Li  Li7  1  0.76724241  0.23708335  0.84396702  1
  Y  Y8  1  0.89891283  0.40773983  0.38770416  1
  Y  Y9  1  0.29847546  0.15849321  0.40685893  1
