# generated using pymatgen
data_LiF
_symmetry_space_group_name_H-M   'P 1'
_cell_length_a   9.36559574
_cell_length_b   14.81496695
_cell_length_c   4.33012124
_cell_angle_alpha   90.00000000
_cell_angle_beta   90.00000000
_cell_angle_gamma   90.00000000
_symmetry_Int_Tables_number   1
_chemical_formula_structural   LiF
_chemical_formula_sum   'Li20 F20'
_cell_volume   600.80861465
_cell_formula_units_Z   20
loop_
 _symmetry_equiv_pos_site_id
 _symmetry_equiv_pos_as_xyz
  1  'x, y, z'
loop_
 _atom_site_type_symbol
 _atom_site_label
 _atom_site_symmetry_multiplicity
 _atom_site_fract_x
 _atom_site_fract_y
 _atom_site_fract_z
 _atom_site_occupancy
  F  F0  1  0.30589334  0.66431623  0.03568732  1
  F  F1  1  0.19410666  0.33568377  0.53568732  1
  F  F2  1  0.69410666  0.16431623  0.96431268  1
  F  F3  1  0.80589334  0.83568377  0.46431268  1
  F  F4  1  0.69410666  0.33568377  0.96431268  1
  F  F5  1  0.80589334  0.66431623  0.46431268  1
  F  F6  1  0.30589334  0.83568377  0.03568732  1
  F  F7  1  0.19410666  0.16431623  0.53568732  1
  F  F8  1  0.00000000  0.00000000  0.00000000  1
  F  F9  1  0.50000000  0.00000000  0.50000000  1
  F  F10  1  0.00000000  0.50000000  0.00000000  1
  F  F11  1  0.50000000  0.50000000  0.50000000  1
  F  F12  1  0.20975450  0.25000000  0.30306609  1
  F  F13  1  0.29024550  0.75000000  0.80306609  1
  F  F14  1  0.79024550  0.75000000  0.69693391  1
  F  F15  1  0.70975450  0.25000000  0.19693391  1
  F  F16  1  0.74805098  0.25000000  0.00041977  1
  F  F17  1  0.75194902  0.75000000  0.50041977  1
  F  F18  1  0.25194902  0.75000000  0.99958023  1
  F  F19  1  0.24805098  0.25000000  0.49958023  1
  Li  Li20  1  0.17313162  0.25000000  0.71796139  1
  Li  Li21  1  0.32686838  0.75000000  0.21796139  1
  Li  Li22  1  0.82686838  0.75000000  0.28203861  1
  Li  Li23  1  0.67313162  0.25000000  0.78203861  1
  Li  Li24  1  0.86120625  0.25000000  0.72963431  1
  Li  Li25  1  0.63879375  0.75000000  0.22963431  1
  Li  Li26  1  0.13879375  0.75000000  0.27036569  1
  Li  Li27  1  0.36120625  0.25000000  0.77036569  1
  Li  Li28  1  0.00000000  0.00000000  0.50000000  1
  Li  Li29  1  0.50000000  0.00000000  0.00000000  1
  Li  Li30  1  0.00000000  0.50000000  0.50000000  1
  Li  Li31  1  0.50000000  0.50000000  0.00000000  1
  Li  Li32  1  0.90047587  0.97851637  0.00595464  1
  Li  Li33  1  -0.40047587  -0.97851637  0.50595464  1
  Li  Li34  1  -0.90047587  1.47851637  -0.00595464  1
  Li  Li35  1  1.40047587  -0.47851637  0.49404536  1
  Li  Li36  1  -0.90047587  -0.97851637  -0.00595464  1
  Li  Li37  1  1.40047587  0.97851637  0.49404536  1
  Li  Li38  1  0.90047587  -0.47851637  0.00595464  1
  Li  Li39  1  -0.40047587  1.47851637  0.50595464  1
