# generated using pymatgen
data_LiF
_symmetry_space_group_name_H-M   'P 1'
_cell_length_a   5.19162547
_cell_length_b   5.19162547
_cell_length_c   21.31809000
_cell_angle_alpha   90.00000000
_cell_angle_beta   90.00000000
_cell_angle_gamma   120.00000000
_symmetry_Int_Tables_number   1
_chemical_formula_structural   LiF
_chemical_formula_sum   'Li18 F18'
_cell_volume   497.60602636
_cell_formula_units_Z   18
loop_
 _symmetry_equiv_pos_site_id
 _symmetry_equiv_pos_as_xyz
  1  'x, y, z'
loop_
 _atom_site_type_symbol
 _atom_site_label
 _atom_site_symmetry_multiplicity
 _atom_site_fract_x
 _atom_site_fract_y
 _atom_site_fract_z
 _atom_site_occupancy
  F  F0  1  0.61395381  0.94933463  0.25187080  1
  F  F1  1  0.05066537  0.66461918  0.25187080  1
  F  F2  1  0.33538082  0.38604619  0.25187080  1
  F  F3  1  0.05066537  0.38604619  0.74812920  1
  F  F4  1  0.33538082  0.94933463  0.74812920  1
  F  F5  1  0.61395381  0.66461918  0.74812920  1
  F  F6  1  0.33333333  0.66666667  0.50000000  1
  F  F7  1  0.66666667  0.33333333  0.00000000  1
  F  F8  1  0.12355466  0.91803202  0.15866332  1
  F  F9  1  0.08196798  0.20552264  0.15866332  1
  F  F10  1  0.79447736  0.87644534  0.15866332  1
  F  F11  1  0.08196798  0.87644534  0.84133668  1
  F  F12  1  0.79447736  0.91803202  0.84133668  1
  F  F13  1  0.12355466  0.20552264  0.84133668  1
  F  F14  1  0.66666667  0.33333333  0.50000000  1
  F  F15  1  0.17335344  0.82664656  0.50000000  1
  F  F16  1  0.17335344  0.34670688  0.50000000  1
  F  F17  1  0.65329312  0.82664656  0.50000000  1
  Li  Li18  1  0.33333333  0.66666667  0.00000000  1
  Li  Li19  1  0.13454065  0.17502834  0.95596743  1
  Li  Li20  1  -0.17502834  -0.04048769  0.95596743  1
  Li  Li21  1  0.04048769  -0.13454065  0.95596743  1
  Li  Li22  1  -0.17502834  -0.13454065  -0.95596743  1
  Li  Li23  1  0.04048769  0.17502834  -0.95596743  1
  Li  Li24  1  0.13454065  -0.04048769  -0.95596743  1
  Li  Li25  1  0.55755303  0.12493071  0.44117135  1
  Li  Li26  1  0.87506929  0.43262232  0.44117135  1
  Li  Li27  1  0.56737768  0.44244697  0.44117135  1
  Li  Li28  1  0.87506929  0.44244697  0.55882865  1
  Li  Li29  1  0.56737768  0.12493071  0.55882865  1
  Li  Li30  1  0.55755303  0.43262232  0.55882865  1
  Li  Li31  1  0.77223895  0.22776105  0.50000000  1
  Li  Li32  1  0.77223895  0.54447791  0.50000000  1
  Li  Li33  1  0.45552209  0.22776105  0.50000000  1
  Li  Li34  1  0.00000000  0.00000000  0.24509681  1
  Li  Li35  1  0.00000000  0.00000000  0.75490319  1
