# generated using pymatgen
data_Li2Si4Te3F12
_symmetry_space_group_name_H-M   'P 1'
_cell_length_a   11.06671698
_cell_length_b   11.06671698
_cell_length_c   10.11686774
_cell_angle_alpha   90.00000000
_cell_angle_beta   90.00000000
_cell_angle_gamma   90.00000000
_symmetry_Int_Tables_number   1
_chemical_formula_structural   Li2Si4Te3F12
_chemical_formula_sum   'Li8 Si16 Te12 F48'
_cell_volume   1239.03530091
_cell_formula_units_Z   4
loop_
 _symmetry_equiv_pos_site_id
 _symmetry_equiv_pos_as_xyz
  1  'x, y, z'
loop_
 _atom_site_type_symbol
 _atom_site_label
 _atom_site_symmetry_multiplicity
 _atom_site_fract_x
 _atom_site_fract_y
 _atom_site_fract_z
 _atom_site_occupancy
  F  F0  1  0.58060774  0.43147359  0.05502156  1
  F  F1  1  -0.08060774  -0.43147359  0.55502156  1
  F  F2  1  -0.18147359  1.33060774  0.30502156  1
  F  F3  1  0.68147359  -0.33060774  0.80502156  1
  F  F4  1  -0.08060774  0.43147359  0.44497844  1
  F  F5  1  0.58060774  -0.43147359  -0.05502156  1
  F  F6  1  0.68147359  1.33060774  0.19497844  1
  F  F7  1  -0.18147359  -0.33060774  0.69497844  1
  F  F8  1  -0.58060774  -0.43147359  -0.05502156  1
  F  F9  1  1.08060774  0.43147359  0.44497844  1
  F  F10  1  1.18147359  -0.33060774  0.69497844  1
  F  F11  1  0.31852641  1.33060774  0.19497844  1
  F  F12  1  1.08060774  -0.43147359  0.55502156  1
  F  F13  1  -0.58060774  0.43147359  0.05502156  1
  F  F14  1  0.31852641  -0.33060774  0.80502156  1
  F  F15  1  1.18147359  1.33060774  0.30502156  1
  F  F16  1  1.08060774  0.93147359  0.55502156  1
  F  F17  1  0.41939226  0.06852641  1.05502156  1
  F  F18  1  0.31852641  1.83060774  0.80502156  1
  F  F19  1  1.18147359  0.16939226  1.30502156  1
  F  F20  1  0.41939226  0.93147359  0.94497844  1
  F  F21  1  1.08060774  0.06852641  0.44497844  1
  F  F22  1  1.18147359  1.83060774  0.69497844  1
  F  F23  1  0.31852641  0.16939226  1.19497844  1
  F  F24  1  -0.08060774  0.06852641  0.44497844  1
  F  F25  1  1.58060774  0.93147359  0.94497844  1
  F  F26  1  1.68147359  0.16939226  1.19497844  1
  F  F27  1  0.81852641  1.83060774  0.69497844  1
  F  F28  1  1.58060774  0.06852641  1.05502156  1
  F  F29  1  -0.08060774  0.93147359  0.55502156  1
  F  F30  1  0.81852641  0.16939226  1.30502156  1
  F  F31  1  1.68147359  1.83060774  0.80502156  1
  F  F32  1  0.00000000  0.01819478  0.30044525  1
  F  F33  1  0.50000000  0.98180522  0.80044525  1
  F  F34  1  0.23180522  0.75000000  0.55044525  1
  F  F35  1  0.26819478  0.25000000  0.05044525  1
  F  F36  1  0.50000000  0.01819478  0.19955475  1
  F  F37  1  0.00000000  0.98180522  0.69955475  1
  F  F38  1  0.26819478  0.75000000  0.94955475  1
  F  F39  1  0.23180522  0.25000000  0.44955475  1
  F  F40  1  0.50000000  0.51819478  0.80044525  1
  F  F41  1  0.00000000  0.48180522  0.30044525  1
  F  F42  1  0.73180522  0.25000000  0.05044525  1
  F  F43  1  0.76819478  0.75000000  0.55044525  1
  F  F44  1  0.00000000  0.51819478  0.69955475  1
  F  F45  1  0.50000000  0.48180522  0.19955475  1
  F  F46  1  0.76819478  0.25000000  0.44955475  1
  F  F47  1  0.73180522  0.75000000  0.94955475  1
  Li  Li48  1  0.00000000  0.00000000  0.50000000  1
  Li  Li49  1  0.50000000  0.00000000  0.00000000  1
  Li  Li50  1  0.25000000  0.75000000  0.75000000  1
  Li  Li51  1  0.25000000  0.25000000  0.25000000  1
  Li  Li52  1  0.50000000  0.50000000  0.00000000  1
  Li  Li53  1  0.00000000  0.50000000  0.50000000  1
  Li  Li54  1  0.75000000  0.25000000  0.25000000  1
  Li  Li55  1  0.75000000  0.75000000  0.75000000  1
  Si  Si56  1  0.55084659  0.80084659  0.87500000  1
  Si  Si57  1  0.94915341  0.19915341  0.37500000  1
  Si  Si58  1  0.44915341  0.30084659  0.12500000  1
  Si  Si59  1  0.05084659  0.69915341  0.62500000  1
  Si  Si60  1  0.44915341  0.19915341  0.12500000  1
  Si  Si61  1  0.05084659  0.80084659  0.62500000  1
  Si  Si62  1  0.55084659  0.69915341  0.87500000  1
  Si  Si63  1  0.94915341  0.30084659  0.37500000  1
  Si  Si64  1  0.05084659  0.30084659  0.37500000  1
  Si  Si65  1  0.44915341  0.69915341  0.87500000  1
  Si  Si66  1  0.94915341  0.80084659  0.62500000  1
  Si  Si67  1  0.55084659  0.19915341  0.12500000  1
  Si  Si68  1  0.94915341  0.69915341  0.62500000  1
  Si  Si69  1  0.55084659  0.30084659  0.12500000  1
  Si  Si70  1  0.05084659  0.19915341  0.37500000  1
  Si  Si71  1  0.44915341  0.80084659  0.87500000  1
  Te  Te72  1  0.00000000  0.25000000  0.57262772  1
  Te  Te73  1  0.00000000  0.75000000  0.82262772  1
  Te  Te74  1  0.50000000  0.25000000  0.92737228  1
  Te  Te75  1  0.50000000  0.75000000  0.67737228  1
  Te  Te76  1  0.50000000  0.75000000  0.07262772  1
  Te  Te77  1  0.50000000  0.25000000  0.32262772  1
  Te  Te78  1  0.00000000  0.75000000  0.42737228  1
  Te  Te79  1  0.00000000  0.25000000  0.17737228  1
  Te  Te80  1  0.00000000  0.75000000  0.12500000  1
  Te  Te81  1  0.50000000  0.75000000  0.37500000  1
  Te  Te82  1  0.50000000  0.25000000  0.62500000  1
  Te  Te83  1  0.00000000  0.25000000  0.87500000  1
