# generated using pymatgen
data_LiF
_symmetry_space_group_name_H-M   'P 1'
_cell_length_a   4.79319631
_cell_length_b   4.79319631
_cell_length_c   32.42138609
_cell_angle_alpha   90.00000000
_cell_angle_beta   90.00000000
_cell_angle_gamma   90.00000000
_symmetry_Int_Tables_number   1
_chemical_formula_structural   LiF
_chemical_formula_sum   'Li32 F32'
_cell_volume   744.87262033
_cell_formula_units_Z   32
loop_
 _symmetry_equiv_pos_site_id
 _symmetry_equiv_pos_as_xyz
  1  'x, y, z'
loop_
 _atom_site_type_symbol
 _atom_site_label
 _atom_site_symmetry_multiplicity
 _atom_site_fract_x
 _atom_site_fract_y
 _atom_site_fract_z
 _atom_site_occupancy
  F  F0  1  0.23323385  0.17573135  0.41423246  1
  F  F1  1  0.26676615  -0.17573135  0.91423246  1
  F  F2  1  0.07426865  0.98323385  0.66423246  1
  F  F3  1  0.42573135  0.01676615  1.16423246  1
  F  F4  1  0.26676615  0.17573135  -0.41423246  1
  F  F5  1  0.23323385  -0.17573135  0.08576754  1
  F  F6  1  0.42573135  0.98323385  0.33576754  1
  F  F7  1  0.07426865  0.01676615  -0.16423246  1
  F  F8  1  -0.23323385  -0.17573135  -0.41423246  1
  F  F9  1  0.73323385  0.17573135  0.08576754  1
  F  F10  1  0.92573135  0.01676615  0.33576754  1
  F  F11  1  0.57426865  0.98323385  -0.16423246  1
  F  F12  1  0.73323385  -0.17573135  0.41423246  1
  F  F13  1  -0.23323385  0.17573135  0.91423246  1
  F  F14  1  0.57426865  0.01676615  0.66423246  1
  F  F15  1  0.92573135  0.98323385  1.16423246  1
  F  F16  1  0.73323385  0.67573135  0.91423246  1
  F  F17  1  0.76676615  0.32426865  1.41423246  1
  F  F18  1  0.57426865  1.48323385  1.16423246  1
  F  F19  1  0.92573135  0.51676615  1.66423246  1
  F  F20  1  0.76676615  0.67573135  0.08576754  1
  F  F21  1  0.73323385  0.32426865  0.58576754  1
  F  F22  1  0.92573135  1.48323385  0.83576754  1
  F  F23  1  0.57426865  0.51676615  0.33576754  1
  F  F24  1  0.26676615  0.32426865  0.08576754  1
  F  F25  1  1.23323385  0.67573135  0.58576754  1
  F  F26  1  1.42573135  0.51676615  0.83576754  1
  F  F27  1  1.07426865  1.48323385  0.33576754  1
  F  F28  1  1.23323385  0.32426865  0.91423246  1
  F  F29  1  0.26676615  0.67573135  1.41423246  1
  F  F30  1  1.07426865  0.51676615  1.16423246  1
  F  F31  1  1.42573135  1.48323385  1.66423246  1
  Li  Li32  1  0.69608370  0.00000000  0.25000000  1
  Li  Li33  1  0.80391630  0.00000000  0.75000000  1
  Li  Li34  1  0.25000000  0.44608370  0.50000000  1
  Li  Li35  1  0.25000000  0.55391630  0.00000000  1
  Li  Li36  1  0.30391630  -0.00000000  0.75000000  1
  Li  Li37  1  0.19608370  0.00000000  0.25000000  1
  Li  Li38  1  0.75000000  0.55391630  0.50000000  1
  Li  Li39  1  0.75000000  0.44608370  -0.00000000  1
  Li  Li40  1  0.19608370  0.50000000  0.75000000  1
  Li  Li41  1  0.30391630  0.50000000  0.25000000  1
  Li  Li42  1  0.75000000  0.94608370  -0.00000000  1
  Li  Li43  1  0.75000000  0.05391630  0.50000000  1
  Li  Li44  1  0.80391630  0.50000000  0.25000000  1
  Li  Li45  1  0.69608370  0.50000000  0.75000000  1
  Li  Li46  1  0.25000000  0.05391630  -0.00000000  1
  Li  Li47  1  0.25000000  0.94608370  0.50000000  1
  Li  Li48  1  0.00000000  0.25000000  0.98690228  1
  Li  Li49  1  0.00000000  0.75000000  0.23690228  1
  Li  Li50  1  0.50000000  0.25000000  0.01309772  1
  Li  Li51  1  0.50000000  0.75000000  0.76309772  1
  Li  Li52  1  0.00000000  0.75000000  0.01309772  1
  Li  Li53  1  0.00000000  0.25000000  0.76309772  1
  Li  Li54  1  0.50000000  0.75000000  0.98690228  1
  Li  Li55  1  0.50000000  0.25000000  0.23690228  1
  Li  Li56  1  0.50000000  0.75000000  0.48690228  1
  Li  Li57  1  0.50000000  0.25000000  0.73690228  1
  Li  Li58  1  0.00000000  0.75000000  0.51309772  1
  Li  Li59  1  0.00000000  0.25000000  0.26309772  1
  Li  Li60  1  0.50000000  0.25000000  0.51309772  1
  Li  Li61  1  0.50000000  0.75000000  0.26309772  1
  Li  Li62  1  0.00000000  0.25000000  0.48690228  1
  Li  Li63  1  0.00000000  0.75000000  0.73690228  1
