# generated using pymatgen
data_LiF
_symmetry_space_group_name_H-M   'P 1'
_cell_length_a   12.85844907
_cell_length_b   5.41452210
_cell_length_c   7.06989926
_cell_angle_alpha   90.00000000
_cell_angle_beta   90.00000000
_cell_angle_gamma   90.00000000
_symmetry_Int_Tables_number   1
_chemical_formula_structural   LiF
_chemical_formula_sum   'Li16 F16'
_cell_volume   492.22304839
_cell_formula_units_Z   16
loop_
 _symmetry_equiv_pos_site_id
 _symmetry_equiv_pos_as_xyz
  1  'x, y, z'
loop_
 _atom_site_type_symbol
 _atom_site_label
 _atom_site_symmetry_multiplicity
 _atom_site_fract_x
 _atom_site_fract_y
 _atom_site_fract_z
 _atom_site_occupancy
  F  F0  1  0.43029719  0.49850794  0.64561138  1
  F  F1  1  -0.43029719  -0.49850794  0.64561138  1
  F  F2  1  0.06970281  0.99850794  -0.64561138  1
  F  F3  1  0.93029719  0.00149206  -0.64561138  1
  F  F4  1  -0.43029719  -0.49850794  -0.64561138  1
  F  F5  1  0.43029719  0.49850794  -0.64561138  1
  F  F6  1  0.93029719  0.00149206  0.64561138  1
  F  F7  1  0.06970281  0.99850794  0.64561138  1
  F  F8  1  0.62116094  0.93737188  0.00000000  1
  F  F9  1  0.37883906  0.06262812  0.00000000  1
  F  F10  1  0.87883906  0.43737188  -0.00000000  1
  F  F11  1  0.12116094  0.56262812  0.00000000  1
  F  F12  1  0.28288626  0.99147991  0.50000000  1
  F  F13  1  0.71711374  0.00852009  0.50000000  1
  F  F14  1  0.21711374  0.49147991  0.50000000  1
  F  F15  1  0.78288626  0.50852009  0.50000000  1
  Li  Li16  1  0.36266395  0.56628030  0.14176110  1
  Li  Li17  1  0.63733605  0.43371970  0.14176110  1
  Li  Li18  1  0.13733605  0.06628030  0.85823890  1
  Li  Li19  1  0.86266395  0.93371970  0.85823890  1
  Li  Li20  1  0.63733605  0.43371970  0.85823890  1
  Li  Li21  1  0.36266395  0.56628030  0.85823890  1
  Li  Li22  1  0.86266395  0.93371970  0.14176110  1
  Li  Li23  1  0.13733605  0.06628030  0.14176110  1
  Li  Li24  1  0.08859848  0.77114987  0.68368557  1
  Li  Li25  1  0.91140152  0.22885013  0.68368557  1
  Li  Li26  1  0.41140152  0.27114987  0.31631443  1
  Li  Li27  1  0.58859848  0.72885013  0.31631443  1
  Li  Li28  1  0.91140152  0.22885013  0.31631443  1
  Li  Li29  1  0.08859848  0.77114987  0.31631443  1
  Li  Li30  1  0.58859848  0.72885013  0.68368557  1
  Li  Li31  1  0.41140152  0.27114987  0.68368557  1
