# generated using pymatgen
data_LiF
_symmetry_space_group_name_H-M   'P 1'
_cell_length_a   8.61270351
_cell_length_b   9.23921092
_cell_length_c   6.77400508
_cell_angle_alpha   90.00000000
_cell_angle_beta   90.00000000
_cell_angle_gamma   90.00000000
_symmetry_Int_Tables_number   1
_chemical_formula_structural   LiF
_chemical_formula_sum   'Li18 F18'
_cell_volume   539.03863814
_cell_formula_units_Z   18
loop_
 _symmetry_equiv_pos_site_id
 _symmetry_equiv_pos_as_xyz
  1  'x, y, z'
loop_
 _atom_site_type_symbol
 _atom_site_label
 _atom_site_symmetry_multiplicity
 _atom_site_fract_x
 _atom_site_fract_y
 _atom_site_fract_z
 _atom_site_occupancy
  F  F0  1  0.22480399  0.30580586  0.80572425  1
  F  F1  1  -0.22480399  -0.30580586  0.80572425  1
  F  F2  1  0.27519601  0.80580586  -0.80572425  1
  F  F3  1  0.72480399  0.19419414  -0.80572425  1
  F  F4  1  -0.22480399  -0.30580586  -0.80572425  1
  F  F5  1  0.22480399  0.30580586  -0.80572425  1
  F  F6  1  0.72480399  0.19419414  0.80572425  1
  F  F7  1  0.27519601  0.80580586  0.80572425  1
  F  F8  1  0.00000000  0.50000000  0.00000000  1
  F  F9  1  0.50000000  0.00000000  0.00000000  1
  F  F10  1  0.00000000  0.00000000  0.11749827  1
  F  F11  1  0.50000000  0.50000000  0.88250173  1
  F  F12  1  0.00000000  0.00000000  0.88250173  1
  F  F13  1  0.50000000  0.50000000  0.11749827  1
  F  F14  1  0.00000000  0.50000000  0.58210963  1
  F  F15  1  0.50000000  0.00000000  0.41789037  1
  F  F16  1  0.00000000  0.50000000  0.41789037  1
  F  F17  1  0.50000000  0.00000000  0.58210963  1
  Li  Li18  1  0.55111935  0.13216441  0.50000000  1
  Li  Li19  1  0.44888065  0.86783559  0.50000000  1
  Li  Li20  1  0.94888065  0.63216441  0.50000000  1
  Li  Li21  1  0.05111935  0.36783559  0.50000000  1
  Li  Li22  1  0.03357908  0.84592025  0.23811864  1
  Li  Li23  1  0.96642092  0.15407975  0.23811864  1
  Li  Li24  1  0.46642092  0.34592025  0.76188136  1
  Li  Li25  1  0.53357908  0.65407975  0.76188136  1
  Li  Li26  1  0.96642092  0.15407975  0.76188136  1
  Li  Li27  1  0.03357908  0.84592025  0.76188136  1
  Li  Li28  1  0.53357908  0.65407975  0.23811864  1
  Li  Li29  1  0.46642092  0.34592025  0.23811864  1
  Li  Li30  1  0.78505908  0.04727997  0.50000000  1
  Li  Li31  1  0.21494092  0.95272003  0.50000000  1
  Li  Li32  1  0.71494092  0.54727997  0.50000000  1
  Li  Li33  1  0.28505908  0.45272003  0.50000000  1
  Li  Li34  1  0.00000000  0.00000000  0.50000000  1
  Li  Li35  1  0.50000000  0.50000000  0.50000000  1
