# generated using pymatgen
data_LiF
_symmetry_space_group_name_H-M   'P 1'
_cell_length_a   15.05721594
_cell_length_b   15.05721594
_cell_length_c   4.78192875
_cell_angle_alpha   90.00000000
_cell_angle_beta   90.00000000
_cell_angle_gamma   120.00000000
_symmetry_Int_Tables_number   1
_chemical_formula_structural   LiF
_chemical_formula_sum   'Li29 F29'
_cell_volume   938.90810910
_cell_formula_units_Z   29
loop_
 _symmetry_equiv_pos_site_id
 _symmetry_equiv_pos_as_xyz
  1  'x, y, z'
loop_
 _atom_site_type_symbol
 _atom_site_label
 _atom_site_symmetry_multiplicity
 _atom_site_fract_x
 _atom_site_fract_y
 _atom_site_fract_z
 _atom_site_occupancy
  F  F0  1  0.73738391  0.26261609  0.50000000  1
  F  F1  1  0.73738391  0.47476781  0.50000000  1
  F  F2  1  0.52523219  0.26261609  0.50000000  1
  F  F3  1  0.01802831  0.64795752  0.15252411  1
  F  F4  1  0.35204248  0.37007079  0.15252411  1
  F  F5  1  0.62992921  0.98197169  0.15252411  1
  F  F6  1  0.35204248  0.98197169  0.84747589  1
  F  F7  1  0.62992921  0.64795752  0.84747589  1
  F  F8  1  0.01802831  0.37007079  0.84747589  1
  F  F9  1  0.77889882  0.78629379  0.53658362  1
  F  F10  1  0.21370621  0.99260503  0.53658362  1
  F  F11  1  0.00739497  0.22110118  0.53658362  1
  F  F12  1  0.21370621  0.22110118  0.46341638  1
  F  F13  1  0.00739497  0.78629379  0.46341638  1
  F  F14  1  0.77889882  0.99260503  0.46341638  1
  F  F15  1  0.88457150  0.50827597  0.68804313  1
  F  F16  1  0.49172403  0.37629553  0.68804313  1
  F  F17  1  0.62370447  0.11542850  0.68804313  1
  F  F18  1  0.49172403  0.11542850  0.31195687  1
  F  F19  1  0.62370447  0.50827597  0.31195687  1
  F  F20  1  0.88457150  0.37629553  0.31195687  1
  F  F21  1  0.00000000  0.00000000  0.50000000  1
  F  F22  1  0.16443764  0.38095853  0.82425271  1
  F  F23  1  0.61904147  0.78347910  0.82425271  1
  F  F24  1  0.21652090  0.83556236  0.82425271  1
  F  F25  1  0.61904147  0.83556236  0.17574729  1
  F  F26  1  0.21652090  0.38095853  0.17574729  1
  F  F27  1  0.16443764  0.78347910  0.17574729  1
  F  F28  1  0.66666667  0.33333333  0.50000000  1
  Li  Li29  1  0.18150046  0.51848923  0.00072057  1
  Li  Li30  1  -0.51848923  -0.33698876  0.00072057  1
  Li  Li31  1  0.33698876  -0.18150046  0.00072057  1
  Li  Li32  1  -0.51848923  -0.18150046  -0.00072057  1
  Li  Li33  1  0.33698876  0.51848923  -0.00072057  1
  Li  Li34  1  0.18150046  -0.33698876  -0.00072057  1
  Li  Li35  1  0.04553007  0.09180123  0.34904589  1
  Li  Li36  1  0.90819877  0.95372884  0.34904589  1
  Li  Li37  1  0.04627116  0.95446993  0.34904589  1
  Li  Li38  1  0.90819877  0.95446993  0.65095411  1
  Li  Li39  1  0.04627116  0.09180123  0.65095411  1
  Li  Li40  1  0.04553007  0.95372884  0.65095411  1
  Li  Li41  1  0.14638756  0.02329575  0.93735799  1
  Li  Li42  1  0.97670425  0.12309181  0.93735799  1
  Li  Li43  1  0.87690819  0.85361244  0.93735799  1
  Li  Li44  1  0.97670425  0.85361244  0.06264201  1
  Li  Li45  1  0.87690819  0.02329575  0.06264201  1
  Li  Li46  1  0.14638756  0.12309181  0.06264201  1
  Li  Li47  1  0.29966151  0.70033849  0.50000000  1
  Li  Li48  1  0.29966151  0.59932302  0.50000000  1
  Li  Li49  1  0.40067698  0.70033849  0.50000000  1
  Li  Li50  1  0.99454653  0.76054669  0.94397585  1
  Li  Li51  1  0.23945331  0.23399985  0.94397585  1
  Li  Li52  1  0.76600015  0.00545347  0.94397585  1
  Li  Li53  1  0.23945331  0.00545347  0.05602415  1
  Li  Li54  1  0.76600015  0.76054669  0.05602415  1
  Li  Li55  1  0.99454653  0.23399985  0.05602415  1
  Li  Li56  1  0.33333333  0.66666667  0.00000000  1
  Li  Li57  1  0.66666667  0.33333333  0.00000000  1
