# generated using pymatgen
data_Sr3Li4S4O
_symmetry_space_group_name_H-M   'P 1'
_cell_length_a   12.76843298
_cell_length_b   22.90542724
_cell_length_c   18.10438448
_cell_angle_alpha   90.00000000
_cell_angle_beta   90.00000000
_cell_angle_gamma   90.00000000
_symmetry_Int_Tables_number   1
_chemical_formula_structural   Sr3Li4S4O
_chemical_formula_sum   'Sr48 Li64 S64 O16'
_cell_volume   5294.92438171
_cell_formula_units_Z   16
loop_
 _symmetry_equiv_pos_site_id
 _symmetry_equiv_pos_as_xyz
  1  'x, y, z'
loop_
 _atom_site_type_symbol
 _atom_site_label
 _atom_site_symmetry_multiplicity
 _atom_site_fract_x
 _atom_site_fract_y
 _atom_site_fract_z
 _atom_site_occupancy
  Li  Li0  1  0.21001520  0.49049606  0.40896159  1
  Li  Li1  1  0.78998480  0.50950394  0.40896159  1
  Li  Li2  1  0.28998480  0.99049606  0.59103841  1
  Li  Li3  1  0.71001520  0.00950394  0.59103841  1
  Li  Li4  1  0.78998480  0.50950394  0.59103841  1
  Li  Li5  1  0.21001520  0.49049606  0.59103841  1
  Li  Li6  1  0.71001520  0.00950394  0.40896159  1
  Li  Li7  1  0.28998480  0.99049606  0.40896159  1
  Li  Li8  1  0.93087478  0.52472344  0.19863281  1
  Li  Li9  1  0.06912522  0.47527656  0.19863281  1
  Li  Li10  1  0.56912522  0.02472344  0.80136719  1
  Li  Li11  1  0.43087478  0.97527656  0.80136719  1
  Li  Li12  1  0.06912522  0.47527656  0.80136719  1
  Li  Li13  1  0.93087478  0.52472344  0.80136719  1
  Li  Li14  1  0.43087478  0.97527656  0.19863281  1
  Li  Li15  1  0.56912522  0.02472344  0.19863281  1
  Li  Li16  1  0.19804484  0.41284916  0.70249429  1
  Li  Li17  1  0.80195516  0.58715084  0.70249429  1
  Li  Li18  1  0.30195516  0.91284916  0.29750571  1
  Li  Li19  1  0.69804484  0.08715084  0.29750571  1
  Li  Li20  1  0.80195516  0.58715084  0.29750571  1
  Li  Li21  1  0.19804484  0.41284916  0.29750571  1
  Li  Li22  1  0.69804484  0.08715084  0.70249429  1
  Li  Li23  1  0.30195516  0.91284916  0.70249429  1
  Li  Li24  1  0.34461197  0.82591120  0.44801880  1
  Li  Li25  1  0.65538803  0.17408880  0.44801880  1
  Li  Li26  1  0.15538803  0.32591120  0.55198120  1
  Li  Li27  1  0.84461197  0.67408880  0.55198120  1
  Li  Li28  1  0.65538803  0.17408880  0.55198120  1
  Li  Li29  1  0.34461197  0.82591120  0.55198120  1
  Li  Li30  1  0.84461197  0.67408880  0.44801880  1
  Li  Li31  1  0.15538803  0.32591120  0.44801880  1
  Li  Li32  1  0.57349530  0.75308767  0.50000000  1
  Li  Li33  1  0.42650470  0.24691233  0.50000000  1
  Li  Li34  1  0.92650470  0.25308767  0.50000000  1
  Li  Li35  1  0.07349530  0.74691233  0.50000000  1
  Li  Li36  1  0.71130883  0.40482488  0.26737539  1
  Li  Li37  1  0.28869117  0.59517512  0.26737539  1
  Li  Li38  1  0.78869117  0.90482488  0.73262461  1
  Li  Li39  1  0.21130883  0.09517512  0.73262461  1
  Li  Li40  1  0.28869117  0.59517512  0.73262461  1
  Li  Li41  1  0.71130883  0.40482488  0.73262461  1
  Li  Li42  1  0.21130883  0.09517512  0.26737539  1
  Li  Li43  1  0.78869117  0.90482488  0.26737539  1
  Li  Li44  1  0.57790076  0.15296382  0.13641864  1
  Li  Li45  1  0.42209924  0.84703618  0.13641864  1
  Li  Li46  1  0.92209924  0.65296382  0.86358136  1
  Li  Li47  1  0.07790076  0.34703618  0.86358136  1
  Li  Li48  1  0.42209924  0.84703618  0.86358136  1
  Li  Li49  1  0.57790076  0.15296382  0.86358136  1
  Li  Li50  1  0.07790076  0.34703618  0.13641864  1
  Li  Li51  1  0.92209924  0.65296382  0.13641864  1
  Li  Li52  1  0.57126651  0.60705716  0.00000000  1
  Li  Li53  1  0.42873349  0.39294284  0.00000000  1
  Li  Li54  1  0.92873349  0.10705716  0.00000000  1
  Li  Li55  1  0.07126651  0.89294284  -0.00000000  1
  Li  Li56  1  0.33489929  0.46086695  0.50000000  1
  Li  Li57  1  0.66510071  0.53913305  0.50000000  1
  Li  Li58  1  0.16510071  0.96086695  0.50000000  1
  Li  Li59  1  0.83489929  0.03913305  0.50000000  1
  Li  Li60  1  0.00000000  0.50000000  0.40690864  1
  Li  Li61  1  0.50000000  0.00000000  0.59309136  1
  Li  Li62  1  0.00000000  0.50000000  0.59309136  1
  Li  Li63  1  0.50000000  0.00000000  0.40690864  1
  O  O64  1  0.45365662  0.30945156  0.20305449  1
  O  O65  1  0.54634338  0.69054844  0.20305449  1
  O  O66  1  0.04634338  0.80945156  0.79694551  1
  O  O67  1  0.95365662  0.19054844  0.79694551  1
  O  O68  1  0.54634338  0.69054844  0.79694551  1
  O  O69  1  0.45365662  0.30945156  0.79694551  1
  O  O70  1  0.95365662  0.19054844  0.20305449  1
  O  O71  1  0.04634338  0.80945156  0.20305449  1
  O  O72  1  0.09500925  0.25375045  0.83278104  1
  O  O73  1  0.90499075  0.74624955  0.83278104  1
  O  O74  1  0.40499075  0.75375045  0.16721896  1
  O  O75  1  0.59500925  0.24624955  0.16721896  1
  O  O76  1  0.90499075  0.74624955  0.16721896  1
  O  O77  1  0.09500925  0.25375045  0.16721896  1
  O  O78  1  0.59500925  0.24624955  0.83278104  1
  O  O79  1  0.40499075  0.75375045  0.83278104  1
  S  S80  1  0.00000000  0.50000000  -0.00000000  1
  S  S81  1  0.50000000  0.00000000  0.00000000  1
  S  S82  1  0.22412168  0.22782348  0.20341446  1
  S  S83  1  -0.22412168  -0.22782348  0.20341446  1
  S  S84  1  0.27587832  0.72782348  -0.20341446  1
  S  S85  1  0.72412168  0.27217652  -0.20341446  1
  S  S86  1  -0.22412168  -0.22782348  -0.20341446  1
  S  S87  1  0.22412168  0.22782348  -0.20341446  1
  S  S88  1  0.72412168  0.27217652  0.20341446  1
  S  S89  1  0.27587832  0.72782348  0.20341446  1
  S  S90  1  0.71205863  0.30566730  0.61042745  1
  S  S91  1  0.28794137  0.69433270  0.61042745  1
  S  S92  1  0.78794137  0.80566730  0.38957255  1
  S  S93  1  0.21205863  0.19433270  0.38957255  1
  S  S94  1  0.28794137  0.69433270  0.38957255  1
  S  S95  1  0.71205863  0.30566730  0.38957255  1
  S  S96  1  0.21205863  0.19433270  0.61042745  1
  S  S97  1  0.78794137  0.80566730  0.61042745  1
  S  S98  1  0.00739034  0.74434664  0.95232925  1
  S  S99  1  0.99260966  0.25565336  0.95232925  1
  S  S100  1  0.49260966  0.24434664  0.04767075  1
  S  S101  1  0.50739034  0.75565336  0.04767075  1
  S  S102  1  0.99260966  0.25565336  0.04767075  1
  S  S103  1  0.00739034  0.74434664  0.04767075  1
  S  S104  1  0.50739034  0.75565336  0.95232925  1
  S  S105  1  0.49260966  0.24434664  0.95232925  1
  S  S106  1  0.00000000  0.50000000  0.72546881  1
  S  S107  1  0.50000000  0.00000000  0.27453119  1
  S  S108  1  0.00000000  0.50000000  0.27453119  1
  S  S109  1  0.50000000  0.00000000  0.72546881  1
  S  S110  1  0.31195150  0.87430562  0.50000000  1
  S  S111  1  0.68804850  0.12569438  0.50000000  1
  S  S112  1  0.18804850  0.37430562  0.50000000  1
  S  S113  1  0.81195150  0.62569438  0.50000000  1
  S  S114  1  0.00000000  0.00000000  0.67046861  1
  S  S115  1  0.50000000  0.50000000  0.32953139  1
  S  S116  1  0.00000000  0.00000000  0.32953139  1
  S  S117  1  0.50000000  0.50000000  0.67046861  1
  S  S118  1  0.00000000  0.00000000  0.00000000  1
  S  S119  1  0.50000000  0.50000000  0.00000000  1
  S  S120  1  0.08379086  0.06602688  0.84088143  1
  S  S121  1  0.91620914  0.93397312  0.84088143  1
  S  S122  1  0.41620914  0.56602688  0.15911857  1
  S  S123  1  0.58379086  0.43397312  0.15911857  1
  S  S124  1  0.91620914  0.93397312  0.15911857  1
  S  S125  1  0.08379086  0.06602688  0.15911857  1
  S  S126  1  0.58379086  0.43397312  0.84088143  1
  S  S127  1  0.41620914  0.56602688  0.84088143  1
  S  S128  1  0.03907173  0.60517438  0.62059299  1
  S  S129  1  0.96092827  0.39482562  0.62059299  1
  S  S130  1  0.46092827  0.10517438  0.37940701  1
  S  S131  1  0.53907173  0.89482562  0.37940701  1
  S  S132  1  0.96092827  0.39482562  0.37940701  1
  S  S133  1  0.03907173  0.60517438  0.37940701  1
  S  S134  1  0.53907173  0.89482562  0.62059299  1
  S  S135  1  0.46092827  0.10517438  0.62059299  1
  S  S136  1  0.00000000  0.50000000  0.50000000  1
  S  S137  1  0.50000000  0.00000000  0.50000000  1
  S  S138  1  0.05877734  0.34560813  0.00000000  1
  S  S139  1  0.94122266  0.65439187  0.00000000  1
  S  S140  1  0.44122266  0.84560813  -0.00000000  1
  S  S141  1  0.55877734  0.15439187  0.00000000  1
  S  S142  1  0.00000000  0.00000000  0.50000000  1
  S  S143  1  0.50000000  0.50000000  0.50000000  1
  Sr  Sr144  1  0.28998120  0.29256791  0.68286376  1
  Sr  Sr145  1  0.71001880  0.70743209  0.68286376  1
  Sr  Sr146  1  0.21001880  0.79256791  0.31713624  1
  Sr  Sr147  1  0.78998120  0.20743209  0.31713624  1
  Sr  Sr148  1  0.71001880  0.70743209  0.31713624  1
  Sr  Sr149  1  0.28998120  0.29256791  0.31713624  1
  Sr  Sr150  1  0.78998120  0.20743209  0.68286376  1
  Sr  Sr151  1  0.21001880  0.79256791  0.68286376  1
  Sr  Sr152  1  0.56587366  0.36088445  0.92852719  1
  Sr  Sr153  1  0.43412634  0.63911555  0.92852719  1
  Sr  Sr154  1  0.93412634  0.86088445  0.07147281  1
  Sr  Sr155  1  0.06587366  0.13911555  0.07147281  1
  Sr  Sr156  1  0.43412634  0.63911555  0.07147281  1
  Sr  Sr157  1  0.56587366  0.36088445  0.07147281  1
  Sr  Sr158  1  0.06587366  0.13911555  0.92852719  1
  Sr  Sr159  1  0.93412634  0.86088445  0.92852719  1
  Sr  Sr160  1  0.52934953  0.36023424  0.67951621  1
  Sr  Sr161  1  0.47065047  0.63976576  0.67951621  1
  Sr  Sr162  1  0.97065047  0.86023424  0.32048379  1
  Sr  Sr163  1  0.02934953  0.13976576  0.32048379  1
  Sr  Sr164  1  0.47065047  0.63976576  0.32048379  1
  Sr  Sr165  1  0.52934953  0.36023424  0.32048379  1
  Sr  Sr166  1  0.02934953  0.13976576  0.67951621  1
  Sr  Sr167  1  0.97065047  0.86023424  0.67951621  1
  Sr  Sr168  1  0.01575528  0.29578221  0.28367054  1
  Sr  Sr169  1  0.98424472  0.70421779  0.28367054  1
  Sr  Sr170  1  0.48424472  0.79578221  0.71632946  1
  Sr  Sr171  1  0.51575528  0.20421779  0.71632946  1
  Sr  Sr172  1  0.98424472  0.70421779  0.71632946  1
  Sr  Sr173  1  0.01575528  0.29578221  0.71632946  1
  Sr  Sr174  1  0.51575528  0.20421779  0.28367054  1
  Sr  Sr175  1  0.48424472  0.79578221  0.28367054  1
  Sr  Sr176  1  0.12584726  0.96177175  0.60994679  1
  Sr  Sr177  1  0.87415274  0.03822825  0.60994679  1
  Sr  Sr178  1  0.37415274  0.46177175  0.39005321  1
  Sr  Sr179  1  0.62584726  0.53822825  0.39005321  1
  Sr  Sr180  1  0.87415274  0.03822825  0.39005321  1
  Sr  Sr181  1  0.12584726  0.96177175  0.39005321  1
  Sr  Sr182  1  0.62584726  0.53822825  0.60994679  1
  Sr  Sr183  1  0.37415274  0.46177175  0.60994679  1
  Sr  Sr184  1  0.77460717  0.70829757  -0.00000000  1
  Sr  Sr185  1  0.22539283  0.29170243  0.00000000  1
  Sr  Sr186  1  0.72539283  0.20829757  0.00000000  1
  Sr  Sr187  1  0.27460717  0.79170243  -0.00000000  1
  Sr  Sr188  1  0.00000000  0.00000000  0.17766653  1
  Sr  Sr189  1  0.50000000  0.50000000  0.82233347  1
  Sr  Sr190  1  0.00000000  0.00000000  0.82233347  1
  Sr  Sr191  1  0.50000000  0.50000000  0.17766653  1
