# generated using pymatgen
data_Li2Ti3MoP3Se2
_symmetry_space_group_name_H-M   'P 1'
_cell_length_a   6.40038411
_cell_length_b   6.76924334
_cell_length_c   7.36754933
_cell_angle_alpha   97.89344488
_cell_angle_beta   96.46280269
_cell_angle_gamma   92.49416770
_symmetry_Int_Tables_number   1
_chemical_formula_structural   Li2Ti3MoP3Se2
_chemical_formula_sum   'Li2 Ti3 Mo1 P3 Se2'
_cell_volume   313.60645417
_cell_formula_units_Z   1
loop_
 _symmetry_equiv_pos_site_id
 _symmetry_equiv_pos_as_xyz
  1  'x, y, z'
loop_
 _atom_site_type_symbol
 _atom_site_label
 _atom_site_symmetry_multiplicity
 _atom_site_fract_x
 _atom_site_fract_y
 _atom_site_fract_z
 _atom_site_occupancy
  Se  Se0  1  0.12500000  0.00000000  0.25000000  1
  Se  Se1  1  0.00000000  0.00000000  0.00000000  1
  P  P2  1  0.37500000  0.00000000  0.25000000  1
  P  P3  1  0.25000000  0.25000000  0.25000000  1
  P  P4  1  0.00000000  0.25000000  0.12500000  1
  Mo  Mo5  1  0.99491546  0.99337950  0.72955330  1
  Ti  Ti6  1  0.72575807  0.41548539  0.57144337  1
  Ti  Ti7  1  0.61060087  0.20729457  0.33411661  1
  Ti  Ti8  1  0.21110006  0.94813161  0.50702786  1
  Li  Li9  1  0.97134298  0.27939044  0.57253855  1
  Li  Li10  1  0.42294303  0.33285754  0.87908833  1
