# generated using pymatgen
data_LiF
_symmetry_space_group_name_H-M   'P 1'
_cell_length_a   6.18986017
_cell_length_b   6.18986017
_cell_length_c   10.20406256
_cell_angle_alpha   90.00000000
_cell_angle_beta   90.00000000
_cell_angle_gamma   120.00000000
_symmetry_Int_Tables_number   1
_chemical_formula_structural   LiF
_chemical_formula_sum   'Li24 F24'
_cell_volume   338.58321217
_cell_formula_units_Z   24
loop_
 _symmetry_equiv_pos_site_id
 _symmetry_equiv_pos_as_xyz
  1  'x, y, z'
loop_
 _atom_site_type_symbol
 _atom_site_label
 _atom_site_symmetry_multiplicity
 _atom_site_fract_x
 _atom_site_fract_y
 _atom_site_fract_z
 _atom_site_occupancy
  F  F0  1  0.19561984  0.43437013  0.53713241  1
  F  F1  1  0.56562987  0.76124971  0.53713241  1
  F  F2  1  0.23875029  0.80438016  0.53713241  1
  F  F3  1  0.80438016  0.56562987  0.03713241  1
  F  F4  1  0.43437013  0.23875029  0.03713241  1
  F  F5  1  0.76124971  0.19561984  0.03713241  1
  F  F6  1  0.80438016  0.56562987  0.46286759  1
  F  F7  1  0.43437013  0.23875029  0.46286759  1
  F  F8  1  0.76124971  0.19561984  0.46286759  1
  F  F9  1  0.19561984  0.43437013  0.96286759  1
  F  F10  1  0.56562987  0.76124971  0.96286759  1
  F  F11  1  0.23875029  0.80438016  0.96286759  1
  F  F12  1  0.80391132  0.82161088  0.82652151  1
  F  F13  1  0.17838912  0.98230045  0.82652151  1
  F  F14  1  0.01769955  0.19608868  0.82652151  1
  F  F15  1  0.19608868  0.17838912  0.32652151  1
  F  F16  1  0.82161088  0.01769955  0.32652151  1
  F  F17  1  0.98230045  0.80391132  0.32652151  1
  F  F18  1  0.19608868  0.17838912  0.17347849  1
  F  F19  1  0.82161088  0.01769955  0.17347849  1
  F  F20  1  0.98230045  0.80391132  0.17347849  1
  F  F21  1  0.80391132  0.82161088  0.67347849  1
  F  F22  1  0.17838912  0.98230045  0.67347849  1
  F  F23  1  0.01769955  0.19608868  0.67347849  1
  Li  Li24  1  0.33333333  0.66666667  0.25000000  1
  Li  Li25  1  0.66666667  0.33333333  0.75000000  1
  Li  Li26  1  0.33333333  0.66666667  0.91726938  1
  Li  Li27  1  0.66666667  0.33333333  0.41726938  1
  Li  Li28  1  0.66666667  0.33333333  0.08273062  1
  Li  Li29  1  0.33333333  0.66666667  0.58273062  1
  Li  Li30  1  0.07607117  0.41511894  0.84396904  1
  Li  Li31  1  -0.41511894  -0.33904777  0.84396904  1
  Li  Li32  1  0.33904777  -0.07607117  0.84396904  1
  Li  Li33  1  -0.07607117  -0.41511894  1.34396904  1
  Li  Li34  1  0.41511894  0.33904777  1.34396904  1
  Li  Li35  1  -0.33904777  0.07607117  1.34396904  1
  Li  Li36  1  -0.07607117  -0.41511894  -0.84396904  1
  Li  Li37  1  0.41511894  0.33904777  -0.84396904  1
  Li  Li38  1  -0.33904777  0.07607117  -0.84396904  1
  Li  Li39  1  0.07607117  0.41511894  -0.34396904  1
  Li  Li40  1  -0.41511894  -0.33904777  -0.34396904  1
  Li  Li41  1  0.33904777  -0.07607117  -0.34396904  1
  Li  Li42  1  0.50000000  0.00000000  0.00000000  1
  Li  Li43  1  0.00000000  0.50000000  0.00000000  1
  Li  Li44  1  0.50000000  0.50000000  0.00000000  1
  Li  Li45  1  0.50000000  0.00000000  0.50000000  1
  Li  Li46  1  0.00000000  0.50000000  0.50000000  1
  Li  Li47  1  0.50000000  0.50000000  0.50000000  1
