# generated using pymatgen
data_LiF
_symmetry_space_group_name_H-M   'P 1'
_cell_length_a   16.73718249
_cell_length_b   16.73718249
_cell_length_c   3.48022537
_cell_angle_alpha   90.00000000
_cell_angle_beta   90.00000000
_cell_angle_gamma   120.00000000
_symmetry_Int_Tables_number   1
_chemical_formula_structural   LiF
_chemical_formula_sum   'Li26 F26'
_cell_volume   844.31149712
_cell_formula_units_Z   26
loop_
 _symmetry_equiv_pos_site_id
 _symmetry_equiv_pos_as_xyz
  1  'x, y, z'
loop_
 _atom_site_type_symbol
 _atom_site_label
 _atom_site_symmetry_multiplicity
 _atom_site_fract_x
 _atom_site_fract_y
 _atom_site_fract_z
 _atom_site_occupancy
  F  F0  1  0.60485369  0.00205850  0.25000000  1
  F  F1  1  0.99794150  0.60279519  0.25000000  1
  F  F2  1  0.39720481  0.39514631  0.25000000  1
  F  F3  1  0.39514631  0.99794150  0.75000000  1
  F  F4  1  0.00205850  0.39720481  0.75000000  1
  F  F5  1  0.60279519  0.60485369  0.75000000  1
  F  F6  1  0.00205850  0.60485369  0.75000000  1
  F  F7  1  0.60279519  0.99794150  0.75000000  1
  F  F8  1  0.39514631  0.39720481  0.75000000  1
  F  F9  1  0.99794150  0.39514631  0.25000000  1
  F  F10  1  0.39720481  0.00205850  0.25000000  1
  F  F11  1  0.60485369  0.60279519  0.25000000  1
  F  F12  1  0.48186872  0.96373744  0.25000000  1
  F  F13  1  0.03626256  0.51813128  0.25000000  1
  F  F14  1  0.48186872  0.51813128  0.25000000  1
  F  F15  1  0.51813128  0.03626256  0.75000000  1
  F  F16  1  0.96373744  0.48186872  0.75000000  1
  F  F17  1  0.51813128  0.48186872  0.75000000  1
  F  F18  1  0.50000000  0.00000000  0.00000000  1
  F  F19  1  0.00000000  0.50000000  0.00000000  1
  F  F20  1  0.50000000  0.50000000  0.00000000  1
  F  F21  1  0.50000000  0.00000000  0.50000000  1
  F  F22  1  0.00000000  0.50000000  0.50000000  1
  F  F23  1  0.50000000  0.50000000  0.50000000  1
  F  F24  1  0.33333333  0.66666667  0.75000000  1
  F  F25  1  0.66666667  0.33333333  0.25000000  1
  Li  Li26  1  0.00000000  0.00000000  0.00000000  1
  Li  Li27  1  0.00000000  0.00000000  0.50000000  1
  Li  Li28  1  0.25343125  0.33118859  0.25000000  1
  Li  Li29  1  -0.33118859  -0.07775734  0.25000000  1
  Li  Li30  1  0.07775734  -0.25343125  0.25000000  1
  Li  Li31  1  -0.25343125  -0.33118859  0.75000000  1
  Li  Li32  1  0.33118859  0.07775734  0.75000000  1
  Li  Li33  1  -0.07775734  0.25343125  0.75000000  1
  Li  Li34  1  0.33118859  0.25343125  0.75000000  1
  Li  Li35  1  -0.07775734  -0.33118859  0.75000000  1
  Li  Li36  1  -0.25343125  0.07775734  0.75000000  1
  Li  Li37  1  -0.33118859  -0.25343125  0.25000000  1
  Li  Li38  1  0.07775734  0.33118859  0.25000000  1
  Li  Li39  1  0.25343125  -0.07775734  0.25000000  1
  Li  Li40  1  0.35687986  0.22591023  0.25000000  1
  Li  Li41  1  0.77408977  0.13096963  0.25000000  1
  Li  Li42  1  0.86903037  0.64312014  0.25000000  1
  Li  Li43  1  0.64312014  0.77408977  0.75000000  1
  Li  Li44  1  0.22591023  0.86903037  0.75000000  1
  Li  Li45  1  0.13096963  0.35687986  0.75000000  1
  Li  Li46  1  0.22591023  0.35687986  0.75000000  1
  Li  Li47  1  0.13096963  0.77408977  0.75000000  1
  Li  Li48  1  0.64312014  0.86903037  0.75000000  1
  Li  Li49  1  0.77408977  0.64312014  0.25000000  1
  Li  Li50  1  0.86903037  0.22591023  0.25000000  1
  Li  Li51  1  0.35687986  0.13096963  0.25000000  1
