# generated using pymatgen
data_Li3Sb4P2O
_symmetry_space_group_name_H-M   'P 1'
_cell_length_a   8.15089602
_cell_length_b   8.44650697
_cell_length_c   7.39056885
_cell_angle_alpha   90.00000000
_cell_angle_beta   90.00000000
_cell_angle_gamma   90.00000000
_symmetry_Int_Tables_number   1
_chemical_formula_structural   Li3Sb4P2O
_chemical_formula_sum   'Li3 Sb4 P2 O1'
_cell_volume   508.81553765
_cell_formula_units_Z   1
loop_
 _symmetry_equiv_pos_site_id
 _symmetry_equiv_pos_as_xyz
  1  'x, y, z'
loop_
 _atom_site_type_symbol
 _atom_site_label
 _atom_site_symmetry_multiplicity
 _atom_site_fract_x
 _atom_site_fract_y
 _atom_site_fract_z
 _atom_site_occupancy
  P  P0  1  0.12500000  0.12500000  0.12500000  1
  P  P1  1  0.50000000  0.50000000  0.50000000  1
  O  O2  1  0.25000000  0.25000000  0.25000000  1
  Li  Li3  1  0.75000000  0.75000000  0.75000000  1
  Li  Li4  1  0.80182539  0.08513995  0.61228622  1
  Li  Li5  1  0.83859610  0.93268477  0.33786786  1
  Sb  Sb6  1  0.31587515  0.68658865  0.29565733  1
  Sb  Sb7  1  0.24697448  0.97813186  0.56690354  1
  Sb  Sb8  1  0.05399277  0.52444136  0.37095287  1
  Sb  Sb9  1  0.77228644  0.63096707  0.26193092  1
