# generated using pymatgen
data_LiF
_symmetry_space_group_name_H-M   'P 1'
_cell_length_a   4.59444863
_cell_length_b   5.50883032
_cell_length_c   4.14624654
_cell_angle_alpha   90.00000000
_cell_angle_beta   90.00000000
_cell_angle_gamma   90.00000000
_symmetry_Int_Tables_number   1
_chemical_formula_structural   LiF
_chemical_formula_sum   'Li4 F4'
_cell_volume   104.94165707
_cell_formula_units_Z   4
loop_
 _symmetry_equiv_pos_site_id
 _symmetry_equiv_pos_as_xyz
  1  'x, y, z'
loop_
 _atom_site_type_symbol
 _atom_site_label
 _atom_site_symmetry_multiplicity
 _atom_site_fract_x
 _atom_site_fract_y
 _atom_site_fract_z
 _atom_site_occupancy
  F  F0  1  0.91616045  0.91976828  -0.00000000  1
  F  F1  1  -0.91616045  -0.91976828  0.00000000  1
  F  F2  1  -0.41616045  1.41976828  0.00000000  1
  F  F3  1  1.41616045  -0.41976828  -0.00000000  1
  Li  Li4  1  0.10153763  0.77647642  0.50000000  1
  Li  Li5  1  0.89846237  0.22352358  0.50000000  1
  Li  Li6  1  0.39846237  0.27647642  0.50000000  1
  Li  Li7  1  0.60153763  0.72352358  0.50000000  1
