# generated using pymatgen
data_Li4SnF8
_symmetry_space_group_name_H-M   'P 1'
_cell_length_a   8.09211935
_cell_length_b   8.09211935
_cell_length_c   17.29156713
_cell_angle_alpha   90.00000000
_cell_angle_beta   90.00000000
_cell_angle_gamma   120.00000000
_symmetry_Int_Tables_number   1
_chemical_formula_structural   Li4SnF8
_chemical_formula_sum   'Li24 Sn6 F48'
_cell_volume   980.59470811
_cell_formula_units_Z   6
loop_
 _symmetry_equiv_pos_site_id
 _symmetry_equiv_pos_as_xyz
  1  'x, y, z'
loop_
 _atom_site_type_symbol
 _atom_site_label
 _atom_site_symmetry_multiplicity
 _atom_site_fract_x
 _atom_site_fract_y
 _atom_site_fract_z
 _atom_site_occupancy
  F  F0  1  0.59523996  0.00000000  0.50000000  1
  F  F1  1  0.00000000  0.59523996  0.50000000  1
  F  F2  1  -0.59523996  -0.59523996  0.50000000  1
  F  F3  1  -0.59523996  -0.00000000  0.50000000  1
  F  F4  1  0.00000000  -0.59523996  0.50000000  1
  F  F5  1  0.59523996  0.59523996  0.50000000  1
  F  F6  1  1.26190663  0.33333333  0.83333333  1
  F  F7  1  0.66666667  0.92857330  0.83333333  1
  F  F8  1  0.07142670  -0.26190663  0.83333333  1
  F  F9  1  0.07142670  0.33333333  0.83333333  1
  F  F10  1  0.66666667  -0.26190663  0.83333333  1
  F  F11  1  1.26190663  0.92857330  0.83333333  1
  F  F12  1  0.92857330  0.66666667  1.16666667  1
  F  F13  1  0.33333333  1.26190663  1.16666667  1
  F  F14  1  -0.26190663  0.07142670  1.16666667  1
  F  F15  1  -0.26190663  0.66666667  1.16666667  1
  F  F16  1  0.33333333  0.07142670  1.16666667  1
  F  F17  1  0.92857330  1.26190663  1.16666667  1
  F  F18  1  0.91452861  0.00000000  -0.00000000  1
  F  F19  1  0.00000000  0.91452861  0.00000000  1
  F  F20  1  0.08547139  0.08547139  -0.00000000  1
  F  F21  1  0.08547139  0.00000000  -0.00000000  1
  F  F22  1  0.00000000  0.08547139  0.00000000  1
  F  F23  1  0.91452861  0.91452861  0.00000000  1
  F  F24  1  0.58119528  0.33333333  0.33333333  1
  F  F25  1  0.66666667  0.24786195  0.33333333  1
  F  F26  1  0.75213805  0.41880472  0.33333333  1
  F  F27  1  0.75213805  0.33333333  0.33333333  1
  F  F28  1  0.66666667  0.41880472  0.33333333  1
  F  F29  1  0.58119528  0.24786195  0.33333333  1
  F  F30  1  0.24786195  0.66666667  0.66666667  1
  F  F31  1  0.33333333  0.58119528  0.66666667  1
  F  F32  1  0.41880472  0.75213805  0.66666667  1
  F  F33  1  0.41880472  0.66666667  0.66666667  1
  F  F34  1  0.33333333  0.75213805  0.66666667  1
  F  F35  1  0.24786195  0.58119528  0.66666667  1
  F  F36  1  0.50000000  0.00000000  -0.00000000  1
  F  F37  1  0.00000000  0.50000000  0.00000000  1
  F  F38  1  0.50000000  0.50000000  0.00000000  1
  F  F39  1  0.16666667  0.33333333  0.33333333  1
  F  F40  1  0.66666667  0.83333333  0.33333333  1
  F  F41  1  0.16666667  0.83333333  0.33333333  1
  F  F42  1  0.83333333  0.66666667  0.66666667  1
  F  F43  1  0.33333333  0.16666667  0.66666667  1
  F  F44  1  0.83333333  0.16666667  0.66666667  1
  F  F45  1  0.00000000  0.00000000  0.50000000  1
  F  F46  1  0.66666667  0.33333333  0.83333333  1
  F  F47  1  0.33333333  0.66666667  0.16666667  1
  Li  Li48  1  0.00000000  0.00000000  0.29440677  1
  Li  Li49  1  0.00000000  0.00000000  0.70559323  1
  Li  Li50  1  0.66666667  0.33333333  0.62774010  1
  Li  Li51  1  0.66666667  0.33333333  0.03892656  1
  Li  Li52  1  0.33333333  0.66666667  0.96107344  1
  Li  Li53  1  0.33333333  0.66666667  0.37225990  1
  Li  Li54  1  0.17775075  0.00000000  0.50000000  1
  Li  Li55  1  0.00000000  0.17775075  0.50000000  1
  Li  Li56  1  0.82224925  0.82224925  0.50000000  1
  Li  Li57  1  0.82224925  0.00000000  0.50000000  1
  Li  Li58  1  0.00000000  0.82224925  0.50000000  1
  Li  Li59  1  0.17775075  0.17775075  0.50000000  1
  Li  Li60  1  0.84441741  0.33333333  0.83333333  1
  Li  Li61  1  0.66666667  0.51108408  0.83333333  1
  Li  Li62  1  0.48891592  0.15558259  0.83333333  1
  Li  Li63  1  0.48891592  0.33333333  0.83333333  1
  Li  Li64  1  0.66666667  0.15558259  0.83333333  1
  Li  Li65  1  0.84441741  0.51108408  0.83333333  1
  Li  Li66  1  0.51108408  0.66666667  0.16666667  1
  Li  Li67  1  0.33333333  0.84441741  0.16666667  1
  Li  Li68  1  0.15558259  0.48891592  0.16666667  1
  Li  Li69  1  0.15558259  0.66666667  0.16666667  1
  Li  Li70  1  0.33333333  0.48891592  0.16666667  1
  Li  Li71  1  0.51108408  0.84441741  0.16666667  1
  Sn  Sn72  1  0.00000000  0.00000000  0.20489578  1
  Sn  Sn73  1  0.00000000  0.00000000  0.79510422  1
  Sn  Sn74  1  0.66666667  0.33333333  0.53822911  1
  Sn  Sn75  1  0.66666667  0.33333333  0.12843755  1
  Sn  Sn76  1  0.33333333  0.66666667  0.87156245  1
  Sn  Sn77  1  0.33333333  0.66666667  0.46177089  1
