# generated using pymatgen
data_LiF
_symmetry_space_group_name_H-M   'P 1'
_cell_length_a   18.67773517
_cell_length_b   18.67773517
_cell_length_c   10.60743051
_cell_angle_alpha   90.00000000
_cell_angle_beta   90.00000000
_cell_angle_gamma   120.00000000
_symmetry_Int_Tables_number   1
_chemical_formula_structural   LiF
_chemical_formula_sum   'Li108 F108'
_cell_volume   3204.71382296
_cell_formula_units_Z   108
loop_
 _symmetry_equiv_pos_site_id
 _symmetry_equiv_pos_as_xyz
  1  'x, y, z'
loop_
 _atom_site_type_symbol
 _atom_site_label
 _atom_site_symmetry_multiplicity
 _atom_site_fract_x
 _atom_site_fract_y
 _atom_site_fract_z
 _atom_site_occupancy
  F  F0  1  0.70980117  0.11810248  0.40430827  1
  F  F1  1  0.88189752  0.59169869  0.40430827  1
  F  F2  1  0.40830131  0.29019883  0.40430827  1
  F  F3  1  0.11810248  0.70980117  0.09569173  1
  F  F4  1  0.59169869  0.88189752  0.09569173  1
  F  F5  1  0.29019883  0.40830131  0.09569173  1
  F  F6  1  0.29019883  0.88189752  0.59569173  1
  F  F7  1  0.11810248  0.40830131  0.59569173  1
  F  F8  1  0.59169869  0.70980117  0.59569173  1
  F  F9  1  0.88189752  0.29019883  0.90430827  1
  F  F10  1  0.40830131  0.11810248  0.90430827  1
  F  F11  1  0.70980117  0.59169869  0.90430827  1
  F  F12  1  0.37646784  0.45143581  0.73764160  1
  F  F13  1  0.54856419  0.92503202  0.73764160  1
  F  F14  1  0.07496798  0.62353216  0.73764160  1
  F  F15  1  0.78476915  0.04313450  0.42902507  1
  F  F16  1  0.25836536  0.21523085  0.42902507  1
  F  F17  1  0.95686550  0.74163464  0.42902507  1
  F  F18  1  0.95686550  0.21523085  0.92902507  1
  F  F19  1  0.78476915  0.74163464  0.92902507  1
  F  F20  1  0.25836536  0.04313450  0.92902507  1
  F  F21  1  0.54856419  0.62353216  0.23764160  1
  F  F22  1  0.07496798  0.45143581  0.23764160  1
  F  F23  1  0.37646784  0.92503202  0.23764160  1
  F  F24  1  0.04313450  0.78476915  0.07097493  1
  F  F25  1  0.21523085  0.25836536  0.07097493  1
  F  F26  1  0.74163464  0.95686550  0.07097493  1
  F  F27  1  0.45143581  0.37646784  0.76235840  1
  F  F28  1  0.92503202  0.54856419  0.76235840  1
  F  F29  1  0.62353216  0.07496798  0.76235840  1
  F  F30  1  0.62353216  0.54856419  0.26235840  1
  F  F31  1  0.45143581  0.07496798  0.26235840  1
  F  F32  1  0.92503202  0.37646784  0.26235840  1
  F  F33  1  0.21523085  0.95686550  0.57097493  1
  F  F34  1  0.74163464  0.78476915  0.57097493  1
  F  F35  1  0.04313450  0.25836536  0.57097493  1
  F  F36  1  0.98814865  0.76245960  0.50366814  1
  F  F37  1  0.23754040  0.22568905  0.50366814  1
  F  F38  1  0.77431095  0.01185135  0.50366814  1
  F  F39  1  0.76245960  0.98814865  0.99633186  1
  F  F40  1  0.22568905  0.23754040  0.99633186  1
  F  F41  1  0.01185135  0.77431095  0.99633186  1
  F  F42  1  0.01185135  0.23754040  0.49633186  1
  F  F43  1  0.76245960  0.77431095  0.49633186  1
  F  F44  1  0.22568905  0.98814865  0.49633186  1
  F  F45  1  0.23754040  0.01185135  0.00366814  1
  F  F46  1  0.77431095  0.76245960  0.00366814  1
  F  F47  1  0.98814865  0.22568905  0.00366814  1
  F  F48  1  0.65481531  0.09579293  0.83700148  1
  F  F49  1  0.90420707  0.55902238  0.83700148  1
  F  F50  1  0.44097762  0.34518469  0.83700148  1
  F  F51  1  0.42912627  0.32148198  0.32966519  1
  F  F52  1  0.89235571  0.57087373  0.32966519  1
  F  F53  1  0.67851802  0.10764429  0.32966519  1
  F  F54  1  0.67851802  0.57087373  0.82966519  1
  F  F55  1  0.42912627  0.10764429  0.82966519  1
  F  F56  1  0.89235571  0.32148198  0.82966519  1
  F  F57  1  0.90420707  0.34518469  0.33700148  1
  F  F58  1  0.44097762  0.09579293  0.33700148  1
  F  F59  1  0.65481531  0.55902238  0.33700148  1
  F  F60  1  0.32148198  0.42912627  0.17033481  1
  F  F61  1  0.57087373  0.89235571  0.17033481  1
  F  F62  1  0.10764429  0.67851802  0.17033481  1
  F  F63  1  0.09579293  0.65481531  0.66299852  1
  F  F64  1  0.55902238  0.90420707  0.66299852  1
  F  F65  1  0.34518469  0.44097762  0.66299852  1
  F  F66  1  0.34518469  0.90420707  0.16299852  1
  F  F67  1  0.09579293  0.44097762  0.16299852  1
  F  F68  1  0.55902238  0.65481531  0.16299852  1
  F  F69  1  0.57087373  0.67851802  0.67033481  1
  F  F70  1  0.10764429  0.42912627  0.67033481  1
  F  F71  1  0.32148198  0.89235571  0.67033481  1
  F  F72  1  0.82862906  0.33163479  0.55494549  1
  F  F73  1  0.66836521  0.49699427  0.55494549  1
  F  F74  1  0.50300573  0.17137094  0.55494549  1
  F  F75  1  0.33163479  0.82862906  0.94505451  1
  F  F76  1  0.49699427  0.66836521  0.94505451  1
  F  F77  1  0.17137094  0.50300573  0.94505451  1
  F  F78  1  0.17137094  0.66836521  0.44505451  1
  F  F79  1  0.33163479  0.50300573  0.44505451  1
  F  F80  1  0.49699427  0.82862906  0.44505451  1
  F  F81  1  0.66836521  0.17137094  0.05494549  1
  F  F82  1  0.50300573  0.33163479  0.05494549  1
  F  F83  1  0.82862906  0.49699427  0.05494549  1
  F  F84  1  0.49529573  0.66496813  0.88827883  1
  F  F85  1  0.33503187  0.83032760  0.88827883  1
  F  F86  1  0.16967240  0.50470427  0.88827883  1
  F  F87  1  0.99830146  0.16196239  0.27838784  1
  F  F88  1  0.16366094  0.00169854  0.27838784  1
  F  F89  1  0.83803761  0.83633906  0.27838784  1
  F  F90  1  0.83803761  0.00169854  0.77838784  1
  F  F91  1  0.99830146  0.83633906  0.77838784  1
  F  F92  1  0.16366094  0.16196239  0.77838784  1
  F  F93  1  0.33503187  0.50470427  0.38827883  1
  F  F94  1  0.16967240  0.66496813  0.38827883  1
  F  F95  1  0.49529573  0.83032760  0.38827883  1
  F  F96  1  0.16196239  0.99830146  0.22161216  1
  F  F97  1  0.00169854  0.16366094  0.22161216  1
  F  F98  1  0.83633906  0.83803761  0.22161216  1
  F  F99  1  0.66496813  0.49529573  0.61172117  1
  F  F100  1  0.83032760  0.33503187  0.61172117  1
  F  F101  1  0.50470427  0.16967240  0.61172117  1
  F  F102  1  0.50470427  0.33503187  0.11172117  1
  F  F103  1  0.66496813  0.16967240  0.11172117  1
  F  F104  1  0.83032760  0.49529573  0.11172117  1
  F  F105  1  0.00169854  0.83803761  0.72161216  1
  F  F106  1  0.83633906  0.99830146  0.72161216  1
  F  F107  1  0.16196239  0.16366094  0.72161216  1
  Li  Li108  1  0.00000000  0.00000000  0.25000000  1
  Li  Li109  1  0.00000000  0.00000000  0.75000000  1
  Li  Li110  1  0.66666667  0.33333333  0.58333333  1
  Li  Li111  1  0.66666667  0.33333333  0.08333333  1
  Li  Li112  1  0.33333333  0.66666667  0.91666667  1
  Li  Li113  1  0.33333333  0.66666667  0.41666667  1
  Li  Li114  1  0.57972335  0.28761435  0.54590451  1
  Li  Li115  1  -0.28761435  0.29210900  0.54590451  1
  Li  Li116  1  -0.29210900  -0.57972335  0.54590451  1
  Li  Li117  1  0.28761435  0.57972335  -0.04590451  1
  Li  Li118  1  0.29210900  -0.28761435  -0.04590451  1
  Li  Li119  1  -0.57972335  -0.29210900  -0.04590451  1
  Li  Li120  1  -0.57972335  -0.28761435  -0.54590451  1
  Li  Li121  1  0.28761435  -0.29210900  -0.54590451  1
  Li  Li122  1  0.29210900  0.57972335  -0.54590451  1
  Li  Li123  1  -0.28761435  -0.57972335  1.04590451  1
  Li  Li124  1  -0.29210900  0.28761435  1.04590451  1
  Li  Li125  1  0.57972335  0.29210900  1.04590451  1
  Li  Li126  1  1.24639002  0.62094768  0.87923785  1
  Li  Li127  1  0.37905232  0.62544234  0.87923785  1
  Li  Li128  1  0.37455766  -0.24639002  0.87923785  1
  Li  Li129  1  0.95428101  0.91305668  0.28742882  1
  Li  Li130  1  0.95877567  0.04571899  0.28742882  1
  Li  Li131  1  0.08694332  0.04122433  0.28742882  1
  Li  Li132  1  0.08694332  0.04571899  -0.21257118  1
  Li  Li133  1  0.95428101  0.04122433  -0.21257118  1
  Li  Li134  1  0.95877567  0.91305668  -0.21257118  1
  Li  Li135  1  0.37905232  -0.24639002  1.37923785  1
  Li  Li136  1  0.37455766  0.62094768  1.37923785  1
  Li  Li137  1  1.24639002  0.62544234  1.37923785  1
  Li  Li138  1  0.91305668  0.95428101  1.21257118  1
  Li  Li139  1  0.04571899  0.95877567  1.21257118  1
  Li  Li140  1  0.04122433  0.08694332  1.21257118  1
  Li  Li141  1  0.62094768  1.24639002  0.62076215  1
  Li  Li142  1  0.62544234  0.37905232  0.62076215  1
  Li  Li143  1  -0.24639002  0.37455766  0.62076215  1
  Li  Li144  1  -0.24639002  0.37905232  0.12076215  1
  Li  Li145  1  0.62094768  0.37455766  0.12076215  1
  Li  Li146  1  0.62544234  1.24639002  0.12076215  1
  Li  Li147  1  0.04571899  0.08694332  1.71257118  1
  Li  Li148  1  0.04122433  0.95428101  1.71257118  1
  Li  Li149  1  0.91305668  0.95877567  1.71257118  1
  Li  Li150  1  0.89248663  0.51326026  0.00293960  1
  Li  Li151  1  0.48673974  0.37922637  0.00293960  1
  Li  Li152  1  0.62077363  0.10751337  0.00293960  1
  Li  Li153  1  0.51326026  0.89248663  0.49706040  1
  Li  Li154  1  0.37922637  0.48673974  0.49706040  1
  Li  Li155  1  0.10751337  0.62077363  0.49706040  1
  Li  Li156  1  0.10751337  0.48673974  0.99706040  1
  Li  Li157  1  0.51326026  0.62077363  0.99706040  1
  Li  Li158  1  0.37922637  0.89248663  0.99706040  1
  Li  Li159  1  0.48673974  0.10751337  0.50293960  1
  Li  Li160  1  0.62077363  0.51326026  0.50293960  1
  Li  Li161  1  0.89248663  0.37922637  0.50293960  1
  Li  Li162  1  0.55915329  0.84659359  0.33627293  1
  Li  Li163  1  0.15340641  0.71255970  0.33627293  1
  Li  Li164  1  0.28744030  0.44084671  0.33627293  1
  Li  Li165  1  0.17992692  0.22581996  0.83039374  1
  Li  Li166  1  0.04589303  0.82007308  0.83039374  1
  Li  Li167  1  0.77418004  0.95410697  0.83039374  1
  Li  Li168  1  0.77418004  0.82007308  0.33039374  1
  Li  Li169  1  0.17992692  0.95410697  0.33039374  1
  Li  Li170  1  0.04589303  0.22581996  0.33039374  1
  Li  Li171  1  0.15340641  0.44084671  0.83627293  1
  Li  Li172  1  0.28744030  0.84659359  0.83627293  1
  Li  Li173  1  0.55915329  0.71255970  0.83627293  1
  Li  Li174  1  0.22581996  0.17992692  0.66960626  1
  Li  Li175  1  0.82007308  0.04589303  0.66960626  1
  Li  Li176  1  0.95410697  0.77418004  0.66960626  1
  Li  Li177  1  0.84659359  0.55915329  0.16372707  1
  Li  Li178  1  0.71255970  0.15340641  0.16372707  1
  Li  Li179  1  0.44084671  0.28744030  0.16372707  1
  Li  Li180  1  0.44084671  0.15340641  0.66372707  1
  Li  Li181  1  0.84659359  0.28744030  0.66372707  1
  Li  Li182  1  0.71255970  0.55915329  0.66372707  1
  Li  Li183  1  0.82007308  0.77418004  0.16960626  1
  Li  Li184  1  0.95410697  0.17992692  0.16960626  1
  Li  Li185  1  0.22581996  0.04589303  0.16960626  1
  Li  Li186  1  0.50000000  0.00000000  0.00000000  1
  Li  Li187  1  0.00000000  0.50000000  0.00000000  1
  Li  Li188  1  0.50000000  0.50000000  0.00000000  1
  Li  Li189  1  0.00000000  0.50000000  0.50000000  1
  Li  Li190  1  0.50000000  0.00000000  0.50000000  1
  Li  Li191  1  0.50000000  0.50000000  0.50000000  1
  Li  Li192  1  0.16666667  0.33333333  0.33333333  1
  Li  Li193  1  0.66666667  0.83333333  0.33333333  1
  Li  Li194  1  0.16666667  0.83333333  0.33333333  1
  Li  Li195  1  0.66666667  0.83333333  0.83333333  1
  Li  Li196  1  0.16666667  0.33333333  0.83333333  1
  Li  Li197  1  0.16666667  0.83333333  0.83333333  1
  Li  Li198  1  0.83333333  0.66666667  0.66666667  1
  Li  Li199  1  0.33333333  0.16666667  0.66666667  1
  Li  Li200  1  0.83333333  0.16666667  0.66666667  1
  Li  Li201  1  0.33333333  0.16666667  0.16666667  1
  Li  Li202  1  0.83333333  0.66666667  0.16666667  1
  Li  Li203  1  0.83333333  0.16666667  0.16666667  1
  Li  Li204  1  0.00000000  0.00000000  0.57185987  1
  Li  Li205  1  0.00000000  0.00000000  0.92814013  1
  Li  Li206  1  0.00000000  0.00000000  0.42814013  1
  Li  Li207  1  0.00000000  0.00000000  0.07185987  1
  Li  Li208  1  0.66666667  0.33333333  0.90519320  1
  Li  Li209  1  0.66666667  0.33333333  0.26147346  1
  Li  Li210  1  0.66666667  0.33333333  0.76147346  1
  Li  Li211  1  0.66666667  0.33333333  0.40519320  1
  Li  Li212  1  0.33333333  0.66666667  0.23852654  1
  Li  Li213  1  0.33333333  0.66666667  0.59480680  1
  Li  Li214  1  0.33333333  0.66666667  0.09480680  1
  Li  Li215  1  0.33333333  0.66666667  0.73852654  1
