# generated using pymatgen
data_Li2Y2Te4P3
_symmetry_space_group_name_H-M   'P 1'
_cell_length_a   5.45266835
_cell_length_b   5.72886741
_cell_length_c   7.12496018
_cell_angle_alpha   93.67238490
_cell_angle_beta   98.21124473
_cell_angle_gamma   105.00836470
_symmetry_Int_Tables_number   1
_chemical_formula_structural   Li2Y2Te4P3
_chemical_formula_sum   'Li2 Y2 Te4 P3'
_cell_volume   211.57902314
_cell_formula_units_Z   1
loop_
 _symmetry_equiv_pos_site_id
 _symmetry_equiv_pos_as_xyz
  1  'x, y, z'
loop_
 _atom_site_type_symbol
 _atom_site_label
 _atom_site_symmetry_multiplicity
 _atom_site_fract_x
 _atom_site_fract_y
 _atom_site_fract_z
 _atom_site_occupancy
  Te  Te0  1  0.00000000  0.00000000  0.00000000  1
  Te  Te1  1  0.50000000  0.50000000  0.50000000  1
  Te  Te2  1  0.25000000  0.25000000  0.25000000  1
  Te  Te3  1  0.75000000  0.25000000  0.00000000  1
  P  P4  1  0.25000000  0.75000000  0.50000000  1
  P  P5  1  0.15784857  0.58804554  0.25021463  1
  P  P6  1  0.01565781  0.06962493  0.62803845  1
  Li  Li7  1  0.43256891  0.21967685  0.18423708  1
  Li  Li8  1  0.76828512  0.00026548  0.58827378  1
  Y  Y9  1  0.48666078  0.80280703  0.99023031  1
  Y  Y10  1  0.85862375  0.31943436  0.01303774  1
