# generated using pymatgen
data_Li2Y2P4Se
_symmetry_space_group_name_H-M   'P 1'
_cell_length_a   4.89329710
_cell_length_b   5.18821553
_cell_length_c   6.54563453
_cell_angle_alpha   92.62136875
_cell_angle_beta   97.00722965
_cell_angle_gamma   102.09678062
_symmetry_Int_Tables_number   1
_chemical_formula_structural   Li2Y2P4Se
_chemical_formula_sum   'Li2 Y2 P4 Se1'
_cell_volume   160.83770594
_cell_formula_units_Z   1
loop_
 _symmetry_equiv_pos_site_id
 _symmetry_equiv_pos_as_xyz
  1  'x, y, z'
loop_
 _atom_site_type_symbol
 _atom_site_label
 _atom_site_symmetry_multiplicity
 _atom_site_fract_x
 _atom_site_fract_y
 _atom_site_fract_z
 _atom_site_occupancy
  Se  Se0  1  0.12500000  0.00000000  0.25000000  1
  Y  Y1  1  0.00000000  0.00000000  0.00000000  1
  Y  Y2  1  0.37500000  0.00000000  0.25000000  1
  P  P3  1  0.25000000  0.25000000  0.25000000  1
  P  P4  1  0.00000000  0.25000000  0.12500000  1
  P  P5  1  0.86433041  0.01815416  0.59862434  1
  P  P6  1  0.70228548  0.38552460  0.12076979  1
  Li  Li7  1  0.99773242  0.65911933  0.90396787  1
  Li  Li8  1  0.29861036  0.11696595  0.15922704  1
