# generated using pymatgen
data_LiF
_symmetry_space_group_name_H-M   'P 1'
_cell_length_a   9.49461470
_cell_length_b   9.08399139
_cell_length_c   13.18840042
_cell_angle_alpha   90.00000000
_cell_angle_beta   90.00000000
_cell_angle_gamma   90.00000000
_symmetry_Int_Tables_number   1
_chemical_formula_structural   LiF
_chemical_formula_sum   'Li52 F52'
_cell_volume   1137.48632392
_cell_formula_units_Z   52
loop_
 _symmetry_equiv_pos_site_id
 _symmetry_equiv_pos_as_xyz
  1  'x, y, z'
loop_
 _atom_site_type_symbol
 _atom_site_label
 _atom_site_symmetry_multiplicity
 _atom_site_fract_x
 _atom_site_fract_y
 _atom_site_fract_z
 _atom_site_occupancy
  F  F0  1  0.77504674  0.25000000  0.47937098  1
  F  F1  1  0.72495326  0.75000000  0.97937098  1
  F  F2  1  0.22495326  0.75000000  0.52062902  1
  F  F3  1  0.27504674  0.25000000  0.02062902  1
  F  F4  1  0.01725515  0.88943120  0.03261674  1
  F  F5  1  0.48274485  0.11056880  0.53261674  1
  F  F6  1  0.98274485  0.38943120  0.96738326  1
  F  F7  1  0.51725515  0.61056880  0.46738326  1
  F  F8  1  0.98274485  0.11056880  0.96738326  1
  F  F9  1  0.51725515  0.88943120  0.46738326  1
  F  F10  1  0.01725515  0.61056880  0.03261674  1
  F  F11  1  0.48274485  0.38943120  0.53261674  1
  F  F12  1  0.97958790  0.25000000  0.99952718  1
  F  F13  1  0.52041210  0.75000000  0.49952718  1
  F  F14  1  0.02041210  0.75000000  0.00047282  1
  F  F15  1  0.47958790  0.25000000  0.50047282  1
  F  F16  1  0.81370721  0.13744802  0.39269643  1
  F  F17  1  0.68629279  0.86255198  0.89269643  1
  F  F18  1  0.18629279  0.63744802  0.60730357  1
  F  F19  1  0.31370721  0.36255198  0.10730357  1
  F  F20  1  0.18629279  0.86255198  0.60730357  1
  F  F21  1  0.31370721  0.13744802  0.10730357  1
  F  F22  1  0.81370721  0.36255198  0.39269643  1
  F  F23  1  0.68629279  0.63744802  0.89269643  1
  F  F24  1  0.76701689  0.61735126  0.74045371  1
  F  F25  1  0.73298311  0.38264874  0.24045371  1
  F  F26  1  0.23298311  0.11735126  0.25954629  1
  F  F27  1  0.26701689  0.88264874  0.75954629  1
  F  F28  1  0.23298311  0.38264874  0.25954629  1
  F  F29  1  0.26701689  0.61735126  0.75954629  1
  F  F30  1  0.76701689  0.88264874  0.74045371  1
  F  F31  1  0.73298311  0.11735126  0.24045371  1
  F  F32  1  0.00000000  0.00000000  0.50000000  1
  F  F33  1  0.50000000  0.00000000  -0.00000000  1
  F  F34  1  0.00000000  0.50000000  0.50000000  1
  F  F35  1  0.50000000  0.50000000  -0.00000000  1
  F  F36  1  0.84128337  0.78320746  0.46795372  1
  F  F37  1  0.65871663  0.21679254  0.96795372  1
  F  F38  1  0.15871663  0.28320746  0.53204628  1
  F  F39  1  0.34128337  0.71679254  0.03204628  1
  F  F40  1  0.15871663  0.21679254  0.53204628  1
  F  F41  1  0.34128337  0.78320746  0.03204628  1
  F  F42  1  0.84128337  0.71679254  0.46795372  1
  F  F43  1  0.65871663  0.28320746  0.96795372  1
  F  F44  1  0.56689425  0.25000000  0.32477445  1
  F  F45  1  0.93310575  0.75000000  0.82477445  1
  F  F46  1  0.43310575  0.75000000  0.67522555  1
  F  F47  1  0.06689425  0.25000000  0.17522555  1
  F  F48  1  0.67528754  0.25000000  0.26449056  1
  F  F49  1  0.82471246  0.75000000  0.76449056  1
  F  F50  1  0.32471246  0.75000000  0.73550944  1
  F  F51  1  0.17528754  0.25000000  0.23550944  1
  Li  Li52  1  0.35287554  0.25000000  0.95394878  1
  Li  Li53  1  0.14712446  0.75000000  0.45394878  1
  Li  Li54  1  0.64712446  0.75000000  0.04605122  1
  Li  Li55  1  0.85287554  0.25000000  0.54605122  1
  Li  Li56  1  0.89234697  0.54832383  0.62656937  1
  Li  Li57  1  -0.39234697  -0.54832383  1.12656937  1
  Li  Li58  1  -0.89234697  1.04832383  -0.62656937  1
  Li  Li59  1  1.39234697  -0.04832383  -0.12656937  1
  Li  Li60  1  -0.89234697  -0.54832383  -0.62656937  1
  Li  Li61  1  1.39234697  0.54832383  -0.12656937  1
  Li  Li62  1  0.89234697  -0.04832383  0.62656937  1
  Li  Li63  1  -0.39234697  1.04832383  1.12656937  1
  Li  Li64  1  0.00832318  0.42512380  0.87706643  1
  Li  Li65  1  0.49167682  0.57487620  0.37706643  1
  Li  Li66  1  0.99167682  0.92512380  0.12293357  1
  Li  Li67  1  0.50832318  0.07487620  0.62293357  1
  Li  Li68  1  0.99167682  0.57487620  0.12293357  1
  Li  Li69  1  0.50832318  0.42512380  0.62293357  1
  Li  Li70  1  0.00832318  0.07487620  0.87706643  1
  Li  Li71  1  0.49167682  0.92512380  0.37706643  1
  Li  Li72  1  0.25118934  0.56804205  0.44100008  1
  Li  Li73  1  0.24881066  0.43195795  0.94100008  1
  Li  Li74  1  0.74881066  0.06804205  0.55899992  1
  Li  Li75  1  0.75118934  0.93195795  0.05899992  1
  Li  Li76  1  0.74881066  0.43195795  0.55899992  1
  Li  Li77  1  0.75118934  0.56804205  0.05899992  1
  Li  Li78  1  0.25118934  0.93195795  0.44100008  1
  Li  Li79  1  0.24881066  0.06804205  0.94100008  1
  Li  Li80  1  0.75103015  0.25000000  0.66483330  1
  Li  Li81  1  0.74896985  0.75000000  0.16483330  1
  Li  Li82  1  0.24896985  0.75000000  0.33516670  1
  Li  Li83  1  0.25103015  0.25000000  0.83516670  1
  Li  Li84  1  0.56673621  0.25000000  0.43864030  1
  Li  Li85  1  0.93326379  0.75000000  0.93864030  1
  Li  Li86  1  0.43326379  0.75000000  0.56135970  1
  Li  Li87  1  0.06673621  0.25000000  0.06135970  1
  Li  Li88  1  0.78868861  0.57186473  0.15516946  1
  Li  Li89  1  0.71131139  0.42813527  0.65516946  1
  Li  Li90  1  0.21131139  0.07186473  0.84483054  1
  Li  Li91  1  0.28868861  0.92813527  0.34483054  1
  Li  Li92  1  0.21131139  0.42813527  0.84483054  1
  Li  Li93  1  0.28868861  0.57186473  0.34483054  1
  Li  Li94  1  0.78868861  0.92813527  0.15516946  1
  Li  Li95  1  0.71131139  0.07186473  0.65516946  1
  Li  Li96  1  0.00000000  0.00000000  0.00000000  1
  Li  Li97  1  0.50000000  0.00000000  0.50000000  1
  Li  Li98  1  0.00000000  0.50000000  0.00000000  1
  Li  Li99  1  0.50000000  0.50000000  0.50000000  1
  Li  Li100  1  0.49910321  0.25000000  0.15153114  1
  Li  Li101  1  0.00089679  0.75000000  0.65153114  1
  Li  Li102  1  0.50089679  0.75000000  0.84846886  1
  Li  Li103  1  0.99910321  0.25000000  0.34846886  1
