# generated using pymatgen
data_LiF
_symmetry_space_group_name_H-M   'P 1'
_cell_length_a   13.16783406
_cell_length_b   5.76270806
_cell_length_c   6.69065747
_cell_angle_alpha   90.00000000
_cell_angle_beta   90.00000000
_cell_angle_gamma   90.00000000
_symmetry_Int_Tables_number   1
_chemical_formula_structural   LiF
_chemical_formula_sum   'Li24 F24'
_cell_volume   507.70303587
_cell_formula_units_Z   24
loop_
 _symmetry_equiv_pos_site_id
 _symmetry_equiv_pos_as_xyz
  1  'x, y, z'
loop_
 _atom_site_type_symbol
 _atom_site_label
 _atom_site_symmetry_multiplicity
 _atom_site_fract_x
 _atom_site_fract_y
 _atom_site_fract_z
 _atom_site_occupancy
  F  F0  1  0.80481843  0.58533525  0.72387521  1
  F  F1  1  -0.30481843  -0.58533525  1.22387521  1
  F  F2  1  -0.80481843  1.08533525  -0.72387521  1
  F  F3  1  1.30481843  -0.08533525  -0.22387521  1
  F  F4  1  -0.80481843  -0.58533525  -0.72387521  1
  F  F5  1  1.30481843  0.58533525  -0.22387521  1
  F  F6  1  0.80481843  -0.08533525  0.72387521  1
  F  F7  1  -0.30481843  1.08533525  1.22387521  1
  F  F8  1  0.10338704  0.09818276  0.53062172  1
  F  F9  1  0.39661296  0.90181724  0.03062172  1
  F  F10  1  0.89661296  0.59818276  0.46937828  1
  F  F11  1  0.60338704  0.40181724  0.96937828  1
  F  F12  1  0.89661296  0.90181724  0.46937828  1
  F  F13  1  0.60338704  0.09818276  0.96937828  1
  F  F14  1  0.10338704  0.40181724  0.53062172  1
  F  F15  1  0.39661296  0.59818276  0.03062172  1
  F  F16  1  0.73741688  0.25000000  0.05974792  1
  F  F17  1  0.76258312  0.75000000  0.55974792  1
  F  F18  1  0.26258312  0.75000000  0.94025208  1
  F  F19  1  0.23741688  0.25000000  0.44025208  1
  F  F20  1  0.08072786  0.25000000  0.87566892  1
  F  F21  1  0.41927214  0.75000000  0.37566892  1
  F  F22  1  0.91927214  0.75000000  0.12433108  1
  F  F23  1  0.58072786  0.25000000  0.62433108  1
  Li  Li24  1  0.91143874  0.25000000  0.93061952  1
  Li  Li25  1  0.58856126  0.75000000  0.43061952  1
  Li  Li26  1  0.08856126  0.75000000  0.06938048  1
  Li  Li27  1  0.41143874  0.25000000  0.56938048  1
  Li  Li28  1  0.16253164  0.25000000  0.37202537  1
  Li  Li29  1  0.33746836  0.75000000  0.87202537  1
  Li  Li30  1  0.83746836  0.75000000  0.62797463  1
  Li  Li31  1  0.66253164  0.25000000  0.12797463  1
  Li  Li32  1  0.00000000  0.00000000  0.00000000  1
  Li  Li33  1  0.50000000  0.00000000  0.50000000  1
  Li  Li34  1  0.00000000  0.50000000  0.00000000  1
  Li  Li35  1  0.50000000  0.50000000  0.50000000  1
  Li  Li36  1  0.45552676  0.25000000  0.36291278  1
  Li  Li37  1  0.04447324  0.75000000  0.86291278  1
  Li  Li38  1  0.54447324  0.75000000  0.63708722  1
  Li  Li39  1  0.95552676  0.25000000  0.13708722  1
  Li  Li40  1  0.06287670  0.25000000  0.07847380  1
  Li  Li41  1  0.43712330  0.75000000  0.57847380  1
  Li  Li42  1  0.93712330  0.75000000  0.92152620  1
  Li  Li43  1  0.56287670  0.25000000  0.42152620  1
  Li  Li44  1  0.00000000  0.00000000  0.50000000  1
  Li  Li45  1  0.50000000  0.00000000  0.00000000  1
  Li  Li46  1  0.00000000  0.50000000  0.50000000  1
  Li  Li47  1  0.50000000  0.50000000  0.00000000  1
