# generated using pymatgen
data_LiCaF3
_symmetry_space_group_name_H-M   'P 1'
_cell_length_a   10.67692560
_cell_length_b   12.93370465
_cell_length_c   12.38157962
_cell_angle_alpha   90.00000000
_cell_angle_beta   90.00000000
_cell_angle_gamma   90.00000000
_symmetry_Int_Tables_number   1
_chemical_formula_structural   LiCaF3
_chemical_formula_sum   'Li18 Ca18 F54'
_cell_volume   1709.79959839
_cell_formula_units_Z   18
loop_
 _symmetry_equiv_pos_site_id
 _symmetry_equiv_pos_as_xyz
  1  'x, y, z'
loop_
 _atom_site_type_symbol
 _atom_site_label
 _atom_site_symmetry_multiplicity
 _atom_site_fract_x
 _atom_site_fract_y
 _atom_site_fract_z
 _atom_site_occupancy
  Ca  Ca0  1  0.66746953  0.50123338  0.88170638  1
  Ca  Ca1  1  -0.66746953  -0.50123338  0.88170638  1
  Ca  Ca2  1  -0.16746953  1.00123338  -0.88170638  1
  Ca  Ca3  1  1.16746953  -0.00123338  -0.88170638  1
  Ca  Ca4  1  -0.66746953  -0.50123338  -0.88170638  1
  Ca  Ca5  1  0.66746953  0.50123338  -0.88170638  1
  Ca  Ca6  1  1.16746953  -0.00123338  0.88170638  1
  Ca  Ca7  1  -0.16746953  1.00123338  0.88170638  1
  Ca  Ca8  1  0.80355885  0.60269525  0.50000000  1
  Ca  Ca9  1  0.19644115  0.39730475  0.50000000  1
  Ca  Ca10  1  0.69644115  0.10269525  0.50000000  1
  Ca  Ca11  1  0.30355885  0.89730475  0.50000000  1
  Ca  Ca12  1  0.96530488  0.68202998  0.50000000  1
  Ca  Ca13  1  0.03469512  0.31797002  0.50000000  1
  Ca  Ca14  1  0.53469512  0.18202998  0.50000000  1
  Ca  Ca15  1  0.46530488  0.81797002  0.50000000  1
  Ca  Ca16  1  0.00000000  0.00000000  0.50000000  1
  Ca  Ca17  1  0.50000000  0.50000000  0.50000000  1
  F  F18  1  0.37726349  0.73677657  0.32759166  1
  F  F19  1  0.62273651  0.26322343  0.32759166  1
  F  F20  1  0.12273651  0.23677657  0.67240834  1
  F  F21  1  0.87726349  0.76322343  0.67240834  1
  F  F22  1  0.62273651  0.26322343  0.67240834  1
  F  F23  1  0.37726349  0.73677657  0.67240834  1
  F  F24  1  0.87726349  0.76322343  0.32759166  1
  F  F25  1  0.12273651  0.23677657  0.32759166  1
  F  F26  1  0.74280232  0.84253638  0.76490358  1
  F  F27  1  0.25719768  0.15746362  0.76490358  1
  F  F28  1  0.75719768  0.34253638  0.23509642  1
  F  F29  1  0.24280232  0.65746362  0.23509642  1
  F  F30  1  0.25719768  0.15746362  0.23509642  1
  F  F31  1  0.74280232  0.84253638  0.23509642  1
  F  F32  1  0.24280232  0.65746362  0.76490358  1
  F  F33  1  0.75719768  0.34253638  0.76490358  1
  F  F34  1  0.52668933  0.70115444  0.65798637  1
  F  F35  1  0.47331067  0.29884556  0.65798637  1
  F  F36  1  0.97331067  0.20115444  0.34201363  1
  F  F37  1  0.02668933  0.79884556  0.34201363  1
  F  F38  1  0.47331067  0.29884556  0.34201363  1
  F  F39  1  0.52668933  0.70115444  0.34201363  1
  F  F40  1  0.02668933  0.79884556  0.65798637  1
  F  F41  1  0.97331067  0.20115444  0.65798637  1
  F  F42  1  0.46561344  0.78393806  0.24648483  1
  F  F43  1  0.53438656  0.21606194  0.24648483  1
  F  F44  1  0.03438656  0.28393806  0.75351517  1
  F  F45  1  0.96561344  0.71606194  0.75351517  1
  F  F46  1  0.53438656  0.21606194  0.75351517  1
  F  F47  1  0.46561344  0.78393806  0.75351517  1
  F  F48  1  0.96561344  0.71606194  0.24648483  1
  F  F49  1  0.03438656  0.28393806  0.24648483  1
  F  F50  1  0.27717517  0.26269829  0.50000000  1
  F  F51  1  0.72282483  0.73730171  0.50000000  1
  F  F52  1  0.22282483  0.76269829  0.50000000  1
  F  F53  1  0.77717517  0.23730171  0.50000000  1
  F  F54  1  0.00000000  0.00000000  0.00000000  1
  F  F55  1  0.50000000  0.50000000  0.00000000  1
  F  F56  1  0.00000000  0.00000000  0.14808831  1
  F  F57  1  0.50000000  0.50000000  0.85191169  1
  F  F58  1  0.00000000  0.00000000  0.85191169  1
  F  F59  1  0.50000000  0.50000000  0.14808831  1
  F  F60  1  0.00000000  0.50000000  0.82250391  1
  F  F61  1  0.50000000  -0.00000000  0.17749609  1
  F  F62  1  0.00000000  0.50000000  0.17749609  1
  F  F63  1  0.50000000  -0.00000000  0.82250391  1
  F  F64  1  0.56588554  0.92306426  0.50000000  1
  F  F65  1  0.43411446  0.07693574  0.50000000  1
  F  F66  1  0.93411446  0.42306426  0.50000000  1
  F  F67  1  0.06588554  0.57693574  0.50000000  1
  F  F68  1  0.00000000  0.00000000  0.64418778  1
  F  F69  1  0.50000000  0.50000000  0.35581222  1
  F  F70  1  0.00000000  0.00000000  0.35581222  1
  F  F71  1  0.50000000  0.50000000  0.64418778  1
  Li  Li72  1  0.57899945  0.91473421  0.19037010  1
  Li  Li73  1  0.42100055  0.08526579  0.19037010  1
  Li  Li74  1  0.92100055  0.41473421  0.80962990  1
  Li  Li75  1  0.07899945  0.58526579  0.80962990  1
  Li  Li76  1  0.42100055  0.08526579  0.80962990  1
  Li  Li77  1  0.57899945  0.91473421  0.80962990  1
  Li  Li78  1  0.07899945  0.58526579  0.19037010  1
  Li  Li79  1  0.92100055  0.41473421  0.19037010  1
  Li  Li80  1  0.00000000  0.50000000  0.50000000  1
  Li  Li81  1  0.50000000  -0.00000000  0.50000000  1
  Li  Li82  1  0.60463185  0.21568434  0.19185633  1
  Li  Li83  1  0.39536815  0.78431566  0.19185633  1
  Li  Li84  1  0.89536815  0.71568434  0.80814367  1
  Li  Li85  1  0.10463185  0.28431566  0.80814367  1
  Li  Li86  1  0.39536815  0.78431566  0.80814367  1
  Li  Li87  1  0.60463185  0.21568434  0.80814367  1
  Li  Li88  1  0.10463185  0.28431566  0.19185633  1
  Li  Li89  1  0.89536815  0.71568434  0.19185633  1
