# generated using pymatgen
data_LiF
_symmetry_space_group_name_H-M   'P 1'
_cell_length_a   10.99583829
_cell_length_b   10.99583829
_cell_length_c   20.57024865
_cell_angle_alpha   90.00000000
_cell_angle_beta   90.00000000
_cell_angle_gamma   90.00000000
_symmetry_Int_Tables_number   1
_chemical_formula_structural   LiF
_chemical_formula_sum   'Li64 F64'
_cell_volume   2487.11707963
_cell_formula_units_Z   64
loop_
 _symmetry_equiv_pos_site_id
 _symmetry_equiv_pos_as_xyz
  1  'x, y, z'
loop_
 _atom_site_type_symbol
 _atom_site_label
 _atom_site_symmetry_multiplicity
 _atom_site_fract_x
 _atom_site_fract_y
 _atom_site_fract_z
 _atom_site_occupancy
  F  F0  1  0.91920479  0.11104292  0.20740977  1
  F  F1  1  -0.41920479  -0.11104292  0.70740977  1
  F  F2  1  0.13895708  1.66920479  0.45740977  1
  F  F3  1  0.36104292  -0.66920479  0.95740977  1
  F  F4  1  -0.41920479  0.11104292  -0.20740977  1
  F  F5  1  0.91920479  -0.11104292  0.29259023  1
  F  F6  1  0.36104292  1.66920479  0.54259023  1
  F  F7  1  0.13895708  -0.66920479  0.04259023  1
  F  F8  1  -0.91920479  -0.11104292  -0.20740977  1
  F  F9  1  1.41920479  0.11104292  0.29259023  1
  F  F10  1  0.86104292  -0.66920479  0.54259023  1
  F  F11  1  0.63895708  1.66920479  0.04259023  1
  F  F12  1  1.41920479  -0.11104292  0.20740977  1
  F  F13  1  -0.91920479  0.11104292  0.70740977  1
  F  F14  1  0.63895708  -0.66920479  0.45740977  1
  F  F15  1  0.86104292  1.66920479  0.95740977  1
  F  F16  1  1.41920479  0.61104292  0.70740977  1
  F  F17  1  0.08079521  0.38895708  1.20740977  1
  F  F18  1  0.63895708  2.16920479  0.95740977  1
  F  F19  1  0.86104292  -0.16920479  1.45740977  1
  F  F20  1  0.08079521  0.61104292  0.29259023  1
  F  F21  1  1.41920479  0.38895708  0.79259023  1
  F  F22  1  0.86104292  2.16920479  1.04259023  1
  F  F23  1  0.63895708  -0.16920479  0.54259023  1
  F  F24  1  -0.41920479  0.38895708  0.29259023  1
  F  F25  1  1.91920479  0.61104292  0.79259023  1
  F  F26  1  1.36104292  -0.16920479  1.04259023  1
  F  F27  1  1.13895708  2.16920479  0.54259023  1
  F  F28  1  1.91920479  0.38895708  0.70740977  1
  F  F29  1  -0.41920479  0.61104292  1.20740977  1
  F  F30  1  1.13895708  -0.16920479  0.95740977  1
  F  F31  1  1.36104292  2.16920479  1.45740977  1
  F  F32  1  0.00000000  0.00000000  0.00000000  1
  F  F33  1  0.50000000  0.00000000  0.50000000  1
  F  F34  1  0.25000000  0.75000000  0.25000000  1
  F  F35  1  0.25000000  0.25000000  0.75000000  1
  F  F36  1  0.50000000  0.00000000  0.00000000  1
  F  F37  1  0.00000000  0.00000000  0.50000000  1
  F  F38  1  0.25000000  0.75000000  0.75000000  1
  F  F39  1  0.25000000  0.25000000  0.25000000  1
  F  F40  1  0.50000000  0.50000000  0.50000000  1
  F  F41  1  0.00000000  0.50000000  0.00000000  1
  F  F42  1  0.75000000  0.25000000  0.75000000  1
  F  F43  1  0.75000000  0.75000000  0.25000000  1
  F  F44  1  0.00000000  0.50000000  0.50000000  1
  F  F45  1  0.50000000  0.50000000  0.00000000  1
  F  F46  1  0.75000000  0.25000000  0.25000000  1
  F  F47  1  0.75000000  0.75000000  0.75000000  1
  F  F48  1  0.90229291  0.15229291  0.12500000  1
  F  F49  1  0.59770709  0.84770709  0.62500000  1
  F  F50  1  0.09770709  0.65229291  0.37500000  1
  F  F51  1  0.40229291  0.34770709  0.87500000  1
  F  F52  1  0.09770709  0.84770709  0.87500000  1
  F  F53  1  0.40229291  0.15229291  0.37500000  1
  F  F54  1  0.90229291  0.34770709  0.62500000  1
  F  F55  1  0.59770709  0.65229291  0.12500000  1
  F  F56  1  0.40229291  0.65229291  0.62500000  1
  F  F57  1  0.09770709  0.34770709  0.12500000  1
  F  F58  1  0.59770709  0.15229291  0.87500000  1
  F  F59  1  0.90229291  0.84770709  0.37500000  1
  F  F60  1  0.59770709  0.34770709  0.37500000  1
  F  F61  1  0.90229291  0.65229291  0.87500000  1
  F  F62  1  0.40229291  0.84770709  0.12500000  1
  F  F63  1  0.09770709  0.15229291  0.62500000  1
  Li  Li64  1  0.00000000  0.25000000  0.73842788  1
  Li  Li65  1  0.00000000  0.75000000  0.98842788  1
  Li  Li66  1  0.50000000  0.25000000  0.26157212  1
  Li  Li67  1  0.50000000  0.75000000  0.01157212  1
  Li  Li68  1  0.00000000  0.75000000  0.26157212  1
  Li  Li69  1  0.00000000  0.25000000  0.01157212  1
  Li  Li70  1  0.50000000  0.75000000  0.73842788  1
  Li  Li71  1  0.50000000  0.25000000  0.98842788  1
  Li  Li72  1  0.50000000  0.75000000  0.23842788  1
  Li  Li73  1  0.50000000  0.25000000  0.48842788  1
  Li  Li74  1  0.00000000  0.75000000  0.76157212  1
  Li  Li75  1  0.00000000  0.25000000  0.51157212  1
  Li  Li76  1  0.50000000  0.25000000  0.76157212  1
  Li  Li77  1  0.50000000  0.75000000  0.51157212  1
  Li  Li78  1  0.00000000  0.25000000  0.23842788  1
  Li  Li79  1  0.00000000  0.75000000  0.48842788  1
  Li  Li80  1  0.91091165  0.29072738  0.93462414  1
  Li  Li81  1  0.58908835  0.70927262  0.43462414  1
  Li  Li82  1  0.95927262  0.66091165  0.18462414  1
  Li  Li83  1  0.54072738  0.33908835  0.68462414  1
  Li  Li84  1  0.58908835  0.29072738  0.06537586  1
  Li  Li85  1  0.91091165  0.70927262  0.56537586  1
  Li  Li86  1  0.54072738  0.66091165  0.81537586  1
  Li  Li87  1  0.95927262  0.33908835  0.31537586  1
  Li  Li88  1  0.08908835  0.70927262  0.06537586  1
  Li  Li89  1  0.41091165  0.29072738  0.56537586  1
  Li  Li90  1  0.04072738  0.33908835  0.81537586  1
  Li  Li91  1  0.45927262  0.66091165  0.31537586  1
  Li  Li92  1  0.41091165  0.70927262  0.93462414  1
  Li  Li93  1  0.08908835  0.29072738  0.43462414  1
  Li  Li94  1  0.45927262  0.33908835  0.18462414  1
  Li  Li95  1  0.04072738  0.66091165  0.68462414  1
  Li  Li96  1  0.41091165  0.79072738  0.43462414  1
  Li  Li97  1  0.08908835  0.20927262  0.93462414  1
  Li  Li98  1  0.45927262  0.16091165  0.68462414  1
  Li  Li99  1  0.04072738  0.83908835  0.18462414  1
  Li  Li100  1  0.08908835  0.79072738  0.56537586  1
  Li  Li101  1  0.41091165  0.20927262  0.06537586  1
  Li  Li102  1  0.04072738  0.16091165  0.31537586  1
  Li  Li103  1  0.45927262  0.83908835  0.81537586  1
  Li  Li104  1  0.58908835  0.20927262  0.56537586  1
  Li  Li105  1  0.91091165  0.79072738  0.06537586  1
  Li  Li106  1  0.54072738  0.83908835  0.31537586  1
  Li  Li107  1  0.95927262  0.16091165  0.81537586  1
  Li  Li108  1  0.91091165  0.20927262  0.43462414  1
  Li  Li109  1  0.58908835  0.79072738  0.93462414  1
  Li  Li110  1  0.95927262  0.83908835  0.68462414  1
  Li  Li111  1  0.54072738  0.16091165  0.18462414  1
  Li  Li112  1  0.17426792  -0.00000000  0.25000000  1
  Li  Li113  1  0.32573208  0.00000000  0.75000000  1
  Li  Li114  1  0.25000000  0.92426792  0.50000000  1
  Li  Li115  1  0.25000000  0.07573208  0.00000000  1
  Li  Li116  1  0.82573208  -0.00000000  0.75000000  1
  Li  Li117  1  0.67426792  -0.00000000  0.25000000  1
  Li  Li118  1  0.75000000  0.07573208  0.50000000  1
  Li  Li119  1  0.75000000  0.92426792  0.00000000  1
  Li  Li120  1  0.67426792  0.50000000  0.75000000  1
  Li  Li121  1  0.82573208  0.50000000  0.25000000  1
  Li  Li122  1  0.75000000  0.42426792  0.00000000  1
  Li  Li123  1  0.75000000  0.57573208  0.50000000  1
  Li  Li124  1  0.32573208  0.50000000  0.25000000  1
  Li  Li125  1  0.17426792  0.50000000  0.75000000  1
  Li  Li126  1  0.25000000  0.57573208  0.00000000  1
  Li  Li127  1  0.25000000  0.42426792  0.50000000  1
