# generated using pymatgen
data_LiF
_symmetry_space_group_name_H-M   'P 1'
_cell_length_a   6.71364080
_cell_length_b   6.71364080
_cell_length_c   21.36771151
_cell_angle_alpha   90.00000000
_cell_angle_beta   90.00000000
_cell_angle_gamma   120.00000000
_symmetry_Int_Tables_number   1
_chemical_formula_structural   LiF
_chemical_formula_sum   'Li20 F20'
_cell_volume   834.07450341
_cell_formula_units_Z   20
loop_
 _symmetry_equiv_pos_site_id
 _symmetry_equiv_pos_as_xyz
  1  'x, y, z'
loop_
 _atom_site_type_symbol
 _atom_site_label
 _atom_site_symmetry_multiplicity
 _atom_site_fract_x
 _atom_site_fract_y
 _atom_site_fract_z
 _atom_site_occupancy
  F  F0  1  0.43397787  0.73088846  0.92405997  1
  F  F1  1  0.26911154  0.70308941  0.92405997  1
  F  F2  1  0.29691059  0.56602213  0.92405997  1
  F  F3  1  0.26911154  0.56602213  0.07594003  1
  F  F4  1  0.29691059  0.73088846  0.07594003  1
  F  F5  1  0.43397787  0.70308941  0.07594003  1
  F  F6  1  0.08555374  0.15989270  0.57704725  1
  F  F7  1  0.84010730  0.92566104  0.57704725  1
  F  F8  1  0.07433896  0.91444626  0.57704725  1
  F  F9  1  0.84010730  0.91444626  0.42295275  1
  F  F10  1  0.07433896  0.15989270  0.42295275  1
  F  F11  1  0.08555374  0.92566104  0.42295275  1
  F  F12  1  0.33333333  0.66666667  0.10921475  1
  F  F13  1  0.33333333  0.66666667  0.89078525  1
  F  F14  1  0.00000000  0.00000000  0.00000000  1
  F  F15  1  0.33333333  0.66666667  0.50000000  1
  F  F16  1  0.33333333  0.66666667  0.00000000  1
  F  F17  1  0.57754250  0.42245750  0.00000000  1
  F  F18  1  0.57754250  0.15508500  0.00000000  1
  F  F19  1  0.84491500  0.42245750  0.00000000  1
  Li  Li20  1  0.07889666  0.70288291  0.38440333  1
  Li  Li21  1  -0.70288291  -0.62398625  0.38440333  1
  Li  Li22  1  0.62398625  -0.07889666  0.38440333  1
  Li  Li23  1  -0.70288291  -0.07889666  -0.38440333  1
  Li  Li24  1  0.62398625  0.70288291  -0.38440333  1
  Li  Li25  1  0.07889666  -0.62398625  -0.38440333  1
  Li  Li26  1  0.48012824  0.71329129  0.03255457  1
  Li  Li27  1  0.28670871  0.76683696  0.03255457  1
  Li  Li28  1  0.23316304  0.51987176  0.03255457  1
  Li  Li29  1  0.28670871  0.51987176  0.96744543  1
  Li  Li30  1  0.23316304  0.71329129  0.96744543  1
  Li  Li31  1  0.48012824  0.76683696  0.96744543  1
  Li  Li32  1  0.32433752  0.18554063  0.69043280  1
  Li  Li33  1  0.81445937  0.13879688  0.69043280  1
  Li  Li34  1  0.86120312  0.67566248  0.69043280  1
  Li  Li35  1  0.81445937  0.67566248  0.30956720  1
  Li  Li36  1  0.86120312  0.18554063  0.30956720  1
  Li  Li37  1  0.32433752  0.13879688  0.30956720  1
  Li  Li38  1  0.66666667  0.33333333  0.69966268  1
  Li  Li39  1  0.66666667  0.33333333  0.30033732  1
