# generated using pymatgen
data_LiF
_symmetry_space_group_name_H-M   'P 1'
_cell_length_a   6.78851444
_cell_length_b   12.12350769
_cell_length_c   12.18745383
_cell_angle_alpha   90.00000000
_cell_angle_beta   90.00000000
_cell_angle_gamma   90.00000000
_symmetry_Int_Tables_number   1
_chemical_formula_structural   LiF
_chemical_formula_sum   'Li28 F28'
_cell_volume   1003.03484766
_cell_formula_units_Z   28
loop_
 _symmetry_equiv_pos_site_id
 _symmetry_equiv_pos_as_xyz
  1  'x, y, z'
loop_
 _atom_site_type_symbol
 _atom_site_label
 _atom_site_symmetry_multiplicity
 _atom_site_fract_x
 _atom_site_fract_y
 _atom_site_fract_z
 _atom_site_occupancy
  F  F0  1  0.42071329  0.71456175  0.03321794  1
  F  F1  1  0.07928671  0.28543825  0.53321794  1
  F  F2  1  0.57928671  0.21456175  0.96678206  1
  F  F3  1  0.92071329  0.78543825  0.46678206  1
  F  F4  1  0.57928671  0.28543825  0.96678206  1
  F  F5  1  0.92071329  0.71456175  0.46678206  1
  F  F6  1  0.42071329  0.78543825  0.03321794  1
  F  F7  1  0.07928671  0.21456175  0.53321794  1
  F  F8  1  0.66652865  0.18773559  0.03287796  1
  F  F9  1  0.83347135  0.81226441  0.53287796  1
  F  F10  1  0.33347135  0.68773559  0.96712204  1
  F  F11  1  0.16652865  0.31226441  0.46712204  1
  F  F12  1  0.33347135  0.81226441  0.96712204  1
  F  F13  1  0.16652865  0.18773559  0.46712204  1
  F  F14  1  0.66652865  0.31226441  0.03287796  1
  F  F15  1  0.83347135  0.68773559  0.53287796  1
  F  F16  1  0.47551718  0.68455179  0.34995071  1
  F  F17  1  0.02448282  0.31544821  0.84995071  1
  F  F18  1  0.52448282  0.18455179  0.65004929  1
  F  F19  1  0.97551718  0.81544821  0.15004929  1
  F  F20  1  0.52448282  0.31544821  0.65004929  1
  F  F21  1  0.97551718  0.68455179  0.15004929  1
  F  F22  1  0.47551718  0.81544821  0.34995071  1
  F  F23  1  0.02448282  0.18455179  0.84995071  1
  F  F24  1  0.23573913  0.25000000  0.06155472  1
  F  F25  1  0.26426087  0.75000000  0.56155472  1
  F  F26  1  0.76426087  0.75000000  0.93844528  1
  F  F27  1  0.73573913  0.25000000  0.43844528  1
  Li  Li28  1  0.46062325  0.25000000  0.66649033  1
  Li  Li29  1  0.03937675  0.75000000  0.16649033  1
  Li  Li30  1  0.53937675  0.75000000  0.33350967  1
  Li  Li31  1  0.96062325  0.25000000  0.83350967  1
  Li  Li32  1  0.78438582  0.30625080  0.65818059  1
  Li  Li33  1  -0.28438582  -0.30625080  1.15818059  1
  Li  Li34  1  -0.78438582  0.80625080  -0.65818059  1
  Li  Li35  1  1.28438582  0.19374920  -0.15818059  1
  Li  Li36  1  -0.78438582  -0.30625080  -0.65818059  1
  Li  Li37  1  1.28438582  0.30625080  -0.15818059  1
  Li  Li38  1  0.78438582  0.19374920  0.65818059  1
  Li  Li39  1  -0.28438582  0.80625080  1.15818059  1
  Li  Li40  1  0.00000000  0.00000000  0.00000000  1
  Li  Li41  1  0.50000000  0.00000000  0.50000000  1
  Li  Li42  1  0.00000000  0.50000000  0.00000000  1
  Li  Li43  1  0.50000000  0.50000000  0.50000000  1
  Li  Li44  1  0.20045616  0.47839066  0.73629519  1
  Li  Li45  1  0.29954384  0.52160934  0.23629519  1
  Li  Li46  1  0.79954384  0.97839066  0.26370481  1
  Li  Li47  1  0.70045616  0.02160934  0.76370481  1
  Li  Li48  1  0.79954384  0.52160934  0.26370481  1
  Li  Li49  1  0.70045616  0.47839066  0.76370481  1
  Li  Li50  1  0.20045616  0.02160934  0.73629519  1
  Li  Li51  1  0.29954384  0.97839066  0.23629519  1
  Li  Li52  1  0.00000000  0.00000000  0.50000000  1
  Li  Li53  1  0.50000000  0.00000000  -0.00000000  1
  Li  Li54  1  0.00000000  0.50000000  0.50000000  1
  Li  Li55  1  0.50000000  0.50000000  -0.00000000  1
