# generated using pymatgen
data_Li3TiSb4As
_symmetry_space_group_name_H-M   'P 1'
_cell_length_a   6.43243168
_cell_length_b   6.80997000
_cell_length_c   7.01282870
_cell_angle_alpha   96.94865535
_cell_angle_beta   94.32555560
_cell_angle_gamma   93.37880421
_symmetry_Int_Tables_number   1
_chemical_formula_structural   Li3TiSb4As
_chemical_formula_sum   'Li3 Ti1 Sb4 As1'
_cell_volume   303.34999018
_cell_formula_units_Z   1
loop_
 _symmetry_equiv_pos_site_id
 _symmetry_equiv_pos_as_xyz
  1  'x, y, z'
loop_
 _atom_site_type_symbol
 _atom_site_label
 _atom_site_symmetry_multiplicity
 _atom_site_fract_x
 _atom_site_fract_y
 _atom_site_fract_z
 _atom_site_occupancy
  Ti  Ti0  1  0.12500000  0.12500000  0.12500000  1
  As  As1  1  0.50000000  0.50000000  0.50000000  1
  Li  Li2  1  0.25000000  0.25000000  0.25000000  1
  Li  Li3  1  0.75000000  0.75000000  0.75000000  1
  Li  Li4  1  0.95592180  0.66813477  0.24687101  1
  Sb  Sb5  1  0.86285491  0.34131181  0.20377274  1
  Sb  Sb6  1  0.39164494  0.56236073  0.90920850  1
  Sb  Sb7  1  0.53756540  0.31097416  0.77452973  1
  Sb  Sb8  1  0.97881044  0.69304099  0.83967852  1
