# generated using pymatgen
data_LiCaF3
_symmetry_space_group_name_H-M   'P 1'
_cell_length_a   11.36914185
_cell_length_b   11.36914185
_cell_length_c   10.05377260
_cell_angle_alpha   90.00000000
_cell_angle_beta   90.00000000
_cell_angle_gamma   120.00000000
_symmetry_Int_Tables_number   1
_chemical_formula_structural   LiCaF3
_chemical_formula_sum   'Li18 Ca18 F54'
_cell_volume   1125.42111691
_cell_formula_units_Z   18
loop_
 _symmetry_equiv_pos_site_id
 _symmetry_equiv_pos_as_xyz
  1  'x, y, z'
loop_
 _atom_site_type_symbol
 _atom_site_label
 _atom_site_symmetry_multiplicity
 _atom_site_fract_x
 _atom_site_fract_y
 _atom_site_fract_z
 _atom_site_occupancy
  Ca  Ca0  1  0.74831974  0.00000000  0.65191331  1
  Ca  Ca1  1  0.00000000  0.74831974  0.65191331  1
  Ca  Ca2  1  0.25168026  0.25168026  0.65191331  1
  Ca  Ca3  1  0.74831974  0.00000000  0.34808669  1
  Ca  Ca4  1  0.00000000  0.74831974  0.34808669  1
  Ca  Ca5  1  0.25168026  0.25168026  0.34808669  1
  Ca  Ca6  1  0.25955713  0.00000000  0.78800363  1
  Ca  Ca7  1  0.00000000  0.25955713  0.78800363  1
  Ca  Ca8  1  0.74044287  0.74044287  0.78800363  1
  Ca  Ca9  1  0.25955713  0.00000000  0.21199637  1
  Ca  Ca10  1  0.00000000  0.25955713  0.21199637  1
  Ca  Ca11  1  0.74044287  0.74044287  0.21199637  1
  Ca  Ca12  1  0.59327868  0.00000000  0.50000000  1
  Ca  Ca13  1  0.00000000  0.59327868  0.50000000  1
  Ca  Ca14  1  0.40672132  0.40672132  0.50000000  1
  Ca  Ca15  1  0.00000000  0.00000000  0.50000000  1
  Ca  Ca16  1  0.00000000  0.00000000  0.74061174  1
  Ca  Ca17  1  0.00000000  0.00000000  0.25938826  1
  F  F18  1  0.20719912  0.00000000  0.07988007  1
  F  F19  1  0.00000000  0.20719912  0.07988007  1
  F  F20  1  0.79280088  0.79280088  0.07988007  1
  F  F21  1  0.20719912  0.00000000  0.92011993  1
  F  F22  1  0.00000000  0.20719912  0.92011993  1
  F  F23  1  0.79280088  0.79280088  0.92011993  1
  F  F24  1  0.89522387  0.08449895  0.35905024  1
  F  F25  1  -0.08449895  0.81072492  0.35905024  1
  F  F26  1  -0.81072492  -0.89522387  0.35905024  1
  F  F27  1  0.89522387  0.08449895  -0.35905024  1
  F  F28  1  -0.08449895  0.81072492  -0.35905024  1
  F  F29  1  -0.81072492  -0.89522387  -0.35905024  1
  F  F30  1  0.08449895  0.89522387  -0.35905024  1
  F  F31  1  0.81072492  -0.08449895  -0.35905024  1
  F  F32  1  -0.89522387  -0.81072492  -0.35905024  1
  F  F33  1  0.08449895  0.89522387  0.35905024  1
  F  F34  1  0.81072492  -0.08449895  0.35905024  1
  F  F35  1  -0.89522387  -0.81072492  0.35905024  1
  F  F36  1  0.41587407  0.82339022  0.32277730  1
  F  F37  1  0.17660978  0.59248385  0.32277730  1
  F  F38  1  0.40751615  0.58412593  0.32277730  1
  F  F39  1  0.41587407  0.82339022  0.67722270  1
  F  F40  1  0.17660978  0.59248385  0.67722270  1
  F  F41  1  0.40751615  0.58412593  0.67722270  1
  F  F42  1  0.82339022  0.41587407  0.67722270  1
  F  F43  1  0.59248385  0.17660978  0.67722270  1
  F  F44  1  0.58412593  0.40751615  0.67722270  1
  F  F45  1  0.82339022  0.41587407  0.32277730  1
  F  F46  1  0.59248385  0.17660978  0.32277730  1
  F  F47  1  0.58412593  0.40751615  0.32277730  1
  F  F48  1  0.26927384  0.17205232  0.06815260  1
  F  F49  1  0.82794768  0.09722151  0.06815260  1
  F  F50  1  0.90277849  0.73072616  0.06815260  1
  F  F51  1  0.26927384  0.17205232  0.93184740  1
  F  F52  1  0.82794768  0.09722151  0.93184740  1
  F  F53  1  0.90277849  0.73072616  0.93184740  1
  F  F54  1  0.17205232  0.26927384  0.93184740  1
  F  F55  1  0.09722151  0.82794768  0.93184740  1
  F  F56  1  0.73072616  0.90277849  0.93184740  1
  F  F57  1  0.17205232  0.26927384  0.06815260  1
  F  F58  1  0.09722151  0.82794768  0.06815260  1
  F  F59  1  0.73072616  0.90277849  0.06815260  1
  F  F60  1  0.33333333  0.66666667  -0.00000000  1
  F  F61  1  0.66666667  0.33333333  -0.00000000  1
  F  F62  1  0.09609989  0.73330416  0.00000000  1
  F  F63  1  0.26669584  0.36279573  -0.00000000  1
  F  F64  1  0.63720427  0.90390011  -0.00000000  1
  F  F65  1  0.73330416  0.09609989  -0.00000000  1
  F  F66  1  0.36279573  0.26669584  -0.00000000  1
  F  F67  1  0.90390011  0.63720427  -0.00000000  1
  F  F68  1  0.33333333  0.66666667  0.58617454  1
  F  F69  1  0.33333333  0.66666667  0.41382546  1
  F  F70  1  0.66666667  0.33333333  0.41382546  1
  F  F71  1  0.66666667  0.33333333  0.58617454  1
  Li  Li72  1  0.57545680  0.00000000  -0.00000000  1
  Li  Li73  1  0.00000000  0.57545680  0.00000000  1
  Li  Li74  1  0.42454320  0.42454320  -0.00000000  1
  Li  Li75  1  0.39375621  0.29882746  0.71012889  1
  Li  Li76  1  0.70117254  0.09492874  0.71012889  1
  Li  Li77  1  0.90507126  0.60624379  0.71012889  1
  Li  Li78  1  0.39375621  0.29882746  0.28987111  1
  Li  Li79  1  0.70117254  0.09492874  0.28987111  1
  Li  Li80  1  0.90507126  0.60624379  0.28987111  1
  Li  Li81  1  0.29882746  0.39375621  0.28987111  1
  Li  Li82  1  0.09492874  0.70117254  0.28987111  1
  Li  Li83  1  0.60624379  0.90507126  0.28987111  1
  Li  Li84  1  0.29882746  0.39375621  0.71012889  1
  Li  Li85  1  0.09492874  0.70117254  0.71012889  1
  Li  Li86  1  0.60624379  0.90507126  0.71012889  1
  Li  Li87  1  0.73643769  0.00000000  0.50000000  1
  Li  Li88  1  0.00000000  0.73643769  0.50000000  1
  Li  Li89  1  0.26356231  0.26356231  0.50000000  1
