# generated using pymatgen
data_Li2YMoAsP3
_symmetry_space_group_name_H-M   'P 1'
_cell_length_a   4.22452064
_cell_length_b   4.48131849
_cell_length_c   6.80253053
_cell_angle_alpha   96.47518905
_cell_angle_beta   103.44797951
_cell_angle_gamma   112.83180140
_symmetry_Int_Tables_number   1
_chemical_formula_structural   Li2YMoAsP3
_chemical_formula_sum   'Li2 Y1 Mo1 As1 P3'
_cell_volume   112.43734386
_cell_formula_units_Z   1
loop_
 _symmetry_equiv_pos_site_id
 _symmetry_equiv_pos_as_xyz
  1  'x, y, z'
loop_
 _atom_site_type_symbol
 _atom_site_label
 _atom_site_symmetry_multiplicity
 _atom_site_fract_x
 _atom_site_fract_y
 _atom_site_fract_z
 _atom_site_occupancy
  P  P0  1  0.12500000  0.00000000  0.25000000  1
  P  P1  1  0.00000000  0.00000000  0.00000000  1
  P  P2  1  0.37500000  0.00000000  0.25000000  1
  Mo  Mo3  1  0.25000000  0.25000000  0.25000000  1
  As  As4  1  0.00000000  0.25000000  0.12500000  1
  Li  Li5  1  0.42976166  0.51635501  0.10581092  1
  Li  Li6  1  0.95631374  0.98295114  0.93082259  1
  Y  Y7  1  0.66770868  0.38021272  0.42549139  1
