# generated using pymatgen
data_Li2Ca2TiSO4
_symmetry_space_group_name_H-M   'P 1'
_cell_length_a   12.97850720
_cell_length_b   12.97850720
_cell_length_c   7.56581390
_cell_angle_alpha   90.00000000
_cell_angle_beta   90.00000000
_cell_angle_gamma   120.00000000
_symmetry_Int_Tables_number   1
_chemical_formula_structural   Li2Ca2TiSO4
_chemical_formula_sum   'Li12 Ca12 Ti6 S6 O24'
_cell_volume   1103.66119113
_cell_formula_units_Z   6
loop_
 _symmetry_equiv_pos_site_id
 _symmetry_equiv_pos_as_xyz
  1  'x, y, z'
loop_
 _atom_site_type_symbol
 _atom_site_label
 _atom_site_symmetry_multiplicity
 _atom_site_fract_x
 _atom_site_fract_y
 _atom_site_fract_z
 _atom_site_occupancy
  Ca  Ca0  1  0.66195556  0.41342199  0.36746484  1
  Ca  Ca1  1  -0.41342199  0.24853357  0.36746484  1
  Ca  Ca2  1  -0.24853357  -0.66195556  0.36746484  1
  Ca  Ca3  1  -0.66195556  -0.41342199  0.86746484  1
  Ca  Ca4  1  0.41342199  -0.24853357  0.86746484  1
  Ca  Ca5  1  0.24853357  0.66195556  0.86746484  1
  Ca  Ca6  1  -0.66195556  -0.41342199  -0.36746484  1
  Ca  Ca7  1  0.41342199  -0.24853357  -0.36746484  1
  Ca  Ca8  1  0.24853357  0.66195556  -0.36746484  1
  Ca  Ca9  1  0.66195556  0.41342199  0.13253516  1
  Ca  Ca10  1  -0.41342199  0.24853357  0.13253516  1
  Ca  Ca11  1  -0.24853357  -0.66195556  0.13253516  1
  Li  Li12  1  0.83094889  0.48154971  0.08093822  1
  Li  Li13  1  0.51845029  0.34939918  0.08093822  1
  Li  Li14  1  0.65060082  0.16905111  0.08093822  1
  Li  Li15  1  0.16905111  0.51845029  0.58093822  1
  Li  Li16  1  0.48154971  0.65060082  0.58093822  1
  Li  Li17  1  0.34939918  0.83094889  0.58093822  1
  Li  Li18  1  0.16905111  0.51845029  0.91906178  1
  Li  Li19  1  0.48154971  0.65060082  0.91906178  1
  Li  Li20  1  0.34939918  0.83094889  0.91906178  1
  Li  Li21  1  0.83094889  0.48154971  0.41906178  1
  Li  Li22  1  0.51845029  0.34939918  0.41906178  1
  Li  Li23  1  0.65060082  0.16905111  0.41906178  1
  O  O24  1  0.83139717  0.48887820  0.80586103  1
  O  O25  1  0.51112180  0.34251897  0.80586103  1
  O  O26  1  0.65748103  0.16860283  0.80586103  1
  O  O27  1  0.16860283  0.51112180  0.30586103  1
  O  O28  1  0.48887820  0.65748103  0.30586103  1
  O  O29  1  0.34251897  0.83139717  0.30586103  1
  O  O30  1  0.16860283  0.51112180  0.19413897  1
  O  O31  1  0.48887820  0.65748103  0.19413897  1
  O  O32  1  0.34251897  0.83139717  0.19413897  1
  O  O33  1  0.83139717  0.48887820  0.69413897  1
  O  O34  1  0.51112180  0.34251897  0.69413897  1
  O  O35  1  0.65748103  0.16860283  0.69413897  1
  O  O36  1  0.74182076  0.12043103  0.25000000  1
  O  O37  1  0.87956897  0.62138973  0.25000000  1
  O  O38  1  0.37861027  0.25817924  0.25000000  1
  O  O39  1  0.25817924  0.87956897  0.75000000  1
  O  O40  1  0.12043103  0.37861027  0.75000000  1
  O  O41  1  0.62138973  0.74182076  0.75000000  1
  O  O42  1  0.79665353  0.23887875  0.25000000  1
  O  O43  1  0.76112125  0.55777478  0.25000000  1
  O  O44  1  0.44222522  0.20334647  0.25000000  1
  O  O45  1  0.20334647  0.76112125  0.75000000  1
  O  O46  1  0.23887875  0.44222522  0.75000000  1
  O  O47  1  0.55777478  0.79665353  0.75000000  1
  S  S48  1  0.98997787  0.86202387  0.25000000  1
  S  S49  1  0.13797613  0.12795400  0.25000000  1
  S  S50  1  0.87204600  0.01002213  0.25000000  1
  S  S51  1  0.01002213  0.13797613  0.75000000  1
  S  S52  1  0.86202387  0.87204600  0.75000000  1
  S  S53  1  0.12795400  0.98997787  0.75000000  1
  Ti  Ti54  1  0.50000000  -0.00000000  0.00000000  1
  Ti  Ti55  1  0.00000000  0.50000000  0.00000000  1
  Ti  Ti56  1  0.50000000  0.50000000  0.00000000  1
  Ti  Ti57  1  0.50000000  -0.00000000  0.50000000  1
  Ti  Ti58  1  0.00000000  0.50000000  0.50000000  1
  Ti  Ti59  1  0.50000000  0.50000000  0.50000000  1
