# generated using pymatgen
data_LiF
_symmetry_space_group_name_H-M   'P 1'
_cell_length_a   7.18415115
_cell_length_b   12.49568976
_cell_length_c   17.97389132
_cell_angle_alpha   90.00000000
_cell_angle_beta   90.00000000
_cell_angle_gamma   90.00000000
_symmetry_Int_Tables_number   1
_chemical_formula_structural   LiF
_chemical_formula_sum   'Li52 F52'
_cell_volume   1613.53283218
_cell_formula_units_Z   52
loop_
 _symmetry_equiv_pos_site_id
 _symmetry_equiv_pos_as_xyz
  1  'x, y, z'
loop_
 _atom_site_type_symbol
 _atom_site_label
 _atom_site_symmetry_multiplicity
 _atom_site_fract_x
 _atom_site_fract_y
 _atom_site_fract_z
 _atom_site_occupancy
  F  F0  1  0.30720796  0.25000000  0.54431801  1
  F  F1  1  0.19279204  0.75000000  0.04431801  1
  F  F2  1  0.69279204  0.75000000  0.45568199  1
  F  F3  1  0.80720796  0.25000000  0.95568199  1
  F  F4  1  0.96238541  0.35398807  0.28384872  1
  F  F5  1  0.53761459  0.64601193  0.78384872  1
  F  F6  1  0.03761459  0.85398807  0.71615128  1
  F  F7  1  0.46238541  0.14601193  0.21615128  1
  F  F8  1  0.03761459  0.64601193  0.71615128  1
  F  F9  1  0.46238541  0.35398807  0.21615128  1
  F  F10  1  0.96238541  0.14601193  0.28384872  1
  F  F11  1  0.53761459  0.85398807  0.78384872  1
  F  F12  1  0.54114792  0.97539454  0.07019941  1
  F  F13  1  0.95885208  0.02460546  0.57019941  1
  F  F14  1  0.45885208  0.47539454  0.92980059  1
  F  F15  1  0.04114792  0.52460546  0.42980059  1
  F  F16  1  0.45885208  0.02460546  0.92980059  1
  F  F17  1  0.04114792  0.97539454  0.42980059  1
  F  F18  1  0.54114792  0.52460546  0.07019941  1
  F  F19  1  0.95885208  0.47539454  0.57019941  1
  F  F20  1  0.45804393  0.16443503  0.45188542  1
  F  F21  1  0.04195607  0.83556497  0.95188542  1
  F  F22  1  0.54195607  0.66443503  0.54811458  1
  F  F23  1  0.95804393  0.33556497  0.04811458  1
  F  F24  1  0.54195607  0.83556497  0.54811458  1
  F  F25  1  0.95804393  0.16443503  0.04811458  1
  F  F26  1  0.45804393  0.33556497  0.45188542  1
  F  F27  1  0.04195607  0.66443503  0.95188542  1
  F  F28  1  0.65420143  0.25000000  0.63835479  1
  F  F29  1  0.84579857  0.75000000  0.13835479  1
  F  F30  1  0.34579857  0.75000000  0.36164521  1
  F  F31  1  0.15420143  0.25000000  0.86164521  1
  F  F32  1  0.69829657  0.25000000  0.78798093  1
  F  F33  1  0.80170343  0.75000000  0.28798093  1
  F  F34  1  0.30170343  0.75000000  0.21201907  1
  F  F35  1  0.19829657  0.25000000  0.71201907  1
  F  F36  1  0.61906037  0.25000000  0.73231669  1
  F  F37  1  0.88093963  0.75000000  0.23231669  1
  F  F38  1  0.38093963  0.75000000  0.26768331  1
  F  F39  1  0.11906037  0.25000000  0.76768331  1
  F  F40  1  0.40147235  0.82649971  0.31497241  1
  F  F41  1  0.09852765  0.17350029  0.81497241  1
  F  F42  1  0.59852765  0.32649971  0.68502759  1
  F  F43  1  0.90147235  0.67350029  0.18502759  1
  F  F44  1  0.59852765  0.17350029  0.68502759  1
  F  F45  1  0.90147235  0.82649971  0.18502759  1
  F  F46  1  0.40147235  0.67350029  0.31497241  1
  F  F47  1  0.09852765  0.32649971  0.81497241  1
  F  F48  1  0.83960968  0.25000000  0.89769058  1
  F  F49  1  0.66039032  0.75000000  0.39769058  1
  F  F50  1  0.16039032  0.75000000  0.10230942  1
  F  F51  1  0.33960968  0.25000000  0.60230942  1
  Li  Li52  1  0.00000000  0.00000000  0.00000000  1
  Li  Li53  1  0.50000000  0.00000000  0.50000000  1
  Li  Li54  1  0.00000000  0.50000000  0.00000000  1
  Li  Li55  1  0.50000000  0.50000000  0.50000000  1
  Li  Li56  1  0.00000000  0.00000000  0.50000000  1
  Li  Li57  1  0.50000000  0.00000000  0.00000000  1
  Li  Li58  1  0.00000000  0.50000000  0.50000000  1
  Li  Li59  1  0.50000000  0.50000000  0.00000000  1
  Li  Li60  1  0.30697665  0.92193798  0.29266204  1
  Li  Li61  1  0.19302335  -0.92193798  0.79266204  1
  Li  Li62  1  -0.30697665  1.42193798  -0.29266204  1
  Li  Li63  1  0.80697665  -0.42193798  0.20733796  1
  Li  Li64  1  -0.30697665  -0.92193798  -0.29266204  1
  Li  Li65  1  0.80697665  0.92193798  0.20733796  1
  Li  Li66  1  0.30697665  -0.42193798  0.29266204  1
  Li  Li67  1  0.19302335  1.42193798  0.79266204  1
  Li  Li68  1  0.16955301  0.42217212  0.66076220  1
  Li  Li69  1  0.33044699  0.57782788  0.16076220  1
  Li  Li70  1  0.83044699  0.92217212  0.33923780  1
  Li  Li71  1  0.66955301  0.07782788  0.83923780  1
  Li  Li72  1  0.83044699  0.57782788  0.33923780  1
  Li  Li73  1  0.66955301  0.42217212  0.83923780  1
  Li  Li74  1  0.16955301  0.07782788  0.66076220  1
  Li  Li75  1  0.33044699  0.92217212  0.16076220  1
  Li  Li76  1  0.06974452  0.64084309  0.76951233  1
  Li  Li77  1  0.43025548  0.35915691  0.26951233  1
  Li  Li78  1  0.93025548  0.14084309  0.23048767  1
  Li  Li79  1  0.56974452  0.85915691  0.73048767  1
  Li  Li80  1  0.93025548  0.35915691  0.23048767  1
  Li  Li81  1  0.56974452  0.64084309  0.73048767  1
  Li  Li82  1  0.06974452  0.85915691  0.76951233  1
  Li  Li83  1  0.43025548  0.14084309  0.26951233  1
  Li  Li84  1  0.73651363  0.64815028  0.61224973  1
  Li  Li85  1  0.76348637  0.35184972  0.11224973  1
  Li  Li86  1  0.26348637  0.14815028  0.38775027  1
  Li  Li87  1  0.23651363  0.85184972  0.88775027  1
  Li  Li88  1  0.26348637  0.35184972  0.38775027  1
  Li  Li89  1  0.23651363  0.64815028  0.88775027  1
  Li  Li90  1  0.73651363  0.85184972  0.61224973  1
  Li  Li91  1  0.76348637  0.14815028  0.11224973  1
  Li  Li92  1  0.83946517  0.12367558  0.86504405  1
  Li  Li93  1  0.66053483  0.87632442  0.36504405  1
  Li  Li94  1  0.16053483  0.62367558  0.13495595  1
  Li  Li95  1  0.33946517  0.37632442  0.63495595  1
  Li  Li96  1  0.16053483  0.87632442  0.13495595  1
  Li  Li97  1  0.33946517  0.12367558  0.63495595  1
  Li  Li98  1  0.83946517  0.37632442  0.86504405  1
  Li  Li99  1  0.66053483  0.62367558  0.36504405  1
  Li  Li100  1  0.27192615  0.25000000  0.41275724  1
  Li  Li101  1  0.22807385  0.75000000  0.91275724  1
  Li  Li102  1  0.72807385  0.75000000  0.58724276  1
  Li  Li103  1  0.77192615  0.25000000  0.08724276  1
