# generated using pymatgen
data_Li3Y2TiAlSe2
_symmetry_space_group_name_H-M   'P 1'
_cell_length_a   5.23033347
_cell_length_b   5.74960713
_cell_length_c   6.69032536
_cell_angle_alpha   94.27395962
_cell_angle_beta   96.23803696
_cell_angle_gamma   92.24876537
_symmetry_Int_Tables_number   1
_chemical_formula_structural   Li3Y2TiAlSe2
_chemical_formula_sum   'Li3 Y2 Ti1 Al1 Se2'
_cell_volume   199.21893132
_cell_formula_units_Z   1
loop_
 _symmetry_equiv_pos_site_id
 _symmetry_equiv_pos_as_xyz
  1  'x, y, z'
loop_
 _atom_site_type_symbol
 _atom_site_label
 _atom_site_symmetry_multiplicity
 _atom_site_fract_x
 _atom_site_fract_y
 _atom_site_fract_z
 _atom_site_occupancy
  Al  Al0  1  0.00000000  0.00000000  0.00000000  1
  Se  Se1  1  0.50000000  0.50000000  0.50000000  1
  Se  Se2  1  0.50000000  0.50000000  0.00000000  1
  Ti  Ti3  1  0.50000000  0.00000000  0.50000000  1
  Y  Y4  1  0.00000000  0.50000000  0.50000000  1
  Y  Y5  1  0.74604392  0.65040135  0.53680284  1
  Li  Li6  1  0.93332360  0.03261353  0.83054323  1
  Li  Li7  1  0.53179037  0.03769124  0.68409876  1
  Li  Li8  1  0.03799413  0.87141067  0.66011880  1
