# generated using pymatgen
data_Li3Y2As4P3Se
_symmetry_space_group_name_H-M   'P 1'
_cell_length_a   5.75765494
_cell_length_b   5.97637637
_cell_length_c   7.20752885
_cell_angle_alpha   92.93269570
_cell_angle_beta   96.63309039
_cell_angle_gamma   102.07685275
_symmetry_Int_Tables_number   1
_chemical_formula_structural   Li3Y2As4P3Se
_chemical_formula_sum   'Li3 Y2 As4 P3 Se1'
_cell_volume   240.17249097
_cell_formula_units_Z   1
loop_
 _symmetry_equiv_pos_site_id
 _symmetry_equiv_pos_as_xyz
  1  'x, y, z'
loop_
 _atom_site_type_symbol
 _atom_site_label
 _atom_site_symmetry_multiplicity
 _atom_site_fract_x
 _atom_site_fract_y
 _atom_site_fract_z
 _atom_site_occupancy
  Se  Se0  1  0.12500000  0.00000000  0.25000000  1
  P  P1  1  0.00000000  0.00000000  0.00000000  1
  P  P2  1  0.37500000  0.00000000  0.25000000  1
  P  P3  1  0.25000000  0.25000000  0.25000000  1
  As  As4  1  0.00000000  0.25000000  0.12500000  1
  As  As5  1  0.31129791  0.83399698  0.16919330  1
  As  As6  1  0.44518319  0.82879253  0.68548929  1
  As  As7  1  0.21446247  0.35989214  0.96689877  1
  Li  Li8  1  0.03432696  0.87308947  0.11721446  1
  Li  Li9  1  0.43672246  0.62796230  0.16014666  1
  Li  Li10  1  0.67655934  0.81213063  0.36711550  1
  Y  Y11  1  0.52576346  0.82954939  0.19919084  1
  Y  Y12  1  0.76225728  0.49249821  0.66334947  1
