# generated using pymatgen
data_LiF
_symmetry_space_group_name_H-M   'P 1'
_cell_length_a   10.29217117
_cell_length_b   10.29217117
_cell_length_c   11.12919181
_cell_angle_alpha   90.00000000
_cell_angle_beta   90.00000000
_cell_angle_gamma   120.00000000
_symmetry_Int_Tables_number   1
_chemical_formula_structural   LiF
_chemical_formula_sum   'Li44 F44'
_cell_volume   1020.95890212
_cell_formula_units_Z   44
loop_
 _symmetry_equiv_pos_site_id
 _symmetry_equiv_pos_as_xyz
  1  'x, y, z'
loop_
 _atom_site_type_symbol
 _atom_site_label
 _atom_site_symmetry_multiplicity
 _atom_site_fract_x
 _atom_site_fract_y
 _atom_site_fract_z
 _atom_site_occupancy
  F  F0  1  0.58961889  0.53605924  0.30075844  1
  F  F1  1  0.46394076  0.05355965  0.30075844  1
  F  F2  1  0.94644035  0.41038111  0.30075844  1
  F  F3  1  0.46394076  0.41038111  0.69924156  1
  F  F4  1  0.94644035  0.53605924  0.69924156  1
  F  F5  1  0.58961889  0.05355965  0.69924156  1
  F  F6  1  0.66666667  0.33333333  0.00000000  1
  F  F7  1  0.66666667  0.33333333  0.50000000  1
  F  F8  1  0.29037863  0.50878349  0.18757712  1
  F  F9  1  0.49121651  0.78159514  0.18757712  1
  F  F10  1  0.21840486  0.70962137  0.18757712  1
  F  F11  1  0.49121651  0.70962137  0.81242288  1
  F  F12  1  0.21840486  0.50878349  0.81242288  1
  F  F13  1  0.29037863  0.78159514  0.81242288  1
  F  F14  1  0.00000000  0.00000000  0.25464047  1
  F  F15  1  0.00000000  0.00000000  0.74535953  1
  F  F16  1  0.00000000  0.00000000  0.39610000  1
  F  F17  1  0.00000000  0.00000000  0.60390000  1
  F  F18  1  0.49418418  0.00984304  0.29253536  1
  F  F19  1  0.99015696  0.48434114  0.29253536  1
  F  F20  1  0.51565886  0.50581582  0.29253536  1
  F  F21  1  0.99015696  0.50581582  0.70746464  1
  F  F22  1  0.51565886  0.00984304  0.70746464  1
  F  F23  1  0.49418418  0.48434114  0.70746464  1
  F  F24  1  0.62242569  0.90281682  0.25917896  1
  F  F25  1  0.09718318  0.71960887  0.25917896  1
  F  F26  1  0.28039113  0.37757431  0.25917896  1
  F  F27  1  0.09718318  0.37757431  0.74082104  1
  F  F28  1  0.28039113  0.90281682  0.74082104  1
  F  F29  1  0.62242569  0.71960887  0.74082104  1
  F  F30  1  0.59351821  0.62873616  0.20326307  1
  F  F31  1  0.37126384  0.96478205  0.20326307  1
  F  F32  1  0.03521795  0.40648179  0.20326307  1
  F  F33  1  0.37126384  0.40648179  0.79673693  1
  F  F34  1  0.03521795  0.62873616  0.79673693  1
  F  F35  1  0.59351821  0.96478205  0.79673693  1
  F  F36  1  0.44760857  0.07912903  0.37126331  1
  F  F37  1  0.92087097  0.36847954  0.37126331  1
  F  F38  1  0.63152046  0.55239143  0.37126331  1
  F  F39  1  0.92087097  0.55239143  0.62873669  1
  F  F40  1  0.63152046  0.07912903  0.62873669  1
  F  F41  1  0.44760857  0.36847954  0.62873669  1
  F  F42  1  0.33333333  0.66666667  0.64713956  1
  F  F43  1  0.33333333  0.66666667  0.35286044  1
  Li  Li44  1  0.66666667  0.33333333  0.41133375  1
  Li  Li45  1  0.66666667  0.33333333  0.58866625  1
  Li  Li46  1  0.24407999  0.92797596  0.95647398  1
  Li  Li47  1  -0.92797596  -0.68389597  0.95647398  1
  Li  Li48  1  0.68389597  -0.24407999  0.95647398  1
  Li  Li49  1  -0.92797596  -0.24407999  -0.95647398  1
  Li  Li50  1  0.68389597  0.92797596  -0.95647398  1
  Li  Li51  1  0.24407999  -0.68389597  -0.95647398  1
  Li  Li52  1  0.64271628  0.13564219  0.09572083  1
  Li  Li53  1  0.86435781  0.50707409  0.09572083  1
  Li  Li54  1  0.49292591  0.35728372  0.09572083  1
  Li  Li55  1  0.86435781  0.35728372  0.90427917  1
  Li  Li56  1  0.49292591  0.13564219  0.90427917  1
  Li  Li57  1  0.64271628  0.50707409  0.90427917  1
  Li  Li58  1  0.33333333  0.66666667  0.00000000  1
  Li  Li59  1  0.01975109  0.50548570  0.37532401  1
  Li  Li60  1  0.49451430  0.51426539  0.37532401  1
  Li  Li61  1  0.48573461  0.98024891  0.37532401  1
  Li  Li62  1  0.49451430  0.98024891  0.62467599  1
  Li  Li63  1  0.48573461  0.50548570  0.62467599  1
  Li  Li64  1  0.01975109  0.51426539  0.62467599  1
  Li  Li65  1  0.38730822  0.94236859  0.70788711  1
  Li  Li66  1  0.05763141  0.44493964  0.70788711  1
  Li  Li67  1  0.55506036  0.61269178  0.70788711  1
  Li  Li68  1  0.05763141  0.61269178  0.29211289  1
  Li  Li69  1  0.55506036  0.94236859  0.29211289  1
  Li  Li70  1  0.38730822  0.44493964  0.29211289  1
  Li  Li71  1  0.26289023  0.04165193  0.46821047  1
  Li  Li72  1  0.95834807  0.22123830  0.46821047  1
  Li  Li73  1  0.77876170  0.73710977  0.46821047  1
  Li  Li74  1  0.95834807  0.73710977  0.53178953  1
  Li  Li75  1  0.77876170  0.04165193  0.53178953  1
  Li  Li76  1  0.26289023  0.22123830  0.53178953  1
  Li  Li77  1  0.42008749  0.63042441  0.88461949  1
  Li  Li78  1  0.36957559  0.78966308  0.88461949  1
  Li  Li79  1  0.21033692  0.57991251  0.88461949  1
  Li  Li80  1  0.36957559  0.57991251  0.11538051  1
  Li  Li81  1  0.21033692  0.63042441  0.11538051  1
  Li  Li82  1  0.42008749  0.78966308  0.11538051  1
  Li  Li83  1  0.95543068  0.04456932  0.00000000  1
  Li  Li84  1  0.95543068  0.91086136  0.00000000  1
  Li  Li85  1  0.08913864  0.04456932  0.00000000  1
  Li  Li86  1  0.33333333  0.66666667  0.22435135  1
  Li  Li87  1  0.33333333  0.66666667  0.77564865  1
