# generated using pymatgen
data_LiF
_symmetry_space_group_name_H-M   'P 1'
_cell_length_a   16.73093052
_cell_length_b   7.36840734
_cell_length_c   14.43034413
_cell_angle_alpha   90.00000000
_cell_angle_beta   90.00000000
_cell_angle_gamma   90.00000000
_symmetry_Int_Tables_number   1
_chemical_formula_structural   LiF
_chemical_formula_sum   'Li56 F56'
_cell_volume   1778.97731603
_cell_formula_units_Z   56
loop_
 _symmetry_equiv_pos_site_id
 _symmetry_equiv_pos_as_xyz
  1  'x, y, z'
loop_
 _atom_site_type_symbol
 _atom_site_label
 _atom_site_symmetry_multiplicity
 _atom_site_fract_x
 _atom_site_fract_y
 _atom_site_fract_z
 _atom_site_occupancy
  F  F0  1  0.34483171  0.64130929  0.29543706  1
  F  F1  1  0.65516829  0.35869071  0.29543706  1
  F  F2  1  0.15516829  0.14130929  0.70456294  1
  F  F3  1  0.84483171  0.85869071  0.70456294  1
  F  F4  1  0.65516829  0.35869071  0.70456294  1
  F  F5  1  0.34483171  0.64130929  0.70456294  1
  F  F6  1  0.84483171  0.85869071  0.29543706  1
  F  F7  1  0.15516829  0.14130929  0.29543706  1
  F  F8  1  0.00000000  0.50000000  0.12676098  1
  F  F9  1  0.50000000  0.00000000  0.87323902  1
  F  F10  1  0.00000000  0.50000000  0.87323902  1
  F  F11  1  0.50000000  0.00000000  0.12676098  1
  F  F12  1  0.93492395  0.71821323  0.00000000  1
  F  F13  1  0.06507605  0.28178677  -0.00000000  1
  F  F14  1  0.56507605  0.21821323  0.00000000  1
  F  F15  1  0.43492395  0.78178677  -0.00000000  1
  F  F16  1  0.57050725  0.11849027  0.62682225  1
  F  F17  1  0.42949275  0.88150973  0.62682225  1
  F  F18  1  0.92949275  0.61849027  0.37317775  1
  F  F19  1  0.07050725  0.38150973  0.37317775  1
  F  F20  1  0.42949275  0.88150973  0.37317775  1
  F  F21  1  0.57050725  0.11849027  0.37317775  1
  F  F22  1  0.07050725  0.38150973  0.62682225  1
  F  F23  1  0.92949275  0.61849027  0.62682225  1
  F  F24  1  0.07741838  0.98806820  0.39813293  1
  F  F25  1  0.92258162  0.01193180  0.39813293  1
  F  F26  1  0.42258162  0.48806820  0.60186707  1
  F  F27  1  0.57741838  0.51193180  0.60186707  1
  F  F28  1  0.92258162  0.01193180  0.60186707  1
  F  F29  1  0.07741838  0.98806820  0.60186707  1
  F  F30  1  0.57741838  0.51193180  0.39813293  1
  F  F31  1  0.42258162  0.48806820  0.39813293  1
  F  F32  1  0.49795821  0.35636921  0.94436077  1
  F  F33  1  0.50204179  0.64363079  0.94436077  1
  F  F34  1  0.00204179  0.85636921  0.05563923  1
  F  F35  1  0.99795821  0.14363079  0.05563923  1
  F  F36  1  0.50204179  0.64363079  0.05563923  1
  F  F37  1  0.49795821  0.35636921  0.05563923  1
  F  F38  1  0.99795821  0.14363079  0.94436077  1
  F  F39  1  0.00204179  0.85636921  0.94436077  1
  F  F40  1  0.89065539  0.24690260  0.50000000  1
  F  F41  1  0.10934461  0.75309740  0.50000000  1
  F  F42  1  0.60934461  0.74690260  0.50000000  1
  F  F43  1  0.39065539  0.25309740  0.50000000  1
  F  F44  1  0.77715205  0.73064269  0.70268337  1
  F  F45  1  0.22284795  0.26935731  0.70268337  1
  F  F46  1  0.72284795  0.23064269  0.29731663  1
  F  F47  1  0.27715205  0.76935731  0.29731663  1
  F  F48  1  0.22284795  0.26935731  0.29731663  1
  F  F49  1  0.77715205  0.73064269  0.29731663  1
  F  F50  1  0.27715205  0.76935731  0.70268337  1
  F  F51  1  0.72284795  0.23064269  0.70268337  1
  F  F52  1  0.00000000  0.50000000  0.80894961  1
  F  F53  1  0.50000000  0.00000000  0.19105039  1
  F  F54  1  0.00000000  0.50000000  0.19105039  1
  F  F55  1  0.50000000  0.00000000  0.80894961  1
  Li  Li56  1  0.94278520  0.46501401  0.50000000  1
  Li  Li57  1  0.05721480  0.53498599  0.50000000  1
  Li  Li58  1  0.55721480  0.96501401  0.50000000  1
  Li  Li59  1  0.44278520  0.03498599  0.50000000  1
  Li  Li60  1  0.87037783  0.83722600  0.83678015  1
  Li  Li61  1  -0.87037783  -0.83722600  0.83678015  1
  Li  Li62  1  -0.37037783  1.33722600  -0.83678015  1
  Li  Li63  1  1.37037783  -0.33722600  -0.83678015  1
  Li  Li64  1  -0.87037783  -0.83722600  -0.83678015  1
  Li  Li65  1  0.87037783  0.83722600  -0.83678015  1
  Li  Li66  1  1.37037783  -0.33722600  0.83678015  1
  Li  Li67  1  -0.37037783  1.33722600  0.83678015  1
  Li  Li68  1  0.08636062  0.29328162  0.58360205  1
  Li  Li69  1  0.91363938  0.70671838  0.58360205  1
  Li  Li70  1  0.41363938  0.79328162  0.41639795  1
  Li  Li71  1  0.58636062  0.20671838  0.41639795  1
  Li  Li72  1  0.91363938  0.70671838  0.41639795  1
  Li  Li73  1  0.08636062  0.29328162  0.41639795  1
  Li  Li74  1  0.58636062  0.20671838  0.58360205  1
  Li  Li75  1  0.41363938  0.79328162  0.58360205  1
  Li  Li76  1  0.72748483  0.24000684  0.00000000  1
  Li  Li77  1  0.27251517  0.75999316  0.00000000  1
  Li  Li78  1  0.77251517  0.74000684  0.00000000  1
  Li  Li79  1  0.22748483  0.25999316  0.00000000  1
  Li  Li80  1  0.04075778  0.81191506  0.19603373  1
  Li  Li81  1  0.95924222  0.18808494  0.19603373  1
  Li  Li82  1  0.45924222  0.31191506  0.80396627  1
  Li  Li83  1  0.54075778  0.68808494  0.80396627  1
  Li  Li84  1  0.95924222  0.18808494  0.80396627  1
  Li  Li85  1  0.04075778  0.81191506  0.80396627  1
  Li  Li86  1  0.54075778  0.68808494  0.19603373  1
  Li  Li87  1  0.45924222  0.31191506  0.19603373  1
  Li  Li88  1  0.00000000  0.00000000  0.00000000  1
  Li  Li89  1  0.50000000  0.50000000  -0.00000000  1
  Li  Li90  1  0.00000000  0.00000000  0.34128515  1
  Li  Li91  1  0.50000000  0.50000000  0.65871485  1
  Li  Li92  1  0.00000000  0.00000000  0.65871485  1
  Li  Li93  1  0.50000000  0.50000000  0.34128515  1
  Li  Li94  1  0.05193408  0.25587652  0.50000000  1
  Li  Li95  1  0.94806592  0.74412348  0.50000000  1
  Li  Li96  1  0.44806592  0.75587652  0.50000000  1
  Li  Li97  1  0.55193408  0.24412348  0.50000000  1
  Li  Li98  1  0.22837229  0.62023032  0.65146926  1
  Li  Li99  1  0.77162771  0.37976968  0.65146926  1
  Li  Li100  1  0.27162771  0.12023032  0.34853074  1
  Li  Li101  1  0.72837229  0.87976968  0.34853074  1
  Li  Li102  1  0.77162771  0.37976968  0.34853074  1
  Li  Li103  1  0.22837229  0.62023032  0.34853074  1
  Li  Li104  1  0.72837229  0.87976968  0.65146926  1
  Li  Li105  1  0.27162771  0.12023032  0.65146926  1
  Li  Li106  1  0.00000000  0.00000000  0.22135626  1
  Li  Li107  1  0.50000000  0.50000000  0.77864374  1
  Li  Li108  1  0.00000000  0.00000000  0.77864374  1
  Li  Li109  1  0.50000000  0.50000000  0.22135626  1
  Li  Li110  1  0.00000000  0.00000000  0.50000000  1
  Li  Li111  1  0.50000000  0.50000000  0.50000000  1
