# generated using pymatgen
data_LiF
_symmetry_space_group_name_H-M   'P 1'
_cell_length_a   9.51967263
_cell_length_b   10.12768655
_cell_length_c   7.57925899
_cell_angle_alpha   90.00000000
_cell_angle_beta   90.00000000
_cell_angle_gamma   90.00000000
_symmetry_Int_Tables_number   1
_chemical_formula_structural   LiF
_chemical_formula_sum   'Li24 F24'
_cell_volume   730.73349109
_cell_formula_units_Z   24
loop_
 _symmetry_equiv_pos_site_id
 _symmetry_equiv_pos_as_xyz
  1  'x, y, z'
loop_
 _atom_site_type_symbol
 _atom_site_label
 _atom_site_symmetry_multiplicity
 _atom_site_fract_x
 _atom_site_fract_y
 _atom_site_fract_z
 _atom_site_occupancy
  F  F0  1  0.00000000  0.00000000  0.00000000  1
  F  F1  1  0.50000000  0.00000000  0.50000000  1
  F  F2  1  0.00000000  0.50000000  -0.00000000  1
  F  F3  1  0.50000000  0.50000000  0.50000000  1
  F  F4  1  0.77524803  0.15454346  0.28647556  1
  F  F5  1  0.72475197  0.84545654  0.78647556  1
  F  F6  1  0.22475197  0.65454346  0.71352444  1
  F  F7  1  0.27524803  0.34545654  0.21352444  1
  F  F8  1  0.22475197  0.84545654  0.71352444  1
  F  F9  1  0.27524803  0.15454346  0.21352444  1
  F  F10  1  0.77524803  0.34545654  0.28647556  1
  F  F11  1  0.72475197  0.65454346  0.78647556  1
  F  F12  1  0.01687505  0.68124117  0.08181695  1
  F  F13  1  0.48312495  0.31875883  0.58181695  1
  F  F14  1  0.98312495  0.18124117  0.91818305  1
  F  F15  1  0.51687505  0.81875883  0.41818305  1
  F  F16  1  0.98312495  0.31875883  0.91818305  1
  F  F17  1  0.51687505  0.68124117  0.41818305  1
  F  F18  1  0.01687505  0.81875883  0.08181695  1
  F  F19  1  0.48312495  0.18124117  0.58181695  1
  F  F20  1  0.00000000  0.00000000  0.50000000  1
  F  F21  1  0.50000000  0.00000000  -0.00000000  1
  F  F22  1  0.00000000  0.50000000  0.50000000  1
  F  F23  1  0.50000000  0.50000000  -0.00000000  1
  Li  Li24  1  0.25096726  0.25000000  0.62277542  1
  Li  Li25  1  0.24903274  0.75000000  0.12277542  1
  Li  Li26  1  0.74903274  0.75000000  0.37722458  1
  Li  Li27  1  0.75096726  0.25000000  0.87722458  1
  Li  Li28  1  0.72617139  0.25000000  0.63503308  1
  Li  Li29  1  0.77382861  0.75000000  0.13503308  1
  Li  Li30  1  0.27382861  0.75000000  0.36496692  1
  Li  Li31  1  0.22617139  0.25000000  0.86496692  1
  Li  Li32  1  0.81641309  0.58402850  0.06886186  1
  Li  Li33  1  -0.31641309  -0.58402850  0.56886186  1
  Li  Li34  1  -0.81641309  1.08402850  -0.06886186  1
  Li  Li35  1  1.31641309  -0.08402850  0.43113814  1
  Li  Li36  1  -0.81641309  -0.58402850  -0.06886186  1
  Li  Li37  1  1.31641309  0.58402850  0.43113814  1
  Li  Li38  1  0.81641309  -0.08402850  0.06886186  1
  Li  Li39  1  -0.31641309  1.08402850  0.56886186  1
  Li  Li40  1  0.50225159  0.86890276  0.61835971  1
  Li  Li41  1  0.99774841  0.13109724  0.11835971  1
  Li  Li42  1  0.49774841  0.36890276  0.38164029  1
  Li  Li43  1  0.00225159  0.63109724  0.88164029  1
  Li  Li44  1  0.49774841  0.13109724  0.38164029  1
  Li  Li45  1  0.00225159  0.86890276  0.88164029  1
  Li  Li46  1  0.50225159  0.63109724  0.61835971  1
  Li  Li47  1  0.99774841  0.36890276  0.11835971  1
