# generated using pymatgen
data_LiF
_symmetry_space_group_name_H-M   'P 1'
_cell_length_a   10.32039642
_cell_length_b   10.56661727
_cell_length_c   10.31135685
_cell_angle_alpha   90.00000000
_cell_angle_beta   90.00000000
_cell_angle_gamma   90.00000000
_symmetry_Int_Tables_number   1
_chemical_formula_structural   LiF
_chemical_formula_sum   'Li32 F32'
_cell_volume   1124.47077690
_cell_formula_units_Z   32
loop_
 _symmetry_equiv_pos_site_id
 _symmetry_equiv_pos_as_xyz
  1  'x, y, z'
loop_
 _atom_site_type_symbol
 _atom_site_label
 _atom_site_symmetry_multiplicity
 _atom_site_fract_x
 _atom_site_fract_y
 _atom_site_fract_z
 _atom_site_occupancy
  F  F0  1  0.38717124  0.13124954  0.60292822  1
  F  F1  1  0.61282876  0.86875046  0.60292822  1
  F  F2  1  0.11282876  0.63124954  0.39707178  1
  F  F3  1  0.88717124  0.36875046  0.39707178  1
  F  F4  1  0.61282876  0.86875046  0.39707178  1
  F  F5  1  0.38717124  0.13124954  0.39707178  1
  F  F6  1  0.88717124  0.36875046  0.60292822  1
  F  F7  1  0.11282876  0.63124954  0.60292822  1
  F  F8  1  0.18177330  0.42993273  0.00000000  1
  F  F9  1  0.81822670  0.57006727  0.00000000  1
  F  F10  1  0.31822670  0.92993273  0.00000000  1
  F  F11  1  0.68177330  0.07006727  0.00000000  1
  F  F12  1  0.90320969  0.99341285  0.16192551  1
  F  F13  1  0.09679031  0.00658715  0.16192551  1
  F  F14  1  0.59679031  0.49341285  0.83807449  1
  F  F15  1  0.40320969  0.50658715  0.83807449  1
  F  F16  1  0.09679031  0.00658715  0.83807449  1
  F  F17  1  0.90320969  0.99341285  0.83807449  1
  F  F18  1  0.40320969  0.50658715  0.16192551  1
  F  F19  1  0.59679031  0.49341285  0.16192551  1
  F  F20  1  0.58215297  0.79934623  0.38783828  1
  F  F21  1  0.41784703  0.20065377  0.38783828  1
  F  F22  1  0.91784703  0.29934623  0.61216172  1
  F  F23  1  0.08215297  0.70065377  0.61216172  1
  F  F24  1  0.41784703  0.20065377  0.61216172  1
  F  F25  1  0.58215297  0.79934623  0.61216172  1
  F  F26  1  0.08215297  0.70065377  0.38783828  1
  F  F27  1  0.91784703  0.29934623  0.38783828  1
  F  F28  1  0.00000000  0.00000000  0.89689294  1
  F  F29  1  0.50000000  0.50000000  0.10310706  1
  F  F30  1  0.00000000  0.00000000  0.10310706  1
  F  F31  1  0.50000000  0.50000000  0.89689294  1
  Li  Li32  1  0.00000000  0.50000000  0.50000000  1
  Li  Li33  1  0.50000000  0.00000000  0.50000000  1
  Li  Li34  1  0.16443765  0.73277238  0.00000000  1
  Li  Li35  1  0.83556235  0.26722762  0.00000000  1
  Li  Li36  1  0.33556235  0.23277238  0.00000000  1
  Li  Li37  1  0.66443765  0.76722762  -0.00000000  1
  Li  Li38  1  0.73254226  0.24855072  0.50000000  1
  Li  Li39  1  0.26745774  0.75144928  0.50000000  1
  Li  Li40  1  0.76745774  0.74855072  0.50000000  1
  Li  Li41  1  0.23254226  0.25144928  0.50000000  1
  Li  Li42  1  0.00000000  0.50000000  0.24541749  1
  Li  Li43  1  0.50000000  0.00000000  0.75458251  1
  Li  Li44  1  0.00000000  0.50000000  0.75458251  1
  Li  Li45  1  0.50000000  0.00000000  0.24541749  1
  Li  Li46  1  0.95253595  0.92706026  0.00000000  1
  Li  Li47  1  0.04746405  0.07293974  0.00000000  1
  Li  Li48  1  0.54746405  0.42706026  0.00000000  1
  Li  Li49  1  0.45253595  0.57293974  0.00000000  1
  Li  Li50  1  0.54981495  0.28770906  0.12417165  1
  Li  Li51  1  -0.54981495  -0.28770906  0.12417165  1
  Li  Li52  1  -0.04981495  0.78770906  -0.12417165  1
  Li  Li53  1  1.04981495  0.21229094  -0.12417165  1
  Li  Li54  1  -0.54981495  -0.28770906  -0.12417165  1
  Li  Li55  1  0.54981495  0.28770906  -0.12417165  1
  Li  Li56  1  1.04981495  0.21229094  0.12417165  1
  Li  Li57  1  -0.04981495  0.78770906  0.12417165  1
  Li  Li58  1  0.73301247  0.51726614  0.50000000  1
  Li  Li59  1  0.26698753  0.48273386  0.50000000  1
  Li  Li60  1  0.76698753  0.01726614  0.50000000  1
  Li  Li61  1  0.23301247  0.98273386  0.50000000  1
  Li  Li62  1  0.00000000  0.50000000  0.00000000  1
  Li  Li63  1  0.50000000  0.00000000  0.00000000  1
