# generated using pymatgen
data_Li2YAs2P3
_symmetry_space_group_name_H-M   'P 1'
_cell_length_a   5.20742160
_cell_length_b   5.29322993
_cell_length_c   7.11189550
_cell_angle_alpha   94.93700735
_cell_angle_beta   100.43291199
_cell_angle_gamma   108.28042245
_symmetry_Int_Tables_number   1
_chemical_formula_structural   Li2YAs2P3
_chemical_formula_sum   'Li2 Y1 As2 P3'
_cell_volume   180.90742103
_cell_formula_units_Z   1
loop_
 _symmetry_equiv_pos_site_id
 _symmetry_equiv_pos_as_xyz
  1  'x, y, z'
loop_
 _atom_site_type_symbol
 _atom_site_label
 _atom_site_symmetry_multiplicity
 _atom_site_fract_x
 _atom_site_fract_y
 _atom_site_fract_z
 _atom_site_occupancy
  P  P0  1  0.12500000  0.00000000  0.25000000  1
  P  P1  1  0.00000000  0.00000000  0.00000000  1
  P  P2  1  0.37500000  0.00000000  0.25000000  1
  As  As3  1  0.25000000  0.25000000  0.25000000  1
  As  As4  1  0.00000000  0.25000000  0.12500000  1
  Li  Li5  1  0.99150344  0.93663517  0.44262673  1
  Li  Li6  1  0.74962073  0.96463628  0.69626646  1
  Y  Y7  1  0.11466303  0.52661052  0.25691595  1
