# generated using pymatgen
data_Li2Y3F
_symmetry_space_group_name_H-M   'P 1'
_cell_length_a   3.11672062
_cell_length_b   3.08934948
_cell_length_c   5.21730148
_cell_angle_alpha   99.83761702
_cell_angle_beta   108.11893374
_cell_angle_gamma   111.89380622
_symmetry_Int_Tables_number   1
_chemical_formula_structural   Li2Y3F
_chemical_formula_sum   'Li2 Y3 F1'
_cell_volume   41.89236314
_cell_formula_units_Z   1
loop_
 _symmetry_equiv_pos_site_id
 _symmetry_equiv_pos_as_xyz
  1  'x, y, z'
loop_
 _atom_site_type_symbol
 _atom_site_label
 _atom_site_symmetry_multiplicity
 _atom_site_fract_x
 _atom_site_fract_y
 _atom_site_fract_z
 _atom_site_occupancy
  F  F0  1  0.00000000  0.00000000  0.00000000  1
  Li  Li1  1  0.50000000  0.50000000  0.50000000  1
  Li  Li2  1  0.25000000  0.25000000  0.25000000  1
  Y  Y3  1  0.75000000  0.25000000  0.00000000  1
  Y  Y4  1  0.25000000  0.75000000  0.50000000  1
  Y  Y5  1  0.16977193  0.46993098  0.43043430  1
