# generated using pymatgen
data_LiF
_symmetry_space_group_name_H-M   'P 1'
_cell_length_a   12.60184983
_cell_length_b   12.60184983
_cell_length_c   8.77606658
_cell_angle_alpha   90.00000000
_cell_angle_beta   90.00000000
_cell_angle_gamma   90.00000000
_symmetry_Int_Tables_number   1
_chemical_formula_structural   LiF
_chemical_formula_sum   'Li64 F64'
_cell_volume   1393.69746284
_cell_formula_units_Z   64
loop_
 _symmetry_equiv_pos_site_id
 _symmetry_equiv_pos_as_xyz
  1  'x, y, z'
loop_
 _atom_site_type_symbol
 _atom_site_label
 _atom_site_symmetry_multiplicity
 _atom_site_fract_x
 _atom_site_fract_y
 _atom_site_fract_z
 _atom_site_occupancy
  F  F0  1  0.80958543  0.22784740  0.35957788  1
  F  F1  1  -0.30958543  -0.22784740  0.85957788  1
  F  F2  1  0.02215260  1.55958543  0.60957788  1
  F  F3  1  0.47784740  -0.55958543  1.10957788  1
  F  F4  1  -0.30958543  0.22784740  -0.35957788  1
  F  F5  1  0.80958543  -0.22784740  0.14042212  1
  F  F6  1  0.47784740  1.55958543  0.39042212  1
  F  F7  1  0.02215260  -0.55958543  -0.10957788  1
  F  F8  1  -0.80958543  -0.22784740  -0.35957788  1
  F  F9  1  1.30958543  0.22784740  0.14042212  1
  F  F10  1  0.97784740  -0.55958543  0.39042212  1
  F  F11  1  0.52215260  1.55958543  -0.10957788  1
  F  F12  1  1.30958543  -0.22784740  0.35957788  1
  F  F13  1  -0.80958543  0.22784740  0.85957788  1
  F  F14  1  0.52215260  -0.55958543  0.60957788  1
  F  F15  1  0.97784740  1.55958543  1.10957788  1
  F  F16  1  1.30958543  0.72784740  0.85957788  1
  F  F17  1  0.19041457  0.27215260  1.35957788  1
  F  F18  1  0.52215260  2.05958543  1.10957788  1
  F  F19  1  0.97784740  -0.05958543  1.60957788  1
  F  F20  1  0.19041457  0.72784740  0.14042212  1
  F  F21  1  1.30958543  0.27215260  0.64042212  1
  F  F22  1  0.97784740  2.05958543  0.89042212  1
  F  F23  1  0.52215260  -0.05958543  0.39042212  1
  F  F24  1  -0.30958543  0.27215260  0.14042212  1
  F  F25  1  1.80958543  0.72784740  0.64042212  1
  F  F26  1  1.47784740  -0.05958543  0.89042212  1
  F  F27  1  1.02215260  2.05958543  0.39042212  1
  F  F28  1  1.80958543  0.27215260  0.85957788  1
  F  F29  1  -0.30958543  0.72784740  1.35957788  1
  F  F30  1  1.02215260  -0.05958543  1.10957788  1
  F  F31  1  1.47784740  2.05958543  1.60957788  1
  F  F32  1  0.00000000  0.25000000  0.37500000  1
  F  F33  1  0.00000000  0.75000000  0.62500000  1
  F  F34  1  0.50000000  0.25000000  0.62500000  1
  F  F35  1  0.50000000  0.75000000  0.37500000  1
  F  F36  1  0.50000000  0.75000000  0.87500000  1
  F  F37  1  0.50000000  0.25000000  0.12500000  1
  F  F38  1  0.00000000  0.75000000  0.12500000  1
  F  F39  1  0.00000000  0.25000000  0.87500000  1
  F  F40  1  0.86768545  0.11768545  0.12500000  1
  F  F41  1  0.63231455  0.88231455  0.62500000  1
  F  F42  1  0.13231455  0.61768545  0.37500000  1
  F  F43  1  0.36768545  0.38231455  0.87500000  1
  F  F44  1  0.13231455  0.88231455  0.87500000  1
  F  F45  1  0.36768545  0.11768545  0.37500000  1
  F  F46  1  0.86768545  0.38231455  0.62500000  1
  F  F47  1  0.63231455  0.61768545  0.12500000  1
  F  F48  1  0.36768545  0.61768545  0.62500000  1
  F  F49  1  0.13231455  0.38231455  0.12500000  1
  F  F50  1  0.63231455  0.11768545  0.87500000  1
  F  F51  1  0.86768545  0.88231455  0.37500000  1
  F  F52  1  0.63231455  0.38231455  0.37500000  1
  F  F53  1  0.86768545  0.61768545  0.87500000  1
  F  F54  1  0.36768545  0.88231455  0.12500000  1
  F  F55  1  0.13231455  0.11768545  0.62500000  1
  F  F56  1  0.00000000  0.25000000  0.12500000  1
  F  F57  1  0.00000000  0.75000000  0.37500000  1
  F  F58  1  0.00000000  0.75000000  0.87500000  1
  F  F59  1  0.00000000  0.25000000  0.62500000  1
  F  F60  1  0.50000000  0.75000000  0.62500000  1
  F  F61  1  0.50000000  0.25000000  0.87500000  1
  F  F62  1  0.50000000  0.25000000  0.37500000  1
  F  F63  1  0.50000000  0.75000000  0.12500000  1
  Li  Li64  1  0.93791560  0.32690117  0.34883702  1
  Li  Li65  1  0.56208440  0.67309883  0.84883702  1
  Li  Li66  1  0.92309883  0.68791560  0.59883702  1
  Li  Li67  1  0.57690117  0.31208440  0.09883702  1
  Li  Li68  1  0.56208440  0.32690117  0.65116298  1
  Li  Li69  1  0.93791560  0.67309883  0.15116298  1
  Li  Li70  1  0.57690117  0.68791560  0.40116298  1
  Li  Li71  1  0.92309883  0.31208440  0.90116298  1
  Li  Li72  1  0.06208440  0.67309883  0.65116298  1
  Li  Li73  1  0.43791560  0.32690117  0.15116298  1
  Li  Li74  1  0.07690117  0.31208440  0.40116298  1
  Li  Li75  1  0.42309883  0.68791560  0.90116298  1
  Li  Li76  1  0.43791560  0.67309883  0.34883702  1
  Li  Li77  1  0.06208440  0.32690117  0.84883702  1
  Li  Li78  1  0.42309883  0.31208440  0.59883702  1
  Li  Li79  1  0.07690117  0.68791560  0.09883702  1
  Li  Li80  1  0.43791560  0.82690117  0.84883702  1
  Li  Li81  1  0.06208440  0.17309883  0.34883702  1
  Li  Li82  1  0.42309883  0.18791560  0.09883702  1
  Li  Li83  1  0.07690117  0.81208440  0.59883702  1
  Li  Li84  1  0.06208440  0.82690117  0.15116298  1
  Li  Li85  1  0.43791560  0.17309883  0.65116298  1
  Li  Li86  1  0.07690117  0.18791560  0.90116298  1
  Li  Li87  1  0.42309883  0.81208440  0.40116298  1
  Li  Li88  1  0.56208440  0.17309883  0.15116298  1
  Li  Li89  1  0.93791560  0.82690117  0.65116298  1
  Li  Li90  1  0.57690117  0.81208440  0.90116298  1
  Li  Li91  1  0.92309883  0.18791560  0.40116298  1
  Li  Li92  1  0.93791560  0.17309883  0.84883702  1
  Li  Li93  1  0.56208440  0.82690117  0.34883702  1
  Li  Li94  1  0.92309883  0.81208440  0.09883702  1
  Li  Li95  1  0.57690117  0.18791560  0.59883702  1
  Li  Li96  1  0.00000000  0.00000000  0.00000000  1
  Li  Li97  1  0.50000000  0.00000000  0.50000000  1
  Li  Li98  1  0.25000000  0.75000000  0.25000000  1
  Li  Li99  1  0.25000000  0.25000000  0.75000000  1
  Li  Li100  1  0.50000000  0.00000000  0.00000000  1
  Li  Li101  1  0.00000000  0.00000000  0.50000000  1
  Li  Li102  1  0.25000000  0.75000000  0.75000000  1
  Li  Li103  1  0.25000000  0.25000000  0.25000000  1
  Li  Li104  1  0.50000000  0.50000000  0.50000000  1
  Li  Li105  1  0.00000000  0.50000000  0.00000000  1
  Li  Li106  1  0.75000000  0.25000000  0.75000000  1
  Li  Li107  1  0.75000000  0.75000000  0.25000000  1
  Li  Li108  1  0.00000000  0.50000000  0.50000000  1
  Li  Li109  1  0.50000000  0.50000000  0.00000000  1
  Li  Li110  1  0.75000000  0.25000000  0.25000000  1
  Li  Li111  1  0.75000000  0.75000000  0.75000000  1
  Li  Li112  1  0.93122190  0.18122190  0.12500000  1
  Li  Li113  1  0.56877810  0.81877810  0.62500000  1
  Li  Li114  1  0.06877810  0.68122190  0.37500000  1
  Li  Li115  1  0.43122190  0.31877810  0.87500000  1
  Li  Li116  1  0.06877810  0.81877810  0.87500000  1
  Li  Li117  1  0.43122190  0.18122190  0.37500000  1
  Li  Li118  1  0.93122190  0.31877810  0.62500000  1
  Li  Li119  1  0.56877810  0.68122190  0.12500000  1
  Li  Li120  1  0.43122190  0.68122190  0.62500000  1
  Li  Li121  1  0.06877810  0.31877810  0.12500000  1
  Li  Li122  1  0.56877810  0.18122190  0.87500000  1
  Li  Li123  1  0.93122190  0.81877810  0.37500000  1
  Li  Li124  1  0.56877810  0.31877810  0.37500000  1
  Li  Li125  1  0.93122190  0.68122190  0.87500000  1
  Li  Li126  1  0.43122190  0.81877810  0.12500000  1
  Li  Li127  1  0.06877810  0.18122190  0.62500000  1
