# generated using pymatgen
data_LiF
_symmetry_space_group_name_H-M   'P 1'
_cell_length_a   8.37409522
_cell_length_b   8.37409522
_cell_length_c   8.57568476
_cell_angle_alpha   90.00000000
_cell_angle_beta   90.00000000
_cell_angle_gamma   120.00000000
_symmetry_Int_Tables_number   1
_chemical_formula_structural   LiF
_chemical_formula_sum   'Li18 F18'
_cell_volume   520.80510133
_cell_formula_units_Z   18
loop_
 _symmetry_equiv_pos_site_id
 _symmetry_equiv_pos_as_xyz
  1  'x, y, z'
loop_
 _atom_site_type_symbol
 _atom_site_label
 _atom_site_symmetry_multiplicity
 _atom_site_fract_x
 _atom_site_fract_y
 _atom_site_fract_z
 _atom_site_occupancy
  F  F0  1  0.66666667  0.33333333  0.00000000  1
  F  F1  1  0.00000000  0.00000000  0.00000000  1
  F  F2  1  0.33333333  0.66666667  0.00000000  1
  F  F3  1  0.43464304  0.27184086  0.69690648  1
  F  F4  1  0.72815914  0.16280218  0.69690648  1
  F  F5  1  0.83719782  0.56535696  0.69690648  1
  F  F6  1  0.72815914  0.56535696  0.30309352  1
  F  F7  1  0.83719782  0.27184086  0.30309352  1
  F  F8  1  0.43464304  0.16280218  0.30309352  1
  F  F9  1  0.41523622  0.90940522  0.96650100  1
  F  F10  1  0.09059478  0.50583101  0.96650100  1
  F  F11  1  0.49416899  0.58476378  0.96650100  1
  F  F12  1  0.09059478  0.58476378  0.03349900  1
  F  F13  1  0.49416899  0.90940522  0.03349900  1
  F  F14  1  0.41523622  0.50583101  0.03349900  1
  F  F15  1  0.66666667  0.33333333  0.50000000  1
  F  F16  1  0.66666667  0.33333333  0.81674688  1
  F  F17  1  0.66666667  0.33333333  0.18325312  1
  Li  Li18  1  0.57982756  0.89833597  0.30998097  1
  Li  Li19  1  -0.89833597  -0.31850841  0.30998097  1
  Li  Li20  1  0.31850841  -0.57982756  0.30998097  1
  Li  Li21  1  -0.89833597  -0.57982756  -0.30998097  1
  Li  Li22  1  0.31850841  0.89833597  -0.30998097  1
  Li  Li23  1  0.57982756  -0.31850841  -0.30998097  1
  Li  Li24  1  0.16020873  0.10574236  0.29710696  1
  Li  Li25  1  0.89425764  0.05446637  0.29710696  1
  Li  Li26  1  0.94553363  0.83979127  0.29710696  1
  Li  Li27  1  0.89425764  0.83979127  0.70289304  1
  Li  Li28  1  0.94553363  0.10574236  0.70289304  1
  Li  Li29  1  0.16020873  0.05446637  0.70289304  1
  Li  Li30  1  0.80456653  0.19543347  0.00000000  1
  Li  Li31  1  0.80456653  0.60913305  0.00000000  1
  Li  Li32  1  0.39086695  0.19543347  -0.00000000  1
  Li  Li33  1  0.11335024  0.88664976  0.50000000  1
  Li  Li34  1  0.11335024  0.22670048  0.50000000  1
  Li  Li35  1  0.77329952  0.88664976  0.50000000  1
