# generated using pymatgen
data_Li2Y2P3Se
_symmetry_space_group_name_H-M   'P 1'
_cell_length_a   4.31356281
_cell_length_b   4.62342201
_cell_length_c   6.58498419
_cell_angle_alpha   95.64496509
_cell_angle_beta   101.06241908
_cell_angle_gamma   110.74282580
_symmetry_Int_Tables_number   1
_chemical_formula_structural   Li2Y2P3Se
_chemical_formula_sum   'Li2 Y2 P3 Se1'
_cell_volume   118.53672800
_cell_formula_units_Z   1
loop_
 _symmetry_equiv_pos_site_id
 _symmetry_equiv_pos_as_xyz
  1  'x, y, z'
loop_
 _atom_site_type_symbol
 _atom_site_label
 _atom_site_symmetry_multiplicity
 _atom_site_fract_x
 _atom_site_fract_y
 _atom_site_fract_z
 _atom_site_occupancy
  Se  Se0  1  0.00000000  0.00000000  0.00000000  1
  Y  Y1  1  0.33300000  0.66700000  0.25000000  1
  Y  Y2  1  0.66700000  0.33300000  0.50000000  1
  P  P3  1  0.00000000  0.00000000  0.75000000  1
  P  P4  1  0.99765801  0.75799806  0.15303817  1
  P  P5  1  0.57244288  0.27739921  0.32308986  1
  Li  Li6  1  0.36437879  0.29545156  0.25194162  1
  Li  Li7  1  0.71109882  0.64020317  0.69022716  1
