# generated using pymatgen
data_Li3Y2MoP2Se
_symmetry_space_group_name_H-M   'P 1'
_cell_length_a   4.76393766
_cell_length_b   5.13325395
_cell_length_c   6.46245821
_cell_angle_alpha   93.34254459
_cell_angle_beta   97.74009405
_cell_angle_gamma   103.80100570
_symmetry_Int_Tables_number   1
_chemical_formula_structural   Li3Y2MoP2Se
_chemical_formula_sum   'Li3 Y2 Mo1 P2 Se1'
_cell_volume   151.40239523
_cell_formula_units_Z   1
loop_
 _symmetry_equiv_pos_site_id
 _symmetry_equiv_pos_as_xyz
  1  'x, y, z'
loop_
 _atom_site_type_symbol
 _atom_site_label
 _atom_site_symmetry_multiplicity
 _atom_site_fract_x
 _atom_site_fract_y
 _atom_site_fract_z
 _atom_site_occupancy
  Se  Se0  1  0.12500000  0.00000000  0.25000000  1
  P  P1  1  0.00000000  0.00000000  0.00000000  1
  P  P2  1  0.37500000  0.00000000  0.25000000  1
  Mo  Mo3  1  0.25000000  0.25000000  0.25000000  1
  Li  Li4  1  0.00000000  0.25000000  0.12500000  1
  Li  Li5  1  0.60295274  0.55294324  0.84756017  1
  Li  Li6  1  0.05108122  0.19237371  0.31207811  1
  Y  Y7  1  0.44514117  0.84492143  0.62857796  1
  Y  Y8  1  0.89434812  0.38022423  0.68237581  1
