# generated using pymatgen
data_LiF
_symmetry_space_group_name_H-M   'P 1'
_cell_length_a   13.63240025
_cell_length_b   9.99993487
_cell_length_c   9.07779063
_cell_angle_alpha   90.00000000
_cell_angle_beta   90.00000000
_cell_angle_gamma   90.00000000
_symmetry_Int_Tables_number   1
_chemical_formula_structural   LiF
_chemical_formula_sum   'Li42 F42'
_cell_volume   1237.51269360
_cell_formula_units_Z   42
loop_
 _symmetry_equiv_pos_site_id
 _symmetry_equiv_pos_as_xyz
  1  'x, y, z'
loop_
 _atom_site_type_symbol
 _atom_site_label
 _atom_site_symmetry_multiplicity
 _atom_site_fract_x
 _atom_site_fract_y
 _atom_site_fract_z
 _atom_site_occupancy
  F  F0  1  0.00000000  0.50000000  0.00000000  1
  F  F1  1  0.50000000  0.00000000  -0.00000000  1
  F  F2  1  0.00000000  0.50000000  0.71418081  1
  F  F3  1  0.50000000  0.00000000  0.28581919  1
  F  F4  1  0.00000000  0.50000000  0.28581919  1
  F  F5  1  0.50000000  0.00000000  0.71418081  1
  F  F6  1  0.86666196  0.10412870  0.06129206  1
  F  F7  1  0.13333804  0.89587130  0.06129206  1
  F  F8  1  0.63333804  0.60412870  0.93870794  1
  F  F9  1  0.36666196  0.39587130  0.93870794  1
  F  F10  1  0.13333804  0.89587130  0.93870794  1
  F  F11  1  0.86666196  0.10412870  0.93870794  1
  F  F12  1  0.36666196  0.39587130  0.06129206  1
  F  F13  1  0.63333804  0.60412870  0.06129206  1
  F  F14  1  0.79563161  0.42210050  0.66563141  1
  F  F15  1  0.20436839  0.57789950  0.66563141  1
  F  F16  1  0.70436839  0.92210050  0.33436859  1
  F  F17  1  0.29563161  0.07789950  0.33436859  1
  F  F18  1  0.20436839  0.57789950  0.33436859  1
  F  F19  1  0.79563161  0.42210050  0.33436859  1
  F  F20  1  0.29563161  0.07789950  0.66563141  1
  F  F21  1  0.70436839  0.92210050  0.66563141  1
  F  F22  1  0.96093900  0.09194225  0.13525719  1
  F  F23  1  0.03906100  0.90805775  0.13525719  1
  F  F24  1  0.53906100  0.59194225  0.86474281  1
  F  F25  1  0.46093900  0.40805775  0.86474281  1
  F  F26  1  0.03906100  0.90805775  0.86474281  1
  F  F27  1  0.96093900  0.09194225  0.86474281  1
  F  F28  1  0.46093900  0.40805775  0.13525719  1
  F  F29  1  0.53906100  0.59194225  0.13525719  1
  F  F30  1  0.20835742  0.09545695  0.42739896  1
  F  F31  1  0.79164258  0.90454305  0.42739896  1
  F  F32  1  0.29164258  0.59545695  0.57260104  1
  F  F33  1  0.70835742  0.40454305  0.57260104  1
  F  F34  1  0.79164258  0.90454305  0.57260104  1
  F  F35  1  0.20835742  0.09545695  0.57260104  1
  F  F36  1  0.70835742  0.40454305  0.42739896  1
  F  F37  1  0.29164258  0.59545695  0.42739896  1
  F  F38  1  0.32951460  0.33098402  -0.00000000  1
  F  F39  1  0.67048540  0.66901598  -0.00000000  1
  F  F40  1  0.17048540  0.83098402  0.00000000  1
  F  F41  1  0.82951460  0.16901598  0.00000000  1
  Li  Li42  1  0.00000000  0.00000000  0.00000000  1
  Li  Li43  1  0.50000000  0.50000000  0.00000000  1
  Li  Li44  1  0.77442122  0.75364992  0.50000000  1
  Li  Li45  1  0.22557878  0.24635008  0.50000000  1
  Li  Li46  1  0.72557878  0.25364992  0.50000000  1
  Li  Li47  1  0.27442122  0.74635008  0.50000000  1
  Li  Li48  1  0.00000000  0.00000000  0.69786549  1
  Li  Li49  1  0.50000000  0.50000000  0.30213451  1
  Li  Li50  1  0.00000000  0.00000000  0.30213451  1
  Li  Li51  1  0.50000000  0.50000000  0.69786549  1
  Li  Li52  1  0.27942679  0.39241176  0.10628598  1
  Li  Li53  1  -0.27942679  -0.39241176  0.10628598  1
  Li  Li54  1  0.22057321  0.89241176  -0.10628598  1
  Li  Li55  1  0.77942679  0.10758824  -0.10628598  1
  Li  Li56  1  -0.27942679  -0.39241176  -0.10628598  1
  Li  Li57  1  0.27942679  0.39241176  -0.10628598  1
  Li  Li58  1  0.77942679  0.10758824  0.10628598  1
  Li  Li59  1  0.22057321  0.89241176  0.10628598  1
  Li  Li60  1  0.47271223  0.74838554  0.59229646  1
  Li  Li61  1  0.52728777  0.25161446  0.59229646  1
  Li  Li62  1  0.02728777  0.24838554  0.40770354  1
  Li  Li63  1  0.97271223  0.75161446  0.40770354  1
  Li  Li64  1  0.52728777  0.25161446  0.40770354  1
  Li  Li65  1  0.47271223  0.74838554  0.40770354  1
  Li  Li66  1  0.97271223  0.75161446  0.59229646  1
  Li  Li67  1  0.02728777  0.24838554  0.59229646  1
  Li  Li68  1  0.57729763  0.84498350  0.00000000  1
  Li  Li69  1  0.42270237  0.15501650  -0.00000000  1
  Li  Li70  1  0.92270237  0.34498350  0.00000000  1
  Li  Li71  1  0.07729763  0.65501650  0.00000000  1
  Li  Li72  1  0.00000000  0.00000000  0.50000000  1
  Li  Li73  1  0.50000000  0.50000000  0.50000000  1
  Li  Li74  1  0.54336758  0.20984914  -0.00000000  1
  Li  Li75  1  0.45663242  0.79015086  -0.00000000  1
  Li  Li76  1  0.95663242  0.70984914  0.00000000  1
  Li  Li77  1  0.04336758  0.29015086  -0.00000000  1
  Li  Li78  1  0.00000000  0.50000000  0.13694686  1
  Li  Li79  1  0.50000000  0.00000000  0.86305314  1
  Li  Li80  1  0.00000000  0.50000000  0.86305314  1
  Li  Li81  1  0.50000000  0.00000000  0.13694686  1
  Li  Li82  1  0.00000000  0.50000000  0.50000000  1
  Li  Li83  1  0.50000000  0.00000000  0.50000000  1
