# generated using pymatgen
data_LiF
_symmetry_space_group_name_H-M   'P 1'
_cell_length_a   6.89534277
_cell_length_b   3.97308306
_cell_length_c   6.91891662
_cell_angle_alpha   90.00000000
_cell_angle_beta   90.00000000
_cell_angle_gamma   90.00000000
_symmetry_Int_Tables_number   1
_chemical_formula_structural   LiF
_chemical_formula_sum   'Li12 F12'
_cell_volume   189.54904546
_cell_formula_units_Z   12
loop_
 _symmetry_equiv_pos_site_id
 _symmetry_equiv_pos_as_xyz
  1  'x, y, z'
loop_
 _atom_site_type_symbol
 _atom_site_label
 _atom_site_symmetry_multiplicity
 _atom_site_fract_x
 _atom_site_fract_y
 _atom_site_fract_z
 _atom_site_occupancy
  F  F0  1  0.00000000  0.50000000  0.00000000  1
  F  F1  1  0.50000000  0.00000000  0.50000000  1
  F  F2  1  0.00000000  0.50000000  0.58242969  1
  F  F3  1  0.50000000  0.00000000  0.91757031  1
  F  F4  1  0.00000000  0.50000000  0.41757031  1
  F  F5  1  0.50000000  0.00000000  0.08242969  1
  F  F6  1  0.00000000  0.00000000  0.56493088  1
  F  F7  1  0.50000000  0.50000000  0.93506912  1
  F  F8  1  0.00000000  0.00000000  0.43506912  1
  F  F9  1  0.50000000  0.50000000  0.06493088  1
  F  F10  1  0.00000000  0.00000000  0.00000000  1
  F  F11  1  0.50000000  0.50000000  0.50000000  1
  Li  Li12  1  0.00000000  0.50000000  0.73840848  1
  Li  Li13  1  0.50000000  0.00000000  0.76159152  1
  Li  Li14  1  0.00000000  0.50000000  0.26159152  1
  Li  Li15  1  0.50000000  0.00000000  0.23840848  1
  Li  Li16  1  0.59490733  0.54388346  0.65561790  1
  Li  Li17  1  -0.59490733  -0.54388346  0.65561790  1
  Li  Li18  1  -0.09490733  1.04388346  -0.15561790  1
  Li  Li19  1  1.09490733  -0.04388346  -0.15561790  1
  Li  Li20  1  -0.59490733  -0.54388346  -0.65561790  1
  Li  Li21  1  0.59490733  0.54388346  -0.65561790  1
  Li  Li22  1  1.09490733  -0.04388346  1.15561790  1
  Li  Li23  1  -0.09490733  1.04388346  1.15561790  1
