# generated using pymatgen
data_LiF
_symmetry_space_group_name_H-M   'P 1'
_cell_length_a   15.84812302
_cell_length_b   15.84812302
_cell_length_c   5.70960644
_cell_angle_alpha   90.00000000
_cell_angle_beta   90.00000000
_cell_angle_gamma   90.00000000
_symmetry_Int_Tables_number   1
_chemical_formula_structural   LiF
_chemical_formula_sum   'Li64 F64'
_cell_volume   1434.04190208
_cell_formula_units_Z   64
loop_
 _symmetry_equiv_pos_site_id
 _symmetry_equiv_pos_as_xyz
  1  'x, y, z'
loop_
 _atom_site_type_symbol
 _atom_site_label
 _atom_site_symmetry_multiplicity
 _atom_site_fract_x
 _atom_site_fract_y
 _atom_site_fract_z
 _atom_site_occupancy
  F  F0  1  0.76936002  0.61700011  0.08540577  1
  F  F1  1  0.73063998  0.38299989  0.58540577  1
  F  F2  1  0.63299989  0.51936002  0.33540577  1
  F  F3  1  0.86700011  0.48063998  0.83540577  1
  F  F4  1  0.73063998  0.61700011  0.91459423  1
  F  F5  1  0.76936002  0.38299989  0.41459423  1
  F  F6  1  0.86700011  0.51936002  0.66459423  1
  F  F7  1  0.63299989  0.48063998  0.16459423  1
  F  F8  1  0.23063998  0.38299989  0.91459423  1
  F  F9  1  0.26936002  0.61700011  0.41459423  1
  F  F10  1  0.36700011  0.48063998  0.66459423  1
  F  F11  1  0.13299989  0.51936002  0.16459423  1
  F  F12  1  0.26936002  0.38299989  0.08540577  1
  F  F13  1  0.23063998  0.61700011  0.58540577  1
  F  F14  1  0.13299989  0.48063998  0.33540577  1
  F  F15  1  0.36700011  0.51936002  0.83540577  1
  F  F16  1  0.26936002  0.11700011  0.58540577  1
  F  F17  1  0.23063998  0.88299989  0.08540577  1
  F  F18  1  0.13299989  0.01936002  0.83540577  1
  F  F19  1  0.36700011  0.98063998  0.33540577  1
  F  F20  1  0.23063998  0.11700011  0.41459423  1
  F  F21  1  0.26936002  0.88299989  0.91459423  1
  F  F22  1  0.36700011  0.01936002  0.16459423  1
  F  F23  1  0.13299989  0.98063998  0.66459423  1
  F  F24  1  0.73063998  0.88299989  0.41459423  1
  F  F25  1  0.76936002  0.11700011  0.91459423  1
  F  F26  1  0.86700011  0.98063998  0.16459423  1
  F  F27  1  0.63299989  0.01936002  0.66459423  1
  F  F28  1  0.76936002  0.88299989  0.58540577  1
  F  F29  1  0.73063998  0.11700011  0.08540577  1
  F  F30  1  0.63299989  0.98063998  0.83540577  1
  F  F31  1  0.86700011  0.01936002  0.33540577  1
  F  F32  1  0.41890314  0.66890314  0.12500000  1
  F  F33  1  0.08109686  0.33109686  0.62500000  1
  F  F34  1  0.58109686  0.16890314  0.37500000  1
  F  F35  1  0.91890314  0.83109686  0.87500000  1
  F  F36  1  0.58109686  0.33109686  0.87500000  1
  F  F37  1  0.91890314  0.66890314  0.37500000  1
  F  F38  1  0.41890314  0.83109686  0.62500000  1
  F  F39  1  0.08109686  0.16890314  0.12500000  1
  F  F40  1  0.91890314  0.16890314  0.62500000  1
  F  F41  1  0.58109686  0.83109686  0.12500000  1
  F  F42  1  0.08109686  0.66890314  0.87500000  1
  F  F43  1  0.41890314  0.33109686  0.37500000  1
  F  F44  1  0.08109686  0.83109686  0.37500000  1
  F  F45  1  0.41890314  0.16890314  0.87500000  1
  F  F46  1  0.91890314  0.33109686  0.12500000  1
  F  F47  1  0.58109686  0.66890314  0.62500000  1
  F  F48  1  0.44862541  0.69862541  0.12500000  1
  F  F49  1  0.05137459  0.30137459  0.62500000  1
  F  F50  1  0.55137459  0.19862541  0.37500000  1
  F  F51  1  0.94862541  0.80137459  0.87500000  1
  F  F52  1  0.55137459  0.30137459  0.87500000  1
  F  F53  1  0.94862541  0.69862541  0.37500000  1
  F  F54  1  0.44862541  0.80137459  0.62500000  1
  F  F55  1  0.05137459  0.19862541  0.12500000  1
  F  F56  1  0.94862541  0.19862541  0.62500000  1
  F  F57  1  0.55137459  0.80137459  0.12500000  1
  F  F58  1  0.05137459  0.69862541  0.87500000  1
  F  F59  1  0.44862541  0.30137459  0.37500000  1
  F  F60  1  0.05137459  0.80137459  0.37500000  1
  F  F61  1  0.44862541  0.19862541  0.87500000  1
  F  F62  1  0.94862541  0.30137459  0.12500000  1
  F  F63  1  0.55137459  0.69862541  0.62500000  1
  Li  Li64  1  0.68526729  0.62037883  0.53619298  1
  Li  Li65  1  -0.18526729  -0.62037883  1.03619298  1
  Li  Li66  1  -0.37037883  1.43526729  0.78619298  1
  Li  Li67  1  0.87037883  -0.43526729  1.28619298  1
  Li  Li68  1  -0.18526729  0.62037883  -0.53619298  1
  Li  Li69  1  0.68526729  -0.62037883  -0.03619298  1
  Li  Li70  1  0.87037883  1.43526729  0.21380702  1
  Li  Li71  1  -0.37037883  -0.43526729  -0.28619298  1
  Li  Li72  1  -0.68526729  -0.62037883  -0.53619298  1
  Li  Li73  1  1.18526729  0.62037883  -0.03619298  1
  Li  Li74  1  1.37037883  -0.43526729  0.21380702  1
  Li  Li75  1  0.12962117  1.43526729  -0.28619298  1
  Li  Li76  1  1.18526729  -0.62037883  0.53619298  1
  Li  Li77  1  -0.68526729  0.62037883  1.03619298  1
  Li  Li78  1  0.12962117  -0.43526729  0.78619298  1
  Li  Li79  1  1.37037883  1.43526729  1.28619298  1
  Li  Li80  1  1.18526729  1.12037883  1.03619298  1
  Li  Li81  1  0.31473271  -0.12037883  1.53619298  1
  Li  Li82  1  0.12962117  1.93526729  1.28619298  1
  Li  Li83  1  1.37037883  0.06473271  1.78619298  1
  Li  Li84  1  0.31473271  1.12037883  -0.03619298  1
  Li  Li85  1  1.18526729  -0.12037883  0.46380702  1
  Li  Li86  1  1.37037883  1.93526729  0.71380702  1
  Li  Li87  1  0.12962117  0.06473271  0.21380702  1
  Li  Li88  1  -0.18526729  -0.12037883  -0.03619298  1
  Li  Li89  1  1.68526729  1.12037883  0.46380702  1
  Li  Li90  1  1.87037883  0.06473271  0.71380702  1
  Li  Li91  1  0.62962117  1.93526729  0.21380702  1
  Li  Li92  1  1.68526729  -0.12037883  1.03619298  1
  Li  Li93  1  -0.18526729  1.12037883  1.53619298  1
  Li  Li94  1  0.62962117  0.06473271  1.28619298  1
  Li  Li95  1  1.87037883  1.93526729  1.78619298  1
  Li  Li96  1  0.48566486  0.66403221  0.59494396  1
  Li  Li97  1  0.01433514  0.33596779  0.09494396  1
  Li  Li98  1  0.58596779  0.23566486  0.84494396  1
  Li  Li99  1  0.91403221  0.76433514  0.34494396  1
  Li  Li100  1  0.01433514  0.66403221  0.40505604  1
  Li  Li101  1  0.48566486  0.33596779  0.90505604  1
  Li  Li102  1  0.91403221  0.23566486  0.15505604  1
  Li  Li103  1  0.58596779  0.76433514  0.65505604  1
  Li  Li104  1  0.51433514  0.33596779  0.40505604  1
  Li  Li105  1  0.98566486  0.66403221  0.90505604  1
  Li  Li106  1  0.41403221  0.76433514  0.15505604  1
  Li  Li107  1  0.08596779  0.23566486  0.65505604  1
  Li  Li108  1  0.98566486  0.33596779  0.59494396  1
  Li  Li109  1  0.51433514  0.66403221  0.09494396  1
  Li  Li110  1  0.08596779  0.76433514  0.84494396  1
  Li  Li111  1  0.41403221  0.23566486  0.34494396  1
  Li  Li112  1  0.98566486  0.16403221  0.09494396  1
  Li  Li113  1  0.51433514  0.83596779  0.59494396  1
  Li  Li114  1  0.08596779  0.73566486  0.34494396  1
  Li  Li115  1  0.41403221  0.26433514  0.84494396  1
  Li  Li116  1  0.51433514  0.16403221  0.90505604  1
  Li  Li117  1  0.98566486  0.83596779  0.40505604  1
  Li  Li118  1  0.41403221  0.73566486  0.65505604  1
  Li  Li119  1  0.08596779  0.26433514  0.15505604  1
  Li  Li120  1  0.01433514  0.83596779  0.90505604  1
  Li  Li121  1  0.48566486  0.16403221  0.40505604  1
  Li  Li122  1  0.91403221  0.26433514  0.65505604  1
  Li  Li123  1  0.58596779  0.73566486  0.15505604  1
  Li  Li124  1  0.48566486  0.83596779  0.09494396  1
  Li  Li125  1  0.01433514  0.16403221  0.59494396  1
  Li  Li126  1  0.58596779  0.26433514  0.34494396  1
  Li  Li127  1  0.91403221  0.73566486  0.84494396  1
