# generated using pymatgen
data_LiF
_symmetry_space_group_name_H-M   'P 1'
_cell_length_a   15.83748755
_cell_length_b   15.83748755
_cell_length_c   5.75052310
_cell_angle_alpha   90.00000000
_cell_angle_beta   90.00000000
_cell_angle_gamma   120.00000000
_symmetry_Int_Tables_number   1
_chemical_formula_structural   LiF
_chemical_formula_sum   'Li36 F36'
_cell_volume   1249.13839278
_cell_formula_units_Z   36
loop_
 _symmetry_equiv_pos_site_id
 _symmetry_equiv_pos_as_xyz
  1  'x, y, z'
loop_
 _atom_site_type_symbol
 _atom_site_label
 _atom_site_symmetry_multiplicity
 _atom_site_fract_x
 _atom_site_fract_y
 _atom_site_fract_z
 _atom_site_occupancy
  F  F0  1  0.19266470  0.64530871  0.17808295  1
  F  F1  1  -0.64530871  -0.45264401  0.17808295  1
  F  F2  1  0.45264401  -0.19266470  0.17808295  1
  F  F3  1  -0.19266470  -0.64530871  0.67808295  1
  F  F4  1  0.64530871  0.45264401  0.67808295  1
  F  F5  1  -0.45264401  0.19266470  0.67808295  1
  F  F6  1  -0.19266470  -0.64530871  -0.17808295  1
  F  F7  1  0.64530871  0.45264401  -0.17808295  1
  F  F8  1  -0.45264401  0.19266470  -0.17808295  1
  F  F9  1  0.19266470  0.64530871  0.32191705  1
  F  F10  1  -0.64530871  -0.45264401  0.32191705  1
  F  F11  1  0.45264401  -0.19266470  0.32191705  1
  F  F12  1  0.32172357  0.33086265  0.25000000  1
  F  F13  1  0.66913735  0.99086092  0.25000000  1
  F  F14  1  0.00913908  0.67827643  0.25000000  1
  F  F15  1  0.67827643  0.66913735  0.75000000  1
  F  F16  1  0.33086265  0.00913908  0.75000000  1
  F  F17  1  0.99086092  0.32172357  0.75000000  1
  F  F18  1  0.21621412  0.28363443  0.66897037  1
  F  F19  1  0.71636557  0.93257969  0.66897037  1
  F  F20  1  0.06742031  0.78378588  0.66897037  1
  F  F21  1  0.78378588  0.71636557  0.16897037  1
  F  F22  1  0.28363443  0.06742031  0.16897037  1
  F  F23  1  0.93257969  0.21621412  0.16897037  1
  F  F24  1  0.78378588  0.71636557  0.33102963  1
  F  F25  1  0.28363443  0.06742031  0.33102963  1
  F  F26  1  0.93257969  0.21621412  0.33102963  1
  F  F27  1  0.21621412  0.28363443  0.83102963  1
  F  F28  1  0.71636557  0.93257969  0.83102963  1
  F  F29  1  0.06742031  0.78378588  0.83102963  1
  F  F30  1  0.50000000  0.00000000  0.00000000  1
  F  F31  1  0.00000000  0.50000000  -0.00000000  1
  F  F32  1  0.50000000  0.50000000  0.00000000  1
  F  F33  1  0.50000000  0.00000000  0.50000000  1
  F  F34  1  0.00000000  0.50000000  0.50000000  1
  F  F35  1  0.50000000  0.50000000  0.50000000  1
  Li  Li36  1  0.91106614  0.39597160  0.40156115  1
  Li  Li37  1  0.60402840  0.51509454  0.40156115  1
  Li  Li38  1  0.48490546  0.08893386  0.40156115  1
  Li  Li39  1  0.08893386  0.60402840  0.90156115  1
  Li  Li40  1  0.39597160  0.48490546  0.90156115  1
  Li  Li41  1  0.51509454  0.91106614  0.90156115  1
  Li  Li42  1  0.08893386  0.60402840  0.59843885  1
  Li  Li43  1  0.39597160  0.48490546  0.59843885  1
  Li  Li44  1  0.51509454  0.91106614  0.59843885  1
  Li  Li45  1  0.91106614  0.39597160  0.09843885  1
  Li  Li46  1  0.60402840  0.51509454  0.09843885  1
  Li  Li47  1  0.48490546  0.08893386  0.09843885  1
  Li  Li48  1  0.05615716  0.10465927  0.25000000  1
  Li  Li49  1  0.89534073  0.95149788  0.25000000  1
  Li  Li50  1  0.04850212  0.94384284  0.25000000  1
  Li  Li51  1  0.94384284  0.89534073  0.75000000  1
  Li  Li52  1  0.10465927  0.04850212  0.75000000  1
  Li  Li53  1  0.95149788  0.05615716  0.75000000  1
  Li  Li54  1  0.59910796  0.27420949  0.87200059  1
  Li  Li55  1  0.72579051  0.32489847  0.87200059  1
  Li  Li56  1  0.67510153  0.40089204  0.87200059  1
  Li  Li57  1  0.40089204  0.72579051  0.37200059  1
  Li  Li58  1  0.27420949  0.67510153  0.37200059  1
  Li  Li59  1  0.32489847  0.59910796  0.37200059  1
  Li  Li60  1  0.40089204  0.72579051  0.12799941  1
  Li  Li61  1  0.27420949  0.67510153  0.12799941  1
  Li  Li62  1  0.32489847  0.59910796  0.12799941  1
  Li  Li63  1  0.59910796  0.27420949  0.62799941  1
  Li  Li64  1  0.72579051  0.32489847  0.62799941  1
  Li  Li65  1  0.67510153  0.40089204  0.62799941  1
  Li  Li66  1  0.80270787  0.40717779  0.25000000  1
  Li  Li67  1  0.59282221  0.39553008  0.25000000  1
  Li  Li68  1  0.60446992  0.19729213  0.25000000  1
  Li  Li69  1  0.19729213  0.59282221  0.75000000  1
  Li  Li70  1  0.40717779  0.60446992  0.75000000  1
  Li  Li71  1  0.39553008  0.80270787  0.75000000  1
