# generated using pymatgen
data_LiF
_symmetry_space_group_name_H-M   'P 1'
_cell_length_a   5.01385949
_cell_length_b   5.01385949
_cell_length_c   11.42155231
_cell_angle_alpha   90.00000000
_cell_angle_beta   90.00000000
_cell_angle_gamma   120.00000000
_symmetry_Int_Tables_number   1
_chemical_formula_structural   LiF
_chemical_formula_sum   'Li14 F14'
_cell_volume   248.65665230
_cell_formula_units_Z   14
loop_
 _symmetry_equiv_pos_site_id
 _symmetry_equiv_pos_as_xyz
  1  'x, y, z'
loop_
 _atom_site_type_symbol
 _atom_site_label
 _atom_site_symmetry_multiplicity
 _atom_site_fract_x
 _atom_site_fract_y
 _atom_site_fract_z
 _atom_site_occupancy
  F  F0  1  0.91893365  0.04066904  0.68175026  1
  F  F1  1  0.95933096  0.87826461  0.68175026  1
  F  F2  1  0.12173539  0.08106635  0.68175026  1
  F  F3  1  0.95933096  0.08106635  0.31824974  1
  F  F4  1  0.12173539  0.04066904  0.31824974  1
  F  F5  1  0.91893365  0.87826461  0.31824974  1
  F  F6  1  0.33333333  0.66666667  0.82186896  1
  F  F7  1  0.33333333  0.66666667  0.17813104  1
  F  F8  1  0.66666667  0.33333333  -0.00000000  1
  F  F9  1  0.17069352  0.82930648  0.50000000  1
  F  F10  1  0.17069352  0.34138704  0.50000000  1
  F  F11  1  0.65861296  0.82930648  0.50000000  1
  F  F12  1  0.66666667  0.33333333  0.67518000  1
  F  F13  1  0.66666667  0.33333333  0.32482000  1
  Li  Li14  1  0.79349141  0.00294063  0.96054783  1
  Li  Li15  1  -0.00294063  0.79055079  0.96054783  1
  Li  Li16  1  -0.79055079  -0.79349141  0.96054783  1
  Li  Li17  1  -0.00294063  -0.79349141  -0.96054783  1
  Li  Li18  1  -0.79055079  0.00294063  -0.96054783  1
  Li  Li19  1  0.79349141  0.79055079  -0.96054783  1
  Li  Li20  1  0.46245274  0.90056326  0.92539977  1
  Li  Li21  1  0.09943674  0.56188948  0.92539977  1
  Li  Li22  1  0.43811052  0.53754726  0.92539977  1
  Li  Li23  1  0.09943674  0.53754726  0.07460023  1
  Li  Li24  1  0.43811052  0.90056326  0.07460023  1
  Li  Li25  1  0.46245274  0.56188948  0.07460023  1
  Li  Li26  1  0.00000000  0.00000000  0.21025070  1
  Li  Li27  1  0.00000000  0.00000000  0.78974930  1
