# generated using pymatgen
data_LiF
_symmetry_space_group_name_H-M   'P 1'
_cell_length_a   4.45621883
_cell_length_b   4.45621883
_cell_length_c   5.76492125
_cell_angle_alpha   90.00000000
_cell_angle_beta   90.00000000
_cell_angle_gamma   90.00000000
_symmetry_Int_Tables_number   1
_chemical_formula_structural   LiF
_chemical_formula_sum   'Li8 F8'
_cell_volume   114.47915068
_cell_formula_units_Z   8
loop_
 _symmetry_equiv_pos_site_id
 _symmetry_equiv_pos_as_xyz
  1  'x, y, z'
loop_
 _atom_site_type_symbol
 _atom_site_label
 _atom_site_symmetry_multiplicity
 _atom_site_fract_x
 _atom_site_fract_y
 _atom_site_fract_z
 _atom_site_occupancy
  F  F0  1  0.07256284  0.29293347  0.00000000  1
  F  F1  1  -0.07256284  -0.29293347  0.00000000  1
  F  F2  1  -0.29293347  0.07256284  0.00000000  1
  F  F3  1  0.29293347  -0.07256284  0.00000000  1
  F  F4  1  -0.07256284  0.29293347  0.00000000  1
  F  F5  1  0.07256284  -0.29293347  0.00000000  1
  F  F6  1  0.29293347  0.07256284  0.00000000  1
  F  F7  1  -0.29293347  -0.07256284  0.00000000  1
  Li  Li8  1  0.66498918  0.00000000  0.50000000  1
  Li  Li9  1  0.33501082  0.00000000  0.50000000  1
  Li  Li10  1  0.00000000  0.66498918  0.50000000  1
  Li  Li11  1  0.00000000  0.33501082  0.50000000  1
  Li  Li12  1  0.24498503  0.50000000  0.50000000  1
  Li  Li13  1  0.75501497  0.50000000  0.50000000  1
  Li  Li14  1  0.50000000  0.24498503  0.50000000  1
  Li  Li15  1  0.50000000  0.75501497  0.50000000  1
