# generated using pymatgen
data_Li4TiSb4(PO2)2
_symmetry_space_group_name_H-M   'P 1'
_cell_length_a   8.43789062
_cell_length_b   8.26415762
_cell_length_c   7.54029736
_cell_angle_alpha   90.00000000
_cell_angle_beta   90.00000000
_cell_angle_gamma   90.00000000
_symmetry_Int_Tables_number   1
_chemical_formula_structural   Li4TiSb4(PO2)2
_chemical_formula_sum   'Li4 Ti1 Sb4 P2 O4'
_cell_volume   525.80045326
_cell_formula_units_Z   1
loop_
 _symmetry_equiv_pos_site_id
 _symmetry_equiv_pos_as_xyz
  1  'x, y, z'
loop_
 _atom_site_type_symbol
 _atom_site_label
 _atom_site_symmetry_multiplicity
 _atom_site_fract_x
 _atom_site_fract_y
 _atom_site_fract_z
 _atom_site_occupancy
  P  P0  1  0.00000000  0.00000000  0.00000000  1
  P  P1  1  0.50000000  0.50000000  0.50000000  1
  Ti  Ti2  1  0.25000000  0.25000000  0.25000000  1
  O  O3  1  0.75000000  0.25000000  0.00000000  1
  O  O4  1  0.25000000  0.75000000  0.50000000  1
  O  O5  1  0.05628289  0.56328468  0.25964601  1
  O  O6  1  0.78130810  0.66058166  0.79371770  1
  Li  Li7  1  0.07506062  0.74058158  0.43815945  1
  Li  Li8  1  0.64917659  0.89327836  0.90854325  1
  Li  Li9  1  0.16793846  0.41744913  0.94067610  1
  Li  Li10  1  0.45727689  0.74322339  0.61914426  1
  Sb  Sb11  1  0.05537709  0.14823449  0.76846724  1
  Sb  Sb12  1  0.22906850  0.51759518  0.04072446  1
  Sb  Sb13  1  0.85829089  0.83824309  0.91261975  1
  Sb  Sb14  1  0.37346344  0.84517852  0.94782049  1
