# generated using pymatgen
data_Li2YP2
_symmetry_space_group_name_H-M   'P 1'
_cell_length_a   5.15530645
_cell_length_b   5.35100505
_cell_length_c   7.03588501
_cell_angle_alpha   94.15049133
_cell_angle_beta   99.30233663
_cell_angle_gamma   106.88547764
_symmetry_Int_Tables_number   1
_chemical_formula_structural   Li2YP2
_chemical_formula_sum   'Li2 Y1 P2'
_cell_volume   181.81288255
_cell_formula_units_Z   1
loop_
 _symmetry_equiv_pos_site_id
 _symmetry_equiv_pos_as_xyz
  1  'x, y, z'
loop_
 _atom_site_type_symbol
 _atom_site_label
 _atom_site_symmetry_multiplicity
 _atom_site_fract_x
 _atom_site_fract_y
 _atom_site_fract_z
 _atom_site_occupancy
  P  P0  1  0.00000000  0.00000000  0.00000000  1
  P  P1  1  0.33300000  0.66700000  0.25000000  1
  Li  Li2  1  0.66700000  0.33300000  0.50000000  1
  Li  Li3  1  0.00000000  0.00000000  0.75000000  1
  Y  Y4  1  0.17820774  0.81768276  0.83844376  1
