# generated using pymatgen
data_LiF
_symmetry_space_group_name_H-M   'P 1'
_cell_length_a   7.05972987
_cell_length_b   7.05972987
_cell_length_c   4.95657811
_cell_angle_alpha   90.00000000
_cell_angle_beta   90.00000000
_cell_angle_gamma   120.00000000
_symmetry_Int_Tables_number   1
_chemical_formula_structural   LiF
_chemical_formula_sum   'Li7 F7'
_cell_volume   213.93840480
_cell_formula_units_Z   7
loop_
 _symmetry_equiv_pos_site_id
 _symmetry_equiv_pos_as_xyz
  1  'x, y, z'
loop_
 _atom_site_type_symbol
 _atom_site_label
 _atom_site_symmetry_multiplicity
 _atom_site_fract_x
 _atom_site_fract_y
 _atom_site_fract_z
 _atom_site_occupancy
  F  F0  1  0.31932188  0.87514442  0.77663492  1
  F  F1  1  -0.87514442  -0.55582254  0.77663492  1
  F  F2  1  0.55582254  -0.31932188  0.77663492  1
  F  F3  1  -0.87514442  -0.31932188  -0.77663492  1
  F  F4  1  0.55582254  0.87514442  -0.77663492  1
  F  F5  1  0.31932188  -0.55582254  -0.77663492  1
  F  F6  1  0.33333333  0.66666667  0.50000000  1
  Li  Li7  1  0.14461391  0.85538609  0.00000000  1
  Li  Li8  1  0.14461391  0.28922783  0.00000000  1
  Li  Li9  1  0.71077217  0.85538609  0.00000000  1
  Li  Li10  1  0.66666667  0.33333333  0.00000000  1
  Li  Li11  1  0.00000000  0.00000000  0.50000000  1
  Li  Li12  1  0.33333333  0.66666667  0.86095066  1
  Li  Li13  1  0.33333333  0.66666667  0.13904934  1
