# generated using pymatgen
data_LiF
_symmetry_space_group_name_H-M   'P 1'
_cell_length_a   6.89998259
_cell_length_b   6.89998259
_cell_length_c   13.56086581
_cell_angle_alpha   90.00000000
_cell_angle_beta   90.00000000
_cell_angle_gamma   120.00000000
_symmetry_Int_Tables_number   1
_chemical_formula_structural   LiF
_chemical_formula_sum   'Li16 F16'
_cell_volume   559.13160349
_cell_formula_units_Z   16
loop_
 _symmetry_equiv_pos_site_id
 _symmetry_equiv_pos_as_xyz
  1  'x, y, z'
loop_
 _atom_site_type_symbol
 _atom_site_label
 _atom_site_symmetry_multiplicity
 _atom_site_fract_x
 _atom_site_fract_y
 _atom_site_fract_z
 _atom_site_occupancy
  F  F0  1  0.16482864  -0.00000000  0.50000000  1
  F  F1  1  0.00000000  0.16482864  0.50000000  1
  F  F2  1  0.83517136  0.83517136  0.50000000  1
  F  F3  1  0.45266246  -0.00000000  0.80011825  1
  F  F4  1  0.00000000  0.45266246  0.80011825  1
  F  F5  1  0.54733754  0.54733754  0.80011825  1
  F  F6  1  0.45266246  -0.00000000  0.19988175  1
  F  F7  1  0.00000000  0.45266246  0.19988175  1
  F  F8  1  0.54733754  0.54733754  0.19988175  1
  F  F9  1  0.78908449  0.00000000  0.50000000  1
  F  F10  1  0.00000000  0.78908449  0.50000000  1
  F  F11  1  0.21091551  0.21091551  0.50000000  1
  F  F12  1  0.33333333  0.66666667  0.33195091  1
  F  F13  1  0.33333333  0.66666667  0.66804909  1
  F  F14  1  0.66666667  0.33333333  0.66804909  1
  F  F15  1  0.66666667  0.33333333  0.33195091  1
  Li  Li16  1  0.17605638  0.81867256  0.37287182  1
  Li  Li17  1  -0.81867256  -0.64261617  0.37287182  1
  Li  Li18  1  0.64261617  -0.17605638  0.37287182  1
  Li  Li19  1  0.17605638  0.81867256  -0.37287182  1
  Li  Li20  1  -0.81867256  -0.64261617  -0.37287182  1
  Li  Li21  1  0.64261617  -0.17605638  -0.37287182  1
  Li  Li22  1  0.81867256  0.17605638  -0.37287182  1
  Li  Li23  1  -0.64261617  -0.81867256  -0.37287182  1
  Li  Li24  1  -0.17605638  0.64261617  -0.37287182  1
  Li  Li25  1  0.81867256  0.17605638  0.37287182  1
  Li  Li26  1  -0.64261617  -0.81867256  0.37287182  1
  Li  Li27  1  -0.17605638  0.64261617  0.37287182  1
  Li  Li28  1  0.33333333  0.66666667  0.50000000  1
  Li  Li29  1  0.66666667  0.33333333  0.50000000  1
  Li  Li30  1  0.00000000  0.00000000  0.70499845  1
  Li  Li31  1  0.00000000  0.00000000  0.29500155  1
