# generated using pymatgen
data_LiF
_symmetry_space_group_name_H-M   'P 1'
_cell_length_a   10.66015414
_cell_length_b   6.99317863
_cell_length_c   10.37187442
_cell_angle_alpha   90.00000000
_cell_angle_beta   90.00000000
_cell_angle_gamma   90.00000000
_symmetry_Int_Tables_number   1
_chemical_formula_structural   LiF
_chemical_formula_sum   'Li24 F24'
_cell_volume   773.20625031
_cell_formula_units_Z   24
loop_
 _symmetry_equiv_pos_site_id
 _symmetry_equiv_pos_as_xyz
  1  'x, y, z'
loop_
 _atom_site_type_symbol
 _atom_site_label
 _atom_site_symmetry_multiplicity
 _atom_site_fract_x
 _atom_site_fract_y
 _atom_site_fract_z
 _atom_site_occupancy
  F  F0  1  0.13881405  0.52393778  0.94269598  1
  F  F1  1  0.36118595  0.47606222  0.44269598  1
  F  F2  1  0.86118595  0.02393778  0.05730402  1
  F  F3  1  0.63881405  0.97606222  0.55730402  1
  F  F4  1  0.86118595  0.47606222  0.05730402  1
  F  F5  1  0.63881405  0.52393778  0.55730402  1
  F  F6  1  0.13881405  0.97606222  0.94269598  1
  F  F7  1  0.36118595  0.02393778  0.44269598  1
  F  F8  1  0.75493032  0.99938779  0.50136535  1
  F  F9  1  0.74506968  0.00061221  0.00136535  1
  F  F10  1  0.24506968  0.49938779  0.49863465  1
  F  F11  1  0.25493032  0.50061221  0.99863465  1
  F  F12  1  0.24506968  0.00061221  0.49863465  1
  F  F13  1  0.25493032  0.99938779  0.99863465  1
  F  F14  1  0.75493032  0.50061221  0.50136535  1
  F  F15  1  0.74506968  0.49938779  0.00136535  1
  F  F16  1  0.77148368  0.15784744  0.11250530  1
  F  F17  1  0.72851632  0.84215256  0.61250530  1
  F  F18  1  0.22851632  0.65784744  0.88749470  1
  F  F19  1  0.27148368  0.34215256  0.38749470  1
  F  F20  1  0.22851632  0.84215256  0.88749470  1
  F  F21  1  0.27148368  0.15784744  0.38749470  1
  F  F22  1  0.77148368  0.34215256  0.11250530  1
  F  F23  1  0.72851632  0.65784744  0.61250530  1
  Li  Li24  1  0.50033853  0.87182174  0.51732972  1
  Li  Li25  1  -0.00033853  -0.87182174  1.01732972  1
  Li  Li26  1  -0.50033853  1.37182174  -0.51732972  1
  Li  Li27  1  1.00033853  -0.37182174  -0.01732972  1
  Li  Li28  1  -0.50033853  -0.87182174  -0.51732972  1
  Li  Li29  1  1.00033853  0.87182174  -0.01732972  1
  Li  Li30  1  0.50033853  -0.37182174  0.51732972  1
  Li  Li31  1  -0.00033853  1.37182174  1.01732972  1
  Li  Li32  1  0.36785313  0.89342423  0.39413594  1
  Li  Li33  1  0.13214687  0.10657577  0.89413594  1
  Li  Li34  1  0.63214687  0.39342423  0.60586406  1
  Li  Li35  1  0.86785313  0.60657577  0.10586406  1
  Li  Li36  1  0.63214687  0.10657577  0.60586406  1
  Li  Li37  1  0.86785313  0.89342423  0.10586406  1
  Li  Li38  1  0.36785313  0.60657577  0.39413594  1
  Li  Li39  1  0.13214687  0.39342423  0.89413594  1
  Li  Li40  1  0.26990485  0.25000000  0.89877578  1
  Li  Li41  1  0.23009515  0.75000000  0.39877578  1
  Li  Li42  1  0.73009515  0.75000000  0.10122422  1
  Li  Li43  1  0.76990485  0.25000000  0.60122422  1
  Li  Li44  1  0.14267360  0.25000000  0.49496892  1
  Li  Li45  1  0.35732640  0.75000000  0.99496892  1
  Li  Li46  1  0.85732640  0.75000000  0.50503108  1
  Li  Li47  1  0.64267360  0.25000000  0.00503108  1
