# generated using pymatgen
data_LiF
_symmetry_space_group_name_H-M   'P 1'
_cell_length_a   9.68663181
_cell_length_b   9.68663181
_cell_length_c   18.79225822
_cell_angle_alpha   90.00000000
_cell_angle_beta   90.00000000
_cell_angle_gamma   120.00000000
_symmetry_Int_Tables_number   1
_chemical_formula_structural   LiF
_chemical_formula_sum   'Li43 F43'
_cell_volume   1527.05678731
_cell_formula_units_Z   43
loop_
 _symmetry_equiv_pos_site_id
 _symmetry_equiv_pos_as_xyz
  1  'x, y, z'
loop_
 _atom_site_type_symbol
 _atom_site_label
 _atom_site_symmetry_multiplicity
 _atom_site_fract_x
 _atom_site_fract_y
 _atom_site_fract_z
 _atom_site_occupancy
  F  F0  1  0.64907329  0.89420360  0.41123579  1
  F  F1  1  0.10579640  0.75486969  0.41123579  1
  F  F2  1  0.24513031  0.35092671  0.41123579  1
  F  F3  1  0.64907329  0.89420360  0.58876421  1
  F  F4  1  0.10579640  0.75486969  0.58876421  1
  F  F5  1  0.24513031  0.35092671  0.58876421  1
  F  F6  1  0.89420360  0.64907329  0.58876421  1
  F  F7  1  0.75486969  0.10579640  0.58876421  1
  F  F8  1  0.35092671  0.24513031  0.58876421  1
  F  F9  1  0.89420360  0.64907329  0.41123579  1
  F  F10  1  0.75486969  0.10579640  0.41123579  1
  F  F11  1  0.35092671  0.24513031  0.41123579  1
  F  F12  1  0.58774263  0.69286418  0.95030532  1
  F  F13  1  0.30713582  0.89487845  0.95030532  1
  F  F14  1  0.10512155  0.41225737  0.95030532  1
  F  F15  1  0.58774263  0.69286418  0.04969468  1
  F  F16  1  0.30713582  0.89487845  0.04969468  1
  F  F17  1  0.10512155  0.41225737  0.04969468  1
  F  F18  1  0.69286418  0.58774263  0.04969468  1
  F  F19  1  0.89487845  0.30713582  0.04969468  1
  F  F20  1  0.41225737  0.10512155  0.04969468  1
  F  F21  1  0.69286418  0.58774263  0.95030532  1
  F  F22  1  0.89487845  0.30713582  0.95030532  1
  F  F23  1  0.41225737  0.10512155  0.95030532  1
  F  F24  1  0.52918069  0.00000000  0.00000000  1
  F  F25  1  0.00000000  0.52918069  0.00000000  1
  F  F26  1  0.47081931  0.47081931  0.00000000  1
  F  F27  1  0.60123593  0.08349372  0.15682089  1
  F  F28  1  0.91650628  0.51774221  0.15682089  1
  F  F29  1  0.48225779  0.39876407  0.15682089  1
  F  F30  1  0.60123593  0.08349372  0.84317911  1
  F  F31  1  0.91650628  0.51774221  0.84317911  1
  F  F32  1  0.48225779  0.39876407  0.84317911  1
  F  F33  1  0.08349372  0.60123593  0.84317911  1
  F  F34  1  0.51774221  0.91650628  0.84317911  1
  F  F35  1  0.39876407  0.48225779  0.84317911  1
  F  F36  1  0.08349372  0.60123593  0.15682089  1
  F  F37  1  0.51774221  0.91650628  0.15682089  1
  F  F38  1  0.39876407  0.48225779  0.15682089  1
  F  F39  1  0.33333333  0.66666667  0.13089765  1
  F  F40  1  0.33333333  0.66666667  0.86910235  1
  F  F41  1  0.66666667  0.33333333  0.86910235  1
  F  F42  1  0.66666667  0.33333333  0.13089765  1
  Li  Li43  1  0.42497201  0.72811476  0.50000000  1
  Li  Li44  1  0.27188524  0.69685725  0.50000000  1
  Li  Li45  1  0.30314275  0.57502799  0.50000000  1
  Li  Li46  1  0.72811476  0.42497201  0.50000000  1
  Li  Li47  1  0.69685725  0.27188524  0.50000000  1
  Li  Li48  1  0.57502799  0.30314275  0.50000000  1
  Li  Li49  1  0.81589607  -0.00000000  0.00000000  1
  Li  Li50  1  0.00000000  0.81589607  0.00000000  1
  Li  Li51  1  0.18410393  0.18410393  0.00000000  1
  Li  Li52  1  0.00000000  0.00000000  0.28876259  1
  Li  Li53  1  0.00000000  0.00000000  0.71123741  1
  Li  Li54  1  0.00000000  0.00000000  0.84797565  1
  Li  Li55  1  0.00000000  0.00000000  0.15202435  1
  Li  Li56  1  0.30559038  0.00000000  0.87538874  1
  Li  Li57  1  0.00000000  0.30559038  0.87538874  1
  Li  Li58  1  0.69440962  0.69440962  0.87538874  1
  Li  Li59  1  0.30559038  0.00000000  0.12461126  1
  Li  Li60  1  0.00000000  0.30559038  0.12461126  1
  Li  Li61  1  0.69440962  0.69440962  0.12461126  1
  Li  Li62  1  0.00000000  0.00000000  0.00000000  1
  Li  Li63  1  0.67535091  0.55923614  0.50000000  1
  Li  Li64  1  0.44076386  0.11611478  0.50000000  1
  Li  Li65  1  0.88388522  0.32464909  0.50000000  1
  Li  Li66  1  0.55923614  0.67535091  0.50000000  1
  Li  Li67  1  0.11611478  0.44076386  0.50000000  1
  Li  Li68  1  0.32464909  0.88388522  0.50000000  1
  Li  Li69  1  0.20118472  0.79499010  0.06626636  1
  Li  Li70  1  -0.79499010  -0.59380539  0.06626636  1
  Li  Li71  1  0.59380539  -0.20118472  0.06626636  1
  Li  Li72  1  0.20118472  0.79499010  -0.06626636  1
  Li  Li73  1  -0.79499010  -0.59380539  -0.06626636  1
  Li  Li74  1  0.59380539  -0.20118472  -0.06626636  1
  Li  Li75  1  0.79499010  0.20118472  -0.06626636  1
  Li  Li76  1  -0.59380539  -0.79499010  -0.06626636  1
  Li  Li77  1  -0.20118472  0.59380539  -0.06626636  1
  Li  Li78  1  0.79499010  0.20118472  0.06626636  1
  Li  Li79  1  -0.59380539  -0.79499010  0.06626636  1
  Li  Li80  1  -0.20118472  0.59380539  0.06626636  1
  Li  Li81  1  0.33333333  0.66666667  0.00000000  1
  Li  Li82  1  0.66666667  0.33333333  0.00000000  1
  Li  Li83  1  0.20293271  0.00000000  0.50000000  1
  Li  Li84  1  0.00000000  0.20293271  0.50000000  1
  Li  Li85  1  0.79706729  0.79706729  0.50000000  1
