# generated using pymatgen
data_Li2Y2MoP3Se2
_symmetry_space_group_name_H-M   'P 1'
_cell_length_a   5.67298655
_cell_length_b   5.85488783
_cell_length_c   7.34833882
_cell_angle_alpha   93.62910796
_cell_angle_beta   97.90344266
_cell_angle_gamma   104.57668431
_symmetry_Int_Tables_number   1
_chemical_formula_structural   Li2Y2MoP3Se2
_chemical_formula_sum   'Li2 Y2 Mo1 P3 Se2'
_cell_volume   232.74936163
_cell_formula_units_Z   1
loop_
 _symmetry_equiv_pos_site_id
 _symmetry_equiv_pos_as_xyz
  1  'x, y, z'
loop_
 _atom_site_type_symbol
 _atom_site_label
 _atom_site_symmetry_multiplicity
 _atom_site_fract_x
 _atom_site_fract_y
 _atom_site_fract_z
 _atom_site_occupancy
  Se  Se0  1  0.00000000  0.00000000  0.00000000  1
  Se  Se1  1  0.50000000  0.50000000  0.50000000  1
  P  P2  1  0.50000000  0.50000000  0.00000000  1
  P  P3  1  0.50000000  0.00000000  0.50000000  1
  P  P4  1  0.00000000  0.50000000  0.50000000  1
  Mo  Mo5  1  0.90667920  0.36338678  0.08382782  1
  Li  Li6  1  0.99426854  0.60188554  0.55814213  1
  Li  Li7  1  0.77873850  0.08069764  0.05375083  1
  Y  Y8  1  0.10717541  0.73907482  0.90419460  1
  Y  Y9  1  0.19959617  0.99937511  0.13842683  1
