# generated using pymatgen
data_LiY2Te4As4P3
_symmetry_space_group_name_H-M   'P 1'
_cell_length_a   4.92975962
_cell_length_b   4.92880678
_cell_length_c   7.15388556
_cell_angle_alpha   95.03756508
_cell_angle_beta   100.97076946
_cell_angle_gamma   110.23389679
_symmetry_Int_Tables_number   1
_chemical_formula_structural   LiY2Te4As4P3
_chemical_formula_sum   'Li1 Y2 Te4 As4 P3'
_cell_volume   157.87373800
_cell_formula_units_Z   1
loop_
 _symmetry_equiv_pos_site_id
 _symmetry_equiv_pos_as_xyz
  1  'x, y, z'
loop_
 _atom_site_type_symbol
 _atom_site_label
 _atom_site_symmetry_multiplicity
 _atom_site_fract_x
 _atom_site_fract_y
 _atom_site_fract_z
 _atom_site_occupancy
  Te  Te0  1  0.12500000  0.00000000  0.25000000  1
  Te  Te1  1  0.00000000  0.00000000  0.00000000  1
  Te  Te2  1  0.37500000  0.00000000  0.25000000  1
  Te  Te3  1  0.25000000  0.25000000  0.25000000  1
  Y  Y4  1  0.00000000  0.25000000  0.12500000  1
  Y  Y5  1  0.94182325  0.36569754  0.87550002  1
  P  P6  1  0.31399399  0.61073396  0.70416095  1
  P  P7  1  0.86423552  0.08182564  0.88838644  1
  P  P8  1  0.73874652  0.45627452  0.82010951  1
  As  As9  1  0.26621220  0.73217416  0.20383099  1
  As  As10  1  0.89499316  0.92416023  0.86704519  1
  As  As11  1  0.08136490  0.84803715  0.54896271  1
  As  As12  1  0.61056186  0.03974089  0.95753573  1
  Li  Li13  1  0.95628626  0.03611137  0.83530747  1
