# generated using pymatgen
data_Li3ScTiOF
_symmetry_space_group_name_H-M   'P 1'
_cell_length_a   3.52134236
_cell_length_b   3.14031317
_cell_length_c   5.28940102
_cell_angle_alpha   106.07345433
_cell_angle_beta   95.92686903
_cell_angle_gamma   98.45117640
_symmetry_Int_Tables_number   1
_chemical_formula_structural   Li3ScTiOF
_chemical_formula_sum   'Li3 Sc1 Ti1 O1 F1'
_cell_volume   54.95268862
_cell_formula_units_Z   1
loop_
 _symmetry_equiv_pos_site_id
 _symmetry_equiv_pos_as_xyz
  1  'x, y, z'
loop_
 _atom_site_type_symbol
 _atom_site_label
 _atom_site_symmetry_multiplicity
 _atom_site_fract_x
 _atom_site_fract_y
 _atom_site_fract_z
 _atom_site_occupancy
  F  F0  1  0.00000000  0.00000000  0.00000000  1
  O  O1  1  0.50000000  0.50000000  0.50000000  1
  Sc  Sc2  1  0.25000000  0.25000000  0.25000000  1
  Ti  Ti3  1  0.75000000  0.25000000  0.00000000  1
  Li  Li4  1  0.25000000  0.75000000  0.50000000  1
  Li  Li5  1  0.13185218  0.51787082  0.65126913  1
  Li  Li6  1  0.69866933  0.82062323  0.78023197  1
