# generated using pymatgen
data_LiF
_symmetry_space_group_name_H-M   'P 1'
_cell_length_a   6.37493640
_cell_length_b   6.37493640
_cell_length_c   13.85851390
_cell_angle_alpha   90.00000000
_cell_angle_beta   90.00000000
_cell_angle_gamma   120.00000000
_symmetry_Int_Tables_number   1
_chemical_formula_structural   LiF
_chemical_formula_sum   'Li31 F31'
_cell_volume   487.75194107
_cell_formula_units_Z   31
loop_
 _symmetry_equiv_pos_site_id
 _symmetry_equiv_pos_as_xyz
  1  'x, y, z'
loop_
 _atom_site_type_symbol
 _atom_site_label
 _atom_site_symmetry_multiplicity
 _atom_site_fract_x
 _atom_site_fract_y
 _atom_site_fract_z
 _atom_site_occupancy
  F  F0  1  0.64360613  0.05267601  0.42152341  1
  F  F1  1  0.94732399  0.59093011  0.42152341  1
  F  F2  1  0.40906989  0.35639387  0.42152341  1
  F  F3  1  0.94732399  0.35639387  0.57847659  1
  F  F4  1  0.40906989  0.05267601  0.57847659  1
  F  F5  1  0.64360613  0.59093011  0.57847659  1
  F  F6  1  0.12891896  0.87108104  0.50000000  1
  F  F7  1  0.12891896  0.25783791  0.50000000  1
  F  F8  1  0.74216209  0.87108104  0.50000000  1
  F  F9  1  0.66666667  0.33333333  0.78574877  1
  F  F10  1  0.66666667  0.33333333  0.21425123  1
  F  F11  1  0.00608374  0.75737714  0.35274799  1
  F  F12  1  0.24262286  0.24870661  0.35274799  1
  F  F13  1  0.75129339  0.99391626  0.35274799  1
  F  F14  1  0.24262286  0.99391626  0.64725201  1
  F  F15  1  0.75129339  0.75737714  0.64725201  1
  F  F16  1  0.00608374  0.24870661  0.64725201  1
  F  F17  1  0.15879350  0.14825523  0.21037060  1
  F  F18  1  0.85174477  0.01053827  0.21037060  1
  F  F19  1  0.98946173  0.84120650  0.21037060  1
  F  F20  1  0.85174477  0.84120650  0.78962940  1
  F  F21  1  0.98946173  0.14825523  0.78962940  1
  F  F22  1  0.15879350  0.01053827  0.78962940  1
  F  F23  1  0.91991261  0.80774242  0.57168960  1
  F  F24  1  0.19225758  0.11217019  0.57168960  1
  F  F25  1  0.88782981  0.08008739  0.57168960  1
  F  F26  1  0.19225758  0.08008739  0.42831040  1
  F  F27  1  0.88782981  0.80774242  0.42831040  1
  F  F28  1  0.91991261  0.11217019  0.42831040  1
  F  F29  1  0.00000000  0.00000000  0.62670187  1
  F  F30  1  0.00000000  0.00000000  0.37329813  1
  Li  Li31  1  0.66666667  0.33333333  0.00000000  1
  Li  Li32  1  0.32771699  0.53092482  0.78278172  1
  Li  Li33  1  -0.53092482  -0.20320783  0.78278172  1
  Li  Li34  1  0.20320783  -0.32771699  0.78278172  1
  Li  Li35  1  -0.53092482  -0.32771699  -0.78278172  1
  Li  Li36  1  0.20320783  0.53092482  -0.78278172  1
  Li  Li37  1  0.32771699  -0.20320783  -0.78278172  1
  Li  Li38  1  0.00000000  0.00000000  0.50000000  1
  Li  Li39  1  0.88057005  0.72337314  0.68880346  1
  Li  Li40  1  0.27662686  0.15719691  0.68880346  1
  Li  Li41  1  0.84280309  0.11942995  0.68880346  1
  Li  Li42  1  0.27662686  0.11942995  0.31119654  1
  Li  Li43  1  0.84280309  0.72337314  0.31119654  1
  Li  Li44  1  0.88057005  0.15719691  0.31119654  1
  Li  Li45  1  0.22883130  0.25105671  0.80230663  1
  Li  Li46  1  0.74894329  0.97777460  0.80230663  1
  Li  Li47  1  0.02222540  0.77116870  0.80230663  1
  Li  Li48  1  0.74894329  0.77116870  0.19769337  1
  Li  Li49  1  0.02222540  0.25105671  0.19769337  1
  Li  Li50  1  0.22883130  0.97777460  0.19769337  1
  Li  Li51  1  0.50310816  0.10348017  0.72965974  1
  Li  Li52  1  0.89651983  0.39962799  0.72965974  1
  Li  Li53  1  0.60037201  0.49689184  0.72965974  1
  Li  Li54  1  0.89651983  0.49689184  0.27034026  1
  Li  Li55  1  0.60037201  0.10348017  0.27034026  1
  Li  Li56  1  0.50310816  0.39962799  0.27034026  1
  Li  Li57  1  0.66666667  0.33333333  0.50000000  1
  Li  Li58  1  0.00000000  0.00000000  0.00000000  1
  Li  Li59  1  0.44328205  0.55671795  0.00000000  1
  Li  Li60  1  0.44328205  0.88656410  0.00000000  1
  Li  Li61  1  0.11343590  0.55671795  -0.00000000  1
