# generated using pymatgen
data_LiF
_symmetry_space_group_name_H-M   'P 1'
_cell_length_a   9.02970868
_cell_length_b   5.15135690
_cell_length_c   9.25934782
_cell_angle_alpha   90.00000000
_cell_angle_beta   90.00000000
_cell_angle_gamma   90.00000000
_symmetry_Int_Tables_number   1
_chemical_formula_structural   LiF
_chemical_formula_sum   'Li14 F14'
_cell_volume   430.70089830
_cell_formula_units_Z   14
loop_
 _symmetry_equiv_pos_site_id
 _symmetry_equiv_pos_as_xyz
  1  'x, y, z'
loop_
 _atom_site_type_symbol
 _atom_site_label
 _atom_site_symmetry_multiplicity
 _atom_site_fract_x
 _atom_site_fract_y
 _atom_site_fract_z
 _atom_site_occupancy
  F  F0  1  0.00000000  0.50000000  0.00000000  1
  F  F1  1  0.50000000  0.00000000  0.00000000  1
  F  F2  1  0.52594351  0.09962808  0.37598141  1
  F  F3  1  -0.52594351  -0.09962808  0.37598141  1
  F  F4  1  -0.02594351  0.59962808  -0.37598141  1
  F  F5  1  1.02594351  0.40037192  -0.37598141  1
  F  F6  1  -0.52594351  -0.09962808  -0.37598141  1
  F  F7  1  0.52594351  0.09962808  -0.37598141  1
  F  F8  1  1.02594351  0.40037192  0.37598141  1
  F  F9  1  -0.02594351  0.59962808  0.37598141  1
  F  F10  1  0.74532731  0.76979351  0.50000000  1
  F  F11  1  0.25467269  0.23020649  0.50000000  1
  F  F12  1  0.75467269  0.26979351  0.50000000  1
  F  F13  1  0.24532731  0.73020649  0.50000000  1
  Li  Li14  1  0.60940109  0.57179734  0.30606255  1
  Li  Li15  1  0.39059891  0.42820266  0.30606255  1
  Li  Li16  1  0.89059891  0.07179734  0.69393745  1
  Li  Li17  1  0.10940109  0.92820266  0.69393745  1
  Li  Li18  1  0.39059891  0.42820266  0.69393745  1
  Li  Li19  1  0.60940109  0.57179734  0.69393745  1
  Li  Li20  1  0.10940109  0.92820266  0.30606255  1
  Li  Li21  1  0.89059891  0.07179734  0.30606255  1
  Li  Li22  1  0.00000000  0.50000000  0.50000000  1
  Li  Li23  1  0.50000000  0.00000000  0.50000000  1
  Li  Li24  1  0.00000000  0.00000000  0.41872877  1
  Li  Li25  1  0.50000000  0.50000000  0.58127123  1
  Li  Li26  1  0.00000000  0.00000000  0.58127123  1
  Li  Li27  1  0.50000000  0.50000000  0.41872877  1
