# generated using pymatgen
data_LiF
_symmetry_space_group_name_H-M   'P 1'
_cell_length_a   8.40254075
_cell_length_b   8.40254075
_cell_length_c   4.29320641
_cell_angle_alpha   90.00000000
_cell_angle_beta   90.00000000
_cell_angle_gamma   120.00000000
_symmetry_Int_Tables_number   1
_chemical_formula_structural   LiF
_chemical_formula_sum   'Li13 F13'
_cell_volume   262.50262787
_cell_formula_units_Z   13
loop_
 _symmetry_equiv_pos_site_id
 _symmetry_equiv_pos_as_xyz
  1  'x, y, z'
loop_
 _atom_site_type_symbol
 _atom_site_label
 _atom_site_symmetry_multiplicity
 _atom_site_fract_x
 _atom_site_fract_y
 _atom_site_fract_z
 _atom_site_occupancy
  F  F0  1  0.16014419  0.83666126  0.27417715  1
  F  F1  1  0.16333874  0.32348292  0.27417715  1
  F  F2  1  0.67651708  0.83985581  0.27417715  1
  F  F3  1  0.16333874  0.83985581  0.72582285  1
  F  F4  1  0.67651708  0.83666126  0.72582285  1
  F  F5  1  0.16014419  0.32348292  0.72582285  1
  F  F6  1  0.65518531  0.72687554  0.15766971  1
  F  F7  1  0.27312446  0.92830977  0.15766971  1
  F  F8  1  0.07169023  0.34481469  0.15766971  1
  F  F9  1  0.27312446  0.34481469  0.84233029  1
  F  F10  1  0.07169023  0.72687554  0.84233029  1
  F  F11  1  0.65518531  0.92830977  0.84233029  1
  F  F12  1  0.00000000  0.00000000  0.00000000  1
  Li  Li13  1  0.28100490  0.06131963  0.06707091  1
  Li  Li14  1  -0.06131963  0.21968528  0.06707091  1
  Li  Li15  1  -0.21968528  -0.28100490  0.06707091  1
  Li  Li16  1  -0.06131963  -0.28100490  -0.06707091  1
  Li  Li17  1  -0.21968528  0.06131963  -0.06707091  1
  Li  Li18  1  0.28100490  0.21968528  -0.06707091  1
  Li  Li19  1  0.66666667  0.33333333  0.00000000  1
  Li  Li20  1  0.33333333  0.66666667  0.50000000  1
  Li  Li21  1  0.00000000  0.00000000  0.50000000  1
  Li  Li22  1  0.33333333  0.66666667  0.00000000  1
  Li  Li23  1  0.22946792  0.77053208  0.50000000  1
  Li  Li24  1  0.22946792  0.45893585  0.50000000  1
  Li  Li25  1  0.54106415  0.77053208  0.50000000  1
