# generated using pymatgen
data_Li2Y2Te4MoP3
_symmetry_space_group_name_H-M   'P 1'
_cell_length_a   4.42874192
_cell_length_b   4.72179920
_cell_length_c   6.90473536
_cell_angle_alpha   95.86776314
_cell_angle_beta   102.77876824
_cell_angle_gamma   113.56847245
_symmetry_Int_Tables_number   1
_chemical_formula_structural   Li2Y2Te4MoP3
_chemical_formula_sum   'Li2 Y2 Te4 Mo1 P3'
_cell_volume   126.09622074
_cell_formula_units_Z   1
loop_
 _symmetry_equiv_pos_site_id
 _symmetry_equiv_pos_as_xyz
  1  'x, y, z'
loop_
 _atom_site_type_symbol
 _atom_site_label
 _atom_site_symmetry_multiplicity
 _atom_site_fract_x
 _atom_site_fract_y
 _atom_site_fract_z
 _atom_site_occupancy
  Y  Y0  1  0.00000000  0.00000000  0.00000000  1
  Y  Y1  1  0.50000000  0.50000000  0.50000000  1
  P  P2  1  0.25000000  0.25000000  0.25000000  1
  P  P3  1  0.75000000  0.25000000  0.00000000  1
  P  P4  1  0.25000000  0.75000000  0.50000000  1
  Mo  Mo5  1  0.41800136  0.94575993  0.53554708  1
  Li  Li6  1  0.54881345  0.59435813  0.84131060  1
  Li  Li7  1  0.47139192  0.30853749  0.84411705  1
  Te  Te8  1  0.19034105  0.22508635  0.42079677  1
  Te  Te9  1  0.73333419  0.75034407  0.56598494  1
  Te  Te10  1  0.80914364  0.79918087  0.64541843  1
  Te  Te11  1  0.56041343  0.34031289  0.46213422  1
