# generated using pymatgen
data_LiF
_symmetry_space_group_name_H-M   'P 1'
_cell_length_a   7.64662935
_cell_length_b   5.40704414
_cell_length_c   7.60901633
_cell_angle_alpha   90.00000000
_cell_angle_beta   90.00000000
_cell_angle_gamma   90.00000000
_symmetry_Int_Tables_number   1
_chemical_formula_structural   LiF
_chemical_formula_sum   'Li24 F24'
_cell_volume   314.59982025
_cell_formula_units_Z   24
loop_
 _symmetry_equiv_pos_site_id
 _symmetry_equiv_pos_as_xyz
  1  'x, y, z'
loop_
 _atom_site_type_symbol
 _atom_site_label
 _atom_site_symmetry_multiplicity
 _atom_site_fract_x
 _atom_site_fract_y
 _atom_site_fract_z
 _atom_site_occupancy
  F  F0  1  0.43710997  0.19449393  0.50000000  1
  F  F1  1  0.56289003  0.80550607  0.50000000  1
  F  F2  1  0.06289003  0.69449393  0.50000000  1
  F  F3  1  0.93710997  0.30550607  0.50000000  1
  F  F4  1  0.30896610  0.29350519  0.50000000  1
  F  F5  1  0.69103390  0.70649481  0.50000000  1
  F  F6  1  0.19103390  0.79350519  0.50000000  1
  F  F7  1  0.80896610  0.20649481  0.50000000  1
  F  F8  1  0.00000000  0.50000000  0.24081739  1
  F  F9  1  0.50000000  0.00000000  0.75918261  1
  F  F10  1  0.00000000  0.50000000  0.75918261  1
  F  F11  1  0.50000000  0.00000000  0.24081739  1
  F  F12  1  0.77560915  0.91273472  0.50000000  1
  F  F13  1  0.22439085  0.08726528  0.50000000  1
  F  F14  1  0.72439085  0.41273472  0.50000000  1
  F  F15  1  0.27560915  0.58726528  0.50000000  1
  F  F16  1  0.00000000  0.00000000  0.50000000  1
  F  F17  1  0.50000000  0.50000000  0.50000000  1
  F  F18  1  0.09594431  0.09853047  0.50000000  1
  F  F19  1  0.90405569  0.90146953  0.50000000  1
  F  F20  1  0.40405569  0.59853047  0.50000000  1
  F  F21  1  0.59594431  0.40146953  0.50000000  1
  F  F22  1  0.00000000  0.50000000  0.50000000  1
  F  F23  1  0.50000000  0.00000000  0.50000000  1
  Li  Li24  1  0.00000000  0.50000000  0.62429051  1
  Li  Li25  1  0.50000000  0.00000000  0.37570949  1
  Li  Li26  1  0.00000000  0.50000000  0.37570949  1
  Li  Li27  1  0.50000000  0.00000000  0.62429051  1
  Li  Li28  1  0.64658606  0.75839284  0.15827534  1
  Li  Li29  1  -0.64658606  -0.75839284  0.15827534  1
  Li  Li30  1  -0.14658606  1.25839284  -0.15827534  1
  Li  Li31  1  1.14658606  -0.25839284  -0.15827534  1
  Li  Li32  1  -0.64658606  -0.75839284  -0.15827534  1
  Li  Li33  1  0.64658606  0.75839284  -0.15827534  1
  Li  Li34  1  1.14658606  -0.25839284  0.15827534  1
  Li  Li35  1  -0.14658606  1.25839284  0.15827534  1
  Li  Li36  1  0.79902501  0.66504799  0.21320799  1
  Li  Li37  1  0.20097499  0.33495201  0.21320799  1
  Li  Li38  1  0.70097499  0.16504799  0.78679201  1
  Li  Li39  1  0.29902501  0.83495201  0.78679201  1
  Li  Li40  1  0.20097499  0.33495201  0.78679201  1
  Li  Li41  1  0.79902501  0.66504799  0.78679201  1
  Li  Li42  1  0.29902501  0.83495201  0.21320799  1
  Li  Li43  1  0.70097499  0.16504799  0.21320799  1
  Li  Li44  1  0.00000000  0.00000000  0.13385677  1
  Li  Li45  1  0.50000000  0.50000000  0.86614323  1
  Li  Li46  1  0.00000000  0.00000000  0.86614323  1
  Li  Li47  1  0.50000000  0.50000000  0.13385677  1
