# generated using pymatgen
data_LiF
_symmetry_space_group_name_H-M   'P 1'
_cell_length_a   10.59965195
_cell_length_b   10.59965195
_cell_length_c   6.19248068
_cell_angle_alpha   90.00000000
_cell_angle_beta   90.00000000
_cell_angle_gamma   120.00000000
_symmetry_Int_Tables_number   1
_chemical_formula_structural   LiF
_chemical_formula_sum   'Li17 F17'
_cell_volume   602.52975916
_cell_formula_units_Z   17
loop_
 _symmetry_equiv_pos_site_id
 _symmetry_equiv_pos_as_xyz
  1  'x, y, z'
loop_
 _atom_site_type_symbol
 _atom_site_label
 _atom_site_symmetry_multiplicity
 _atom_site_fract_x
 _atom_site_fract_y
 _atom_site_fract_z
 _atom_site_occupancy
  F  F0  1  0.33333333  0.66666667  0.50000000  1
  F  F1  1  0.38372235  0.57936678  0.64888204  1
  F  F2  1  0.42063322  0.80435557  0.64888204  1
  F  F3  1  0.19564443  0.61627765  0.64888204  1
  F  F4  1  0.42063322  0.61627765  0.35111796  1
  F  F5  1  0.19564443  0.57936678  0.35111796  1
  F  F6  1  0.38372235  0.80435557  0.35111796  1
  F  F7  1  0.88259107  0.34526596  0.41980363  1
  F  F8  1  0.65473404  0.53732512  0.41980363  1
  F  F9  1  0.46267488  0.11740893  0.41980363  1
  F  F10  1  0.65473404  0.11740893  0.58019637  1
  F  F11  1  0.46267488  0.34526596  0.58019637  1
  F  F12  1  0.88259107  0.53732512  0.58019637  1
  F  F13  1  0.00000000  0.00000000  0.42989644  1
  F  F14  1  0.00000000  0.00000000  0.57010356  1
  F  F15  1  0.66666667  0.33333333  0.50000000  1
  F  F16  1  0.33333333  0.66666667  0.00000000  1
  Li  Li17  1  0.66666667  0.33333333  0.72970366  1
  Li  Li18  1  0.66666667  0.33333333  0.27029634  1
  Li  Li19  1  0.83364091  0.16635909  0.00000000  1
  Li  Li20  1  0.83364091  0.66728182  -0.00000000  1
  Li  Li21  1  0.33271818  0.16635909  0.00000000  1
  Li  Li22  1  0.35002558  0.78253395  0.20232212  1
  Li  Li23  1  -0.78253395  -0.43250837  0.20232212  1
  Li  Li24  1  0.43250837  -0.35002558  0.20232212  1
  Li  Li25  1  -0.78253395  -0.35002558  -0.20232212  1
  Li  Li26  1  0.43250837  0.78253395  -0.20232212  1
  Li  Li27  1  0.35002558  -0.43250837  -0.20232212  1
  Li  Li28  1  0.40487724  0.59512276  0.00000000  1
  Li  Li29  1  0.40487724  0.80975448  0.00000000  1
  Li  Li30  1  0.19024552  0.59512276  0.00000000  1
  Li  Li31  1  0.66666667  0.33333333  0.00000000  1
  Li  Li32  1  0.00000000  0.00000000  0.80462402  1
  Li  Li33  1  0.00000000  0.00000000  0.19537598  1
