# generated using pymatgen
data_Li4Hf2Ti3F24
_symmetry_space_group_name_H-M   'P 1'
_cell_length_a   10.75642786
_cell_length_b   10.75642786
_cell_length_c   13.03583071
_cell_angle_alpha   90.00000000
_cell_angle_beta   90.00000000
_cell_angle_gamma   120.00000000
_symmetry_Int_Tables_number   1
_chemical_formula_structural   Li4Hf2Ti3F24
_chemical_formula_sum   'Li12 Hf6 Ti9 F72'
_cell_volume   1306.18737328
_cell_formula_units_Z   3
loop_
 _symmetry_equiv_pos_site_id
 _symmetry_equiv_pos_as_xyz
  1  'x, y, z'
loop_
 _atom_site_type_symbol
 _atom_site_label
 _atom_site_symmetry_multiplicity
 _atom_site_fract_x
 _atom_site_fract_y
 _atom_site_fract_z
 _atom_site_occupancy
  F  F0  1  0.54666030  0.45333970  0.93390055  1
  F  F1  1  0.54666030  0.09332061  0.93390055  1
  F  F2  1  0.90667939  0.45333970  0.93390055  1
  F  F3  1  0.45333970  0.54666030  0.06609945  1
  F  F4  1  0.09332061  0.54666030  0.06609945  1
  F  F5  1  0.45333970  0.90667939  0.06609945  1
  F  F6  1  0.21332697  0.78667303  0.26723388  1
  F  F7  1  0.21332697  0.42665394  0.26723388  1
  F  F8  1  0.57334606  0.78667303  0.26723388  1
  F  F9  1  0.12000636  0.87999364  0.39943279  1
  F  F10  1  0.75998728  0.87999364  0.39943279  1
  F  F11  1  0.12000636  0.24001272  0.39943279  1
  F  F12  1  0.87999364  0.12000636  0.60056721  1
  F  F13  1  0.87999364  0.75998728  0.60056721  1
  F  F14  1  0.24001272  0.12000636  0.60056721  1
  F  F15  1  0.78667303  0.21332697  0.73276612  1
  F  F16  1  0.42665394  0.21332697  0.73276612  1
  F  F17  1  0.78667303  0.57334606  0.73276612  1
  F  F18  1  0.49439434  0.50560566  0.19260834  1
  F  F19  1  0.49439434  0.98878868  0.19260834  1
  F  F20  1  0.01121132  0.50560566  0.19260834  1
  F  F21  1  0.50560566  0.49439434  0.80739166  1
  F  F22  1  0.98878868  0.49439434  0.80739166  1
  F  F23  1  0.50560566  0.01121132  0.80739166  1
  F  F24  1  0.16106101  0.83893899  0.52594167  1
  F  F25  1  0.16106101  0.32212201  0.52594167  1
  F  F26  1  0.67787799  0.83893899  0.52594167  1
  F  F27  1  0.17227233  0.82772767  0.14072499  1
  F  F28  1  0.65545535  0.82772767  0.14072499  1
  F  F29  1  0.17227233  0.34454465  0.14072499  1
  F  F30  1  0.82772767  0.17227233  0.85927501  1
  F  F31  1  0.82772767  0.65545535  0.85927501  1
  F  F32  1  0.34454465  0.17227233  0.85927501  1
  F  F33  1  0.83893899  0.16106101  0.47405833  1
  F  F34  1  0.32212201  0.16106101  0.47405833  1
  F  F35  1  0.83893899  0.67787799  0.47405833  1
  F  F36  1  0.54765646  0.57997550  0.77089716  1
  F  F37  1  -0.57997550  -0.03231904  0.77089716  1
  F  F38  1  0.03231904  -0.54765646  0.77089716  1
  F  F39  1  0.57997550  0.54765646  -0.77089716  1
  F  F40  1  -0.03231904  -0.57997550  -0.77089716  1
  F  F41  1  -0.54765646  0.03231904  -0.77089716  1
  F  F42  1  -0.54765646  -0.57997550  -0.77089716  1
  F  F43  1  0.57997550  0.03231904  -0.77089716  1
  F  F44  1  -0.03231904  0.54765646  -0.77089716  1
  F  F45  1  -0.57997550  -0.54765646  0.77089716  1
  F  F46  1  0.03231904  0.57997550  0.77089716  1
  F  F47  1  0.54765646  -0.03231904  0.77089716  1
  F  F48  1  1.21432312  0.91330883  1.10423050  1
  F  F49  1  0.08669117  0.30101430  1.10423050  1
  F  F50  1  0.69898570  -0.21432312  1.10423050  1
  F  F51  1  1.24664216  0.88098979  -0.43756383  1
  F  F52  1  0.63434763  -0.24664216  -0.43756383  1
  F  F53  1  0.11901021  0.36565237  -0.43756383  1
  F  F54  1  0.11901021  -0.24664216  -0.43756383  1
  F  F55  1  1.24664216  0.36565237  -0.43756383  1
  F  F56  1  0.63434763  0.88098979  -0.43756383  1
  F  F57  1  0.08669117  -0.21432312  1.10423050  1
  F  F58  1  0.69898570  0.91330883  1.10423050  1
  F  F59  1  1.21432312  0.30101430  1.10423050  1
  F  F60  1  0.88098979  1.24664216  1.43756383  1
  F  F61  1  -0.24664216  0.63434763  1.43756383  1
  F  F62  1  0.36565237  0.11901021  1.43756383  1
  F  F63  1  0.91330883  1.21432312  -0.10423050  1
  F  F64  1  0.30101430  0.08669117  -0.10423050  1
  F  F65  1  -0.21432312  0.69898570  -0.10423050  1
  F  F66  1  -0.21432312  0.08669117  -0.10423050  1
  F  F67  1  0.91330883  0.69898570  -0.10423050  1
  F  F68  1  0.30101430  1.21432312  -0.10423050  1
  F  F69  1  -0.24664216  0.11901021  1.43756383  1
  F  F70  1  0.36565237  1.24664216  1.43756383  1
  F  F71  1  0.88098979  0.63434763  1.43756383  1
  Hf  Hf72  1  0.00000000  0.00000000  0.63411256  1
  Hf  Hf73  1  0.00000000  0.00000000  0.36588744  1
  Hf  Hf74  1  0.66666667  0.33333333  0.96744589  1
  Hf  Hf75  1  0.66666667  0.33333333  0.69922078  1
  Hf  Hf76  1  0.33333333  0.66666667  0.30077922  1
  Hf  Hf77  1  0.33333333  0.66666667  0.03255411  1
  Li  Li78  1  0.50000000  0.00000000  0.00000000  1
  Li  Li79  1  0.00000000  0.50000000  0.00000000  1
  Li  Li80  1  0.50000000  0.50000000  0.00000000  1
  Li  Li81  1  0.16666667  0.33333333  0.33333333  1
  Li  Li82  1  0.66666667  0.83333333  0.33333333  1
  Li  Li83  1  0.16666667  0.83333333  0.33333333  1
  Li  Li84  1  0.83333333  0.66666667  0.66666667  1
  Li  Li85  1  0.33333333  0.16666667  0.66666667  1
  Li  Li86  1  0.83333333  0.16666667  0.66666667  1
  Li  Li87  1  0.00000000  0.00000000  0.00000000  1
  Li  Li88  1  0.66666667  0.33333333  0.33333333  1
  Li  Li89  1  0.33333333  0.66666667  0.66666667  1
  Ti  Ti90  1  0.50000000  0.00000000  0.50000000  1
  Ti  Ti91  1  0.00000000  0.50000000  0.50000000  1
  Ti  Ti92  1  0.50000000  0.50000000  0.50000000  1
  Ti  Ti93  1  0.16666667  0.33333333  0.83333333  1
  Ti  Ti94  1  0.66666667  0.83333333  0.83333333  1
  Ti  Ti95  1  0.16666667  0.83333333  0.83333333  1
  Ti  Ti96  1  0.83333333  0.66666667  0.16666667  1
  Ti  Ti97  1  0.33333333  0.16666667  0.16666667  1
  Ti  Ti98  1  0.83333333  0.16666667  0.16666667  1
