# generated using pymatgen
data_LiF
_symmetry_space_group_name_H-M   'P 1'
_cell_length_a   7.13664416
_cell_length_b   12.06870601
_cell_length_c   7.58406623
_cell_angle_alpha   90.00000000
_cell_angle_beta   90.00000000
_cell_angle_gamma   90.00000000
_symmetry_Int_Tables_number   1
_chemical_formula_structural   LiF
_chemical_formula_sum   'Li24 F24'
_cell_volume   653.21608161
_cell_formula_units_Z   24
loop_
 _symmetry_equiv_pos_site_id
 _symmetry_equiv_pos_as_xyz
  1  'x, y, z'
loop_
 _atom_site_type_symbol
 _atom_site_label
 _atom_site_symmetry_multiplicity
 _atom_site_fract_x
 _atom_site_fract_y
 _atom_site_fract_z
 _atom_site_occupancy
  F  F0  1  0.84023077  0.91754125  0.07209175  1
  F  F1  1  0.65976923  0.08245875  0.57209175  1
  F  F2  1  0.15976923  0.41754125  0.92790825  1
  F  F3  1  0.34023077  0.58245875  0.42790825  1
  F  F4  1  0.15976923  0.08245875  0.92790825  1
  F  F5  1  0.34023077  0.91754125  0.42790825  1
  F  F6  1  0.84023077  0.58245875  0.07209175  1
  F  F7  1  0.65976923  0.41754125  0.57209175  1
  F  F8  1  0.27778277  0.30571963  0.01613192  1
  F  F9  1  0.22221723  0.69428037  0.51613192  1
  F  F10  1  0.72221723  0.80571963  0.98386808  1
  F  F11  1  0.77778277  0.19428037  0.48386808  1
  F  F12  1  0.72221723  0.69428037  0.98386808  1
  F  F13  1  0.77778277  0.30571963  0.48386808  1
  F  F14  1  0.27778277  0.19428037  0.01613192  1
  F  F15  1  0.22221723  0.80571963  0.51613192  1
  F  F16  1  0.34666763  0.84459033  0.01967740  1
  F  F17  1  0.15333237  0.15540967  0.51967740  1
  F  F18  1  0.65333237  0.34459033  0.98032260  1
  F  F19  1  0.84666763  0.65540967  0.48032260  1
  F  F20  1  0.65333237  0.15540967  0.98032260  1
  F  F21  1  0.84666763  0.84459033  0.48032260  1
  F  F22  1  0.34666763  0.65540967  0.01967740  1
  F  F23  1  0.15333237  0.34459033  0.51967740  1
  Li  Li24  1  0.39553842  0.25000000  0.62331861  1
  Li  Li25  1  0.10446158  0.75000000  0.12331861  1
  Li  Li26  1  0.60446158  0.75000000  0.37668139  1
  Li  Li27  1  0.89553842  0.25000000  0.87668139  1
  Li  Li28  1  0.00000000  0.00000000  0.00000000  1
  Li  Li29  1  0.50000000  0.00000000  0.50000000  1
  Li  Li30  1  0.00000000  0.50000000  0.00000000  1
  Li  Li31  1  0.50000000  0.50000000  0.50000000  1
  Li  Li32  1  0.04912348  0.25000000  0.26760317  1
  Li  Li33  1  0.45087652  0.75000000  0.76760317  1
  Li  Li34  1  0.95087652  0.75000000  0.73239683  1
  Li  Li35  1  0.54912348  0.25000000  0.23239683  1
  Li  Li36  1  0.84254163  0.25000000  0.39881929  1
  Li  Li37  1  0.65745837  0.75000000  0.89881929  1
  Li  Li38  1  0.15745837  0.75000000  0.60118071  1
  Li  Li39  1  0.34254163  0.25000000  0.10118071  1
  Li  Li40  1  0.59957066  0.65618861  0.17617250  1
  Li  Li41  1  -0.09957066  -0.65618861  0.67617250  1
  Li  Li42  1  -0.59957066  1.15618861  -0.17617250  1
  Li  Li43  1  1.09957066  -0.15618861  0.32382750  1
  Li  Li44  1  -0.59957066  -0.65618861  -0.17617250  1
  Li  Li45  1  1.09957066  0.65618861  0.32382750  1
  Li  Li46  1  0.59957066  -0.15618861  0.17617250  1
  Li  Li47  1  -0.09957066  1.15618861  0.67617250  1
