# generated using pymatgen
data_LiCrSb3OF2
_symmetry_space_group_name_H-M   'P 1'
_cell_length_a   8.65938833
_cell_length_b   8.49062511
_cell_length_c   7.68883518
_cell_angle_alpha   90.00000000
_cell_angle_beta   90.00000000
_cell_angle_gamma   90.00000000
_symmetry_Int_Tables_number   1
_chemical_formula_structural   LiCrSb3OF2
_chemical_formula_sum   'Li2 Cr2 Sb6 O2 F4'
_cell_volume   565.31099573
_cell_formula_units_Z   2
loop_
 _symmetry_equiv_pos_site_id
 _symmetry_equiv_pos_as_xyz
  1  'x, y, z'
loop_
 _atom_site_type_symbol
 _atom_site_label
 _atom_site_symmetry_multiplicity
 _atom_site_fract_x
 _atom_site_fract_y
 _atom_site_fract_z
 _atom_site_occupancy
  F  F0  1  0.00000000  0.00000000  0.00000000  1
  F  F1  1  0.50000000  0.50000000  0.50000000  1
  F  F2  1  0.25000000  0.25000000  0.25000000  1
  F  F3  1  0.75000000  0.25000000  0.00000000  1
  O  O4  1  0.25000000  0.75000000  0.50000000  1
  O  O5  1  0.73537618  0.83357709  0.47291765  1
  Cr  Cr6  1  0.34278841  0.14700922  0.25487018  1
  Cr  Cr7  1  0.49673390  0.66687035  0.15664697  1
  Li  Li8  1  0.62750650  0.32450534  0.51185073  1
  Li  Li9  1  0.47438108  0.62245209  0.23341536  1
  Sb  Sb10  1  0.63232644  0.30779921  0.27671253  1
  Sb  Sb11  1  0.09627377  0.13828931  0.26421029  1
  Sb  Sb12  1  0.75634941  0.49381194  0.56406994  1
  Sb  Sb13  1  0.28790516  0.71076272  0.30231132  1
  Sb  Sb14  1  0.43821849  0.33895238  0.20820686  1
  Sb  Sb15  1  0.82636912  0.10847237  0.76748474  1
