# generated using pymatgen
data_LiF
_symmetry_space_group_name_H-M   'P 1'
_cell_length_a   8.59078432
_cell_length_b   6.34889056
_cell_length_c   12.99568833
_cell_angle_alpha   90.00000000
_cell_angle_beta   90.00000000
_cell_angle_gamma   90.00000000
_symmetry_Int_Tables_number   1
_chemical_formula_structural   LiF
_chemical_formula_sum   'Li24 F24'
_cell_volume   708.81017694
_cell_formula_units_Z   24
loop_
 _symmetry_equiv_pos_site_id
 _symmetry_equiv_pos_as_xyz
  1  'x, y, z'
loop_
 _atom_site_type_symbol
 _atom_site_label
 _atom_site_symmetry_multiplicity
 _atom_site_fract_x
 _atom_site_fract_y
 _atom_site_fract_z
 _atom_site_occupancy
  F  F0  1  0.21557446  0.68183145  0.22383983  1
  F  F1  1  0.28442554  0.31816855  0.72383983  1
  F  F2  1  0.78442554  0.18183145  0.77616017  1
  F  F3  1  0.71557446  0.81816855  0.27616017  1
  F  F4  1  0.78442554  0.31816855  0.77616017  1
  F  F5  1  0.71557446  0.68183145  0.27616017  1
  F  F6  1  0.21557446  0.81816855  0.22383983  1
  F  F7  1  0.28442554  0.18183145  0.72383983  1
  F  F8  1  0.26769285  0.25000000  0.89422710  1
  F  F9  1  0.23230715  0.75000000  0.39422710  1
  F  F10  1  0.73230715  0.75000000  0.10577290  1
  F  F11  1  0.76769285  0.25000000  0.60577290  1
  F  F12  1  0.56870972  0.53574024  0.79399352  1
  F  F13  1  0.93129028  0.46425976  0.29399352  1
  F  F14  1  0.43129028  0.03574024  0.20600648  1
  F  F15  1  0.06870972  0.96425976  0.70600648  1
  F  F16  1  0.43129028  0.46425976  0.20600648  1
  F  F17  1  0.06870972  0.53574024  0.70600648  1
  F  F18  1  0.56870972  0.96425976  0.79399352  1
  F  F19  1  0.93129028  0.03574024  0.29399352  1
  F  F20  1  0.81527771  0.25000000  0.12867094  1
  F  F21  1  0.68472229  0.75000000  0.62867094  1
  F  F22  1  0.18472229  0.75000000  0.87132906  1
  F  F23  1  0.31527771  0.25000000  0.37132906  1
  Li  Li24  1  0.88431335  0.38927021  0.82922853  1
  Li  Li25  1  -0.38431335  -0.38927021  1.32922853  1
  Li  Li26  1  -0.88431335  0.88927021  -0.82922853  1
  Li  Li27  1  1.38431335  0.11072979  -0.32922853  1
  Li  Li28  1  -0.88431335  -0.38927021  -0.82922853  1
  Li  Li29  1  1.38431335  0.38927021  -0.32922853  1
  Li  Li30  1  0.88431335  0.11072979  0.82922853  1
  Li  Li31  1  -0.38431335  0.88927021  1.32922853  1
  Li  Li32  1  0.57623149  0.25000000  0.45914928  1
  Li  Li33  1  0.92376851  0.75000000  0.95914928  1
  Li  Li34  1  0.42376851  0.75000000  0.54085072  1
  Li  Li35  1  0.07623149  0.25000000  0.04085072  1
  Li  Li36  1  0.36375392  0.25000000  0.49430166  1
  Li  Li37  1  0.13624608  0.75000000  0.99430166  1
  Li  Li38  1  0.63624608  0.75000000  0.50569834  1
  Li  Li39  1  0.86375392  0.25000000  0.00569834  1
  Li  Li40  1  0.00000000  0.00000000  0.50000000  1
  Li  Li41  1  0.50000000  0.00000000  0.00000000  1
  Li  Li42  1  0.00000000  0.50000000  0.50000000  1
  Li  Li43  1  0.50000000  0.50000000  -0.00000000  1
  Li  Li44  1  0.00000000  0.00000000  0.00000000  1
  Li  Li45  1  0.50000000  0.00000000  0.50000000  1
  Li  Li46  1  0.00000000  0.50000000  -0.00000000  1
  Li  Li47  1  0.50000000  0.50000000  0.50000000  1
