# generated using pymatgen
data_Li3TiClO3
_symmetry_space_group_name_H-M   'P 1'
_cell_length_a   3.74933884
_cell_length_b   3.68693507
_cell_length_c   4.78348264
_cell_angle_alpha   99.26804990
_cell_angle_beta   95.58141117
_cell_angle_gamma   96.79275005
_symmetry_Int_Tables_number   1
_chemical_formula_structural   Li3TiClO3
_chemical_formula_sum   'Li3 Ti1 Cl1 O3'
_cell_volume   64.34548230
_cell_formula_units_Z   1
loop_
 _symmetry_equiv_pos_site_id
 _symmetry_equiv_pos_as_xyz
  1  'x, y, z'
loop_
 _atom_site_type_symbol
 _atom_site_label
 _atom_site_symmetry_multiplicity
 _atom_site_fract_x
 _atom_site_fract_y
 _atom_site_fract_z
 _atom_site_occupancy
  Li  Li0  1  0.00000000  0.00000000  0.00000000  1
  Li  Li1  1  0.50000000  0.50000000  0.50000000  1
  Li  Li2  1  0.50000000  0.50000000  0.00000000  1
  O  O3  1  0.50000000  0.00000000  0.50000000  1
  O  O4  1  0.00000000  0.50000000  0.50000000  1
  O  O5  1  0.24827085  0.65754497  0.75170603  1
  Cl  Cl6  1  0.21664417  0.05582643  0.58548043  1
  Ti  Ti7  1  0.63512012  0.57171665  0.01480507  1
