# generated using pymatgen
data_Li2Y2As2P3Se
_symmetry_space_group_name_H-M   'P 1'
_cell_length_a   5.03946692
_cell_length_b   5.13266944
_cell_length_c   7.14165811
_cell_angle_alpha   94.69171793
_cell_angle_beta   100.21758626
_cell_angle_gamma   108.84476623
_symmetry_Int_Tables_number   1
_chemical_formula_structural   Li2Y2As2P3Se
_chemical_formula_sum   'Li2 Y2 As2 P3 Se1'
_cell_volume   170.12190194
_cell_formula_units_Z   1
loop_
 _symmetry_equiv_pos_site_id
 _symmetry_equiv_pos_as_xyz
  1  'x, y, z'
loop_
 _atom_site_type_symbol
 _atom_site_label
 _atom_site_symmetry_multiplicity
 _atom_site_fract_x
 _atom_site_fract_y
 _atom_site_fract_z
 _atom_site_occupancy
  Se  Se0  1  0.00000000  0.00000000  0.00000000  1
  P  P1  1  0.50000000  0.50000000  0.50000000  1
  P  P2  1  0.25000000  0.25000000  0.25000000  1
  P  P3  1  0.75000000  0.25000000  0.00000000  1
  As  As4  1  0.25000000  0.75000000  0.50000000  1
  As  As5  1  0.22167429  0.81552560  0.19743600  1
  Li  Li6  1  0.20171151  0.77348943  0.53915706  1
  Li  Li7  1  0.95656273  0.54024936  0.12266779  1
  Y  Y8  1  0.43722149  0.50939500  0.00261838  1
  Y  Y9  1  0.79476163  0.39465622  0.62405067  1
