# generated using pymatgen
data_LiF
_symmetry_space_group_name_H-M   'P 1'
_cell_length_a   3.95822848
_cell_length_b   7.17593582
_cell_length_c   6.18310004
_cell_angle_alpha   90.00000000
_cell_angle_beta   90.00000000
_cell_angle_gamma   90.00000000
_symmetry_Int_Tables_number   1
_chemical_formula_structural   LiF
_chemical_formula_sum   'Li8 F8'
_cell_volume   175.62473355
_cell_formula_units_Z   8
loop_
 _symmetry_equiv_pos_site_id
 _symmetry_equiv_pos_as_xyz
  1  'x, y, z'
loop_
 _atom_site_type_symbol
 _atom_site_label
 _atom_site_symmetry_multiplicity
 _atom_site_fract_x
 _atom_site_fract_y
 _atom_site_fract_z
 _atom_site_occupancy
  F  F0  1  0.49554851  0.67756620  0.32847127  1
  F  F1  1  -0.49554851  -0.67756620  0.32847127  1
  F  F2  1  0.00445149  1.17756620  0.17152873  1
  F  F3  1  0.99554851  -0.17756620  0.17152873  1
  F  F4  1  -0.49554851  -0.67756620  -0.32847127  1
  F  F5  1  0.49554851  0.67756620  -0.32847127  1
  F  F6  1  0.99554851  -0.17756620  0.82847127  1
  F  F7  1  0.00445149  1.17756620  0.82847127  1
  Li  Li8  1  0.68698210  0.74182899  0.87557027  1
  Li  Li9  1  0.31301790  0.25817101  0.87557027  1
  Li  Li10  1  0.81301790  0.24182899  0.62442973  1
  Li  Li11  1  0.18698210  0.75817101  0.62442973  1
  Li  Li12  1  0.31301790  0.25817101  0.12442973  1
  Li  Li13  1  0.68698210  0.74182899  0.12442973  1
  Li  Li14  1  0.18698210  0.75817101  0.37557027  1
  Li  Li15  1  0.81301790  0.24182899  0.37557027  1
