# generated using pymatgen
data_LiHfSeSCl
_symmetry_space_group_name_H-M   'P 1'
_cell_length_a   12.00537023
_cell_length_b   12.00537023
_cell_length_c   10.58248377
_cell_angle_alpha   90.00000000
_cell_angle_beta   90.00000000
_cell_angle_gamma   120.00000000
_symmetry_Int_Tables_number   1
_chemical_formula_structural   LiHfSeSCl
_chemical_formula_sum   'Li12 Hf12 Se12 S12 Cl12'
_cell_volume   1320.89822960
_cell_formula_units_Z   12
loop_
 _symmetry_equiv_pos_site_id
 _symmetry_equiv_pos_as_xyz
  1  'x, y, z'
loop_
 _atom_site_type_symbol
 _atom_site_label
 _atom_site_symmetry_multiplicity
 _atom_site_fract_x
 _atom_site_fract_y
 _atom_site_fract_z
 _atom_site_occupancy
  Cl  Cl0  1  0.81338623  0.62677247  0.83099333  1
  Cl  Cl1  1  0.37322753  0.18661377  0.83099333  1
  Cl  Cl2  1  0.81338623  0.18661377  0.83099333  1
  Cl  Cl3  1  0.18661377  0.37322753  0.33099333  1
  Cl  Cl4  1  0.62677247  0.81338623  0.33099333  1
  Cl  Cl5  1  0.18661377  0.81338623  0.33099333  1
  Cl  Cl6  1  0.62677247  0.81338623  0.16900667  1
  Cl  Cl7  1  0.18661377  0.37322753  0.16900667  1
  Cl  Cl8  1  0.18661377  0.81338623  0.16900667  1
  Cl  Cl9  1  0.37322753  0.18661377  0.66900667  1
  Cl  Cl10  1  0.81338623  0.62677247  0.66900667  1
  Cl  Cl11  1  0.81338623  0.18661377  0.66900667  1
  Hf  Hf12  1  0.18137805  0.00000000  0.00000000  1
  Hf  Hf13  1  0.00000000  0.18137805  0.00000000  1
  Hf  Hf14  1  0.81862195  0.81862195  0.00000000  1
  Hf  Hf15  1  0.81862195  -0.00000000  0.50000000  1
  Hf  Hf16  1  0.00000000  0.81862195  0.50000000  1
  Hf  Hf17  1  0.18137805  0.18137805  0.50000000  1
  Hf  Hf18  1  0.81862195  -0.00000000  0.00000000  1
  Hf  Hf19  1  0.00000000  0.81862195  0.00000000  1
  Hf  Hf20  1  0.18137805  0.18137805  0.00000000  1
  Hf  Hf21  1  0.18137805  0.00000000  0.50000000  1
  Hf  Hf22  1  0.00000000  0.18137805  0.50000000  1
  Hf  Hf23  1  0.81862195  0.81862195  0.50000000  1
  Li  Li24  1  0.51232904  0.02465808  0.25000000  1
  Li  Li25  1  0.97534192  0.48767096  0.25000000  1
  Li  Li26  1  0.51232904  0.48767096  0.25000000  1
  Li  Li27  1  0.48767096  0.97534192  0.75000000  1
  Li  Li28  1  0.02465808  0.51232904  0.75000000  1
  Li  Li29  1  0.48767096  0.51232904  0.75000000  1
  Li  Li30  1  0.33333333  0.66666667  0.25000000  1
  Li  Li31  1  0.66666667  0.33333333  0.75000000  1
  Li  Li32  1  0.00000000  0.00000000  0.87654701  1
  Li  Li33  1  0.00000000  0.00000000  0.37654701  1
  Li  Li34  1  0.00000000  0.00000000  0.12345299  1
  Li  Li35  1  0.00000000  0.00000000  0.62345299  1
  S  S36  1  0.65933457  0.93860178  0.25000000  1
  S  S37  1  -0.93860178  -0.27926721  0.25000000  1
  S  S38  1  0.27926721  -0.65933457  0.25000000  1
  S  S39  1  -0.65933457  -0.93860178  0.75000000  1
  S  S40  1  0.93860178  0.27926721  0.75000000  1
  S  S41  1  -0.27926721  0.65933457  0.75000000  1
  S  S42  1  0.93860178  0.65933457  0.75000000  1
  S  S43  1  -0.27926721  -0.93860178  0.75000000  1
  S  S44  1  -0.65933457  0.27926721  0.75000000  1
  S  S45  1  -0.93860178  -0.65933457  0.25000000  1
  S  S46  1  0.27926721  0.93860178  0.25000000  1
  S  S47  1  0.65933457  -0.27926721  0.25000000  1
  Se  Se48  1  0.33333333  0.66666667  0.75000000  1
  Se  Se49  1  0.66666667  0.33333333  0.25000000  1
  Se  Se50  1  0.50000000  0.00000000  0.00000000  1
  Se  Se51  1  0.00000000  0.50000000  0.00000000  1
  Se  Se52  1  0.50000000  0.50000000  0.00000000  1
  Se  Se53  1  0.50000000  0.00000000  0.50000000  1
  Se  Se54  1  0.00000000  0.50000000  0.50000000  1
  Se  Se55  1  0.50000000  0.50000000  0.50000000  1
  Se  Se56  1  0.00000000  0.00000000  0.25000000  1
  Se  Se57  1  0.00000000  0.00000000  0.75000000  1
  Se  Se58  1  0.00000000  0.00000000  0.00000000  1
  Se  Se59  1  0.00000000  0.00000000  0.50000000  1
