# generated using pymatgen
data_LiF
_symmetry_space_group_name_H-M   'P 1'
_cell_length_a   7.15205351
_cell_length_b   11.54595409
_cell_length_c   4.61246527
_cell_angle_alpha   90.00000000
_cell_angle_beta   90.00000000
_cell_angle_gamma   90.00000000
_symmetry_Int_Tables_number   1
_chemical_formula_structural   LiF
_chemical_formula_sum   'Li14 F14'
_cell_volume   380.88484301
_cell_formula_units_Z   14
loop_
 _symmetry_equiv_pos_site_id
 _symmetry_equiv_pos_as_xyz
  1  'x, y, z'
loop_
 _atom_site_type_symbol
 _atom_site_label
 _atom_site_symmetry_multiplicity
 _atom_site_fract_x
 _atom_site_fract_y
 _atom_site_fract_z
 _atom_site_occupancy
  F  F0  1  0.00000000  0.50000000  0.74401134  1
  F  F1  1  0.50000000  0.00000000  0.25598866  1
  F  F2  1  0.00000000  0.50000000  0.25598866  1
  F  F3  1  0.50000000  0.00000000  0.74401134  1
  F  F4  1  0.01834753  0.36399976  0.82808813  1
  F  F5  1  -0.01834753  -0.36399976  0.82808813  1
  F  F6  1  0.48165247  0.86399976  -0.82808813  1
  F  F7  1  0.51834753  0.13600024  -0.82808813  1
  F  F8  1  -0.01834753  -0.36399976  -0.82808813  1
  F  F9  1  0.01834753  0.36399976  -0.82808813  1
  F  F10  1  0.51834753  0.13600024  0.82808813  1
  F  F11  1  0.48165247  0.86399976  0.82808813  1
  F  F12  1  0.00000000  0.00000000  0.00000000  1
  F  F13  1  0.50000000  0.50000000  0.00000000  1
  Li  Li14  1  0.70876351  0.62028699  0.00000000  1
  Li  Li15  1  0.29123649  0.37971301  0.00000000  1
  Li  Li16  1  0.79123649  0.12028699  -0.00000000  1
  Li  Li17  1  0.20876351  0.87971301  -0.00000000  1
  Li  Li18  1  0.01123324  0.06108326  0.50000000  1
  Li  Li19  1  0.98876676  0.93891674  0.50000000  1
  Li  Li20  1  0.48876676  0.56108326  0.50000000  1
  Li  Li21  1  0.51123324  0.43891674  0.50000000  1
  Li  Li22  1  0.41846923  0.79564521  -0.00000000  1
  Li  Li23  1  0.58153077  0.20435479  -0.00000000  1
  Li  Li24  1  0.08153077  0.29564521  0.00000000  1
  Li  Li25  1  0.91846923  0.70435479  -0.00000000  1
  Li  Li26  1  0.00000000  0.50000000  0.00000000  1
  Li  Li27  1  0.50000000  0.00000000  0.00000000  1
