# generated using pymatgen
data_Li2Y2As4P3
_symmetry_space_group_name_H-M   'P 1'
_cell_length_a   4.08404220
_cell_length_b   4.28785395
_cell_length_c   6.73881113
_cell_angle_alpha   96.35142136
_cell_angle_beta   103.83207528
_cell_angle_gamma   115.51113527
_symmetry_Int_Tables_number   1
_chemical_formula_structural   Li2Y2As4P3
_chemical_formula_sum   'Li2 Y2 As4 P3'
_cell_volume   100.29556134
_cell_formula_units_Z   1
loop_
 _symmetry_equiv_pos_site_id
 _symmetry_equiv_pos_as_xyz
  1  'x, y, z'
loop_
 _atom_site_type_symbol
 _atom_site_label
 _atom_site_symmetry_multiplicity
 _atom_site_fract_x
 _atom_site_fract_y
 _atom_site_fract_z
 _atom_site_occupancy
  P  P0  1  0.00000000  0.00000000  0.00000000  1
  P  P1  1  0.50000000  0.50000000  0.50000000  1
  P  P2  1  0.50000000  0.50000000  0.00000000  1
  As  As3  1  0.50000000  0.00000000  0.50000000  1
  As  As4  1  0.00000000  0.50000000  0.50000000  1
  As  As5  1  0.70294911  0.79891905  0.46714586  1
  As  As6  1  0.26064915  0.96657648  0.99586239  1
  Li  Li7  1  0.91037055  0.95975488  0.34476520  1
  Li  Li8  1  0.27834558  0.72734959  0.33235662  1
  Y  Y9  1  0.98286192  0.97471613  0.39420924  1
  Y  Y10  1  0.61325634  0.87706041  0.35296850  1
