# generated using pymatgen
data_LiF
_symmetry_space_group_name_H-M   'P 1'
_cell_length_a   6.45660204
_cell_length_b   7.88904618
_cell_length_c   10.07763439
_cell_angle_alpha   90.00000000
_cell_angle_beta   90.00000000
_cell_angle_gamma   90.00000000
_symmetry_Int_Tables_number   1
_chemical_formula_structural   LiF
_chemical_formula_sum   'Li24 F24'
_cell_volume   513.31873581
_cell_formula_units_Z   24
loop_
 _symmetry_equiv_pos_site_id
 _symmetry_equiv_pos_as_xyz
  1  'x, y, z'
loop_
 _atom_site_type_symbol
 _atom_site_label
 _atom_site_symmetry_multiplicity
 _atom_site_fract_x
 _atom_site_fract_y
 _atom_site_fract_z
 _atom_site_occupancy
  F  F0  1  0.44718627  0.59560445  0.44967686  1
  F  F1  1  0.05281373  0.40439555  0.94967686  1
  F  F2  1  0.55281373  0.09560445  0.55032314  1
  F  F3  1  0.94718627  0.90439555  0.05032314  1
  F  F4  1  0.55281373  0.40439555  0.55032314  1
  F  F5  1  0.94718627  0.59560445  0.05032314  1
  F  F6  1  0.44718627  0.90439555  0.44967686  1
  F  F7  1  0.05281373  0.09560445  0.94967686  1
  F  F8  1  0.28899058  0.46914018  0.61534654  1
  F  F9  1  0.21100942  0.53085982  0.11534654  1
  F  F10  1  0.71100942  0.96914018  0.38465346  1
  F  F11  1  0.78899058  0.03085982  0.88465346  1
  F  F12  1  0.71100942  0.53085982  0.38465346  1
  F  F13  1  0.78899058  0.46914018  0.88465346  1
  F  F14  1  0.28899058  0.03085982  0.61534654  1
  F  F15  1  0.21100942  0.96914018  0.11534654  1
  F  F16  1  0.44220083  0.25000000  0.13560253  1
  F  F17  1  0.05779917  0.75000000  0.63560253  1
  F  F18  1  0.55779917  0.75000000  0.86439747  1
  F  F19  1  0.94220083  0.25000000  0.36439747  1
  F  F20  1  0.37447354  0.25000000  0.27754129  1
  F  F21  1  0.12552646  0.75000000  0.77754129  1
  F  F22  1  0.62552646  0.75000000  0.72245871  1
  F  F23  1  0.87447354  0.25000000  0.22245871  1
  Li  Li24  1  0.77067029  0.00654766  0.47911715  1
  Li  Li25  1  -0.27067029  -0.00654766  0.97911715  1
  Li  Li26  1  -0.77067029  0.50654766  -0.47911715  1
  Li  Li27  1  1.27067029  0.49345234  0.02088285  1
  Li  Li28  1  -0.77067029  -0.00654766  -0.47911715  1
  Li  Li29  1  1.27067029  0.00654766  0.02088285  1
  Li  Li30  1  0.77067029  0.49345234  0.47911715  1
  Li  Li31  1  -0.27067029  0.50654766  0.97911715  1
  Li  Li32  1  0.00000000  0.00000000  0.50000000  1
  Li  Li33  1  0.50000000  0.00000000  0.00000000  1
  Li  Li34  1  0.00000000  0.50000000  0.50000000  1
  Li  Li35  1  0.50000000  0.50000000  0.00000000  1
  Li  Li36  1  0.60043162  0.04631473  0.28574583  1
  Li  Li37  1  0.89956838  0.95368527  0.78574583  1
  Li  Li38  1  0.39956838  0.54631473  0.71425417  1
  Li  Li39  1  0.10043162  0.45368527  0.21425417  1
  Li  Li40  1  0.39956838  0.95368527  0.71425417  1
  Li  Li41  1  0.10043162  0.04631473  0.21425417  1
  Li  Li42  1  0.60043162  0.45368527  0.28574583  1
  Li  Li43  1  0.89956838  0.54631473  0.78574583  1
  Li  Li44  1  0.26620522  0.25000000  0.13657181  1
  Li  Li45  1  0.23379478  0.75000000  0.63657181  1
  Li  Li46  1  0.73379478  0.75000000  0.86342819  1
  Li  Li47  1  0.76620522  0.25000000  0.36342819  1
