# generated using pymatgen
data_LiF
_symmetry_space_group_name_H-M   'P 1'
_cell_length_a   11.44614544
_cell_length_b   4.96321387
_cell_length_c   12.75929751
_cell_angle_alpha   90.00000000
_cell_angle_beta   90.00000000
_cell_angle_gamma   90.00000000
_symmetry_Int_Tables_number   1
_chemical_formula_structural   LiF
_chemical_formula_sum   'Li24 F24'
_cell_volume   724.85145223
_cell_formula_units_Z   24
loop_
 _symmetry_equiv_pos_site_id
 _symmetry_equiv_pos_as_xyz
  1  'x, y, z'
loop_
 _atom_site_type_symbol
 _atom_site_label
 _atom_site_symmetry_multiplicity
 _atom_site_fract_x
 _atom_site_fract_y
 _atom_site_fract_z
 _atom_site_occupancy
  F  F0  1  0.64886467  0.41196229  0.84668939  1
  F  F1  1  0.35113533  0.58803771  0.84668939  1
  F  F2  1  0.85113533  0.91196229  0.15331061  1
  F  F3  1  0.14886467  0.08803771  0.15331061  1
  F  F4  1  0.35113533  0.58803771  0.15331061  1
  F  F5  1  0.64886467  0.41196229  0.15331061  1
  F  F6  1  0.14886467  0.08803771  0.84668939  1
  F  F7  1  0.85113533  0.91196229  0.84668939  1
  F  F8  1  0.00000000  0.00000000  0.81422455  1
  F  F9  1  0.50000000  0.50000000  0.18577545  1
  F  F10  1  0.00000000  0.00000000  0.18577545  1
  F  F11  1  0.50000000  0.50000000  0.81422455  1
  F  F12  1  0.87900797  0.39118749  0.00000000  1
  F  F13  1  0.12099203  0.60881251  -0.00000000  1
  F  F14  1  0.62099203  0.89118749  0.00000000  1
  F  F15  1  0.37900797  0.10881251  -0.00000000  1
  F  F16  1  0.00000000  0.50000000  0.18715258  1
  F  F17  1  0.50000000  0.00000000  0.81284742  1
  F  F18  1  0.00000000  0.50000000  0.81284742  1
  F  F19  1  0.50000000  0.00000000  0.18715258  1
  F  F20  1  0.64773589  0.62207301  0.50000000  1
  F  F21  1  0.35226411  0.37792699  0.50000000  1
  F  F22  1  0.85226411  0.12207301  0.50000000  1
  F  F23  1  0.14773589  0.87792699  0.50000000  1
  Li  Li24  1  0.33666858  0.90069652  0.68934884  1
  Li  Li25  1  -0.33666858  -0.90069652  0.68934884  1
  Li  Li26  1  0.16333142  1.40069652  -0.68934884  1
  Li  Li27  1  0.83666858  -0.40069652  -0.68934884  1
  Li  Li28  1  -0.33666858  -0.90069652  -0.68934884  1
  Li  Li29  1  0.33666858  0.90069652  -0.68934884  1
  Li  Li30  1  0.83666858  -0.40069652  0.68934884  1
  Li  Li31  1  0.16333142  1.40069652  0.68934884  1
  Li  Li32  1  0.00000000  0.00000000  0.50000000  1
  Li  Li33  1  0.50000000  0.50000000  0.50000000  1
  Li  Li34  1  0.22504196  0.02458078  0.00000000  1
  Li  Li35  1  0.77495804  0.97541922  0.00000000  1
  Li  Li36  1  0.27495804  0.52458078  0.00000000  1
  Li  Li37  1  0.72504196  0.47541922  0.00000000  1
  Li  Li38  1  0.00000000  0.50000000  0.50000000  1
  Li  Li39  1  0.50000000  0.00000000  0.50000000  1
  Li  Li40  1  0.85344833  0.41105924  0.89374088  1
  Li  Li41  1  0.14655167  0.58894076  0.89374088  1
  Li  Li42  1  0.64655167  0.91105924  0.10625912  1
  Li  Li43  1  0.35344833  0.08894076  0.10625912  1
  Li  Li44  1  0.14655167  0.58894076  0.10625912  1
  Li  Li45  1  0.85344833  0.41105924  0.10625912  1
  Li  Li46  1  0.35344833  0.08894076  0.89374088  1
  Li  Li47  1  0.64655167  0.91105924  0.89374088  1
