# generated using pymatgen
data_LiY2MoPSe
_symmetry_space_group_name_H-M   'P 1'
_cell_length_a   5.59804127
_cell_length_b   5.61900066
_cell_length_c   6.70886079
_cell_angle_alpha   93.17757839
_cell_angle_beta   94.82657965
_cell_angle_gamma   99.47986748
_symmetry_Int_Tables_number   1
_chemical_formula_structural   LiY2MoPSe
_chemical_formula_sum   'Li1 Y2 Mo1 P1 Se1'
_cell_volume   206.89380158
_cell_formula_units_Z   1
loop_
 _symmetry_equiv_pos_site_id
 _symmetry_equiv_pos_as_xyz
  1  'x, y, z'
loop_
 _atom_site_type_symbol
 _atom_site_label
 _atom_site_symmetry_multiplicity
 _atom_site_fract_x
 _atom_site_fract_y
 _atom_site_fract_z
 _atom_site_occupancy
  Se  Se0  1  0.12500000  0.00000000  0.25000000  1
  Y  Y1  1  0.00000000  0.00000000  0.00000000  1
  Y  Y2  1  0.37500000  0.00000000  0.25000000  1
  P  P3  1  0.25000000  0.25000000  0.25000000  1
  Mo  Mo4  1  0.00000000  0.25000000  0.12500000  1
  Li  Li5  1  0.10072068  0.83247811  0.64483131  1
