# generated using pymatgen
data_LiCaSeF
_symmetry_space_group_name_H-M   'P 1'
_cell_length_a   5.37733730
_cell_length_b   5.37733730
_cell_length_c   11.91396258
_cell_angle_alpha   90.00000000
_cell_angle_beta   90.00000000
_cell_angle_gamma   120.00000000
_symmetry_Int_Tables_number   1
_chemical_formula_structural   LiCaSeF
_chemical_formula_sum   'Li4 Ca4 Se4 F4'
_cell_volume   298.34682554
_cell_formula_units_Z   4
loop_
 _symmetry_equiv_pos_site_id
 _symmetry_equiv_pos_as_xyz
  1  'x, y, z'
loop_
 _atom_site_type_symbol
 _atom_site_label
 _atom_site_symmetry_multiplicity
 _atom_site_fract_x
 _atom_site_fract_y
 _atom_site_fract_z
 _atom_site_occupancy
  Ca  Ca0  1  0.33333333  0.66666667  0.55680624  1
  Ca  Ca1  1  0.66666667  0.33333333  0.05680624  1
  Ca  Ca2  1  0.66666667  0.33333333  0.44319376  1
  Ca  Ca3  1  0.33333333  0.66666667  0.94319376  1
  F  F4  1  0.33333333  0.66666667  0.80419778  1
  F  F5  1  0.66666667  0.33333333  0.30419778  1
  F  F6  1  0.66666667  0.33333333  0.19580222  1
  F  F7  1  0.33333333  0.66666667  0.69580222  1
  Li  Li8  1  0.33333333  0.66666667  0.25000000  1
  Li  Li9  1  0.66666667  0.33333333  0.75000000  1
  Li  Li10  1  0.00000000  0.00000000  0.00000000  1
  Li  Li11  1  0.00000000  0.00000000  0.50000000  1
  Se  Se12  1  0.00000000  0.00000000  0.34682994  1
  Se  Se13  1  0.00000000  0.00000000  0.84682994  1
  Se  Se14  1  0.00000000  0.00000000  -0.34682994  1
  Se  Se15  1  0.00000000  0.00000000  0.15317006  1
