# generated using pymatgen
data_Li3TiAsN5
_symmetry_space_group_name_H-M   'P 1'
_cell_length_a   3.38658908
_cell_length_b   3.33599595
_cell_length_c   5.81466761
_cell_angle_alpha   101.59298646
_cell_angle_beta   94.75346467
_cell_angle_gamma   109.04057932
_symmetry_Int_Tables_number   1
_chemical_formula_structural   Li3TiAsN5
_chemical_formula_sum   'Li3 Ti1 As1 N5'
_cell_volume   60.04455641
_cell_formula_units_Z   1
loop_
 _symmetry_equiv_pos_site_id
 _symmetry_equiv_pos_as_xyz
  1  'x, y, z'
loop_
 _atom_site_type_symbol
 _atom_site_label
 _atom_site_symmetry_multiplicity
 _atom_site_fract_x
 _atom_site_fract_y
 _atom_site_fract_z
 _atom_site_occupancy
  N  N0  1  0.12500000  0.12500000  0.12500000  1
  N  N1  1  0.50000000  0.50000000  0.50000000  1
  N  N2  1  0.25000000  0.25000000  0.25000000  1
  N  N3  1  0.75000000  0.75000000  0.75000000  1
  N  N4  1  0.87349578  0.93772227  0.85932960  1
  Ti  Ti5  1  0.45604982  0.11049315  0.68694812  1
  Li  Li6  1  0.18858707  0.75907418  0.89038086  1
  Li  Li7  1  0.69494538  0.38656954  0.13397172  1
  Li  Li8  1  0.02224482  0.57264493  0.48460933  1
  As  As9  1  0.14078608  0.71285656  0.83535524  1
