# generated using pymatgen
data_LiF
_symmetry_space_group_name_H-M   'P 1'
_cell_length_a   7.16590074
_cell_length_b   10.58772895
_cell_length_c   8.12263481
_cell_angle_alpha   90.00000000
_cell_angle_beta   90.00000000
_cell_angle_gamma   90.00000000
_symmetry_Int_Tables_number   1
_chemical_formula_structural   LiF
_chemical_formula_sum   'Li24 F24'
_cell_volume   616.26929597
_cell_formula_units_Z   24
loop_
 _symmetry_equiv_pos_site_id
 _symmetry_equiv_pos_as_xyz
  1  'x, y, z'
loop_
 _atom_site_type_symbol
 _atom_site_label
 _atom_site_symmetry_multiplicity
 _atom_site_fract_x
 _atom_site_fract_y
 _atom_site_fract_z
 _atom_site_occupancy
  F  F0  1  0.00000000  0.00000000  0.00000000  1
  F  F1  1  0.50000000  0.00000000  0.50000000  1
  F  F2  1  0.00000000  0.50000000  0.00000000  1
  F  F3  1  0.50000000  0.50000000  0.50000000  1
  F  F4  1  0.58005304  0.62577055  0.81931027  1
  F  F5  1  0.91994696  0.37422945  0.31931027  1
  F  F6  1  0.41994696  0.12577055  0.18068973  1
  F  F7  1  0.08005304  0.87422945  0.68068973  1
  F  F8  1  0.41994696  0.37422945  0.18068973  1
  F  F9  1  0.08005304  0.62577055  0.68068973  1
  F  F10  1  0.58005304  0.87422945  0.81931027  1
  F  F11  1  0.91994696  0.12577055  0.31931027  1
  F  F12  1  0.06084548  0.62199025  0.31532276  1
  F  F13  1  0.43915452  0.37800975  0.81532276  1
  F  F14  1  0.93915452  0.12199025  0.68467724  1
  F  F15  1  0.56084548  0.87800975  0.18467724  1
  F  F16  1  0.93915452  0.37800975  0.68467724  1
  F  F17  1  0.56084548  0.62199025  0.18467724  1
  F  F18  1  0.06084548  0.87800975  0.31532276  1
  F  F19  1  0.43915452  0.12199025  0.81532276  1
  F  F20  1  0.68006782  0.25000000  0.33785363  1
  F  F21  1  0.81993218  0.75000000  0.83785363  1
  F  F22  1  0.31993218  0.75000000  0.66214637  1
  F  F23  1  0.18006782  0.25000000  0.16214637  1
  Li  Li24  1  0.84661161  0.25000000  0.32189985  1
  Li  Li25  1  0.65338839  0.75000000  0.82189985  1
  Li  Li26  1  0.15338839  0.75000000  0.67810015  1
  Li  Li27  1  0.34661161  0.25000000  0.17810015  1
  Li  Li28  1  0.00000000  0.00000000  0.50000000  1
  Li  Li29  1  0.50000000  0.00000000  -0.00000000  1
  Li  Li30  1  0.00000000  0.50000000  0.50000000  1
  Li  Li31  1  0.50000000  0.50000000  0.00000000  1
  Li  Li32  1  0.48051578  0.57113132  0.57870931  1
  Li  Li33  1  0.01948422  -0.57113132  1.07870931  1
  Li  Li34  1  -0.48051578  1.07113132  -0.57870931  1
  Li  Li35  1  0.98051578  -0.07113132  -0.07870931  1
  Li  Li36  1  -0.48051578  -0.57113132  -0.57870931  1
  Li  Li37  1  0.98051578  0.57113132  -0.07870931  1
  Li  Li38  1  0.48051578  -0.07113132  0.57870931  1
  Li  Li39  1  0.01948422  1.07113132  1.07870931  1
  Li  Li40  1  0.55740220  0.25000000  0.49790657  1
  Li  Li41  1  0.94259780  0.75000000  0.99790657  1
  Li  Li42  1  0.44259780  0.75000000  0.50209343  1
  Li  Li43  1  0.05740220  0.25000000  0.00209343  1
  Li  Li44  1  0.85704228  0.25000000  0.68335288  1
  Li  Li45  1  0.64295772  0.75000000  0.18335288  1
  Li  Li46  1  0.14295772  0.75000000  0.31664712  1
  Li  Li47  1  0.35704228  0.25000000  0.81664712  1
