# generated using pymatgen
data_LiF
_symmetry_space_group_name_H-M   'P 1'
_cell_length_a   8.58263761
_cell_length_b   6.60818667
_cell_length_c   7.05562965
_cell_angle_alpha   90.00000000
_cell_angle_beta   90.00000000
_cell_angle_gamma   90.00000000
_symmetry_Int_Tables_number   1
_chemical_formula_structural   LiF
_chemical_formula_sum   'Li20 F20'
_cell_volume   400.16477332
_cell_formula_units_Z   20
loop_
 _symmetry_equiv_pos_site_id
 _symmetry_equiv_pos_as_xyz
  1  'x, y, z'
loop_
 _atom_site_type_symbol
 _atom_site_label
 _atom_site_symmetry_multiplicity
 _atom_site_fract_x
 _atom_site_fract_y
 _atom_site_fract_z
 _atom_site_occupancy
  F  F0  1  0.00000000  0.00000000  0.00000000  1
  F  F1  1  0.50000000  0.50000000  0.50000000  1
  F  F2  1  0.02908129  0.91138795  0.62808052  1
  F  F3  1  -0.02908129  -0.91138795  0.62808052  1
  F  F4  1  0.47091871  1.41138795  -0.12808052  1
  F  F5  1  0.52908129  -0.41138795  -0.12808052  1
  F  F6  1  -0.02908129  -0.91138795  -0.62808052  1
  F  F7  1  0.02908129  0.91138795  -0.62808052  1
  F  F8  1  0.52908129  -0.41138795  1.12808052  1
  F  F9  1  0.47091871  1.41138795  1.12808052  1
  F  F10  1  0.29417640  0.52724002  0.69305951  1
  F  F11  1  0.70582360  0.47275998  0.69305951  1
  F  F12  1  0.20582360  0.02724002  0.80694049  1
  F  F13  1  0.79417640  0.97275998  0.80694049  1
  F  F14  1  0.70582360  0.47275998  0.30694049  1
  F  F15  1  0.29417640  0.52724002  0.30694049  1
  F  F16  1  0.79417640  0.97275998  0.19305951  1
  F  F17  1  0.20582360  0.02724002  0.19305951  1
  F  F18  1  0.00000000  0.00000000  0.50000000  1
  F  F19  1  0.50000000  0.50000000  -0.00000000  1
  Li  Li20  1  0.21453782  0.02995140  0.00000000  1
  Li  Li21  1  0.78546218  0.97004860  0.00000000  1
  Li  Li22  1  0.28546218  0.52995140  0.50000000  1
  Li  Li23  1  0.71453782  0.47004860  0.50000000  1
  Li  Li24  1  0.82579182  0.29963903  0.17074036  1
  Li  Li25  1  0.17420818  0.70036097  0.17074036  1
  Li  Li26  1  0.67420818  0.79963903  0.32925964  1
  Li  Li27  1  0.32579182  0.20036097  0.32925964  1
  Li  Li28  1  0.17420818  0.70036097  0.82925964  1
  Li  Li29  1  0.82579182  0.29963903  0.82925964  1
  Li  Li30  1  0.32579182  0.20036097  0.67074036  1
  Li  Li31  1  0.67420818  0.79963903  0.67074036  1
  Li  Li32  1  0.33896878  0.80045085  0.89225022  1
  Li  Li33  1  0.66103122  0.19954915  0.89225022  1
  Li  Li34  1  0.16103122  0.30045085  0.60774978  1
  Li  Li35  1  0.83896878  0.69954915  0.60774978  1
  Li  Li36  1  0.66103122  0.19954915  0.10774978  1
  Li  Li37  1  0.33896878  0.80045085  0.10774978  1
  Li  Li38  1  0.83896878  0.69954915  0.39225022  1
  Li  Li39  1  0.16103122  0.30045085  0.39225022  1
