# generated using pymatgen
data_LiF
_symmetry_space_group_name_H-M   'P 1'
_cell_length_a   3.44958635
_cell_length_b   11.71832285
_cell_length_c   10.50138529
_cell_angle_alpha   90.00000000
_cell_angle_beta   90.00000000
_cell_angle_gamma   90.00000000
_symmetry_Int_Tables_number   1
_chemical_formula_structural   LiF
_chemical_formula_sum   'Li24 F24'
_cell_volume   424.50134710
_cell_formula_units_Z   24
loop_
 _symmetry_equiv_pos_site_id
 _symmetry_equiv_pos_as_xyz
  1  'x, y, z'
loop_
 _atom_site_type_symbol
 _atom_site_label
 _atom_site_symmetry_multiplicity
 _atom_site_fract_x
 _atom_site_fract_y
 _atom_site_fract_z
 _atom_site_occupancy
  F  F0  1  0.46077725  0.54755473  0.82374705  1
  F  F1  1  0.53922275  0.45244527  0.82374705  1
  F  F2  1  0.03922275  0.04755473  0.67625295  1
  F  F3  1  0.96077725  0.95244527  0.67625295  1
  F  F4  1  0.53922275  0.45244527  0.17625295  1
  F  F5  1  0.46077725  0.54755473  0.17625295  1
  F  F6  1  0.96077725  0.95244527  0.32374705  1
  F  F7  1  0.03922275  0.04755473  0.32374705  1
  F  F8  1  0.37007999  0.90260402  0.96875713  1
  F  F9  1  0.62992001  0.09739598  0.96875713  1
  F  F10  1  0.12992001  0.40260402  0.53124287  1
  F  F11  1  0.87007999  0.59739598  0.53124287  1
  F  F12  1  0.62992001  0.09739598  0.03124287  1
  F  F13  1  0.37007999  0.90260402  0.03124287  1
  F  F14  1  0.87007999  0.59739598  0.46875713  1
  F  F15  1  0.12992001  0.40260402  0.46875713  1
  F  F16  1  0.00000000  0.50000000  0.59542052  1
  F  F17  1  0.50000000  0.00000000  0.90457948  1
  F  F18  1  0.00000000  0.50000000  0.40457948  1
  F  F19  1  0.50000000  0.00000000  0.09542052  1
  F  F20  1  0.00000000  0.00000000  0.00000000  1
  F  F21  1  0.50000000  0.50000000  0.50000000  1
  F  F22  1  0.00000000  0.50000000  -0.00000000  1
  F  F23  1  0.50000000  0.00000000  0.50000000  1
  Li  Li24  1  0.74986264  0.31237380  0.79590996  1
  Li  Li25  1  -0.74986264  -0.31237380  0.79590996  1
  Li  Li26  1  -0.24986264  0.81237380  -0.29590996  1
  Li  Li27  1  1.24986264  0.18762620  -0.29590996  1
  Li  Li28  1  -0.74986264  -0.31237380  -0.79590996  1
  Li  Li29  1  0.74986264  0.31237380  -0.79590996  1
  Li  Li30  1  1.24986264  0.18762620  1.29590996  1
  Li  Li31  1  -0.24986264  0.81237380  1.29590996  1
  Li  Li32  1  0.00000000  0.00000000  0.50000000  1
  Li  Li33  1  0.50000000  0.50000000  -0.00000000  1
  Li  Li34  1  0.99787073  0.11844344  0.12357051  1
  Li  Li35  1  0.00212927  0.88155656  0.12357051  1
  Li  Li36  1  0.50212927  0.61844344  0.37642949  1
  Li  Li37  1  0.49787073  0.38155656  0.37642949  1
  Li  Li38  1  0.00212927  0.88155656  0.87642949  1
  Li  Li39  1  0.99787073  0.11844344  0.87642949  1
  Li  Li40  1  0.49787073  0.38155656  0.62357051  1
  Li  Li41  1  0.50212927  0.61844344  0.62357051  1
  Li  Li42  1  0.00000000  0.50000000  0.76243165  1
  Li  Li43  1  0.50000000  0.00000000  0.73756835  1
  Li  Li44  1  0.00000000  0.50000000  0.23756835  1
  Li  Li45  1  0.50000000  0.00000000  0.26243165  1
  Li  Li46  1  0.00000000  0.50000000  0.50000000  1
  Li  Li47  1  0.50000000  0.00000000  0.00000000  1
