# generated using pymatgen
data_Li2Si4Te3F12
_symmetry_space_group_name_H-M   'P 1'
_cell_length_a   11.39047178
_cell_length_b   11.39047178
_cell_length_c   10.86513484
_cell_angle_alpha   90.00000000
_cell_angle_beta   90.00000000
_cell_angle_gamma   120.00000000
_symmetry_Int_Tables_number   1
_chemical_formula_structural   Li2Si4Te3F12
_chemical_formula_sum   'Li8 Si16 Te12 F48'
_cell_volume   1220.81308868
_cell_formula_units_Z   4
loop_
 _symmetry_equiv_pos_site_id
 _symmetry_equiv_pos_as_xyz
  1  'x, y, z'
loop_
 _atom_site_type_symbol
 _atom_site_label
 _atom_site_symmetry_multiplicity
 _atom_site_fract_x
 _atom_site_fract_y
 _atom_site_fract_z
 _atom_site_occupancy
  F  F0  1  0.16788662  0.78213170  0.28027318  1
  F  F1  1  0.21786830  0.38575493  0.28027318  1
  F  F2  1  0.61424507  0.83211338  0.28027318  1
  F  F3  1  0.83211338  0.21786830  0.78027318  1
  F  F4  1  0.78213170  0.61424507  0.78027318  1
  F  F5  1  0.38575493  0.16788662  0.78027318  1
  F  F6  1  0.83211338  0.21786830  0.71972682  1
  F  F7  1  0.78213170  0.61424507  0.71972682  1
  F  F8  1  0.38575493  0.16788662  0.71972682  1
  F  F9  1  0.16788662  0.78213170  0.21972682  1
  F  F10  1  0.21786830  0.38575493  0.21972682  1
  F  F11  1  0.61424507  0.83211338  0.21972682  1
  F  F12  1  0.00001177  0.45633283  0.79195543  1
  F  F13  1  0.54366717  0.54367894  0.79195543  1
  F  F14  1  0.45632106  0.99998823  0.79195543  1
  F  F15  1  0.99998823  0.54366717  0.29195543  1
  F  F16  1  0.45633283  0.45632106  0.29195543  1
  F  F17  1  0.54367894  0.00001177  0.29195543  1
  F  F18  1  0.99998823  0.54366717  0.20804457  1
  F  F19  1  0.45633283  0.45632106  0.20804457  1
  F  F20  1  0.54367894  0.00001177  0.20804457  1
  F  F21  1  0.00001177  0.45633283  0.70804457  1
  F  F22  1  0.54366717  0.54367894  0.70804457  1
  F  F23  1  0.45632106  0.99998823  0.70804457  1
  F  F24  1  0.00000000  0.00000000  0.00000000  1
  F  F25  1  0.00000000  0.00000000  0.50000000  1
  F  F26  1  0.00000000  0.00000000  0.25000000  1
  F  F27  1  0.00000000  0.00000000  0.75000000  1
  F  F28  1  0.33333333  0.66666667  0.25000000  1
  F  F29  1  0.66666667  0.33333333  0.75000000  1
  F  F30  1  0.38550721  0.77792846  0.44490270  1
  F  F31  1  0.22207154  0.60757875  0.44490270  1
  F  F32  1  0.39242125  0.61449279  0.44490270  1
  F  F33  1  0.61449279  0.22207154  0.94490270  1
  F  F34  1  0.77792846  0.39242125  0.94490270  1
  F  F35  1  0.60757875  0.38550721  0.94490270  1
  F  F36  1  0.61449279  0.22207154  0.55509730  1
  F  F37  1  0.77792846  0.39242125  0.55509730  1
  F  F38  1  0.60757875  0.38550721  0.55509730  1
  F  F39  1  0.38550721  0.77792846  0.05509730  1
  F  F40  1  0.22207154  0.60757875  0.05509730  1
  F  F41  1  0.39242125  0.61449279  0.05509730  1
  F  F42  1  0.50000000  0.00000000  0.00000000  1
  F  F43  1  0.00000000  0.50000000  0.00000000  1
  F  F44  1  0.50000000  0.50000000  0.00000000  1
  F  F45  1  0.50000000  0.00000000  0.50000000  1
  F  F46  1  0.00000000  0.50000000  0.50000000  1
  F  F47  1  0.50000000  0.50000000  0.50000000  1
  Li  Li48  1  0.85439172  0.26313882  0.25000000  1
  Li  Li49  1  0.73686118  0.59125290  0.25000000  1
  Li  Li50  1  0.40874710  0.14560828  0.25000000  1
  Li  Li51  1  0.14560828  0.73686118  0.75000000  1
  Li  Li52  1  0.26313882  0.40874710  0.75000000  1
  Li  Li53  1  0.59125290  0.85439172  0.75000000  1
  Li  Li54  1  0.66666667  0.33333333  0.25000000  1
  Li  Li55  1  0.33333333  0.66666667  0.75000000  1
  Si  Si56  1  0.74278320  0.32716803  0.16125635  1
  Si  Si57  1  0.67283197  0.41561517  0.16125635  1
  Si  Si58  1  0.58438483  0.25721680  0.16125635  1
  Si  Si59  1  0.25721680  0.67283197  0.66125635  1
  Si  Si60  1  0.32716803  0.58438483  0.66125635  1
  Si  Si61  1  0.41561517  0.74278320  0.66125635  1
  Si  Si62  1  0.25721680  0.67283197  0.83874365  1
  Si  Si63  1  0.32716803  0.58438483  0.83874365  1
  Si  Si64  1  0.41561517  0.74278320  0.83874365  1
  Si  Si65  1  0.74278320  0.32716803  0.33874365  1
  Si  Si66  1  0.67283197  0.41561517  0.33874365  1
  Si  Si67  1  0.58438483  0.25721680  0.33874365  1
  Si  Si68  1  0.33333333  0.66666667  0.44064134  1
  Si  Si69  1  0.66666667  0.33333333  0.94064134  1
  Si  Si70  1  0.66666667  0.33333333  0.55935866  1
  Si  Si71  1  0.33333333  0.66666667  0.05935866  1
  Te  Te72  1  0.25552681  0.87163104  0.10294238  1
  Te  Te73  1  -0.87163104  -0.61610423  0.10294238  1
  Te  Te74  1  0.61610423  -0.25552681  0.10294238  1
  Te  Te75  1  -0.25552681  -0.87163104  0.60294238  1
  Te  Te76  1  0.87163104  0.61610423  0.60294238  1
  Te  Te77  1  -0.61610423  0.25552681  0.60294238  1
  Te  Te78  1  -0.25552681  -0.87163104  -0.10294238  1
  Te  Te79  1  0.87163104  0.61610423  -0.10294238  1
  Te  Te80  1  -0.61610423  0.25552681  -0.10294238  1
  Te  Te81  1  0.25552681  0.87163104  0.39705762  1
  Te  Te82  1  -0.87163104  -0.61610423  0.39705762  1
  Te  Te83  1  0.61610423  -0.25552681  0.39705762  1
