# generated using pymatgen
data_LiCaF3
_symmetry_space_group_name_H-M   'P 1'
_cell_length_a   10.52450058
_cell_length_b   10.52450058
_cell_length_c   20.42622982
_cell_angle_alpha   90.00000000
_cell_angle_beta   90.00000000
_cell_angle_gamma   120.00000000
_symmetry_Int_Tables_number   1
_chemical_formula_structural   LiCaF3
_chemical_formula_sum   'Li18 Ca18 F54'
_cell_volume   1959.39429030
_cell_formula_units_Z   18
loop_
 _symmetry_equiv_pos_site_id
 _symmetry_equiv_pos_as_xyz
  1  'x, y, z'
loop_
 _atom_site_type_symbol
 _atom_site_label
 _atom_site_symmetry_multiplicity
 _atom_site_fract_x
 _atom_site_fract_y
 _atom_site_fract_z
 _atom_site_occupancy
  Ca  Ca0  1  0.70342319  0.75685230  0.18126855  1
  Ca  Ca1  1  -0.75685230  -0.05342911  0.18126855  1
  Ca  Ca2  1  0.05342911  -0.70342319  0.18126855  1
  Ca  Ca3  1  -0.75685230  -0.70342319  -0.18126855  1
  Ca  Ca4  1  0.05342911  0.75685230  -0.18126855  1
  Ca  Ca5  1  0.70342319  -0.05342911  -0.18126855  1
  Ca  Ca6  1  0.80514409  0.94915325  0.13325176  1
  Ca  Ca7  1  0.05084675  0.85599084  0.13325176  1
  Ca  Ca8  1  0.14400916  0.19485591  0.13325176  1
  Ca  Ca9  1  0.05084675  0.19485591  0.86674824  1
  Ca  Ca10  1  0.14400916  0.94915325  0.86674824  1
  Ca  Ca11  1  0.80514409  0.85599084  0.86674824  1
  Ca  Ca12  1  0.96629272  0.14622606  0.06399129  1
  Ca  Ca13  1  0.85377394  0.82006666  0.06399129  1
  Ca  Ca14  1  0.17993334  0.03370728  0.06399129  1
  Ca  Ca15  1  0.85377394  0.03370728  0.93600871  1
  Ca  Ca16  1  0.17993334  0.14622606  0.93600871  1
  Ca  Ca17  1  0.96629272  0.82006666  0.93600871  1
  F  F18  1  0.83906159  0.51167530  0.50408753  1
  F  F19  1  0.48832470  0.32738629  0.50408753  1
  F  F20  1  0.67261371  0.16093841  0.50408753  1
  F  F21  1  0.48832470  0.16093841  0.49591247  1
  F  F22  1  0.67261371  0.51167530  0.49591247  1
  F  F23  1  0.83906159  0.32738629  0.49591247  1
  F  F24  1  0.56541767  0.72226945  0.76380128  1
  F  F25  1  0.27773055  0.84314822  0.76380128  1
  F  F26  1  0.15685178  0.43458233  0.76380128  1
  F  F27  1  0.27773055  0.43458233  0.23619872  1
  F  F28  1  0.15685178  0.72226945  0.23619872  1
  F  F29  1  0.56541767  0.84314822  0.23619872  1
  F  F30  1  0.16419943  0.12127856  0.78812832  1
  F  F31  1  0.87872144  0.04292086  0.78812832  1
  F  F32  1  0.95707914  0.83580057  0.78812832  1
  F  F33  1  0.87872144  0.83580057  0.21187168  1
  F  F34  1  0.95707914  0.12127856  0.21187168  1
  F  F35  1  0.16419943  0.04292086  0.21187168  1
  F  F36  1  0.33333333  0.66666667  0.50000000  1
  F  F37  1  0.12659861  0.09353405  0.47649628  1
  F  F38  1  0.90646595  0.03306457  0.47649628  1
  F  F39  1  0.96693543  0.87340139  0.47649628  1
  F  F40  1  0.90646595  0.87340139  0.52350372  1
  F  F41  1  0.96693543  0.09353405  0.52350372  1
  F  F42  1  0.12659861  0.03306457  0.52350372  1
  F  F43  1  0.66666667  0.33333333  0.44458494  1
  F  F44  1  0.66666667  0.33333333  0.55541506  1
  F  F45  1  0.67862150  0.93055851  0.68039931  1
  F  F46  1  0.06944149  0.74806299  0.68039931  1
  F  F47  1  0.25193701  0.32137850  0.68039931  1
  F  F48  1  0.06944149  0.32137850  0.31960069  1
  F  F49  1  0.25193701  0.93055851  0.31960069  1
  F  F50  1  0.67862150  0.74806299  0.31960069  1
  F  F51  1  0.69734337  0.28086479  0.57103695  1
  F  F52  1  0.71913521  0.41647858  0.57103695  1
  F  F53  1  0.58352142  0.30265663  0.57103695  1
  F  F54  1  0.71913521  0.30265663  0.42896305  1
  F  F55  1  0.58352142  0.28086479  0.42896305  1
  F  F56  1  0.69734337  0.41647858  0.42896305  1
  F  F57  1  0.66666667  0.33333333  0.50000000  1
  F  F58  1  0.25146025  0.74853975  0.00000000  1
  F  F59  1  0.25146025  0.50292050  0.00000000  1
  F  F60  1  0.49707950  0.74853975  -0.00000000  1
  F  F61  1  0.16703883  0.35437856  0.33738499  1
  F  F62  1  0.64562144  0.81266027  0.33738499  1
  F  F63  1  0.18733973  0.83296117  0.33738499  1
  F  F64  1  0.64562144  0.83296117  0.66261501  1
  F  F65  1  0.18733973  0.35437856  0.66261501  1
  F  F66  1  0.16703883  0.81266027  0.66261501  1
  F  F67  1  0.00000000  0.00000000  0.50000000  1
  F  F68  1  0.36453268  0.63546732  -0.00000000  1
  F  F69  1  0.36453268  0.72906537  -0.00000000  1
  F  F70  1  0.27093463  0.63546732  0.00000000  1
  F  F71  1  0.66666667  0.33333333  -0.00000000  1
  Li  Li72  1  0.39067517  0.19739843  0.20369760  1
  Li  Li73  1  0.80260157  0.19327674  0.20369760  1
  Li  Li74  1  0.80672326  0.60932483  0.20369760  1
  Li  Li75  1  0.80260157  0.60932483  0.79630240  1
  Li  Li76  1  0.80672326  0.19739843  0.79630240  1
  Li  Li77  1  0.39067517  0.19327674  0.79630240  1
  Li  Li78  1  0.52003347  0.71714133  0.21117945  1
  Li  Li79  1  0.28285867  0.80289214  0.21117945  1
  Li  Li80  1  0.19710786  0.47996653  0.21117945  1
  Li  Li81  1  0.28285867  0.47996653  0.78882055  1
  Li  Li82  1  0.19710786  0.71714133  0.78882055  1
  Li  Li83  1  0.52003347  0.80289214  0.78882055  1
  Li  Li84  1  0.80763928  0.13291314  0.08530654  1
  Li  Li85  1  0.86708686  0.67472614  0.08530654  1
  Li  Li86  1  0.32527386  0.19236072  0.08530654  1
  Li  Li87  1  0.86708686  0.19236072  0.91469346  1
  Li  Li88  1  0.32527386  0.13291314  0.91469346  1
  Li  Li89  1  0.80763928  0.67472614  0.91469346  1
