# generated using pymatgen
data_LiF
_symmetry_space_group_name_H-M   'P 1'
_cell_length_a   16.17356460
_cell_length_b   16.17356460
_cell_length_c   17.20084262
_cell_angle_alpha   90.00000000
_cell_angle_beta   90.00000000
_cell_angle_gamma   120.00000000
_symmetry_Int_Tables_number   1
_chemical_formula_structural   LiF
_chemical_formula_sum   'Li108 F108'
_cell_volume   3896.65403615
_cell_formula_units_Z   108
loop_
 _symmetry_equiv_pos_site_id
 _symmetry_equiv_pos_as_xyz
  1  'x, y, z'
loop_
 _atom_site_type_symbol
 _atom_site_label
 _atom_site_symmetry_multiplicity
 _atom_site_fract_x
 _atom_site_fract_y
 _atom_site_fract_z
 _atom_site_occupancy
  F  F0  1  0.51948242  0.55328323  0.19867239  1
  F  F1  1  0.44671677  0.96619919  0.19867239  1
  F  F2  1  0.03380081  0.48051758  0.19867239  1
  F  F3  1  0.55328323  0.51948242  0.30132761  1
  F  F4  1  0.96619919  0.44671677  0.30132761  1
  F  F5  1  0.48051758  0.03380081  0.30132761  1
  F  F6  1  0.48051758  0.44671677  0.80132761  1
  F  F7  1  0.55328323  0.03380081  0.80132761  1
  F  F8  1  0.96619919  0.51948242  0.80132761  1
  F  F9  1  0.44671677  0.48051758  0.69867239  1
  F  F10  1  0.03380081  0.55328323  0.69867239  1
  F  F11  1  0.51948242  0.96619919  0.69867239  1
  F  F12  1  0.18614909  0.88661656  0.53200572  1
  F  F13  1  0.11338344  0.29953252  0.53200572  1
  F  F14  1  0.70046748  0.81385091  0.53200572  1
  F  F15  1  0.21994990  0.85281575  0.63466094  1
  F  F16  1  0.63286586  0.78005010  0.63466094  1
  F  F17  1  0.14718425  0.36713414  0.63466094  1
  F  F18  1  0.14718425  0.78005010  0.13466094  1
  F  F19  1  0.21994990  0.36713414  0.13466094  1
  F  F20  1  0.63286586  0.85281575  0.13466094  1
  F  F21  1  0.11338344  0.81385091  0.03200572  1
  F  F22  1  0.70046748  0.88661656  0.03200572  1
  F  F23  1  0.18614909  0.29953252  0.03200572  1
  F  F24  1  0.85281575  0.21994990  0.86533906  1
  F  F25  1  0.78005010  0.63286586  0.86533906  1
  F  F26  1  0.36713414  0.14718425  0.86533906  1
  F  F27  1  0.88661656  0.18614909  0.96799428  1
  F  F28  1  0.29953252  0.11338344  0.96799428  1
  F  F29  1  0.81385091  0.70046748  0.96799428  1
  F  F30  1  0.81385091  0.11338344  0.46799428  1
  F  F31  1  0.88661656  0.70046748  0.46799428  1
  F  F32  1  0.29953252  0.18614909  0.46799428  1
  F  F33  1  0.78005010  0.14718425  0.36533906  1
  F  F34  1  0.36713414  0.21994990  0.36533906  1
  F  F35  1  0.85281575  0.63286586  0.36533906  1
  F  F36  1  0.58626260  0.88614936  0.83576117  1
  F  F37  1  0.11385064  0.70011324  0.83576117  1
  F  F38  1  0.29988676  0.41373740  0.83576117  1
  F  F39  1  0.88614936  0.58626260  0.66423883  1
  F  F40  1  0.70011324  0.11385064  0.66423883  1
  F  F41  1  0.41373740  0.29988676  0.66423883  1
  F  F42  1  0.41373740  0.11385064  0.16423883  1
  F  F43  1  0.88614936  0.29988676  0.16423883  1
  F  F44  1  0.70011324  0.58626260  0.16423883  1
  F  F45  1  0.11385064  0.41373740  0.33576117  1
  F  F46  1  0.29988676  0.88614936  0.33576117  1
  F  F47  1  0.58626260  0.70011324  0.33576117  1
  F  F48  1  0.25292927  0.21948269  0.16909450  1
  F  F49  1  0.78051731  0.03344657  0.16909450  1
  F  F50  1  0.96655343  0.74707073  0.16909450  1
  F  F51  1  0.55281603  0.91959593  0.99757217  1
  F  F52  1  0.36677991  0.44718397  0.99757217  1
  F  F53  1  0.08040407  0.63322009  0.99757217  1
  F  F54  1  0.08040407  0.44718397  0.49757217  1
  F  F55  1  0.55281603  0.63322009  0.49757217  1
  F  F56  1  0.36677991  0.91959593  0.49757217  1
  F  F57  1  0.78051731  0.74707073  0.66909450  1
  F  F58  1  0.96655343  0.21948269  0.66909450  1
  F  F59  1  0.25292927  0.03344657  0.66909450  1
  F  F60  1  0.91959593  0.55281603  0.50242783  1
  F  F61  1  0.44718397  0.36677991  0.50242783  1
  F  F62  1  0.63322009  0.08040407  0.50242783  1
  F  F63  1  0.21948269  0.25292927  0.33090550  1
  F  F64  1  0.03344657  0.78051731  0.33090550  1
  F  F65  1  0.74707073  0.96655343  0.33090550  1
  F  F66  1  0.74707073  0.78051731  0.83090550  1
  F  F67  1  0.21948269  0.96655343  0.83090550  1
  F  F68  1  0.03344657  0.25292927  0.83090550  1
  F  F69  1  0.44718397  0.08040407  0.00242783  1
  F  F70  1  0.63322009  0.55281603  0.00242783  1
  F  F71  1  0.91959593  0.36677991  0.00242783  1
  F  F72  1  0.48355411  0.67649421  0.57879786  1
  F  F73  1  0.32350579  0.80705991  0.57879786  1
  F  F74  1  0.19294009  0.51644589  0.57879786  1
  F  F75  1  0.67649421  0.48355411  0.92120214  1
  F  F76  1  0.80705991  0.32350579  0.92120214  1
  F  F77  1  0.51644589  0.19294009  0.92120214  1
  F  F78  1  0.51644589  0.32350579  0.42120214  1
  F  F79  1  0.67649421  0.19294009  0.42120214  1
  F  F80  1  0.80705991  0.48355411  0.42120214  1
  F  F81  1  0.32350579  0.51644589  0.07879786  1
  F  F82  1  0.19294009  0.67649421  0.07879786  1
  F  F83  1  0.48355411  0.80705991  0.07879786  1
  F  F84  1  0.15022078  0.00982754  0.91213120  1
  F  F85  1  0.99017246  0.14039324  0.91213120  1
  F  F86  1  0.85960676  0.84977922  0.91213120  1
  F  F87  1  0.34316087  0.81688744  0.25453547  1
  F  F88  1  0.47372657  0.65683913  0.25453547  1
  F  F89  1  0.18311256  0.52627343  0.25453547  1
  F  F90  1  0.18311256  0.65683913  0.75453547  1
  F  F91  1  0.34316087  0.52627343  0.75453547  1
  F  F92  1  0.47372657  0.81688744  0.75453547  1
  F  F93  1  0.99017246  0.84977922  0.41213120  1
  F  F94  1  0.85960676  0.00982754  0.41213120  1
  F  F95  1  0.15022078  0.14039324  0.41213120  1
  F  F96  1  0.81688744  0.34316087  0.24546453  1
  F  F97  1  0.65683913  0.47372657  0.24546453  1
  F  F98  1  0.52627343  0.18311256  0.24546453  1
  F  F99  1  0.00982754  0.15022078  0.58786880  1
  F  F100  1  0.14039324  0.99017246  0.58786880  1
  F  F101  1  0.84977922  0.85960676  0.58786880  1
  F  F102  1  0.84977922  0.99017246  0.08786880  1
  F  F103  1  0.00982754  0.85960676  0.08786880  1
  F  F104  1  0.14039324  0.15022078  0.08786880  1
  F  F105  1  0.65683913  0.18311256  0.74546453  1
  F  F106  1  0.52627343  0.34316087  0.74546453  1
  F  F107  1  0.81688744  0.47372657  0.74546453  1
  Li  Li108  1  0.90856957  0.46198450  0.66446237  1
  Li  Li109  1  -0.46198450  0.44658507  0.66446237  1
  Li  Li110  1  -0.44658507  -0.90856957  0.66446237  1
  Li  Li111  1  0.46198450  0.90856957  -0.16446237  1
  Li  Li112  1  0.44658507  -0.46198450  -0.16446237  1
  Li  Li113  1  -0.90856957  -0.44658507  -0.16446237  1
  Li  Li114  1  -0.90856957  -0.46198450  -0.66446237  1
  Li  Li115  1  0.46198450  -0.44658507  -0.66446237  1
  Li  Li116  1  0.44658507  0.90856957  -0.66446237  1
  Li  Li117  1  -0.46198450  -0.90856957  1.16446237  1
  Li  Li118  1  -0.44658507  0.46198450  1.16446237  1
  Li  Li119  1  0.90856957  0.44658507  1.16446237  1
  Li  Li120  1  1.57523624  0.79531783  0.99779570  1
  Li  Li121  1  0.20468217  0.77991841  0.99779570  1
  Li  Li122  1  0.22008159  -0.57523624  0.99779570  1
  Li  Li123  1  1.12865117  1.24190291  0.16887096  1
  Li  Li124  1  1.11325174  -0.12865117  0.16887096  1
  Li  Li125  1  -0.24190291  -0.11325174  0.16887096  1
  Li  Li126  1  -0.24190291  -0.12865117  -0.33112904  1
  Li  Li127  1  1.12865117  -0.11325174  -0.33112904  1
  Li  Li128  1  1.11325174  1.24190291  -0.33112904  1
  Li  Li129  1  0.20468217  -0.57523624  1.49779570  1
  Li  Li130  1  0.22008159  0.79531783  1.49779570  1
  Li  Li131  1  1.57523624  0.77991841  1.49779570  1
  Li  Li132  1  1.24190291  1.12865117  1.33112904  1
  Li  Li133  1  -0.12865117  1.11325174  1.33112904  1
  Li  Li134  1  -0.11325174  -0.24190291  1.33112904  1
  Li  Li135  1  0.79531783  1.57523624  0.50220430  1
  Li  Li136  1  0.77991841  0.20468217  0.50220430  1
  Li  Li137  1  -0.57523624  0.22008159  0.50220430  1
  Li  Li138  1  -0.57523624  0.20468217  0.00220430  1
  Li  Li139  1  0.79531783  0.22008159  0.00220430  1
  Li  Li140  1  0.77991841  1.57523624  0.00220430  1
  Li  Li141  1  -0.12865117  -0.24190291  1.83112904  1
  Li  Li142  1  -0.11325174  1.12865117  1.83112904  1
  Li  Li143  1  1.24190291  1.11325174  1.83112904  1
  Li  Li144  1  0.39684783  0.00000000  0.25000000  1
  Li  Li145  1  0.00000000  0.39684783  0.25000000  1
  Li  Li146  1  0.60315217  0.60315217  0.25000000  1
  Li  Li147  1  0.60315217  0.00000000  0.75000000  1
  Li  Li148  1  0.00000000  0.60315217  0.75000000  1
  Li  Li149  1  0.39684783  0.39684783  0.75000000  1
  Li  Li150  1  0.06351450  0.33333333  0.58333333  1
  Li  Li151  1  0.66666667  0.73018117  0.58333333  1
  Li  Li152  1  0.26981883  0.93648550  0.58333333  1
  Li  Li153  1  0.26981883  0.33333333  0.08333333  1
  Li  Li154  1  0.66666667  0.93648550  0.08333333  1
  Li  Li155  1  0.06351450  0.73018117  0.08333333  1
  Li  Li156  1  0.73018117  0.66666667  0.91666667  1
  Li  Li157  1  0.33333333  0.06351450  0.91666667  1
  Li  Li158  1  0.93648550  0.26981883  0.91666667  1
  Li  Li159  1  0.93648550  0.66666667  0.41666667  1
  Li  Li160  1  0.33333333  0.26981883  0.41666667  1
  Li  Li161  1  0.73018117  0.06351450  0.41666667  1
  Li  Li162  1  0.00000000  0.00000000  0.70498383  1
  Li  Li163  1  0.00000000  0.00000000  0.79501617  1
  Li  Li164  1  0.00000000  0.00000000  0.29501617  1
  Li  Li165  1  0.00000000  0.00000000  0.20498383  1
  Li  Li166  1  0.66666667  0.33333333  0.03831716  1
  Li  Li167  1  0.66666667  0.33333333  0.12834950  1
  Li  Li168  1  0.66666667  0.33333333  0.62834950  1
  Li  Li169  1  0.66666667  0.33333333  0.53831716  1
  Li  Li170  1  0.33333333  0.66666667  0.37165050  1
  Li  Li171  1  0.33333333  0.66666667  0.46168284  1
  Li  Li172  1  0.33333333  0.66666667  0.96168284  1
  Li  Li173  1  0.33333333  0.66666667  0.87165050  1
  Li  Li174  1  0.50000000  0.00000000  -0.00000000  1
  Li  Li175  1  0.00000000  0.50000000  0.00000000  1
  Li  Li176  1  0.50000000  0.50000000  0.00000000  1
  Li  Li177  1  0.00000000  0.50000000  0.50000000  1
  Li  Li178  1  0.50000000  0.00000000  0.50000000  1
  Li  Li179  1  0.50000000  0.50000000  0.50000000  1
  Li  Li180  1  0.16666667  0.33333333  0.33333333  1
  Li  Li181  1  0.66666667  0.83333333  0.33333333  1
  Li  Li182  1  0.16666667  0.83333333  0.33333333  1
  Li  Li183  1  0.66666667  0.83333333  0.83333333  1
  Li  Li184  1  0.16666667  0.33333333  0.83333333  1
  Li  Li185  1  0.16666667  0.83333333  0.83333333  1
  Li  Li186  1  0.83333333  0.66666667  0.66666667  1
  Li  Li187  1  0.33333333  0.16666667  0.66666667  1
  Li  Li188  1  0.83333333  0.16666667  0.66666667  1
  Li  Li189  1  0.33333333  0.16666667  0.16666667  1
  Li  Li190  1  0.83333333  0.66666667  0.16666667  1
  Li  Li191  1  0.83333333  0.16666667  0.16666667  1
  Li  Li192  1  0.00000000  0.00000000  0.00000000  1
  Li  Li193  1  0.00000000  0.00000000  0.50000000  1
  Li  Li194  1  0.66666667  0.33333333  0.33333333  1
  Li  Li195  1  0.66666667  0.33333333  0.83333333  1
  Li  Li196  1  0.33333333  0.66666667  0.66666667  1
  Li  Li197  1  0.33333333  0.66666667  0.16666667  1
  Li  Li198  1  0.06436152  0.00000000  0.25000000  1
  Li  Li199  1  0.00000000  0.06436152  0.25000000  1
  Li  Li200  1  0.93563848  0.93563848  0.25000000  1
  Li  Li201  1  0.93563848  0.00000000  0.75000000  1
  Li  Li202  1  0.00000000  0.93563848  0.75000000  1
  Li  Li203  1  0.06436152  0.06436152  0.75000000  1
  Li  Li204  1  0.73102819  0.33333333  0.58333333  1
  Li  Li205  1  0.66666667  0.39769485  0.58333333  1
  Li  Li206  1  0.60230515  0.26897181  0.58333333  1
  Li  Li207  1  0.60230515  0.33333333  0.08333333  1
  Li  Li208  1  0.66666667  0.26897181  0.08333333  1
  Li  Li209  1  0.73102819  0.39769485  0.08333333  1
  Li  Li210  1  0.39769485  0.66666667  0.91666667  1
  Li  Li211  1  0.33333333  0.73102819  0.91666667  1
  Li  Li212  1  0.26897181  0.60230515  0.91666667  1
  Li  Li213  1  0.26897181  0.66666667  0.41666667  1
  Li  Li214  1  0.33333333  0.60230515  0.41666667  1
  Li  Li215  1  0.39769485  0.73102819  0.41666667  1
