# generated using pymatgen
data_Li3Ti(SeF)2
_symmetry_space_group_name_H-M   'P 1'
_cell_length_a   5.30063011
_cell_length_b   4.81420248
_cell_length_c   7.17251897
_cell_angle_alpha   99.05341965
_cell_angle_beta   95.63577671
_cell_angle_gamma   94.40225207
_symmetry_Int_Tables_number   1
_chemical_formula_structural   Li3Ti(SeF)2
_chemical_formula_sum   'Li3 Ti1 Se2 F2'
_cell_volume   179.08311741
_cell_formula_units_Z   1
loop_
 _symmetry_equiv_pos_site_id
 _symmetry_equiv_pos_as_xyz
  1  'x, y, z'
loop_
 _atom_site_type_symbol
 _atom_site_label
 _atom_site_symmetry_multiplicity
 _atom_site_fract_x
 _atom_site_fract_y
 _atom_site_fract_z
 _atom_site_occupancy
  Se  Se0  1  0.00000000  0.00000000  0.00000000  1
  Se  Se1  1  0.50000000  0.50000000  0.50000000  1
  Ti  Ti2  1  0.50000000  0.50000000  0.00000000  1
  F  F3  1  0.50000000  0.00000000  0.50000000  1
  F  F4  1  0.00000000  0.50000000  0.50000000  1
  Li  Li5  1  0.12632517  0.66899265  0.78312223  1
  Li  Li6  1  0.98925407  0.91316999  0.92291239  1
  Li  Li7  1  0.61692235  0.53322457  0.56136753  1
