# generated using pymatgen
data_LiF
_symmetry_space_group_name_H-M   'P 1'
_cell_length_a   10.69259360
_cell_length_b   10.69259360
_cell_length_c   18.16773561
_cell_angle_alpha   90.00000000
_cell_angle_beta   90.00000000
_cell_angle_gamma   120.00000000
_symmetry_Int_Tables_number   1
_chemical_formula_structural   LiF
_chemical_formula_sum   'Li48 F48'
_cell_volume   1798.86078583
_cell_formula_units_Z   48
loop_
 _symmetry_equiv_pos_site_id
 _symmetry_equiv_pos_as_xyz
  1  'x, y, z'
loop_
 _atom_site_type_symbol
 _atom_site_label
 _atom_site_symmetry_multiplicity
 _atom_site_fract_x
 _atom_site_fract_y
 _atom_site_fract_z
 _atom_site_occupancy
  F  F0  1  0.77148730  0.21372348  0.61873387  1
  F  F1  1  0.78627652  0.55776382  0.61873387  1
  F  F2  1  0.44223618  0.22851270  0.61873387  1
  F  F3  1  0.22851270  0.78627652  0.11873387  1
  F  F4  1  0.21372348  0.44223618  0.11873387  1
  F  F5  1  0.55776382  0.77148730  0.11873387  1
  F  F6  1  0.22851270  0.78627652  0.38126613  1
  F  F7  1  0.21372348  0.44223618  0.38126613  1
  F  F8  1  0.55776382  0.77148730  0.38126613  1
  F  F9  1  0.77148730  0.21372348  0.88126613  1
  F  F10  1  0.78627652  0.55776382  0.88126613  1
  F  F11  1  0.44223618  0.22851270  0.88126613  1
  F  F12  1  0.84946570  0.82941368  0.85125184  1
  F  F13  1  0.17058632  0.02005202  0.85125184  1
  F  F14  1  0.97994798  0.15053430  0.85125184  1
  F  F15  1  0.15053430  0.17058632  0.35125184  1
  F  F16  1  0.82941368  0.97994798  0.35125184  1
  F  F17  1  0.02005202  0.84946570  0.35125184  1
  F  F18  1  0.15053430  0.17058632  0.14874816  1
  F  F19  1  0.82941368  0.97994798  0.14874816  1
  F  F20  1  0.02005202  0.84946570  0.14874816  1
  F  F21  1  0.84946570  0.82941368  0.64874816  1
  F  F22  1  0.17058632  0.02005202  0.64874816  1
  F  F23  1  0.97994798  0.15053430  0.64874816  1
  F  F24  1  0.37452167  0.03301006  0.13499233  1
  F  F25  1  0.96698994  0.34151161  0.13499233  1
  F  F26  1  0.65848839  0.62547833  0.13499233  1
  F  F27  1  0.62547833  0.96698994  0.63499233  1
  F  F28  1  0.03301006  0.65848839  0.63499233  1
  F  F29  1  0.34151161  0.37452167  0.63499233  1
  F  F30  1  0.62547833  0.96698994  0.86500767  1
  F  F31  1  0.03301006  0.65848839  0.86500767  1
  F  F32  1  0.34151161  0.37452167  0.86500767  1
  F  F33  1  0.37452167  0.03301006  0.36500767  1
  F  F34  1  0.96698994  0.34151161  0.36500767  1
  F  F35  1  0.65848839  0.62547833  0.36500767  1
  F  F36  1  0.81804493  0.82098580  0.44585265  1
  F  F37  1  0.17901420  0.99705913  0.44585265  1
  F  F38  1  0.00294087  0.18195507  0.44585265  1
  F  F39  1  0.18195507  0.17901420  0.94585265  1
  F  F40  1  0.82098580  0.00294087  0.94585265  1
  F  F41  1  0.99705913  0.81804493  0.94585265  1
  F  F42  1  0.18195507  0.17901420  0.55414735  1
  F  F43  1  0.82098580  0.00294087  0.55414735  1
  F  F44  1  0.99705913  0.81804493  0.55414735  1
  F  F45  1  0.81804493  0.82098580  0.05414735  1
  F  F46  1  0.17901420  0.99705913  0.05414735  1
  F  F47  1  0.00294087  0.18195507  0.05414735  1
  Li  Li48  1  0.33333333  0.66666667  0.25000000  1
  Li  Li49  1  0.66666667  0.33333333  0.75000000  1
  Li  Li50  1  0.52250814  0.04665088  0.05285771  1
  Li  Li51  1  -0.04665088  0.47585725  0.05285771  1
  Li  Li52  1  -0.47585725  -0.52250814  0.05285771  1
  Li  Li53  1  -0.52250814  -0.04665088  0.55285771  1
  Li  Li54  1  0.04665088  -0.47585725  0.55285771  1
  Li  Li55  1  0.47585725  0.52250814  0.55285771  1
  Li  Li56  1  -0.52250814  -0.04665088  -0.05285771  1
  Li  Li57  1  0.04665088  -0.47585725  -0.05285771  1
  Li  Li58  1  0.47585725  0.52250814  -0.05285771  1
  Li  Li59  1  0.52250814  0.04665088  0.44714229  1
  Li  Li60  1  -0.04665088  0.47585725  0.44714229  1
  Li  Li61  1  -0.47585725  -0.52250814  0.44714229  1
  Li  Li62  1  0.29529472  0.14499357  0.80407923  1
  Li  Li63  1  0.85500643  0.15030115  0.80407923  1
  Li  Li64  1  0.84969885  0.70470528  0.80407923  1
  Li  Li65  1  0.70470528  0.85500643  0.30407923  1
  Li  Li66  1  0.14499357  0.84969885  0.30407923  1
  Li  Li67  1  0.15030115  0.29529472  0.30407923  1
  Li  Li68  1  0.70470528  0.85500643  0.19592077  1
  Li  Li69  1  0.14499357  0.84969885  0.19592077  1
  Li  Li70  1  0.15030115  0.29529472  0.19592077  1
  Li  Li71  1  0.29529472  0.14499357  0.69592077  1
  Li  Li72  1  0.85500643  0.15030115  0.69592077  1
  Li  Li73  1  0.84969885  0.70470528  0.69592077  1
  Li  Li74  1  0.66666667  0.33333333  0.25000000  1
  Li  Li75  1  0.33333333  0.66666667  0.75000000  1
  Li  Li76  1  0.00000000  0.00000000  0.00000000  1
  Li  Li77  1  0.00000000  0.00000000  0.50000000  1
  Li  Li78  1  0.49717405  0.80951298  0.47492060  1
  Li  Li79  1  0.19048702  0.68766107  0.47492060  1
  Li  Li80  1  0.31233893  0.50282595  0.47492060  1
  Li  Li81  1  0.50282595  0.19048702  0.97492060  1
  Li  Li82  1  0.80951298  0.31233893  0.97492060  1
  Li  Li83  1  0.68766107  0.49717405  0.97492060  1
  Li  Li84  1  0.50282595  0.19048702  0.52507940  1
  Li  Li85  1  0.80951298  0.31233893  0.52507940  1
  Li  Li86  1  0.68766107  0.49717405  0.52507940  1
  Li  Li87  1  0.49717405  0.80951298  0.02507940  1
  Li  Li88  1  0.19048702  0.68766107  0.02507940  1
  Li  Li89  1  0.31233893  0.50282595  0.02507940  1
  Li  Li90  1  0.06073948  0.36950290  0.25000000  1
  Li  Li91  1  0.63049710  0.69123658  0.25000000  1
  Li  Li92  1  0.30876342  0.93926052  0.25000000  1
  Li  Li93  1  0.93926052  0.63049710  0.75000000  1
  Li  Li94  1  0.36950290  0.30876342  0.75000000  1
  Li  Li95  1  0.69123658  0.06073948  0.75000000  1
