# generated using pymatgen
data_Li2TiOF
_symmetry_space_group_name_H-M   'P 1'
_cell_length_a   4.08465451
_cell_length_b   3.30519745
_cell_length_c   3.87112330
_cell_angle_alpha   86.57241052
_cell_angle_beta   90.60081029
_cell_angle_gamma   91.62416554
_symmetry_Int_Tables_number   1
_chemical_formula_structural   Li2TiOF
_chemical_formula_sum   'Li2 Ti1 O1 F1'
_cell_volume   52.14597460
_cell_formula_units_Z   1
loop_
 _symmetry_equiv_pos_site_id
 _symmetry_equiv_pos_as_xyz
  1  'x, y, z'
loop_
 _atom_site_type_symbol
 _atom_site_label
 _atom_site_symmetry_multiplicity
 _atom_site_fract_x
 _atom_site_fract_y
 _atom_site_fract_z
 _atom_site_occupancy
  F  F0  1  0.12500000  0.00000000  0.25000000  1
  O  O1  1  0.00000000  0.00000000  0.00000000  1
  Ti  Ti2  1  0.37500000  0.00000000  0.25000000  1
  Li  Li3  1  0.25000000  0.25000000  0.25000000  1
  Li  Li4  1  0.00000000  0.25000000  0.12500000  1
