# generated using pymatgen
data_Li4TeF2
_symmetry_space_group_name_H-M   'P 1'
_cell_length_a   20.66824034
_cell_length_b   20.66824034
_cell_length_c   10.01917007
_cell_angle_alpha   90.00000000
_cell_angle_beta   90.00000000
_cell_angle_gamma   120.00000000
_symmetry_Int_Tables_number   1
_chemical_formula_structural   Li4TeF2
_chemical_formula_sum   'Li96 Te24 F48'
_cell_volume   3706.54593151
_cell_formula_units_Z   24
loop_
 _symmetry_equiv_pos_site_id
 _symmetry_equiv_pos_as_xyz
  1  'x, y, z'
loop_
 _atom_site_type_symbol
 _atom_site_label
 _atom_site_symmetry_multiplicity
 _atom_site_fract_x
 _atom_site_fract_y
 _atom_site_fract_z
 _atom_site_occupancy
  F  F0  1  0.85899494  0.58280801  0.62626788  1
  F  F1  1  -0.58280801  0.27618693  0.62626788  1
  F  F2  1  -0.27618693  -0.85899494  0.62626788  1
  F  F3  1  0.85899494  0.58280801  -0.62626788  1
  F  F4  1  -0.58280801  0.27618693  -0.62626788  1
  F  F5  1  -0.27618693  -0.85899494  -0.62626788  1
  F  F6  1  0.58280801  0.85899494  -0.62626788  1
  F  F7  1  0.27618693  -0.58280801  -0.62626788  1
  F  F8  1  -0.85899494  -0.27618693  -0.62626788  1
  F  F9  1  0.58280801  0.85899494  0.62626788  1
  F  F10  1  0.27618693  -0.58280801  0.62626788  1
  F  F11  1  -0.85899494  -0.27618693  0.62626788  1
  F  F12  1  0.00000000  0.00000000  0.50000000  1
  F  F13  1  0.92330644  0.11164294  0.72765777  1
  F  F14  1  0.88835706  0.81166350  0.72765777  1
  F  F15  1  0.18833650  0.07669356  0.72765777  1
  F  F16  1  0.92330644  0.11164294  0.27234223  1
  F  F17  1  0.88835706  0.81166350  0.27234223  1
  F  F18  1  0.18833650  0.07669356  0.27234223  1
  F  F19  1  0.11164294  0.92330644  0.27234223  1
  F  F20  1  0.81166350  0.88835706  0.27234223  1
  F  F21  1  0.07669356  0.18833650  0.27234223  1
  F  F22  1  0.11164294  0.92330644  0.72765777  1
  F  F23  1  0.81166350  0.88835706  0.72765777  1
  F  F24  1  0.07669356  0.18833650  0.72765777  1
  F  F25  1  0.33333333  0.66666667  0.62331873  1
  F  F26  1  0.33333333  0.66666667  0.37668127  1
  F  F27  1  0.66666667  0.33333333  0.37668127  1
  F  F28  1  0.66666667  0.33333333  0.62331873  1
  F  F29  1  0.00000000  0.00000000  0.00000000  1
  F  F30  1  0.89016470  0.50290201  0.23312801  1
  F  F31  1  0.49709799  0.38726269  0.23312801  1
  F  F32  1  0.61273731  0.10983530  0.23312801  1
  F  F33  1  0.89016470  0.50290201  0.76687199  1
  F  F34  1  0.49709799  0.38726269  0.76687199  1
  F  F35  1  0.61273731  0.10983530  0.76687199  1
  F  F36  1  0.50290201  0.89016470  0.76687199  1
  F  F37  1  0.38726269  0.49709799  0.76687199  1
  F  F38  1  0.10983530  0.61273731  0.76687199  1
  F  F39  1  0.50290201  0.89016470  0.23312801  1
  F  F40  1  0.38726269  0.49709799  0.23312801  1
  F  F41  1  0.10983530  0.61273731  0.23312801  1
  F  F42  1  0.44761044  0.00000000  0.00000000  1
  F  F43  1  0.00000000  0.44761044  0.00000000  1
  F  F44  1  0.55238956  0.55238956  -0.00000000  1
  F  F45  1  0.88190997  0.00000000  0.50000000  1
  F  F46  1  0.00000000  0.88190997  0.50000000  1
  F  F47  1  0.11809003  0.11809003  0.50000000  1
  Li  Li48  1  0.86805815  0.03781375  0.00000000  1
  Li  Li49  1  0.96218625  0.83024440  0.00000000  1
  Li  Li50  1  0.16975560  0.13194185  0.00000000  1
  Li  Li51  1  0.03781375  0.86805815  0.00000000  1
  Li  Li52  1  0.83024440  0.96218625  0.00000000  1
  Li  Li53  1  0.13194185  0.16975560  0.00000000  1
  Li  Li54  1  0.22414321  0.50581231  0.20857153  1
  Li  Li55  1  0.49418769  0.71833090  0.20857153  1
  Li  Li56  1  0.28166910  0.77585679  0.20857153  1
  Li  Li57  1  0.22414321  0.50581231  0.79142847  1
  Li  Li58  1  0.49418769  0.71833090  0.79142847  1
  Li  Li59  1  0.28166910  0.77585679  0.79142847  1
  Li  Li60  1  0.50581231  0.22414321  0.79142847  1
  Li  Li61  1  0.71833090  0.49418769  0.79142847  1
  Li  Li62  1  0.77585679  0.28166910  0.79142847  1
  Li  Li63  1  0.50581231  0.22414321  0.20857153  1
  Li  Li64  1  0.71833090  0.49418769  0.20857153  1
  Li  Li65  1  0.77585679  0.28166910  0.20857153  1
  Li  Li66  1  0.47988570  0.51788903  0.00000000  1
  Li  Li67  1  0.48211097  0.96199667  0.00000000  1
  Li  Li68  1  0.03800333  0.52011430  0.00000000  1
  Li  Li69  1  0.51788903  0.47988570  -0.00000000  1
  Li  Li70  1  0.96199667  0.48211097  -0.00000000  1
  Li  Li71  1  0.52011430  0.03800333  0.00000000  1
  Li  Li72  1  0.48638501  0.06299204  0.84529314  1
  Li  Li73  1  0.93700796  0.42339297  0.84529314  1
  Li  Li74  1  0.57660703  0.51361499  0.84529314  1
  Li  Li75  1  0.48638501  0.06299204  0.15470686  1
  Li  Li76  1  0.93700796  0.42339297  0.15470686  1
  Li  Li77  1  0.57660703  0.51361499  0.15470686  1
  Li  Li78  1  0.06299204  0.48638501  0.15470686  1
  Li  Li79  1  0.42339297  0.93700796  0.15470686  1
  Li  Li80  1  0.51361499  0.57660703  0.15470686  1
  Li  Li81  1  0.06299204  0.48638501  0.84529314  1
  Li  Li82  1  0.42339297  0.93700796  0.84529314  1
  Li  Li83  1  0.51361499  0.57660703  0.84529314  1
  Li  Li84  1  0.67867209  0.15400714  0.07745658  1
  Li  Li85  1  0.84599286  0.52466495  0.07745658  1
  Li  Li86  1  0.47533505  0.32132791  0.07745658  1
  Li  Li87  1  0.67867209  0.15400714  0.92254342  1
  Li  Li88  1  0.84599286  0.52466495  0.92254342  1
  Li  Li89  1  0.47533505  0.32132791  0.92254342  1
  Li  Li90  1  0.15400714  0.67867209  0.92254342  1
  Li  Li91  1  0.52466495  0.84599286  0.92254342  1
  Li  Li92  1  0.32132791  0.47533505  0.92254342  1
  Li  Li93  1  0.15400714  0.67867209  0.07745658  1
  Li  Li94  1  0.52466495  0.84599286  0.07745658  1
  Li  Li95  1  0.32132791  0.47533505  0.07745658  1
  Li  Li96  1  0.03741551  0.33449103  0.87726139  1
  Li  Li97  1  0.66550897  0.70292448  0.87726139  1
  Li  Li98  1  0.29707552  0.96258449  0.87726139  1
  Li  Li99  1  0.03741551  0.33449103  0.12273861  1
  Li  Li100  1  0.66550897  0.70292448  0.12273861  1
  Li  Li101  1  0.29707552  0.96258449  0.12273861  1
  Li  Li102  1  0.33449103  0.03741551  0.12273861  1
  Li  Li103  1  0.70292448  0.66550897  0.12273861  1
  Li  Li104  1  0.96258449  0.29707552  0.12273861  1
  Li  Li105  1  0.33449103  0.03741551  0.87726139  1
  Li  Li106  1  0.70292448  0.66550897  0.87726139  1
  Li  Li107  1  0.96258449  0.29707552  0.87726139  1
  Li  Li108  1  0.13598651  0.00000000  0.08991550  1
  Li  Li109  1  0.00000000  0.13598651  0.08991550  1
  Li  Li110  1  0.86401349  0.86401349  0.08991550  1
  Li  Li111  1  0.13598651  0.00000000  0.91008450  1
  Li  Li112  1  0.00000000  0.13598651  0.91008450  1
  Li  Li113  1  0.86401349  0.86401349  0.91008450  1
  Li  Li114  1  0.33333333  0.66666667  0.50000000  1
  Li  Li115  1  0.66666667  0.33333333  0.50000000  1
  Li  Li116  1  0.44798284  0.58354211  0.77940515  1
  Li  Li117  1  0.41645789  0.86444073  0.77940515  1
  Li  Li118  1  0.13555927  0.55201716  0.77940515  1
  Li  Li119  1  0.44798284  0.58354211  0.22059485  1
  Li  Li120  1  0.41645789  0.86444073  0.22059485  1
  Li  Li121  1  0.13555927  0.55201716  0.22059485  1
  Li  Li122  1  0.58354211  0.44798284  0.22059485  1
  Li  Li123  1  0.86444073  0.41645789  0.22059485  1
  Li  Li124  1  0.55201716  0.13555927  0.22059485  1
  Li  Li125  1  0.58354211  0.44798284  0.77940515  1
  Li  Li126  1  0.86444073  0.41645789  0.77940515  1
  Li  Li127  1  0.55201716  0.13555927  0.77940515  1
  Li  Li128  1  0.79663948  0.00000000  0.31512891  1
  Li  Li129  1  0.00000000  0.79663948  0.31512891  1
  Li  Li130  1  0.20336052  0.20336052  0.31512891  1
  Li  Li131  1  0.79663948  0.00000000  0.68487109  1
  Li  Li132  1  0.00000000  0.79663948  0.68487109  1
  Li  Li133  1  0.20336052  0.20336052  0.68487109  1
  Li  Li134  1  0.33333333  0.66666667  0.00000000  1
  Li  Li135  1  0.66666667  0.33333333  -0.00000000  1
  Li  Li136  1  0.25572484  0.00000000  0.88431376  1
  Li  Li137  1  0.00000000  0.25572484  0.88431376  1
  Li  Li138  1  0.74427516  0.74427516  0.88431376  1
  Li  Li139  1  0.25572484  0.00000000  0.11568624  1
  Li  Li140  1  0.00000000  0.25572484  0.11568624  1
  Li  Li141  1  0.74427516  0.74427516  0.11568624  1
  Li  Li142  1  0.00000000  0.00000000  0.15231733  1
  Li  Li143  1  0.00000000  0.00000000  0.84768267  1
  Te  Te144  1  0.30930754  0.00000000  0.37245424  1
  Te  Te145  1  0.00000000  0.30930754  0.37245424  1
  Te  Te146  1  0.69069246  0.69069246  0.37245424  1
  Te  Te147  1  0.30930754  0.00000000  0.62754576  1
  Te  Te148  1  0.00000000  0.30930754  0.62754576  1
  Te  Te149  1  0.69069246  0.69069246  0.62754576  1
  Te  Te150  1  0.40635485  0.09824999  0.66462024  1
  Te  Te151  1  0.90175001  0.30810486  0.66462024  1
  Te  Te152  1  0.69189514  0.59364515  0.66462024  1
  Te  Te153  1  0.40635485  0.09824999  0.33537976  1
  Te  Te154  1  0.90175001  0.30810486  0.33537976  1
  Te  Te155  1  0.69189514  0.59364515  0.33537976  1
  Te  Te156  1  0.09824999  0.40635485  0.33537976  1
  Te  Te157  1  0.30810486  0.90175001  0.33537976  1
  Te  Te158  1  0.59364515  0.69189514  0.33537976  1
  Te  Te159  1  0.09824999  0.40635485  0.66462024  1
  Te  Te160  1  0.30810486  0.90175001  0.66462024  1
  Te  Te161  1  0.59364515  0.69189514  0.66462024  1
  Te  Te162  1  0.77989963  0.27826397  0.50000000  1
  Te  Te163  1  0.72173603  0.50163565  0.50000000  1
  Te  Te164  1  0.49836435  0.22010037  0.50000000  1
  Te  Te165  1  0.27826397  0.77989963  0.50000000  1
  Te  Te166  1  0.50163565  0.72173603  0.50000000  1
  Te  Te167  1  0.22010037  0.49836435  0.50000000  1
