# generated using pymatgen
data_LiF
_symmetry_space_group_name_H-M   'P 1'
_cell_length_a   9.29587751
_cell_length_b   9.29587751
_cell_length_c   19.18669265
_cell_angle_alpha   90.00000000
_cell_angle_beta   90.00000000
_cell_angle_gamma   90.00000000
_symmetry_Int_Tables_number   1
_chemical_formula_structural   LiF
_chemical_formula_sum   'Li64 F64'
_cell_volume   1657.98617069
_cell_formula_units_Z   64
loop_
 _symmetry_equiv_pos_site_id
 _symmetry_equiv_pos_as_xyz
  1  'x, y, z'
loop_
 _atom_site_type_symbol
 _atom_site_label
 _atom_site_symmetry_multiplicity
 _atom_site_fract_x
 _atom_site_fract_y
 _atom_site_fract_z
 _atom_site_occupancy
  F  F0  1  0.24786212  0.49234266  0.27322653  1
  F  F1  1  0.25213788  -0.49234266  0.77322653  1
  F  F2  1  -0.24234266  0.99786212  0.52322653  1
  F  F3  1  0.74234266  0.00213788  1.02322653  1
  F  F4  1  0.25213788  0.49234266  -0.27322653  1
  F  F5  1  0.24786212  -0.49234266  0.22677347  1
  F  F6  1  0.74234266  0.99786212  0.47677347  1
  F  F7  1  -0.24234266  0.00213788  -0.02322653  1
  F  F8  1  -0.24786212  -0.49234266  -0.27322653  1
  F  F9  1  0.74786212  0.49234266  0.22677347  1
  F  F10  1  1.24234266  0.00213788  0.47677347  1
  F  F11  1  0.25765734  0.99786212  -0.02322653  1
  F  F12  1  0.74786212  -0.49234266  0.27322653  1
  F  F13  1  -0.24786212  0.49234266  0.77322653  1
  F  F14  1  0.25765734  0.00213788  0.52322653  1
  F  F15  1  1.24234266  0.99786212  1.02322653  1
  F  F16  1  0.74786212  0.99234266  0.77322653  1
  F  F17  1  0.75213788  0.00765734  1.27322653  1
  F  F18  1  0.25765734  1.49786212  1.02322653  1
  F  F19  1  1.24234266  0.50213788  1.52322653  1
  F  F20  1  0.75213788  0.99234266  0.22677347  1
  F  F21  1  0.74786212  0.00765734  0.72677347  1
  F  F22  1  1.24234266  1.49786212  0.97677347  1
  F  F23  1  0.25765734  0.50213788  0.47677347  1
  F  F24  1  0.25213788  0.00765734  0.22677347  1
  F  F25  1  1.24786212  0.99234266  0.72677347  1
  F  F26  1  1.74234266  0.50213788  0.97677347  1
  F  F27  1  0.75765734  1.49786212  0.47677347  1
  F  F28  1  1.24786212  0.00765734  0.77322653  1
  F  F29  1  0.25213788  0.99234266  1.27322653  1
  F  F30  1  0.75765734  0.50213788  1.02322653  1
  F  F31  1  1.74234266  1.49786212  1.52322653  1
  F  F32  1  0.09916389  0.00000000  0.25000000  1
  F  F33  1  0.40083611  0.00000000  0.75000000  1
  F  F34  1  0.25000000  0.84916389  0.50000000  1
  F  F35  1  0.25000000  0.15083611  0.00000000  1
  F  F36  1  0.90083611  0.00000000  0.75000000  1
  F  F37  1  0.59916389  0.00000000  0.25000000  1
  F  F38  1  0.75000000  0.15083611  0.50000000  1
  F  F39  1  0.75000000  0.84916389  -0.00000000  1
  F  F40  1  0.59916389  0.50000000  0.75000000  1
  F  F41  1  0.90083611  0.50000000  0.25000000  1
  F  F42  1  0.75000000  0.34916389  0.00000000  1
  F  F43  1  0.75000000  0.65083611  0.50000000  1
  F  F44  1  0.40083611  0.50000000  0.25000000  1
  F  F45  1  0.09916389  0.50000000  0.75000000  1
  F  F46  1  0.25000000  0.65083611  0.00000000  1
  F  F47  1  0.25000000  0.34916389  0.50000000  1
  F  F48  1  0.71245311  0.00000000  0.25000000  1
  F  F49  1  0.78754689  0.00000000  0.75000000  1
  F  F50  1  0.25000000  0.46245311  0.50000000  1
  F  F51  1  0.25000000  0.53754689  0.00000000  1
  F  F52  1  0.28754689  -0.00000000  0.75000000  1
  F  F53  1  0.21245311  0.00000000  0.25000000  1
  F  F54  1  0.75000000  0.53754689  0.50000000  1
  F  F55  1  0.75000000  0.46245311  0.00000000  1
  F  F56  1  0.21245311  0.50000000  0.75000000  1
  F  F57  1  0.28754689  0.50000000  0.25000000  1
  F  F58  1  0.75000000  0.96245311  0.00000000  1
  F  F59  1  0.75000000  0.03754689  0.50000000  1
  F  F60  1  0.78754689  0.50000000  0.25000000  1
  F  F61  1  0.71245311  0.50000000  0.75000000  1
  F  F62  1  0.25000000  0.03754689  -0.00000000  1
  F  F63  1  0.25000000  0.96245311  0.50000000  1
  Li  Li64  1  0.31871471  0.56871471  0.12500000  1
  Li  Li65  1  0.18128529  0.43128529  0.62500000  1
  Li  Li66  1  0.68128529  0.06871471  0.37500000  1
  Li  Li67  1  0.81871471  0.93128529  0.87500000  1
  Li  Li68  1  0.68128529  0.43128529  0.87500000  1
  Li  Li69  1  0.81871471  0.56871471  0.37500000  1
  Li  Li70  1  0.31871471  0.93128529  0.62500000  1
  Li  Li71  1  0.18128529  0.06871471  0.12500000  1
  Li  Li72  1  0.81871471  0.06871471  0.62500000  1
  Li  Li73  1  0.68128529  0.93128529  0.12500000  1
  Li  Li74  1  0.18128529  0.56871471  0.87500000  1
  Li  Li75  1  0.31871471  0.43128529  0.37500000  1
  Li  Li76  1  0.18128529  0.93128529  0.37500000  1
  Li  Li77  1  0.31871471  0.06871471  0.87500000  1
  Li  Li78  1  0.81871471  0.43128529  0.12500000  1
  Li  Li79  1  0.68128529  0.56871471  0.62500000  1
  Li  Li80  1  0.93542426  0.00000000  0.25000000  1
  Li  Li81  1  0.56457574  0.00000000  0.75000000  1
  Li  Li82  1  0.25000000  0.68542426  0.50000000  1
  Li  Li83  1  0.25000000  0.31457574  -0.00000000  1
  Li  Li84  1  0.06457574  0.00000000  0.75000000  1
  Li  Li85  1  0.43542426  0.00000000  0.25000000  1
  Li  Li86  1  0.75000000  0.31457574  0.50000000  1
  Li  Li87  1  0.75000000  0.68542426  -0.00000000  1
  Li  Li88  1  0.43542426  0.50000000  0.75000000  1
  Li  Li89  1  0.06457574  0.50000000  0.25000000  1
  Li  Li90  1  0.75000000  0.18542426  -0.00000000  1
  Li  Li91  1  0.75000000  0.81457574  0.50000000  1
  Li  Li92  1  0.56457574  0.50000000  0.25000000  1
  Li  Li93  1  0.93542426  0.50000000  0.75000000  1
  Li  Li94  1  0.25000000  0.81457574  0.00000000  1
  Li  Li95  1  0.25000000  0.18542426  0.50000000  1
  Li  Li96  1  0.81571861  0.06571861  0.12500000  1
  Li  Li97  1  0.68428139  0.93428139  0.62500000  1
  Li  Li98  1  0.18428139  0.56571861  0.37500000  1
  Li  Li99  1  0.31571861  0.43428139  0.87500000  1
  Li  Li100  1  0.18428139  0.93428139  0.87500000  1
  Li  Li101  1  0.31571861  0.06571861  0.37500000  1
  Li  Li102  1  0.81571861  0.43428139  0.62500000  1
  Li  Li103  1  0.68428139  0.56571861  0.12500000  1
  Li  Li104  1  0.31571861  0.56571861  0.62500000  1
  Li  Li105  1  0.18428139  0.43428139  0.12500000  1
  Li  Li106  1  0.68428139  0.06571861  0.87500000  1
  Li  Li107  1  0.81571861  0.93428139  0.37500000  1
  Li  Li108  1  0.68428139  0.43428139  0.37500000  1
  Li  Li109  1  0.81571861  0.56571861  0.87500000  1
  Li  Li110  1  0.31571861  0.93428139  0.12500000  1
  Li  Li111  1  0.18428139  0.06571861  0.62500000  1
  Li  Li112  1  0.00000000  0.00000000  0.00000000  1
  Li  Li113  1  0.50000000  0.00000000  0.50000000  1
  Li  Li114  1  0.25000000  0.75000000  0.25000000  1
  Li  Li115  1  0.25000000  0.25000000  0.75000000  1
  Li  Li116  1  0.50000000  0.00000000  0.00000000  1
  Li  Li117  1  0.00000000  0.00000000  0.50000000  1
  Li  Li118  1  0.25000000  0.75000000  0.75000000  1
  Li  Li119  1  0.25000000  0.25000000  0.25000000  1
  Li  Li120  1  0.50000000  0.50000000  0.50000000  1
  Li  Li121  1  0.00000000  0.50000000  0.00000000  1
  Li  Li122  1  0.75000000  0.25000000  0.75000000  1
  Li  Li123  1  0.75000000  0.75000000  0.25000000  1
  Li  Li124  1  0.00000000  0.50000000  0.50000000  1
  Li  Li125  1  0.50000000  0.50000000  0.00000000  1
  Li  Li126  1  0.75000000  0.25000000  0.25000000  1
  Li  Li127  1  0.75000000  0.75000000  0.75000000  1
