# generated using pymatgen
data_LiF
_symmetry_space_group_name_H-M   'P 1'
_cell_length_a   6.39475615
_cell_length_b   6.39475615
_cell_length_c   22.24579684
_cell_angle_alpha   90.00000000
_cell_angle_beta   90.00000000
_cell_angle_gamma   120.00000000
_symmetry_Int_Tables_number   1
_chemical_formula_structural   LiF
_chemical_formula_sum   'Li25 F25'
_cell_volume   787.81922567
_cell_formula_units_Z   25
loop_
 _symmetry_equiv_pos_site_id
 _symmetry_equiv_pos_as_xyz
  1  'x, y, z'
loop_
 _atom_site_type_symbol
 _atom_site_label
 _atom_site_symmetry_multiplicity
 _atom_site_fract_x
 _atom_site_fract_y
 _atom_site_fract_z
 _atom_site_occupancy
  F  F0  1  0.28263571  0.38392201  0.03725754  1
  F  F1  1  0.61607799  0.89871370  0.03725754  1
  F  F2  1  0.10128630  0.71736429  0.03725754  1
  F  F3  1  0.61607799  0.71736429  0.96274246  1
  F  F4  1  0.10128630  0.38392201  0.96274246  1
  F  F5  1  0.28263571  0.89871370  0.96274246  1
  F  F6  1  0.33333333  0.66666667  0.01392511  1
  F  F7  1  0.33333333  0.66666667  0.98607489  1
  F  F8  1  0.44344301  0.55655699  0.00000000  1
  F  F9  1  0.44344301  0.88688603  0.00000000  1
  F  F10  1  0.11311397  0.55655699  0.00000000  1
  F  F11  1  0.27172054  0.14485979  0.98555145  1
  F  F12  1  0.85514021  0.12686075  0.98555145  1
  F  F13  1  0.87313925  0.72827946  0.98555145  1
  F  F14  1  0.85514021  0.72827946  0.01444855  1
  F  F15  1  0.87313925  0.14485979  0.01444855  1
  F  F16  1  0.27172054  0.12686075  0.01444855  1
  F  F17  1  0.95187187  0.93827952  0.19683314  1
  F  F18  1  0.06172048  0.01359234  0.19683314  1
  F  F19  1  0.98640766  0.04812813  0.19683314  1
  F  F20  1  0.06172048  0.04812813  0.80316686  1
  F  F21  1  0.98640766  0.93827952  0.80316686  1
  F  F22  1  0.95187187  0.01359234  0.80316686  1
  F  F23  1  0.00000000  0.00000000  0.23790285  1
  F  F24  1  0.00000000  0.00000000  0.76209715  1
  Li  Li25  1  0.87092056  0.48055477  0.05938313  1
  Li  Li26  1  -0.48055477  0.39036580  0.05938313  1
  Li  Li27  1  -0.39036580  -0.87092056  0.05938313  1
  Li  Li28  1  -0.48055477  -0.87092056  -0.05938313  1
  Li  Li29  1  -0.39036580  0.48055477  -0.05938313  1
  Li  Li30  1  0.87092056  0.39036580  -0.05938313  1
  Li  Li31  1  0.66666667  0.33333333  0.56114533  1
  Li  Li32  1  0.66666667  0.33333333  0.43885467  1
  Li  Li33  1  0.00000000  0.00000000  0.50000000  1
  Li  Li34  1  0.00000000  0.00000000  0.00000000  1
  Li  Li35  1  0.20245519  0.47400673  0.53530755  1
  Li  Li36  1  0.52599327  0.72844847  0.53530755  1
  Li  Li37  1  0.27155153  0.79754481  0.53530755  1
  Li  Li38  1  0.52599327  0.79754481  0.46469245  1
  Li  Li39  1  0.27155153  0.47400673  0.46469245  1
  Li  Li40  1  0.20245519  0.72844847  0.46469245  1
  Li  Li41  1  0.33333333  0.66666667  0.50000000  1
  Li  Li42  1  0.60083616  0.46151545  0.27604059  1
  Li  Li43  1  0.53848455  0.13932071  0.27604059  1
  Li  Li44  1  0.86067929  0.39916384  0.27604059  1
  Li  Li45  1  0.53848455  0.39916384  0.72395941  1
  Li  Li46  1  0.86067929  0.46151545  0.72395941  1
  Li  Li47  1  0.60083616  0.13932071  0.72395941  1
  Li  Li48  1  0.66666667  0.33333333  0.68735204  1
  Li  Li49  1  0.66666667  0.33333333  0.31264796  1
