# generated using pymatgen
data_LiF
_symmetry_space_group_name_H-M   'P 1'
_cell_length_a   11.17377592
_cell_length_b   11.36002622
_cell_length_c   4.59833743
_cell_angle_alpha   90.00000000
_cell_angle_beta   90.00000000
_cell_angle_gamma   90.00000000
_symmetry_Int_Tables_number   1
_chemical_formula_structural   LiF
_chemical_formula_sum   'Li24 F24'
_cell_volume   583.68714455
_cell_formula_units_Z   24
loop_
 _symmetry_equiv_pos_site_id
 _symmetry_equiv_pos_as_xyz
  1  'x, y, z'
loop_
 _atom_site_type_symbol
 _atom_site_label
 _atom_site_symmetry_multiplicity
 _atom_site_fract_x
 _atom_site_fract_y
 _atom_site_fract_z
 _atom_site_occupancy
  F  F0  1  0.00000000  0.00000000  0.00000000  1
  F  F1  1  0.50000000  0.00000000  0.50000000  1
  F  F2  1  0.00000000  0.50000000  0.00000000  1
  F  F3  1  0.50000000  0.50000000  0.50000000  1
  F  F4  1  0.48292505  0.41088513  0.07730608  1
  F  F5  1  0.01707495  0.58911487  0.57730608  1
  F  F6  1  0.51707495  0.91088513  0.92269392  1
  F  F7  1  0.98292505  0.08911487  0.42269392  1
  F  F8  1  0.51707495  0.58911487  0.92269392  1
  F  F9  1  0.98292505  0.41088513  0.42269392  1
  F  F10  1  0.48292505  0.08911487  0.07730608  1
  F  F11  1  0.01707495  0.91088513  0.57730608  1
  F  F12  1  0.71430938  0.25000000  0.25012334  1
  F  F13  1  0.78569062  0.75000000  0.75012334  1
  F  F14  1  0.28569062  0.75000000  0.74987666  1
  F  F15  1  0.21430938  0.25000000  0.24987666  1
  F  F16  1  0.58128159  0.05437752  0.33851309  1
  F  F17  1  0.91871841  0.94562248  0.83851309  1
  F  F18  1  0.41871841  0.55437752  0.66148691  1
  F  F19  1  0.08128159  0.44562248  0.16148691  1
  F  F20  1  0.41871841  0.94562248  0.66148691  1
  F  F21  1  0.08128159  0.05437752  0.16148691  1
  F  F22  1  0.58128159  0.44562248  0.33851309  1
  F  F23  1  0.91871841  0.55437752  0.83851309  1
  Li  Li24  1  0.69115789  0.13947585  0.69308526  1
  Li  Li25  1  -0.19115789  -0.13947585  1.19308526  1
  Li  Li26  1  -0.69115789  0.63947585  -0.69308526  1
  Li  Li27  1  1.19115789  0.36052415  -0.19308526  1
  Li  Li28  1  -0.69115789  -0.13947585  -0.69308526  1
  Li  Li29  1  1.19115789  0.13947585  -0.19308526  1
  Li  Li30  1  0.69115789  0.36052415  0.69308526  1
  Li  Li31  1  -0.19115789  0.63947585  1.19308526  1
  Li  Li32  1  0.29743813  0.98103092  0.34753935  1
  Li  Li33  1  0.20256187  0.01896908  0.84753935  1
  Li  Li34  1  0.70256187  0.48103092  0.65246065  1
  Li  Li35  1  0.79743813  0.51896908  0.15246065  1
  Li  Li36  1  0.70256187  0.01896908  0.65246065  1
  Li  Li37  1  0.79743813  0.98103092  0.15246065  1
  Li  Li38  1  0.29743813  0.51896908  0.34753935  1
  Li  Li39  1  0.20256187  0.48103092  0.84753935  1
  Li  Li40  1  0.17205407  0.39422848  0.31583055  1
  Li  Li41  1  0.32794593  0.60577152  0.81583055  1
  Li  Li42  1  0.82794593  0.89422848  0.68416945  1
  Li  Li43  1  0.67205407  0.10577152  0.18416945  1
  Li  Li44  1  0.82794593  0.60577152  0.68416945  1
  Li  Li45  1  0.67205407  0.39422848  0.18416945  1
  Li  Li46  1  0.17205407  0.10577152  0.31583055  1
  Li  Li47  1  0.32794593  0.89422848  0.81583055  1
