# generated using pymatgen
data_LiF
_symmetry_space_group_name_H-M   'P 1'
_cell_length_a   6.71168108
_cell_length_b   5.49570682
_cell_length_c   12.17756397
_cell_angle_alpha   90.00000000
_cell_angle_beta   90.00000000
_cell_angle_gamma   90.00000000
_symmetry_Int_Tables_number   1
_chemical_formula_structural   LiF
_chemical_formula_sum   'Li20 F20'
_cell_volume   449.17470127
_cell_formula_units_Z   20
loop_
 _symmetry_equiv_pos_site_id
 _symmetry_equiv_pos_as_xyz
  1  'x, y, z'
loop_
 _atom_site_type_symbol
 _atom_site_label
 _atom_site_symmetry_multiplicity
 _atom_site_fract_x
 _atom_site_fract_y
 _atom_site_fract_z
 _atom_site_occupancy
  F  F0  1  0.61359590  0.45049346  0.82643317  1
  F  F1  1  -0.11359590  -0.45049346  1.32643317  1
  F  F2  1  -0.61359590  0.95049346  -0.82643317  1
  F  F3  1  1.11359590  0.04950654  -0.32643317  1
  F  F4  1  -0.61359590  -0.45049346  -0.82643317  1
  F  F5  1  1.11359590  0.45049346  -0.32643317  1
  F  F6  1  0.61359590  0.04950654  0.82643317  1
  F  F7  1  -0.11359590  0.95049346  1.32643317  1
  F  F8  1  0.65320343  0.25000000  0.40370349  1
  F  F9  1  0.84679657  0.75000000  0.90370349  1
  F  F10  1  0.34679657  0.75000000  0.59629651  1
  F  F11  1  0.15320343  0.25000000  0.09629651  1
  F  F12  1  0.13636445  0.61293187  0.57565491  1
  F  F13  1  0.36363555  0.38706813  0.07565491  1
  F  F14  1  0.86363555  0.11293187  0.42434509  1
  F  F15  1  0.63636445  0.88706813  0.92434509  1
  F  F16  1  0.86363555  0.38706813  0.42434509  1
  F  F17  1  0.63636445  0.61293187  0.92434509  1
  F  F18  1  0.13636445  0.88706813  0.57565491  1
  F  F19  1  0.36363555  0.11293187  0.07565491  1
  Li  Li20  1  0.63058912  0.25000000  0.50703434  1
  Li  Li21  1  0.86941088  0.75000000  0.00703434  1
  Li  Li22  1  0.36941088  0.75000000  0.49296566  1
  Li  Li23  1  0.13058912  0.25000000  0.99296566  1
  Li  Li24  1  0.16911667  0.25000000  0.62449450  1
  Li  Li25  1  0.33088333  0.75000000  0.12449450  1
  Li  Li26  1  0.83088333  0.75000000  0.37550550  1
  Li  Li27  1  0.66911667  0.25000000  0.87550550  1
  Li  Li28  1  0.00000000  0.00000000  0.50000000  1
  Li  Li29  1  0.50000000  0.00000000  0.00000000  1
  Li  Li30  1  0.00000000  0.50000000  0.50000000  1
  Li  Li31  1  0.50000000  0.50000000  0.00000000  1
  Li  Li32  1  0.14505018  0.25000000  0.74384839  1
  Li  Li33  1  0.35494982  0.75000000  0.24384839  1
  Li  Li34  1  0.85494982  0.75000000  0.25615161  1
  Li  Li35  1  0.64505018  0.25000000  0.75615161  1
  Li  Li36  1  0.00000000  0.00000000  0.00000000  1
  Li  Li37  1  0.50000000  0.00000000  0.50000000  1
  Li  Li38  1  0.00000000  0.50000000  0.00000000  1
  Li  Li39  1  0.50000000  0.50000000  0.50000000  1
