# generated using pymatgen
data_LiF
_symmetry_space_group_name_H-M   'P 1'
_cell_length_a   11.01280747
_cell_length_b   11.01280747
_cell_length_c   3.02081835
_cell_angle_alpha   90.00000000
_cell_angle_beta   90.00000000
_cell_angle_gamma   120.00000000
_symmetry_Int_Tables_number   1
_chemical_formula_structural   LiF
_chemical_formula_sum   'Li20 F20'
_cell_volume   317.28631109
_cell_formula_units_Z   20
loop_
 _symmetry_equiv_pos_site_id
 _symmetry_equiv_pos_as_xyz
  1  'x, y, z'
loop_
 _atom_site_type_symbol
 _atom_site_label
 _atom_site_symmetry_multiplicity
 _atom_site_fract_x
 _atom_site_fract_y
 _atom_site_fract_z
 _atom_site_occupancy
  F  F0  1  0.25756174  0.06676899  0.23213460  1
  F  F1  1  -0.06676899  0.19079275  0.23213460  1
  F  F2  1  -0.19079275  -0.25756174  0.23213460  1
  F  F3  1  0.25756174  0.06676899  -0.23213460  1
  F  F4  1  -0.06676899  0.19079275  -0.23213460  1
  F  F5  1  -0.19079275  -0.25756174  -0.23213460  1
  F  F6  1  0.06676899  0.25756174  -0.23213460  1
  F  F7  1  0.19079275  -0.06676899  -0.23213460  1
  F  F8  1  -0.25756174  -0.19079275  -0.23213460  1
  F  F9  1  0.06676899  0.25756174  0.23213460  1
  F  F10  1  0.19079275  -0.06676899  0.23213460  1
  F  F11  1  -0.25756174  -0.19079275  0.23213460  1
  F  F12  1  0.46438813  0.67785889  0.50000000  1
  F  F13  1  0.32214111  0.78652924  0.50000000  1
  F  F14  1  0.21347076  0.53561187  0.50000000  1
  F  F15  1  0.67785889  0.46438813  0.50000000  1
  F  F16  1  0.78652924  0.32214111  0.50000000  1
  F  F17  1  0.53561187  0.21347076  0.50000000  1
  F  F18  1  0.33333333  0.66666667  0.50000000  1
  F  F19  1  0.66666667  0.33333333  0.50000000  1
  Li  Li20  1  0.84396872  0.56081397  0.00000000  1
  Li  Li21  1  0.43918603  0.28315476  -0.00000000  1
  Li  Li22  1  0.71684524  0.15603128  0.00000000  1
  Li  Li23  1  0.56081397  0.84396872  -0.00000000  1
  Li  Li24  1  0.28315476  0.43918603  -0.00000000  1
  Li  Li25  1  0.15603128  0.71684524  -0.00000000  1
  Li  Li26  1  0.49664825  0.07627195  -0.00000000  1
  Li  Li27  1  0.92372805  0.42037630  -0.00000000  1
  Li  Li28  1  0.57962370  0.50335175  0.00000000  1
  Li  Li29  1  0.07627195  0.49664825  -0.00000000  1
  Li  Li30  1  0.42037630  0.92372805  -0.00000000  1
  Li  Li31  1  0.50335175  0.57962370  0.00000000  1
  Li  Li32  1  0.25886476  0.00000000  -0.00000000  1
  Li  Li33  1  0.00000000  0.25886476  -0.00000000  1
  Li  Li34  1  0.74113524  0.74113524  -0.00000000  1
  Li  Li35  1  0.33333333  0.66666667  0.00000000  1
  Li  Li36  1  0.66666667  0.33333333  -0.00000000  1
  Li  Li37  1  0.52534563  0.00000000  0.50000000  1
  Li  Li38  1  0.00000000  0.52534563  0.50000000  1
  Li  Li39  1  0.47465437  0.47465437  0.50000000  1
