# generated using pymatgen
data_LiF
_symmetry_space_group_name_H-M   'P 1'
_cell_length_a   17.33291261
_cell_length_b   17.33291261
_cell_length_c   4.69291324
_cell_angle_alpha   90.00000000
_cell_angle_beta   90.00000000
_cell_angle_gamma   90.00000000
_symmetry_Int_Tables_number   1
_chemical_formula_structural   LiF
_chemical_formula_sum   'Li48 F48'
_cell_volume   1409.89126487
_cell_formula_units_Z   48
loop_
 _symmetry_equiv_pos_site_id
 _symmetry_equiv_pos_as_xyz
  1  'x, y, z'
loop_
 _atom_site_type_symbol
 _atom_site_label
 _atom_site_symmetry_multiplicity
 _atom_site_fract_x
 _atom_site_fract_y
 _atom_site_fract_z
 _atom_site_occupancy
  F  F0  1  0.24658566  0.90327111  0.00000000  1
  F  F1  1  0.75341434  0.09672889  0.00000000  1
  F  F2  1  0.09672889  0.24658566  0.00000000  1
  F  F3  1  0.90327111  0.75341434  -0.00000000  1
  F  F4  1  0.75341434  0.90327111  0.00000000  1
  F  F5  1  0.24658566  0.09672889  0.00000000  1
  F  F6  1  0.90327111  0.24658566  0.00000000  1
  F  F7  1  0.09672889  0.75341434  0.00000000  1
  F  F8  1  0.05258911  0.60851633  0.73518775  1
  F  F9  1  0.94741089  0.39148367  0.73518775  1
  F  F10  1  0.39148367  0.05258911  0.73518775  1
  F  F11  1  0.60851633  0.94741089  0.73518775  1
  F  F12  1  0.94741089  0.60851633  0.26481225  1
  F  F13  1  0.05258911  0.39148367  0.26481225  1
  F  F14  1  0.60851633  0.05258911  0.26481225  1
  F  F15  1  0.39148367  0.94741089  0.26481225  1
  F  F16  1  0.94741089  0.39148367  0.26481225  1
  F  F17  1  0.05258911  0.60851633  0.26481225  1
  F  F18  1  0.60851633  0.94741089  0.26481225  1
  F  F19  1  0.39148367  0.05258911  0.26481225  1
  F  F20  1  0.05258911  0.39148367  0.73518775  1
  F  F21  1  0.94741089  0.60851633  0.73518775  1
  F  F22  1  0.39148367  0.94741089  0.73518775  1
  F  F23  1  0.60851633  0.05258911  0.73518775  1
  F  F24  1  0.82901648  0.82901648  0.50000000  1
  F  F25  1  0.17098352  0.17098352  0.50000000  1
  F  F26  1  0.17098352  0.82901648  0.50000000  1
  F  F27  1  0.82901648  0.17098352  0.50000000  1
  F  F28  1  0.28293467  0.50000000  0.00000000  1
  F  F29  1  0.71706533  0.50000000  0.00000000  1
  F  F30  1  0.50000000  0.28293467  0.00000000  1
  F  F31  1  0.50000000  0.71706533  0.00000000  1
  F  F32  1  0.95397707  0.44818072  0.74791120  1
  F  F33  1  0.04602293  0.55181928  0.74791120  1
  F  F34  1  0.55181928  0.95397707  0.74791120  1
  F  F35  1  0.44818072  0.04602293  0.74791120  1
  F  F36  1  0.04602293  0.44818072  0.25208880  1
  F  F37  1  0.95397707  0.55181928  0.25208880  1
  F  F38  1  0.44818072  0.95397707  0.25208880  1
  F  F39  1  0.55181928  0.04602293  0.25208880  1
  F  F40  1  0.04602293  0.55181928  0.25208880  1
  F  F41  1  0.95397707  0.44818072  0.25208880  1
  F  F42  1  0.44818072  0.04602293  0.25208880  1
  F  F43  1  0.55181928  0.95397707  0.25208880  1
  F  F44  1  0.95397707  0.55181928  0.74791120  1
  F  F45  1  0.04602293  0.44818072  0.74791120  1
  F  F46  1  0.55181928  0.04602293  0.74791120  1
  F  F47  1  0.44818072  0.95397707  0.74791120  1
  Li  Li48  1  0.67316553  0.81602938  0.50000000  1
  Li  Li49  1  0.32683447  0.18397062  0.50000000  1
  Li  Li50  1  0.18397062  0.67316553  0.50000000  1
  Li  Li51  1  0.81602938  0.32683447  0.50000000  1
  Li  Li52  1  0.32683447  0.81602938  0.50000000  1
  Li  Li53  1  0.67316553  0.18397062  0.50000000  1
  Li  Li54  1  0.81602938  0.67316553  0.50000000  1
  Li  Li55  1  0.18397062  0.32683447  0.50000000  1
  Li  Li56  1  0.80544741  0.00000000  0.69723374  1
  Li  Li57  1  0.19455259  0.00000000  0.69723374  1
  Li  Li58  1  0.00000000  0.80544741  0.69723374  1
  Li  Li59  1  0.00000000  0.19455259  0.69723374  1
  Li  Li60  1  0.19455259  0.00000000  0.30276626  1
  Li  Li61  1  0.80544741  0.00000000  0.30276626  1
  Li  Li62  1  0.00000000  0.80544741  0.30276626  1
  Li  Li63  1  0.00000000  0.19455259  0.30276626  1
  Li  Li64  1  0.17729180  0.56768808  0.66188406  1
  Li  Li65  1  -0.17729180  -0.56768808  0.66188406  1
  Li  Li66  1  -0.56768808  0.17729180  0.66188406  1
  Li  Li67  1  0.56768808  -0.17729180  0.66188406  1
  Li  Li68  1  -0.17729180  0.56768808  -0.66188406  1
  Li  Li69  1  0.17729180  -0.56768808  -0.66188406  1
  Li  Li70  1  0.56768808  0.17729180  -0.66188406  1
  Li  Li71  1  -0.56768808  -0.17729180  -0.66188406  1
  Li  Li72  1  -0.17729180  -0.56768808  -0.66188406  1
  Li  Li73  1  0.17729180  0.56768808  -0.66188406  1
  Li  Li74  1  0.56768808  -0.17729180  -0.66188406  1
  Li  Li75  1  -0.56768808  0.17729180  -0.66188406  1
  Li  Li76  1  0.17729180  -0.56768808  0.66188406  1
  Li  Li77  1  -0.17729180  0.56768808  0.66188406  1
  Li  Li78  1  -0.56768808  -0.17729180  0.66188406  1
  Li  Li79  1  0.56768808  0.17729180  0.66188406  1
  Li  Li80  1  0.06153749  0.06153749  0.00000000  1
  Li  Li81  1  0.93846251  0.93846251  0.00000000  1
  Li  Li82  1  0.93846251  0.06153749  0.00000000  1
  Li  Li83  1  0.06153749  0.93846251  0.00000000  1
  Li  Li84  1  0.50000000  0.50000000  0.00000000  1
  Li  Li85  1  0.25869146  0.41807154  0.50000000  1
  Li  Li86  1  0.74130854  0.58192846  0.50000000  1
  Li  Li87  1  0.58192846  0.25869146  0.50000000  1
  Li  Li88  1  0.41807154  0.74130854  0.50000000  1
  Li  Li89  1  0.74130854  0.41807154  0.50000000  1
  Li  Li90  1  0.25869146  0.58192846  0.50000000  1
  Li  Li91  1  0.41807154  0.25869146  0.50000000  1
  Li  Li92  1  0.58192846  0.74130854  0.50000000  1
  Li  Li93  1  0.00000000  0.00000000  0.50000000  1
  Li  Li94  1  0.00000000  0.50000000  0.50000000  1
  Li  Li95  1  0.50000000  0.00000000  0.50000000  1
