# generated using pymatgen
data_LiF
_symmetry_space_group_name_H-M   'P 1'
_cell_length_a   10.14993714
_cell_length_b   7.69801871
_cell_length_c   10.21477378
_cell_angle_alpha   90.00000000
_cell_angle_beta   90.00000000
_cell_angle_gamma   90.00000000
_symmetry_Int_Tables_number   1
_chemical_formula_structural   LiF
_chemical_formula_sum   'Li28 F28'
_cell_volume   798.12528185
_cell_formula_units_Z   28
loop_
 _symmetry_equiv_pos_site_id
 _symmetry_equiv_pos_as_xyz
  1  'x, y, z'
loop_
 _atom_site_type_symbol
 _atom_site_label
 _atom_site_symmetry_multiplicity
 _atom_site_fract_x
 _atom_site_fract_y
 _atom_site_fract_z
 _atom_site_occupancy
  F  F0  1  0.34831042  0.59326047  0.84654297  1
  F  F1  1  -0.34831042  -0.59326047  0.84654297  1
  F  F2  1  0.15168958  1.09326047  -0.84654297  1
  F  F3  1  0.84831042  -0.09326047  -0.84654297  1
  F  F4  1  -0.34831042  -0.59326047  -0.84654297  1
  F  F5  1  0.34831042  0.59326047  -0.84654297  1
  F  F6  1  0.84831042  -0.09326047  0.84654297  1
  F  F7  1  0.15168958  1.09326047  0.84654297  1
  F  F8  1  0.00000000  0.00000000  0.00000000  1
  F  F9  1  0.50000000  0.50000000  -0.00000000  1
  F  F10  1  0.65457524  0.97150005  0.34181113  1
  F  F11  1  0.34542476  0.02849995  0.34181113  1
  F  F12  1  0.84542476  0.47150005  0.65818887  1
  F  F13  1  0.15457524  0.52849995  0.65818887  1
  F  F14  1  0.34542476  0.02849995  0.65818887  1
  F  F15  1  0.65457524  0.97150005  0.65818887  1
  F  F16  1  0.15457524  0.52849995  0.34181113  1
  F  F17  1  0.84542476  0.47150005  0.34181113  1
  F  F18  1  0.84136537  0.33207332  0.23600290  1
  F  F19  1  0.15863463  0.66792668  0.23600290  1
  F  F20  1  0.65863463  0.83207332  0.76399710  1
  F  F21  1  0.34136537  0.16792668  0.76399710  1
  F  F22  1  0.15863463  0.66792668  0.76399710  1
  F  F23  1  0.84136537  0.33207332  0.76399710  1
  F  F24  1  0.34136537  0.16792668  0.23600290  1
  F  F25  1  0.65863463  0.83207332  0.23600290  1
  F  F26  1  0.00000000  0.50000000  0.50000000  1
  F  F27  1  0.50000000  0.00000000  0.50000000  1
  Li  Li28  1  0.00000000  0.00000000  0.50000000  1
  Li  Li29  1  0.50000000  0.50000000  0.50000000  1
  Li  Li30  1  0.30989774  0.81302533  0.40756616  1
  Li  Li31  1  0.69010226  0.18697467  0.40756616  1
  Li  Li32  1  0.19010226  0.31302533  0.59243384  1
  Li  Li33  1  0.80989774  0.68697467  0.59243384  1
  Li  Li34  1  0.69010226  0.18697467  0.59243384  1
  Li  Li35  1  0.30989774  0.81302533  0.59243384  1
  Li  Li36  1  0.80989774  0.68697467  0.40756616  1
  Li  Li37  1  0.19010226  0.31302533  0.40756616  1
  Li  Li38  1  0.29556686  0.95526986  0.27842064  1
  Li  Li39  1  0.70443314  0.04473014  0.27842064  1
  Li  Li40  1  0.20443314  0.45526986  0.72157936  1
  Li  Li41  1  0.79556686  0.54473014  0.72157936  1
  Li  Li42  1  0.70443314  0.04473014  0.72157936  1
  Li  Li43  1  0.29556686  0.95526986  0.72157936  1
  Li  Li44  1  0.79556686  0.54473014  0.27842064  1
  Li  Li45  1  0.20443314  0.45526986  0.27842064  1
  Li  Li46  1  0.40434886  0.39132764  0.50000000  1
  Li  Li47  1  0.59565114  0.60867236  0.50000000  1
  Li  Li48  1  0.09565114  0.89132764  0.50000000  1
  Li  Li49  1  0.90434886  0.10867236  0.50000000  1
  Li  Li50  1  0.20375372  0.18794937  -0.00000000  1
  Li  Li51  1  0.79624628  0.81205063  -0.00000000  1
  Li  Li52  1  0.29624628  0.68794937  0.00000000  1
  Li  Li53  1  0.70375372  0.31205063  0.00000000  1
  Li  Li54  1  0.00000000  0.50000000  -0.00000000  1
  Li  Li55  1  0.50000000  0.00000000  0.00000000  1
