# generated using pymatgen
data_KNa3F4
_symmetry_space_group_name_H-M   'P 1'
_cell_length_a   16.83202798
_cell_length_b   9.55232934
_cell_length_c   10.84655706
_cell_angle_alpha   90.00000000
_cell_angle_beta   90.00000000
_cell_angle_gamma   90.00000000
_symmetry_Int_Tables_number   1
_chemical_formula_structural   KNa3F4
_chemical_formula_sum   'K8 Na24 F32'
_cell_volume   1743.96448617
_cell_formula_units_Z   8
loop_
 _symmetry_equiv_pos_site_id
 _symmetry_equiv_pos_as_xyz
  1  'x, y, z'
loop_
 _atom_site_type_symbol
 _atom_site_label
 _atom_site_symmetry_multiplicity
 _atom_site_fract_x
 _atom_site_fract_y
 _atom_site_fract_z
 _atom_site_occupancy
  F  F0  1  0.00791928  0.36434981  0.71664953  1
  F  F1  1  0.99208072  0.63565019  0.71664953  1
  F  F2  1  0.49208072  0.86434981  0.78335047  1
  F  F3  1  0.50791928  0.13565019  0.78335047  1
  F  F4  1  0.99208072  0.63565019  0.28335047  1
  F  F5  1  0.00791928  0.36434981  0.28335047  1
  F  F6  1  0.50791928  0.13565019  0.21664953  1
  F  F7  1  0.49208072  0.86434981  0.21664953  1
  F  F8  1  0.00000000  0.00000000  0.50000000  1
  F  F9  1  0.50000000  0.50000000  0.00000000  1
  F  F10  1  0.95180150  0.60391977  0.73384056  1
  F  F11  1  0.04819850  0.39608023  0.73384056  1
  F  F12  1  0.54819850  0.10391977  0.76615944  1
  F  F13  1  0.45180150  0.89608023  0.76615944  1
  F  F14  1  0.04819850  0.39608023  0.26615944  1
  F  F15  1  0.95180150  0.60391977  0.26615944  1
  F  F16  1  0.45180150  0.89608023  0.23384056  1
  F  F17  1  0.54819850  0.10391977  0.23384056  1
  F  F18  1  0.67483358  0.55018067  0.28612927  1
  F  F19  1  0.32516642  0.44981933  0.28612927  1
  F  F20  1  0.82516642  0.05018067  0.21387073  1
  F  F21  1  0.17483358  0.94981933  0.21387073  1
  F  F22  1  0.32516642  0.44981933  0.71387073  1
  F  F23  1  0.67483358  0.55018067  0.71387073  1
  F  F24  1  0.17483358  0.94981933  0.78612927  1
  F  F25  1  0.82516642  0.05018067  0.78612927  1
  F  F26  1  0.00000000  0.00000000  0.44307388  1
  F  F27  1  0.50000000  0.50000000  0.05692612  1
  F  F28  1  0.00000000  0.00000000  0.55692612  1
  F  F29  1  0.50000000  0.50000000  0.94307388  1
  F  F30  1  0.00000000  0.50000000  0.50000000  1
  F  F31  1  0.50000000  -0.00000000  -0.00000000  1
  K  K32  1  0.06722820  0.94132400  0.70214617  1
  K  K33  1  0.93277180  0.05867600  0.70214617  1
  K  K34  1  0.43277180  0.44132400  0.79785383  1
  K  K35  1  0.56722820  0.55867600  0.79785383  1
  K  K36  1  0.93277180  0.05867600  0.29785383  1
  K  K37  1  0.06722820  0.94132400  0.29785383  1
  K  K38  1  0.56722820  0.55867600  0.20214617  1
  K  K39  1  0.43277180  0.44132400  0.20214617  1
  Na  Na40  1  0.87080142  0.30958589  -0.00000000  1
  Na  Na41  1  0.12919858  0.69041411  -0.00000000  1
  Na  Na42  1  0.62919858  0.80958589  0.50000000  1
  Na  Na43  1  0.37080142  0.19041411  0.50000000  1
  Na  Na44  1  0.28659951  0.57133223  0.18226866  1
  Na  Na45  1  -0.28659951  -0.57133223  0.18226866  1
  Na  Na46  1  0.21340049  1.07133223  0.31773134  1
  Na  Na47  1  0.78659951  -0.07133223  0.31773134  1
  Na  Na48  1  -0.28659951  -0.57133223  -0.18226866  1
  Na  Na49  1  0.28659951  0.57133223  -0.18226866  1
  Na  Na50  1  0.78659951  -0.07133223  0.68226866  1
  Na  Na51  1  0.21340049  1.07133223  0.68226866  1
  Na  Na52  1  0.31624681  0.13267334  0.00000000  1
  Na  Na53  1  0.68375319  0.86732666  0.00000000  1
  Na  Na54  1  0.18375319  0.63267334  0.50000000  1
  Na  Na55  1  0.81624681  0.36732666  0.50000000  1
  Na  Na56  1  0.00000000  0.50000000  0.00000000  1
  Na  Na57  1  0.50000000  -0.00000000  0.50000000  1
  Na  Na58  1  0.00000000  0.00000000  0.00000000  1
  Na  Na59  1  0.50000000  0.50000000  0.50000000  1
  Na  Na60  1  0.78574812  0.55979612  -0.00000000  1
  Na  Na61  1  0.21425188  0.44020388  0.00000000  1
  Na  Na62  1  0.71425188  0.05979612  0.50000000  1
  Na  Na63  1  0.28574812  0.94020388  0.50000000  1
