# generated using pymatgen
data_LiF
_symmetry_space_group_name_H-M   'P 1'
_cell_length_a   6.15782080
_cell_length_b   10.58134334
_cell_length_c   6.99762619
_cell_angle_alpha   90.00000000
_cell_angle_beta   90.00000000
_cell_angle_gamma   90.00000000
_symmetry_Int_Tables_number   1
_chemical_formula_structural   LiF
_chemical_formula_sum   'Li16 F16'
_cell_volume   455.95143969
_cell_formula_units_Z   16
loop_
 _symmetry_equiv_pos_site_id
 _symmetry_equiv_pos_as_xyz
  1  'x, y, z'
loop_
 _atom_site_type_symbol
 _atom_site_label
 _atom_site_symmetry_multiplicity
 _atom_site_fract_x
 _atom_site_fract_y
 _atom_site_fract_z
 _atom_site_occupancy
  F  F0  1  0.00000000  0.50000000  0.50000000  1
  F  F1  1  0.50000000  0.00000000  0.00000000  1
  F  F2  1  0.80266919  0.39688643  0.93081364  1
  F  F3  1  -0.80266919  -0.39688643  0.93081364  1
  F  F4  1  -0.30266919  0.89688643  -0.43081364  1
  F  F5  1  1.30266919  0.10311357  -0.43081364  1
  F  F6  1  -0.80266919  -0.39688643  -0.93081364  1
  F  F7  1  0.80266919  0.39688643  -0.93081364  1
  F  F8  1  1.30266919  0.10311357  1.43081364  1
  F  F9  1  -0.30266919  0.89688643  1.43081364  1
  F  F10  1  0.17592464  0.14785741  0.00000000  1
  F  F11  1  0.82407536  0.85214259  0.00000000  1
  F  F12  1  0.32407536  0.64785741  0.50000000  1
  F  F13  1  0.67592464  0.35214259  0.50000000  1
  F  F14  1  0.00000000  0.00000000  0.50000000  1
  F  F15  1  0.50000000  0.50000000  0.00000000  1
  Li  Li16  1  0.85054564  0.69627066  0.37901047  1
  Li  Li17  1  0.14945436  0.30372934  0.37901047  1
  Li  Li18  1  0.64945436  0.19627066  0.12098953  1
  Li  Li19  1  0.35054564  0.80372934  0.12098953  1
  Li  Li20  1  0.14945436  0.30372934  0.62098953  1
  Li  Li21  1  0.85054564  0.69627066  0.62098953  1
  Li  Li22  1  0.35054564  0.80372934  0.87901047  1
  Li  Li23  1  0.64945436  0.19627066  0.87901047  1
  Li  Li24  1  0.00000000  0.00000000  0.00000000  1
  Li  Li25  1  0.50000000  0.50000000  0.50000000  1
  Li  Li26  1  0.36599661  0.34924378  0.00000000  1
  Li  Li27  1  0.63400339  0.65075622  0.00000000  1
  Li  Li28  1  0.13400339  0.84924378  0.50000000  1
  Li  Li29  1  0.86599661  0.15075622  0.50000000  1
  Li  Li30  1  0.00000000  0.50000000  0.00000000  1
  Li  Li31  1  0.50000000  0.00000000  0.50000000  1
