# generated using pymatgen
data_Li12Al2O9
_symmetry_space_group_name_H-M   'P 1'
_cell_length_a   12.16926448
_cell_length_b   17.02668332
_cell_length_c   11.72059968
_cell_angle_alpha   90.00000000
_cell_angle_beta   90.00000000
_cell_angle_gamma   90.00000000
_symmetry_Int_Tables_number   1
_chemical_formula_structural   Li12Al2O9
_chemical_formula_sum   'Li96 Al16 O72'
_cell_volume   2428.53418616
_cell_formula_units_Z   8
loop_
 _symmetry_equiv_pos_site_id
 _symmetry_equiv_pos_as_xyz
  1  'x, y, z'
loop_
 _atom_site_type_symbol
 _atom_site_label
 _atom_site_symmetry_multiplicity
 _atom_site_fract_x
 _atom_site_fract_y
 _atom_site_fract_z
 _atom_site_occupancy
  Al  Al0  1  0.34449347  0.69083831  0.67271510  1
  Al  Al1  1  0.15550653  0.30916169  0.17271510  1
  Al  Al2  1  0.65550653  0.19083831  0.32728490  1
  Al  Al3  1  0.84449347  0.80916169  0.82728490  1
  Al  Al4  1  0.65550653  0.30916169  0.32728490  1
  Al  Al5  1  0.84449347  0.69083831  0.82728490  1
  Al  Al6  1  0.34449347  0.80916169  0.67271510  1
  Al  Al7  1  0.15550653  0.19083831  0.17271510  1
  Al  Al8  1  0.00000000  0.00000000  0.50000000  1
  Al  Al9  1  0.50000000  -0.00000000  0.00000000  1
  Al  Al10  1  0.00000000  0.50000000  0.50000000  1
  Al  Al11  1  0.50000000  0.50000000  -0.00000000  1
  Al  Al12  1  0.59710996  0.25000000  0.39111802  1
  Al  Al13  1  0.90289004  0.75000000  0.89111802  1
  Al  Al14  1  0.40289004  0.75000000  0.60888198  1
  Al  Al15  1  0.09710996  0.25000000  0.10888198  1
  Li  Li16  1  0.23027887  0.17107163  0.86567348  1
  Li  Li17  1  0.26972113  0.82892837  0.36567348  1
  Li  Li18  1  0.76972113  0.67107163  0.13432652  1
  Li  Li19  1  0.73027887  0.32892837  0.63432652  1
  Li  Li20  1  0.76972113  0.82892837  0.13432652  1
  Li  Li21  1  0.73027887  0.17107163  0.63432652  1
  Li  Li22  1  0.23027887  0.32892837  0.86567348  1
  Li  Li23  1  0.26972113  0.67107163  0.36567348  1
  Li  Li24  1  0.27220569  0.25000000  0.36524100  1
  Li  Li25  1  0.22779431  0.75000000  0.86524100  1
  Li  Li26  1  0.72779431  0.75000000  0.63475900  1
  Li  Li27  1  0.77220569  0.25000000  0.13475900  1
  Li  Li28  1  0.91308922  0.79117852  0.38519164  1
  Li  Li29  1  0.58691078  0.20882148  0.88519164  1
  Li  Li30  1  0.08691078  0.29117852  0.61480836  1
  Li  Li31  1  0.41308922  0.70882148  0.11480836  1
  Li  Li32  1  0.08691078  0.20882148  0.61480836  1
  Li  Li33  1  0.41308922  0.79117852  0.11480836  1
  Li  Li34  1  0.91308922  0.70882148  0.38519164  1
  Li  Li35  1  0.58691078  0.29117852  0.88519164  1
  Li  Li36  1  0.99448675  0.25000000  0.49320626  1
  Li  Li37  1  0.50551325  0.75000000  0.99320626  1
  Li  Li38  1  0.00551325  0.75000000  0.50679374  1
  Li  Li39  1  0.49448675  0.25000000  0.00679374  1
  Li  Li40  1  0.79331356  0.62479562  0.54933810  1
  Li  Li41  1  0.70668644  0.37520438  0.04933810  1
  Li  Li42  1  0.20668644  0.12479562  0.45066190  1
  Li  Li43  1  0.29331356  0.87520438  0.95066190  1
  Li  Li44  1  0.20668644  0.37520438  0.45066190  1
  Li  Li45  1  0.29331356  0.62479562  0.95066190  1
  Li  Li46  1  0.79331356  0.87520438  0.54933810  1
  Li  Li47  1  0.70668644  0.12479562  0.04933810  1
  Li  Li48  1  0.23442176  0.12510115  0.96468619  1
  Li  Li49  1  0.26557824  0.87489885  0.46468619  1
  Li  Li50  1  0.76557824  0.62510115  0.03531381  1
  Li  Li51  1  0.73442176  0.37489885  0.53531381  1
  Li  Li52  1  0.76557824  0.87489885  0.03531381  1
  Li  Li53  1  0.73442176  0.12510115  0.53531381  1
  Li  Li54  1  0.23442176  0.37489885  0.96468619  1
  Li  Li55  1  0.26557824  0.62510115  0.46468619  1
  Li  Li56  1  0.13599694  0.85289724  0.46988187  1
  Li  Li57  1  0.36400306  0.14710276  0.96988187  1
  Li  Li58  1  0.86400306  0.35289724  0.53011813  1
  Li  Li59  1  0.63599694  0.64710276  0.03011813  1
  Li  Li60  1  0.86400306  0.14710276  0.53011813  1
  Li  Li61  1  0.63599694  0.85289724  0.03011813  1
  Li  Li62  1  0.13599694  0.64710276  0.46988187  1
  Li  Li63  1  0.36400306  0.35289724  0.96988187  1
  Li  Li64  1  0.15836614  0.25000000  0.70140134  1
  Li  Li65  1  0.34163386  0.75000000  0.20140134  1
  Li  Li66  1  0.84163386  0.75000000  0.29859866  1
  Li  Li67  1  0.65836614  0.25000000  0.79859866  1
  Li  Li68  1  0.85386520  0.56222070  0.11280021  1
  Li  Li69  1  0.64613480  0.43777930  0.61280021  1
  Li  Li70  1  0.14613480  0.06222070  0.88719979  1
  Li  Li71  1  0.35386520  0.93777930  0.38719979  1
  Li  Li72  1  0.14613480  0.43777930  0.88719979  1
  Li  Li73  1  0.35386520  0.56222070  0.38719979  1
  Li  Li74  1  0.85386520  0.93777930  0.11280021  1
  Li  Li75  1  0.64613480  0.06222070  0.61280021  1
  Li  Li76  1  0.68042153  0.42163720  0.73695259  1
  Li  Li77  1  0.81957847  0.57836280  0.23695259  1
  Li  Li78  1  0.31957847  0.92163720  0.26304741  1
  Li  Li79  1  0.18042153  0.07836280  0.76304741  1
  Li  Li80  1  0.31957847  0.57836280  0.26304741  1
  Li  Li81  1  0.18042153  0.42163720  0.76304741  1
  Li  Li82  1  0.68042153  0.07836280  0.73695259  1
  Li  Li83  1  0.81957847  0.92163720  0.23695259  1
  Li  Li84  1  0.78299613  0.03320054  0.55506416  1
  Li  Li85  1  0.71700387  0.96679946  0.05506416  1
  Li  Li86  1  0.21700387  0.53320054  0.44493584  1
  Li  Li87  1  0.28299613  0.46679946  0.94493584  1
  Li  Li88  1  0.21700387  0.96679946  0.44493584  1
  Li  Li89  1  0.28299613  0.03320054  0.94493584  1
  Li  Li90  1  0.78299613  0.46679946  0.55506416  1
  Li  Li91  1  0.71700387  0.53320054  0.05506416  1
  Li  Li92  1  0.93878094  0.25000000  0.33490459  1
  Li  Li93  1  0.56121906  0.75000000  0.83490459  1
  Li  Li94  1  0.06121906  0.75000000  0.66509541  1
  Li  Li95  1  0.43878094  0.25000000  0.16509541  1
  Li  Li96  1  0.62404524  0.39858876  0.29656735  1
  Li  Li97  1  0.87595476  0.60141124  0.79656735  1
  Li  Li98  1  0.37595476  0.89858876  0.70343265  1
  Li  Li99  1  0.12404524  0.10141124  0.20343265  1
  Li  Li100  1  0.37595476  0.60141124  0.70343265  1
  Li  Li101  1  0.12404524  0.39858876  0.20343265  1
  Li  Li102  1  0.62404524  0.10141124  0.29656735  1
  Li  Li103  1  0.87595476  0.89858876  0.79656735  1
  Li  Li104  1  0.52415428  0.07795374  0.39123381  1
  Li  Li105  1  0.97584572  0.92204626  0.89123381  1
  Li  Li106  1  0.47584572  0.57795374  0.60876619  1
  Li  Li107  1  0.02415428  0.42204626  0.10876619  1
  Li  Li108  1  0.47584572  0.92204626  0.60876619  1
  Li  Li109  1  0.02415428  0.07795374  0.10876619  1
  Li  Li110  1  0.52415428  0.42204626  0.39123381  1
  Li  Li111  1  0.97584572  0.57795374  0.89123381  1
  O  O112  1  0.21923201  0.79488085  0.20125001  1
  O  O113  1  0.28076799  -0.79488085  0.70125001  1
  O  O114  1  -0.21923201  1.29488085  -0.20125001  1
  O  O115  1  0.71923201  -0.29488085  0.29874999  1
  O  O116  1  -0.21923201  -0.79488085  -0.20125001  1
  O  O117  1  0.71923201  0.79488085  0.29874999  1
  O  O118  1  0.21923201  -0.29488085  0.20125001  1
  O  O119  1  0.28076799  1.29488085  0.70125001  1
  O  O120  1  0.96277699  0.37822752  0.88455538  1
  O  O121  1  0.53722301  0.62177248  0.38455538  1
  O  O122  1  0.03722301  0.87822752  0.11544462  1
  O  O123  1  0.46277699  0.12177248  0.61544462  1
  O  O124  1  0.03722301  0.62177248  0.11544462  1
  O  O125  1  0.46277699  0.37822752  0.61544462  1
  O  O126  1  0.96277699  0.12177248  0.88455538  1
  O  O127  1  0.53722301  0.87822752  0.38455538  1
  O  O128  1  0.00000000  0.00000000  0.00000000  1
  O  O129  1  0.50000000  -0.00000000  0.50000000  1
  O  O130  1  0.00000000  0.50000000  0.00000000  1
  O  O131  1  0.50000000  0.50000000  0.50000000  1
  O  O132  1  0.49539491  0.64052980  0.95802959  1
  O  O133  1  0.00460509  0.35947020  0.45802959  1
  O  O134  1  0.50460509  0.14052980  0.04197041  1
  O  O135  1  0.99539491  0.85947020  0.54197041  1
  O  O136  1  0.50460509  0.35947020  0.04197041  1
  O  O137  1  0.99539491  0.64052980  0.54197041  1
  O  O138  1  0.49539491  0.85947020  0.95802959  1
  O  O139  1  0.00460509  0.14052980  0.45802959  1
  O  O140  1  0.62322541  0.89259723  0.20311055  1
  O  O141  1  0.87677459  0.10740277  0.70311055  1
  O  O142  1  0.37677459  0.39259723  0.79688945  1
  O  O143  1  0.12322541  0.60740277  0.29688945  1
  O  O144  1  0.37677459  0.10740277  0.79688945  1
  O  O145  1  0.12322541  0.89259723  0.29688945  1
  O  O146  1  0.62322541  0.60740277  0.20311055  1
  O  O147  1  0.87677459  0.39259723  0.70311055  1
  O  O148  1  0.29448546  0.09549144  0.57211568  1
  O  O149  1  0.20551454  0.90450856  0.07211568  1
  O  O150  1  0.70551454  0.59549144  0.42788432  1
  O  O151  1  0.79448546  0.40450856  0.92788432  1
  O  O152  1  0.70551454  0.90450856  0.42788432  1
  O  O153  1  0.79448546  0.09549144  0.92788432  1
  O  O154  1  0.29448546  0.40450856  0.57211568  1
  O  O155  1  0.20551454  0.59549144  0.07211568  1
  O  O156  1  0.92889175  0.94720431  0.34719977  1
  O  O157  1  0.57110825  0.05279569  0.84719977  1
  O  O158  1  0.07110825  0.44720431  0.65280023  1
  O  O159  1  0.42889175  0.55279569  0.15280023  1
  O  O160  1  0.07110825  0.05279569  0.65280023  1
  O  O161  1  0.42889175  0.94720431  0.15280023  1
  O  O162  1  0.92889175  0.55279569  0.34719977  1
  O  O163  1  0.57110825  0.44720431  0.84719977  1
  O  O164  1  0.09484195  0.56527654  0.96075994  1
  O  O165  1  0.40515805  0.43472346  0.46075994  1
  O  O166  1  0.90515805  0.06527654  0.03924006  1
  O  O167  1  0.59484195  0.93472346  0.53924006  1
  O  O168  1  0.90515805  0.43472346  0.03924006  1
  O  O169  1  0.59484195  0.56527654  0.53924006  1
  O  O170  1  0.09484195  0.93472346  0.96075994  1
  O  O171  1  0.40515805  0.06527654  0.46075994  1
  O  O172  1  0.30913468  0.25000000  0.58831424  1
  O  O173  1  0.19086532  0.75000000  0.08831424  1
  O  O174  1  0.69086532  0.75000000  0.41168576  1
  O  O175  1  0.80913468  0.25000000  0.91168576  1
  O  O176  1  0.09040506  0.77898250  0.57940472  1
  O  O177  1  0.40959494  0.22101750  0.07940472  1
  O  O178  1  0.90959494  0.27898250  0.42059528  1
  O  O179  1  0.59040506  0.72101750  0.92059528  1
  O  O180  1  0.90959494  0.22101750  0.42059528  1
  O  O181  1  0.59040506  0.77898250  0.92059528  1
  O  O182  1  0.09040506  0.72101750  0.57940472  1
  O  O183  1  0.40959494  0.27898250  0.07940472  1
