# generated using pymatgen
data_LiF
_symmetry_space_group_name_H-M   'P 1'
_cell_length_a   11.67512585
_cell_length_b   11.64406370
_cell_length_c   6.04109874
_cell_angle_alpha   90.00000000
_cell_angle_beta   90.00000000
_cell_angle_gamma   90.00000000
_symmetry_Int_Tables_number   1
_chemical_formula_structural   LiF
_chemical_formula_sum   'Li24 F24'
_cell_volume   821.26266087
_cell_formula_units_Z   24
loop_
 _symmetry_equiv_pos_site_id
 _symmetry_equiv_pos_as_xyz
  1  'x, y, z'
loop_
 _atom_site_type_symbol
 _atom_site_label
 _atom_site_symmetry_multiplicity
 _atom_site_fract_x
 _atom_site_fract_y
 _atom_site_fract_z
 _atom_site_occupancy
  F  F0  1  0.85584154  0.59539144  0.64502305  1
  F  F1  1  0.64415846  0.40460856  0.14502305  1
  F  F2  1  0.14415846  0.09539144  0.35497695  1
  F  F3  1  0.35584154  0.90460856  0.85497695  1
  F  F4  1  0.14415846  0.40460856  0.35497695  1
  F  F5  1  0.35584154  0.59539144  0.85497695  1
  F  F6  1  0.85584154  0.90460856  0.64502305  1
  F  F7  1  0.64415846  0.09539144  0.14502305  1
  F  F8  1  0.12882814  0.58163710  0.13744011  1
  F  F9  1  0.37117186  0.41836290  0.63744011  1
  F  F10  1  0.87117186  0.08163710  0.86255989  1
  F  F11  1  0.62882814  0.91836290  0.36255989  1
  F  F12  1  0.87117186  0.41836290  0.86255989  1
  F  F13  1  0.62882814  0.58163710  0.36255989  1
  F  F14  1  0.12882814  0.91836290  0.13744011  1
  F  F15  1  0.37117186  0.08163710  0.63744011  1
  F  F16  1  0.93015005  0.90405369  0.20470044  1
  F  F17  1  0.56984995  0.09594631  0.70470044  1
  F  F18  1  0.06984995  0.40405369  0.79529956  1
  F  F19  1  0.43015005  0.59594631  0.29529956  1
  F  F20  1  0.06984995  0.09594631  0.79529956  1
  F  F21  1  0.43015005  0.90405369  0.29529956  1
  F  F22  1  0.93015005  0.59594631  0.20470044  1
  F  F23  1  0.56984995  0.40405369  0.70470044  1
  Li  Li24  1  0.84119888  0.61582249  0.83324088  1
  Li  Li25  1  -0.34119888  -0.61582249  1.33324088  1
  Li  Li26  1  -0.84119888  1.11582249  -0.83324088  1
  Li  Li27  1  1.34119888  -0.11582249  -0.33324088  1
  Li  Li28  1  -0.84119888  -0.61582249  -0.83324088  1
  Li  Li29  1  1.34119888  0.61582249  -0.33324088  1
  Li  Li30  1  0.84119888  -0.11582249  0.83324088  1
  Li  Li31  1  -0.34119888  1.11582249  1.33324088  1
  Li  Li32  1  0.46009369  0.46049454  0.30190351  1
  Li  Li33  1  0.03990631  0.53950546  0.80190351  1
  Li  Li34  1  0.53990631  0.96049454  0.69809649  1
  Li  Li35  1  0.96009369  0.03950546  0.19809649  1
  Li  Li36  1  0.53990631  0.53950546  0.69809649  1
  Li  Li37  1  0.96009369  0.46049454  0.19809649  1
  Li  Li38  1  0.46009369  0.03950546  0.30190351  1
  Li  Li39  1  0.03990631  0.96049454  0.80190351  1
  Li  Li40  1  0.35323520  0.41959054  0.11282121  1
  Li  Li41  1  0.14676480  0.58040946  0.61282121  1
  Li  Li42  1  0.64676480  0.91959054  0.88717879  1
  Li  Li43  1  0.85323520  0.08040946  0.38717879  1
  Li  Li44  1  0.64676480  0.58040946  0.88717879  1
  Li  Li45  1  0.85323520  0.41959054  0.38717879  1
  Li  Li46  1  0.35323520  0.08040946  0.11282121  1
  Li  Li47  1  0.14676480  0.91959054  0.61282121  1
