# generated using pymatgen
data_LiF
_symmetry_space_group_name_H-M   'P 1'
_cell_length_a   12.74825325
_cell_length_b   4.13433098
_cell_length_c   7.21922013
_cell_angle_alpha   90.00000000
_cell_angle_beta   90.00000000
_cell_angle_gamma   90.00000000
_symmetry_Int_Tables_number   1
_chemical_formula_structural   LiF
_chemical_formula_sum   'Li24 F24'
_cell_volume   380.49259521
_cell_formula_units_Z   24
loop_
 _symmetry_equiv_pos_site_id
 _symmetry_equiv_pos_as_xyz
  1  'x, y, z'
loop_
 _atom_site_type_symbol
 _atom_site_label
 _atom_site_symmetry_multiplicity
 _atom_site_fract_x
 _atom_site_fract_y
 _atom_site_fract_z
 _atom_site_occupancy
  F  F0  1  0.03096180  0.99917032  0.62133636  1
  F  F1  1  0.46903820  0.00082968  0.12133636  1
  F  F2  1  0.96903820  0.49917032  0.37866364  1
  F  F3  1  0.53096180  0.50082968  0.87866364  1
  F  F4  1  0.96903820  0.00082968  0.37866364  1
  F  F5  1  0.53096180  0.99917032  0.87866364  1
  F  F6  1  0.03096180  0.50082968  0.62133636  1
  F  F7  1  0.46903820  0.49917032  0.12133636  1
  F  F8  1  0.30185239  0.25000000  0.93938303  1
  F  F9  1  0.19814761  0.75000000  0.43938303  1
  F  F10  1  0.69814761  0.75000000  0.06061697  1
  F  F11  1  0.80185239  0.25000000  0.56061697  1
  F  F12  1  0.73363287  0.50485799  0.64632718  1
  F  F13  1  0.76636713  0.49514201  0.14632718  1
  F  F14  1  0.26636713  0.00485799  0.35367282  1
  F  F15  1  0.23363287  0.99514201  0.85367282  1
  F  F16  1  0.26636713  0.49514201  0.35367282  1
  F  F17  1  0.23363287  0.50485799  0.85367282  1
  F  F18  1  0.73363287  0.99514201  0.64632718  1
  F  F19  1  0.76636713  0.00485799  0.14632718  1
  F  F20  1  0.93161606  0.25000000  0.53962773  1
  F  F21  1  0.56838394  0.75000000  0.03962773  1
  F  F22  1  0.06838394  0.75000000  0.46037227  1
  F  F23  1  0.43161606  0.25000000  0.96037227  1
  Li  Li24  1  0.00000000  0.00000000  0.00000000  1
  Li  Li25  1  0.50000000  -0.00000000  0.50000000  1
  Li  Li26  1  0.00000000  0.50000000  0.00000000  1
  Li  Li27  1  0.50000000  0.50000000  0.50000000  1
  Li  Li28  1  0.62785279  0.90795403  0.29594501  1
  Li  Li29  1  -0.12785279  -0.90795403  0.79594501  1
  Li  Li30  1  -0.62785279  1.40795403  -0.29594501  1
  Li  Li31  1  1.12785279  -0.40795403  0.20405499  1
  Li  Li32  1  -0.62785279  -0.90795403  -0.29594501  1
  Li  Li33  1  1.12785279  0.90795403  0.20405499  1
  Li  Li34  1  0.62785279  -0.40795403  0.29594501  1
  Li  Li35  1  -0.12785279  1.40795403  0.79594501  1
  Li  Li36  1  0.89645862  0.49574809  0.47008189  1
  Li  Li37  1  0.60354138  0.50425191  0.97008189  1
  Li  Li38  1  0.10354138  0.99574809  0.52991811  1
  Li  Li39  1  0.39645862  0.00425191  0.02991811  1
  Li  Li40  1  0.10354138  0.50425191  0.52991811  1
  Li  Li41  1  0.39645862  0.49574809  0.02991811  1
  Li  Li42  1  0.89645862  0.00425191  0.47008189  1
  Li  Li43  1  0.60354138  0.99574809  0.97008189  1
  Li  Li44  1  0.21300932  0.25000000  0.65925822  1
  Li  Li45  1  0.28699068  0.75000000  0.15925822  1
  Li  Li46  1  0.78699068  0.75000000  0.34074178  1
  Li  Li47  1  0.71300932  0.25000000  0.84074178  1
