# generated using pymatgen
data_LiF
_symmetry_space_group_name_H-M   'P 1'
_cell_length_a   6.48054650
_cell_length_b   7.66927917
_cell_length_c   11.46096580
_cell_angle_alpha   90.00000000
_cell_angle_beta   90.00000000
_cell_angle_gamma   90.00000000
_symmetry_Int_Tables_number   1
_chemical_formula_structural   LiF
_chemical_formula_sum   'Li24 F24'
_cell_volume   569.62283987
_cell_formula_units_Z   24
loop_
 _symmetry_equiv_pos_site_id
 _symmetry_equiv_pos_as_xyz
  1  'x, y, z'
loop_
 _atom_site_type_symbol
 _atom_site_label
 _atom_site_symmetry_multiplicity
 _atom_site_fract_x
 _atom_site_fract_y
 _atom_site_fract_z
 _atom_site_occupancy
  F  F0  1  0.94034158  0.77135429  0.50000000  1
  F  F1  1  0.05965842  0.22864571  0.50000000  1
  F  F2  1  0.55965842  0.27135429  0.50000000  1
  F  F3  1  0.44034158  0.72864571  0.50000000  1
  F  F4  1  0.37527223  0.65156017  0.00000000  1
  F  F5  1  0.62472777  0.34843983  -0.00000000  1
  F  F6  1  0.12472777  0.15156017  -0.00000000  1
  F  F7  1  0.87527223  0.84843983  -0.00000000  1
  F  F8  1  0.13146687  0.34869211  0.57036342  1
  F  F9  1  -0.13146687  -0.34869211  0.57036342  1
  F  F10  1  0.36853313  0.84869211  -0.57036342  1
  F  F11  1  0.63146687  0.15130789  -0.57036342  1
  F  F12  1  -0.13146687  -0.34869211  -0.57036342  1
  F  F13  1  0.13146687  0.34869211  -0.57036342  1
  F  F14  1  0.63146687  0.15130789  0.57036342  1
  F  F15  1  0.36853313  0.84869211  0.57036342  1
  F  F16  1  0.44642470  0.65426106  0.91225578  1
  F  F17  1  0.55357530  0.34573894  0.91225578  1
  F  F18  1  0.05357530  0.15426106  0.08774422  1
  F  F19  1  0.94642470  0.84573894  0.08774422  1
  F  F20  1  0.55357530  0.34573894  0.08774422  1
  F  F21  1  0.44642470  0.65426106  0.08774422  1
  F  F22  1  0.94642470  0.84573894  0.91225578  1
  F  F23  1  0.05357530  0.15426106  0.91225578  1
  Li  Li24  1  0.00000000  0.00000000  0.00000000  1
  Li  Li25  1  0.50000000  0.50000000  0.00000000  1
  Li  Li26  1  0.00000000  0.50000000  0.50000000  1
  Li  Li27  1  0.50000000  -0.00000000  0.50000000  1
  Li  Li28  1  0.15034330  0.85369983  0.15805267  1
  Li  Li29  1  0.84965670  0.14630017  0.15805267  1
  Li  Li30  1  0.34965670  0.35369983  0.84194733  1
  Li  Li31  1  0.65034330  0.64630017  0.84194733  1
  Li  Li32  1  0.84965670  0.14630017  0.84194733  1
  Li  Li33  1  0.15034330  0.85369983  0.84194733  1
  Li  Li34  1  0.65034330  0.64630017  0.15805267  1
  Li  Li35  1  0.34965670  0.35369983  0.15805267  1
  Li  Li36  1  0.03742534  0.88512617  0.62763186  1
  Li  Li37  1  0.96257466  0.11487383  0.62763186  1
  Li  Li38  1  0.46257466  0.38512617  0.37236814  1
  Li  Li39  1  0.53742534  0.61487383  0.37236814  1
  Li  Li40  1  0.96257466  0.11487383  0.37236814  1
  Li  Li41  1  0.03742534  0.88512617  0.37236814  1
  Li  Li42  1  0.53742534  0.61487383  0.62763186  1
  Li  Li43  1  0.46257466  0.38512617  0.62763186  1
  Li  Li44  1  0.59272329  0.12460623  -0.00000000  1
  Li  Li45  1  0.40727671  0.87539377  0.00000000  1
  Li  Li46  1  0.90727671  0.62460623  0.00000000  1
  Li  Li47  1  0.09272329  0.37539377  -0.00000000  1
