# generated using pymatgen
data_LiF
_symmetry_space_group_name_H-M   'P 1'
_cell_length_a   10.75231709
_cell_length_b   10.75231709
_cell_length_c   10.75231709
_cell_angle_alpha   90.00000000
_cell_angle_beta   90.00000000
_cell_angle_gamma   90.00000000
_symmetry_Int_Tables_number   1
_chemical_formula_structural   LiF
_chemical_formula_sum   'Li64 F64'
_cell_volume   1243.10035337
_cell_formula_units_Z   64
loop_
 _symmetry_equiv_pos_site_id
 _symmetry_equiv_pos_as_xyz
  1  'x, y, z'
loop_
 _atom_site_type_symbol
 _atom_site_label
 _atom_site_symmetry_multiplicity
 _atom_site_fract_x
 _atom_site_fract_y
 _atom_site_fract_z
 _atom_site_occupancy
  F  F0  1  0.83073911  0.80488274  0.93986388  1
  F  F1  1  -0.33073911  -0.80488274  1.43986388  1
  F  F2  1  -0.83073911  1.30488274  -0.43986388  1
  F  F3  1  1.33073911  -0.30488274  -0.93986388  1
  F  F4  1  0.93986388  0.83073911  0.80488274  1
  F  F5  1  1.43986388  -0.33073911  -0.80488274  1
  F  F6  1  -0.43986388  -0.83073911  1.30488274  1
  F  F7  1  -0.93986388  1.33073911  -0.30488274  1
  F  F8  1  0.80488274  0.93986388  0.83073911  1
  F  F9  1  -0.80488274  1.43986388  -0.33073911  1
  F  F10  1  1.30488274  -0.43986388  -0.83073911  1
  F  F11  1  -0.30488274  -0.93986388  1.33073911  1
  F  F12  1  1.55488274  1.08073911  -0.68986388  1
  F  F13  1  -0.05488274  -0.08073911  -0.18986388  1
  F  F14  1  1.05488274  -0.58073911  1.68986388  1
  F  F15  1  -0.55488274  1.58073911  1.18986388  1
  F  F16  1  1.58073911  1.18986388  -0.55488274  1
  F  F17  1  -0.58073911  1.68986388  1.05488274  1
  F  F18  1  -0.08073911  -0.18986388  -0.05488274  1
  F  F19  1  1.08073911  -0.68986388  1.55488274  1
  F  F20  1  1.68986388  1.05488274  -0.58073911  1
  F  F21  1  1.18986388  -0.55488274  1.58073911  1
  F  F22  1  -0.68986388  1.55488274  1.08073911  1
  F  F23  1  -0.18986388  -0.05488274  -0.08073911  1
  F  F24  1  1.33073911  1.30488274  1.43986388  1
  F  F25  1  0.16926089  -0.30488274  1.93986388  1
  F  F26  1  -0.33073911  1.80488274  0.06013612  1
  F  F27  1  1.83073911  0.19511726  -0.43986388  1
  F  F28  1  1.43986388  1.33073911  1.30488274  1
  F  F29  1  1.93986388  0.16926089  -0.30488274  1
  F  F30  1  0.06013612  -0.33073911  1.80488274  1
  F  F31  1  -0.43986388  1.83073911  0.19511726  1
  F  F32  1  1.30488274  1.43986388  1.33073911  1
  F  F33  1  -0.30488274  1.93986388  0.16926089  1
  F  F34  1  1.80488274  0.06013612  -0.33073911  1
  F  F35  1  0.19511726  -0.43986388  1.83073911  1
  F  F36  1  2.05488274  1.58073911  -0.18986388  1
  F  F37  1  0.44511726  0.41926089  0.31013612  1
  F  F38  1  1.55488274  -0.08073911  2.18986388  1
  F  F39  1  -0.05488274  2.08073911  1.68986388  1
  F  F40  1  2.08073911  1.68986388  -0.05488274  1
  F  F41  1  -0.08073911  2.18986388  1.55488274  1
  F  F42  1  0.41926089  0.31013612  0.44511726  1
  F  F43  1  1.58073911  -0.18986388  2.05488274  1
  F  F44  1  2.18986388  1.55488274  -0.08073911  1
  F  F45  1  1.68986388  -0.05488274  2.08073911  1
  F  F46  1  -0.18986388  2.05488274  1.58073911  1
  F  F47  1  0.31013612  0.44511726  0.41926089  1
  F  F48  1  0.87500000  0.87500000  0.87500000  1
  F  F49  1  0.62500000  0.12500000  0.37500000  1
  F  F50  1  0.12500000  0.37500000  0.62500000  1
  F  F51  1  0.37500000  0.62500000  0.12500000  1
  F  F52  1  0.37500000  0.37500000  0.37500000  1
  F  F53  1  0.12500000  0.62500000  0.87500000  1
  F  F54  1  0.62500000  0.87500000  0.12500000  1
  F  F55  1  0.87500000  0.12500000  0.62500000  1
  F  F56  1  0.12500000  0.12500000  0.12500000  1
  F  F57  1  0.37500000  0.87500000  0.62500000  1
  F  F58  1  0.87500000  0.62500000  0.37500000  1
  F  F59  1  0.62500000  0.37500000  0.87500000  1
  F  F60  1  0.62500000  0.62500000  0.62500000  1
  F  F61  1  0.87500000  0.37500000  0.12500000  1
  F  F62  1  0.37500000  0.12500000  0.87500000  1
  F  F63  1  0.12500000  0.87500000  0.37500000  1
  Li  Li64  1  0.05122649  0.41160915  0.91809196  1
  Li  Li65  1  0.44877351  0.58839085  0.41809196  1
  Li  Li66  1  0.94877351  0.91160915  0.58190804  1
  Li  Li67  1  0.55122649  0.08839085  0.08190804  1
  Li  Li68  1  0.91809196  0.05122649  0.41160915  1
  Li  Li69  1  0.41809196  0.44877351  0.58839085  1
  Li  Li70  1  0.58190804  0.94877351  0.91160915  1
  Li  Li71  1  0.08190804  0.55122649  0.08839085  1
  Li  Li72  1  0.41160915  0.91809196  0.05122649  1
  Li  Li73  1  0.58839085  0.41809196  0.44877351  1
  Li  Li74  1  0.91160915  0.58190804  0.94877351  1
  Li  Li75  1  0.08839085  0.08190804  0.55122649  1
  Li  Li76  1  0.16160915  0.30122649  0.33190804  1
  Li  Li77  1  0.33839085  0.69877351  0.83190804  1
  Li  Li78  1  0.66160915  0.19877351  0.66809196  1
  Li  Li79  1  0.83839085  0.80122649  0.16809196  1
  Li  Li80  1  0.80122649  0.16809196  0.83839085  1
  Li  Li81  1  0.19877351  0.66809196  0.66160915  1
  Li  Li82  1  0.69877351  0.83190804  0.33839085  1
  Li  Li83  1  0.30122649  0.33190804  0.16160915  1
  Li  Li84  1  0.66809196  0.66160915  0.19877351  1
  Li  Li85  1  0.16809196  0.83839085  0.80122649  1
  Li  Li86  1  0.33190804  0.16160915  0.30122649  1
  Li  Li87  1  0.83190804  0.33839085  0.69877351  1
  Li  Li88  1  0.55122649  0.91160915  0.41809196  1
  Li  Li89  1  0.94877351  0.08839085  0.91809196  1
  Li  Li90  1  0.44877351  0.41160915  0.08190804  1
  Li  Li91  1  0.05122649  0.58839085  0.58190804  1
  Li  Li92  1  0.41809196  0.55122649  0.91160915  1
  Li  Li93  1  0.91809196  0.94877351  0.08839085  1
  Li  Li94  1  0.08190804  0.44877351  0.41160915  1
  Li  Li95  1  0.58190804  0.05122649  0.58839085  1
  Li  Li96  1  0.91160915  0.41809196  0.55122649  1
  Li  Li97  1  0.08839085  0.91809196  0.94877351  1
  Li  Li98  1  0.41160915  0.08190804  0.44877351  1
  Li  Li99  1  0.58839085  0.58190804  0.05122649  1
  Li  Li100  1  0.66160915  0.80122649  0.83190804  1
  Li  Li101  1  0.83839085  0.19877351  0.33190804  1
  Li  Li102  1  0.16160915  0.69877351  0.16809196  1
  Li  Li103  1  0.33839085  0.30122649  0.66809196  1
  Li  Li104  1  0.30122649  0.66809196  0.33839085  1
  Li  Li105  1  0.69877351  0.16809196  0.16160915  1
  Li  Li106  1  0.19877351  0.33190804  0.83839085  1
  Li  Li107  1  0.80122649  0.83190804  0.66160915  1
  Li  Li108  1  0.16809196  0.16160915  0.69877351  1
  Li  Li109  1  0.66809196  0.33839085  0.30122649  1
  Li  Li110  1  0.83190804  0.66160915  0.80122649  1
  Li  Li111  1  0.33190804  0.83839085  0.19877351  1
  Li  Li112  1  0.22092013  0.22092013  0.22092013  1
  Li  Li113  1  0.27907987  0.77907987  0.72092013  1
  Li  Li114  1  0.77907987  0.72092013  0.27907987  1
  Li  Li115  1  0.72092013  0.27907987  0.77907987  1
  Li  Li116  1  0.97092013  0.47092013  0.02907987  1
  Li  Li117  1  0.52907987  0.52907987  0.52907987  1
  Li  Li118  1  0.47092013  0.02907987  0.97092013  1
  Li  Li119  1  0.02907987  0.97092013  0.47092013  1
  Li  Li120  1  0.72092013  0.72092013  0.72092013  1
  Li  Li121  1  0.77907987  0.27907987  0.22092013  1
  Li  Li122  1  0.27907987  0.22092013  0.77907987  1
  Li  Li123  1  0.22092013  0.77907987  0.27907987  1
  Li  Li124  1  0.47092013  0.97092013  0.52907987  1
  Li  Li125  1  0.02907987  0.02907987  0.02907987  1
  Li  Li126  1  0.97092013  0.52907987  0.47092013  1
  Li  Li127  1  0.52907987  0.47092013  0.97092013  1
