# generated using pymatgen
data_Li2Si4Te3F12
_symmetry_space_group_name_H-M   'P 1'
_cell_length_a   10.53711688
_cell_length_b   8.75714395
_cell_length_c   16.47804709
_cell_angle_alpha   90.00000000
_cell_angle_beta   90.00000000
_cell_angle_gamma   90.00000000
_symmetry_Int_Tables_number   1
_chemical_formula_structural   Li2Si4Te3F12
_chemical_formula_sum   'Li8 Si16 Te12 F48'
_cell_volume   1520.51260833
_cell_formula_units_Z   4
loop_
 _symmetry_equiv_pos_site_id
 _symmetry_equiv_pos_as_xyz
  1  'x, y, z'
loop_
 _atom_site_type_symbol
 _atom_site_label
 _atom_site_symmetry_multiplicity
 _atom_site_fract_x
 _atom_site_fract_y
 _atom_site_fract_z
 _atom_site_occupancy
  F  F0  1  0.91494964  0.58212098  0.56267340  1
  F  F1  1  0.08505036  0.41787902  0.56267340  1
  F  F2  1  0.58505036  0.08212098  0.43732660  1
  F  F3  1  0.41494964  0.91787902  0.43732660  1
  F  F4  1  0.08505036  0.41787902  0.43732660  1
  F  F5  1  0.91494964  0.58212098  0.43732660  1
  F  F6  1  0.41494964  0.91787902  0.56267340  1
  F  F7  1  0.58505036  0.08212098  0.56267340  1
  F  F8  1  0.00000000  0.00000000  0.60024406  1
  F  F9  1  0.50000000  0.50000000  0.39975594  1
  F  F10  1  0.00000000  0.00000000  0.39975594  1
  F  F11  1  0.50000000  0.50000000  0.60024406  1
  F  F12  1  0.25567800  0.69529449  0.52804024  1
  F  F13  1  0.74432200  0.30470551  0.52804024  1
  F  F14  1  0.24432200  0.19529449  0.47195976  1
  F  F15  1  0.75567800  0.80470551  0.47195976  1
  F  F16  1  0.74432200  0.30470551  0.47195976  1
  F  F17  1  0.25567800  0.69529449  0.47195976  1
  F  F18  1  0.75567800  0.80470551  0.52804024  1
  F  F19  1  0.24432200  0.19529449  0.52804024  1
  F  F20  1  0.78650687  0.37800196  0.93988006  1
  F  F21  1  0.21349313  0.62199804  0.93988006  1
  F  F22  1  0.71349313  0.87800196  0.06011994  1
  F  F23  1  0.28650687  0.12199804  0.06011994  1
  F  F24  1  0.21349313  0.62199804  0.06011994  1
  F  F25  1  0.78650687  0.37800196  0.06011994  1
  F  F26  1  0.28650687  0.12199804  0.93988006  1
  F  F27  1  0.71349313  0.87800196  0.93988006  1
  F  F28  1  0.01586282  0.05637240  0.71770349  1
  F  F29  1  0.98413718  0.94362760  0.71770349  1
  F  F30  1  0.48413718  0.55637240  0.28229651  1
  F  F31  1  0.51586282  0.44362760  0.28229651  1
  F  F32  1  0.98413718  0.94362760  0.28229651  1
  F  F33  1  0.01586282  0.05637240  0.28229651  1
  F  F34  1  0.51586282  0.44362760  0.71770349  1
  F  F35  1  0.48413718  0.55637240  0.71770349  1
  F  F36  1  0.35411395  0.94234197  0.50000000  1
  F  F37  1  0.64588605  0.05765803  0.50000000  1
  F  F38  1  0.14588605  0.44234197  0.50000000  1
  F  F39  1  0.85411395  0.55765803  0.50000000  1
  F  F40  1  0.36253695  0.63658060  0.03622577  1
  F  F41  1  0.63746305  0.36341940  0.03622577  1
  F  F42  1  0.13746305  0.13658060  0.96377423  1
  F  F43  1  0.86253695  0.86341940  0.96377423  1
  F  F44  1  0.63746305  0.36341940  0.96377423  1
  F  F45  1  0.36253695  0.63658060  0.96377423  1
  F  F46  1  0.86253695  0.86341940  0.03622577  1
  F  F47  1  0.13746305  0.13658060  0.03622577  1
  Li  Li48  1  0.14052440  0.81266682  0.50000000  1
  Li  Li49  1  0.85947560  0.18733318  0.50000000  1
  Li  Li50  1  0.35947560  0.31266682  0.50000000  1
  Li  Li51  1  0.64052440  0.68733318  0.50000000  1
  Li  Li52  1  0.00000000  0.50000000  0.00000000  1
  Li  Li53  1  0.50000000  0.00000000  0.00000000  1
  Li  Li54  1  0.00000000  0.00000000  0.00000000  1
  Li  Li55  1  0.50000000  0.50000000  0.00000000  1
  Si  Si56  1  0.09235013  0.13683225  0.33660664  1
  Si  Si57  1  -0.09235013  -0.13683225  0.33660664  1
  Si  Si58  1  0.40764987  0.63683225  -0.33660664  1
  Si  Si59  1  0.59235013  0.36316775  -0.33660664  1
  Si  Si60  1  -0.09235013  -0.13683225  -0.33660664  1
  Si  Si61  1  0.09235013  0.13683225  -0.33660664  1
  Si  Si62  1  0.59235013  0.36316775  0.33660664  1
  Si  Si63  1  0.40764987  0.63683225  0.33660664  1
  Si  Si64  1  0.27010687  0.51624746  0.00000000  1
  Si  Si65  1  0.72989313  0.48375254  0.00000000  1
  Si  Si66  1  0.22989313  0.01624746  -0.00000000  1
  Si  Si67  1  0.77010687  0.98375254  -0.00000000  1
  Si  Si68  1  0.00000000  0.50000000  0.50000000  1
  Si  Si69  1  0.50000000  0.00000000  0.50000000  1
  Si  Si70  1  0.00000000  0.00000000  0.50000000  1
  Si  Si71  1  0.50000000  0.50000000  0.50000000  1
  Te  Te72  1  0.00000000  0.50000000  0.41292203  1
  Te  Te73  1  0.50000000  0.00000000  0.58707797  1
  Te  Te74  1  0.00000000  0.50000000  0.58707797  1
  Te  Te75  1  0.50000000  0.00000000  0.41292203  1
  Te  Te76  1  0.08239146  0.68389411  0.00000000  1
  Te  Te77  1  0.91760854  0.31610589  0.00000000  1
  Te  Te78  1  0.41760854  0.18389411  0.00000000  1
  Te  Te79  1  0.58239146  0.81610589  0.00000000  1
  Te  Te80  1  0.00000000  0.50000000  0.10548448  1
  Te  Te81  1  0.50000000  0.00000000  0.89451552  1
  Te  Te82  1  0.00000000  0.50000000  0.89451552  1
  Te  Te83  1  0.50000000  0.00000000  0.10548448  1
