# generated using pymatgen
data_LiF
_symmetry_space_group_name_H-M   'P 1'
_cell_length_a   5.26324403
_cell_length_b   11.50746804
_cell_length_c   9.56475752
_cell_angle_alpha   90.00000000
_cell_angle_beta   90.00000000
_cell_angle_gamma   90.00000000
_symmetry_Int_Tables_number   1
_chemical_formula_structural   LiF
_chemical_formula_sum   'Li24 F24'
_cell_volume   579.30496126
_cell_formula_units_Z   24
loop_
 _symmetry_equiv_pos_site_id
 _symmetry_equiv_pos_as_xyz
  1  'x, y, z'
loop_
 _atom_site_type_symbol
 _atom_site_label
 _atom_site_symmetry_multiplicity
 _atom_site_fract_x
 _atom_site_fract_y
 _atom_site_fract_z
 _atom_site_occupancy
  F  F0  1  0.91518150  0.70683814  0.95258758  1
  F  F1  1  0.58481850  0.29316186  0.45258758  1
  F  F2  1  0.08481850  0.20683814  0.04741242  1
  F  F3  1  0.41518150  0.79316186  0.54741242  1
  F  F4  1  0.08481850  0.29316186  0.04741242  1
  F  F5  1  0.41518150  0.70683814  0.54741242  1
  F  F6  1  0.91518150  0.79316186  0.95258758  1
  F  F7  1  0.58481850  0.20683814  0.45258758  1
  F  F8  1  0.14232425  0.46628910  0.78567442  1
  F  F9  1  0.35767575  0.53371090  0.28567442  1
  F  F10  1  0.85767575  0.96628910  0.21432558  1
  F  F11  1  0.64232425  0.03371090  0.71432558  1
  F  F12  1  0.85767575  0.53371090  0.21432558  1
  F  F13  1  0.64232425  0.46628910  0.71432558  1
  F  F14  1  0.14232425  0.03371090  0.78567442  1
  F  F15  1  0.35767575  0.96628910  0.28567442  1
  F  F16  1  0.50115807  0.06572149  0.06898689  1
  F  F17  1  0.99884193  0.93427851  0.56898689  1
  F  F18  1  0.49884193  0.56572149  0.93101311  1
  F  F19  1  0.00115807  0.43427851  0.43101311  1
  F  F20  1  0.49884193  0.93427851  0.93101311  1
  F  F21  1  0.00115807  0.06572149  0.43101311  1
  F  F22  1  0.50115807  0.43427851  0.06898689  1
  F  F23  1  0.99884193  0.56572149  0.56898689  1
  Li  Li24  1  0.07505593  0.52255115  0.25941626  1
  Li  Li25  1  0.42494407  -0.52255115  0.75941626  1
  Li  Li26  1  -0.07505593  1.02255115  -0.25941626  1
  Li  Li27  1  0.57505593  -0.02255115  0.24058374  1
  Li  Li28  1  -0.07505593  -0.52255115  -0.25941626  1
  Li  Li29  1  0.57505593  0.52255115  0.24058374  1
  Li  Li30  1  0.07505593  -0.02255115  0.25941626  1
  Li  Li31  1  0.42494407  1.02255115  0.75941626  1
  Li  Li32  1  0.20824349  0.50336222  0.39791004  1
  Li  Li33  1  0.29175651  0.49663778  0.89791004  1
  Li  Li34  1  0.79175651  0.00336222  0.60208996  1
  Li  Li35  1  0.70824349  0.99663778  0.10208996  1
  Li  Li36  1  0.79175651  0.49663778  0.60208996  1
  Li  Li37  1  0.70824349  0.50336222  0.10208996  1
  Li  Li38  1  0.20824349  0.99663778  0.39791004  1
  Li  Li39  1  0.29175651  0.00336222  0.89791004  1
  Li  Li40  1  0.00000000  0.00000000  0.00000000  1
  Li  Li41  1  0.50000000  0.00000000  0.50000000  1
  Li  Li42  1  0.00000000  0.50000000  0.00000000  1
  Li  Li43  1  0.50000000  0.50000000  0.50000000  1
  Li  Li44  1  0.00000000  0.00000000  0.50000000  1
  Li  Li45  1  0.50000000  0.00000000  0.00000000  1
  Li  Li46  1  0.00000000  0.50000000  0.50000000  1
  Li  Li47  1  0.50000000  0.50000000  0.00000000  1
