# generated using pymatgen
data_LiF
_symmetry_space_group_name_H-M   'P 1'
_cell_length_a   6.72577458
_cell_length_b   6.72577458
_cell_length_c   32.16815491
_cell_angle_alpha   90.00000000
_cell_angle_beta   90.00000000
_cell_angle_gamma   120.00000000
_symmetry_Int_Tables_number   1
_chemical_formula_structural   LiF
_chemical_formula_sum   'Li52 F52'
_cell_volume   1260.20557937
_cell_formula_units_Z   52
loop_
 _symmetry_equiv_pos_site_id
 _symmetry_equiv_pos_as_xyz
  1  'x, y, z'
loop_
 _atom_site_type_symbol
 _atom_site_label
 _atom_site_symmetry_multiplicity
 _atom_site_fract_x
 _atom_site_fract_y
 _atom_site_fract_z
 _atom_site_occupancy
  F  F0  1  0.32220016  0.76178590  0.48761254  1
  F  F1  1  0.23821410  0.56041426  0.48761254  1
  F  F2  1  0.43958574  0.67779984  0.48761254  1
  F  F3  1  0.23821410  0.67779984  0.51238746  1
  F  F4  1  0.43958574  0.76178590  0.51238746  1
  F  F5  1  0.32220016  0.56041426  0.51238746  1
  F  F6  1  0.33333333  0.66666667  0.66993437  1
  F  F7  1  0.33333333  0.66666667  0.33006563  1
  F  F8  1  0.69979066  0.39160249  0.77647213  1
  F  F9  1  0.60839751  0.30818817  0.77647213  1
  F  F10  1  0.69181183  0.30020934  0.77647213  1
  F  F11  1  0.60839751  0.30020934  0.22352787  1
  F  F12  1  0.69181183  0.39160249  0.22352787  1
  F  F13  1  0.69979066  0.30818817  0.22352787  1
  F  F14  1  0.66666667  0.33333333  0.10667210  1
  F  F15  1  0.66666667  0.33333333  0.89332790  1
  F  F16  1  0.60063786  0.64319312  0.91124716  1
  F  F17  1  0.35680688  0.95744474  0.91124716  1
  F  F18  1  0.04255526  0.39936214  0.91124716  1
  F  F19  1  0.35680688  0.39936214  0.08875284  1
  F  F20  1  0.04255526  0.64319312  0.08875284  1
  F  F21  1  0.60063786  0.95744474  0.08875284  1
  F  F22  1  0.29287754  0.79545566  0.87015822  1
  F  F23  1  0.20454434  0.49742188  0.87015822  1
  F  F24  1  0.50257812  0.70712246  0.87015822  1
  F  F25  1  0.20454434  0.70712246  0.12984178  1
  F  F26  1  0.50257812  0.79545566  0.12984178  1
  F  F27  1  0.29287754  0.49742188  0.12984178  1
  F  F28  1  0.22430005  0.30368923  0.81425503  1
  F  F29  1  0.69631077  0.92061082  0.81425503  1
  F  F30  1  0.07938918  0.77569995  0.81425503  1
  F  F31  1  0.69631077  0.77569995  0.18574497  1
  F  F32  1  0.07938918  0.30368923  0.18574497  1
  F  F33  1  0.22430005  0.92061082  0.18574497  1
  F  F34  1  0.01657255  0.26151368  0.95556930  1
  F  F35  1  0.73848632  0.75505886  0.95556930  1
  F  F36  1  0.24494114  0.98342745  0.95556930  1
  F  F37  1  0.73848632  0.98342745  0.04443070  1
  F  F38  1  0.24494114  0.26151368  0.04443070  1
  F  F39  1  0.01657255  0.75505886  0.04443070  1
  F  F40  1  0.35755683  0.80717298  0.61046303  1
  F  F41  1  0.19282702  0.55038385  0.61046303  1
  F  F42  1  0.44961615  0.64244317  0.61046303  1
  F  F43  1  0.19282702  0.64244317  0.38953697  1
  F  F44  1  0.44961615  0.80717298  0.38953697  1
  F  F45  1  0.35755683  0.55038385  0.38953697  1
  F  F46  1  0.67545957  0.53132968  0.09229543  1
  F  F47  1  0.46867032  0.14412989  0.09229543  1
  F  F48  1  0.85587011  0.32454043  0.09229543  1
  F  F49  1  0.46867032  0.32454043  0.90770457  1
  F  F50  1  0.85587011  0.53132968  0.90770457  1
  F  F51  1  0.67545957  0.14412989  0.90770457  1
  Li  Li52  1  0.83960814  0.12419162  0.02728295  1
  Li  Li53  1  -0.12419162  0.71541652  0.02728295  1
  Li  Li54  1  -0.71541652  -0.83960814  0.02728295  1
  Li  Li55  1  -0.12419162  -0.83960814  -0.02728295  1
  Li  Li56  1  -0.71541652  0.12419162  -0.02728295  1
  Li  Li57  1  0.83960814  0.71541652  -0.02728295  1
  Li  Li58  1  0.50183903  0.11398658  0.16864542  1
  Li  Li59  1  0.88601342  0.38785246  0.16864542  1
  Li  Li60  1  0.61214754  0.49816097  0.16864542  1
  Li  Li61  1  0.88601342  0.49816097  0.83135458  1
  Li  Li62  1  0.61214754  0.11398658  0.83135458  1
  Li  Li63  1  0.50183903  0.38785246  0.83135458  1
  Li  Li64  1  0.17810251  0.82189749  -0.00000000  1
  Li  Li65  1  0.17810251  0.35620501  0.00000000  1
  Li  Li66  1  0.64379499  0.82189749  0.00000000  1
  Li  Li67  1  0.33333333  0.66666667  0.45516683  1
  Li  Li68  1  0.33333333  0.66666667  0.54483317  1
  Li  Li69  1  0.33333333  0.66666667  0.00000000  1
  Li  Li70  1  0.20048503  0.24476250  0.70632618  1
  Li  Li71  1  0.75523750  0.95572253  0.70632618  1
  Li  Li72  1  0.04427747  0.79951497  0.70632618  1
  Li  Li73  1  0.75523750  0.79951497  0.29367382  1
  Li  Li74  1  0.04427747  0.24476250  0.29367382  1
  Li  Li75  1  0.20048503  0.95572253  0.29367382  1
  Li  Li76  1  0.00000000  0.00000000  0.00000000  1
  Li  Li77  1  0.76663181  0.19057366  0.67013692  1
  Li  Li78  1  0.80942634  0.57605815  0.67013692  1
  Li  Li79  1  0.42394185  0.23336819  0.67013692  1
  Li  Li80  1  0.80942634  0.23336819  0.32986308  1
  Li  Li81  1  0.42394185  0.19057366  0.32986308  1
  Li  Li82  1  0.76663181  0.57605815  0.32986308  1
  Li  Li83  1  0.23397911  0.86177538  0.78140713  1
  Li  Li84  1  0.13822462  0.37220374  0.78140713  1
  Li  Li85  1  0.62779626  0.76602089  0.78140713  1
  Li  Li86  1  0.13822462  0.76602089  0.21859287  1
  Li  Li87  1  0.62779626  0.86177538  0.21859287  1
  Li  Li88  1  0.23397911  0.37220374  0.21859287  1
  Li  Li89  1  0.64051530  0.56308737  0.29441458  1
  Li  Li90  1  0.43691263  0.07742793  0.29441458  1
  Li  Li91  1  0.92257207  0.35948470  0.29441458  1
  Li  Li92  1  0.43691263  0.35948470  0.70558542  1
  Li  Li93  1  0.92257207  0.56308737  0.70558542  1
  Li  Li94  1  0.64051530  0.07742793  0.70558542  1
  Li  Li95  1  0.20065920  0.66720899  0.04191921  1
  Li  Li96  1  0.33279101  0.53345021  0.04191921  1
  Li  Li97  1  0.46654979  0.79934080  0.04191921  1
  Li  Li98  1  0.33279101  0.79934080  0.95808079  1
  Li  Li99  1  0.46654979  0.66720899  0.95808079  1
  Li  Li100  1  0.20065920  0.53345021  0.95808079  1
  Li  Li101  1  0.50692356  0.49307644  0.00000000  1
  Li  Li102  1  0.50692356  0.01384711  0.00000000  1
  Li  Li103  1  0.98615289  0.49307644  0.00000000  1
