# generated using pymatgen
data_Li2Y2AsP4
_symmetry_space_group_name_H-M   'P 1'
_cell_length_a   3.53883285
_cell_length_b   3.83810521
_cell_length_c   6.50752889
_cell_angle_alpha   97.32976243
_cell_angle_beta   105.43415086
_cell_angle_gamma   116.87217113
_symmetry_Int_Tables_number   1
_chemical_formula_structural   Li2Y2AsP4
_chemical_formula_sum   'Li2 Y2 As1 P4'
_cell_volume   72.77387598
_cell_formula_units_Z   1
loop_
 _symmetry_equiv_pos_site_id
 _symmetry_equiv_pos_as_xyz
  1  'x, y, z'
loop_
 _atom_site_type_symbol
 _atom_site_label
 _atom_site_symmetry_multiplicity
 _atom_site_fract_x
 _atom_site_fract_y
 _atom_site_fract_z
 _atom_site_occupancy
  P  P0  1  0.12500000  0.12500000  0.12500000  1
  P  P1  1  0.50000000  0.50000000  0.50000000  1
  P  P2  1  0.25000000  0.25000000  0.25000000  1
  P  P3  1  0.75000000  0.75000000  0.75000000  1
  As  As4  1  0.76213412  0.56040305  0.26714063  1
  Li  Li5  1  0.29555700  0.97865126  0.14262707  1
  Li  Li6  1  0.74310077  0.33454051  0.46071560  1
  Y  Y7  1  0.60483983  0.14214453  0.58928587  1
  Y  Y8  1  0.58509492  0.14559732  0.35397525  1
