# generated using pymatgen
data_LiF
_symmetry_space_group_name_H-M   'P 1'
_cell_length_a   5.52059481
_cell_length_b   10.12659054
_cell_length_c   7.33097015
_cell_angle_alpha   90.00000000
_cell_angle_beta   90.00000000
_cell_angle_gamma   90.00000000
_symmetry_Int_Tables_number   1
_chemical_formula_structural   LiF
_chemical_formula_sum   'Li14 F14'
_cell_volume   409.83644369
_cell_formula_units_Z   14
loop_
 _symmetry_equiv_pos_site_id
 _symmetry_equiv_pos_as_xyz
  1  'x, y, z'
loop_
 _atom_site_type_symbol
 _atom_site_label
 _atom_site_symmetry_multiplicity
 _atom_site_fract_x
 _atom_site_fract_y
 _atom_site_fract_z
 _atom_site_occupancy
  F  F0  1  0.00000000  0.00000000  0.86273065  1
  F  F1  1  0.50000000  0.50000000  0.13726935  1
  F  F2  1  0.00000000  0.00000000  0.13726935  1
  F  F3  1  0.50000000  0.50000000  0.86273065  1
  F  F4  1  0.00000000  0.00000000  0.67766776  1
  F  F5  1  0.50000000  0.50000000  0.32233224  1
  F  F6  1  0.00000000  0.00000000  0.32233224  1
  F  F7  1  0.50000000  0.50000000  0.67766776  1
  F  F8  1  0.62990494  0.19324816  0.50000000  1
  F  F9  1  0.37009506  0.80675184  0.50000000  1
  F  F10  1  0.87009506  0.69324816  0.50000000  1
  F  F11  1  0.12990494  0.30675184  0.50000000  1
  F  F12  1  0.00000000  0.00000000  0.00000000  1
  F  F13  1  0.50000000  0.50000000  0.00000000  1
  Li  Li14  1  0.46282154  0.20551278  0.50000000  1
  Li  Li15  1  0.53717846  0.79448722  0.50000000  1
  Li  Li16  1  0.03717846  0.70551278  0.50000000  1
  Li  Li17  1  0.96282154  0.29448722  0.50000000  1
  Li  Li18  1  0.00000000  0.00000000  0.50000000  1
  Li  Li19  1  0.50000000  0.50000000  0.50000000  1
  Li  Li20  1  0.23704714  0.28923663  0.65836622  1
  Li  Li21  1  -0.23704714  -0.28923663  0.65836622  1
  Li  Li22  1  0.26295286  0.78923663  -0.65836622  1
  Li  Li23  1  0.73704714  0.21076337  -0.65836622  1
  Li  Li24  1  -0.23704714  -0.28923663  -0.65836622  1
  Li  Li25  1  0.23704714  0.28923663  -0.65836622  1
  Li  Li26  1  0.73704714  0.21076337  0.65836622  1
  Li  Li27  1  0.26295286  0.78923663  0.65836622  1
