# generated using pymatgen
data_LiF
_symmetry_space_group_name_H-M   'P 1'
_cell_length_a   13.67192557
_cell_length_b   5.59130158
_cell_length_c   7.74140823
_cell_angle_alpha   90.00000000
_cell_angle_beta   90.00000000
_cell_angle_gamma   90.00000000
_symmetry_Int_Tables_number   1
_chemical_formula_structural   LiF
_chemical_formula_sum   'Li24 F24'
_cell_volume   591.78311914
_cell_formula_units_Z   24
loop_
 _symmetry_equiv_pos_site_id
 _symmetry_equiv_pos_as_xyz
  1  'x, y, z'
loop_
 _atom_site_type_symbol
 _atom_site_label
 _atom_site_symmetry_multiplicity
 _atom_site_fract_x
 _atom_site_fract_y
 _atom_site_fract_z
 _atom_site_occupancy
  F  F0  1  0.11604439  0.19325780  0.21088016  1
  F  F1  1  0.38395561  0.80674220  0.71088016  1
  F  F2  1  0.88395561  0.69325780  0.78911984  1
  F  F3  1  0.61604439  0.30674220  0.28911984  1
  F  F4  1  0.88395561  0.80674220  0.78911984  1
  F  F5  1  0.61604439  0.19325780  0.28911984  1
  F  F6  1  0.11604439  0.30674220  0.21088016  1
  F  F7  1  0.38395561  0.69325780  0.71088016  1
  F  F8  1  0.42153066  0.18490632  0.83543037  1
  F  F9  1  0.07846934  0.81509368  0.33543037  1
  F  F10  1  0.57846934  0.68490632  0.16456963  1
  F  F11  1  0.92153066  0.31509368  0.66456963  1
  F  F12  1  0.57846934  0.81509368  0.16456963  1
  F  F13  1  0.92153066  0.18490632  0.66456963  1
  F  F14  1  0.42153066  0.31509368  0.83543037  1
  F  F15  1  0.07846934  0.68490632  0.33543037  1
  F  F16  1  0.44205049  0.53261781  0.77031093  1
  F  F17  1  0.05794951  0.46738219  0.27031093  1
  F  F18  1  0.55794951  0.03261781  0.22968907  1
  F  F19  1  0.94205049  0.96738219  0.72968907  1
  F  F20  1  0.55794951  0.46738219  0.22968907  1
  F  F21  1  0.94205049  0.53261781  0.72968907  1
  F  F22  1  0.44205049  0.96738219  0.77031093  1
  F  F23  1  0.05794951  0.03261781  0.27031093  1
  Li  Li24  1  0.69810548  0.43574167  0.01109877  1
  Li  Li25  1  -0.19810548  -0.43574167  0.51109877  1
  Li  Li26  1  -0.69810548  0.93574167  -0.01109877  1
  Li  Li27  1  1.19810548  0.06425833  0.48890123  1
  Li  Li28  1  -0.69810548  -0.43574167  -0.01109877  1
  Li  Li29  1  1.19810548  0.43574167  0.48890123  1
  Li  Li30  1  0.69810548  0.06425833  0.01109877  1
  Li  Li31  1  -0.19810548  0.93574167  0.51109877  1
  Li  Li32  1  0.31709460  0.25000000  0.03309615  1
  Li  Li33  1  0.18290540  0.75000000  0.53309615  1
  Li  Li34  1  0.68290540  0.75000000  0.96690385  1
  Li  Li35  1  0.81709460  0.25000000  0.46690385  1
  Li  Li36  1  0.55085480  0.25000000  0.45628378  1
  Li  Li37  1  0.94914520  0.75000000  0.95628378  1
  Li  Li38  1  0.44914520  0.75000000  0.54371622  1
  Li  Li39  1  0.05085480  0.25000000  0.04371622  1
  Li  Li40  1  0.53746814  0.09944717  0.05382993  1
  Li  Li41  1  0.96253186  0.90055283  0.55382993  1
  Li  Li42  1  0.46253186  0.59944717  0.94617007  1
  Li  Li43  1  0.03746814  0.40055283  0.44617007  1
  Li  Li44  1  0.46253186  0.90055283  0.94617007  1
  Li  Li45  1  0.03746814  0.09944717  0.44617007  1
  Li  Li46  1  0.53746814  0.40055283  0.05382993  1
  Li  Li47  1  0.96253186  0.59944717  0.55382993  1
