# generated using pymatgen
data_Li5Ti3P2BrO3
_symmetry_space_group_name_H-M   'P 1'
_cell_length_a   7.73227430
_cell_length_b   7.44320918
_cell_length_c   7.07545050
_cell_angle_alpha   90.00000000
_cell_angle_beta   90.00000000
_cell_angle_gamma   90.00000000
_symmetry_Int_Tables_number   1
_chemical_formula_structural   Li5Ti3P2BrO3
_chemical_formula_sum   'Li5 Ti3 P2 Br1 O3'
_cell_volume   407.21294324
_cell_formula_units_Z   1
loop_
 _symmetry_equiv_pos_site_id
 _symmetry_equiv_pos_as_xyz
  1  'x, y, z'
loop_
 _atom_site_type_symbol
 _atom_site_label
 _atom_site_symmetry_multiplicity
 _atom_site_fract_x
 _atom_site_fract_y
 _atom_site_fract_z
 _atom_site_occupancy
  Ti  Ti0  1  0.00000000  0.00000000  0.00000000  1
  Ti  Ti1  1  0.50000000  0.50000000  0.50000000  1
  Ti  Ti2  1  0.25000000  0.25000000  0.25000000  1
  P  P3  1  0.75000000  0.25000000  0.00000000  1
  P  P4  1  0.25000000  0.75000000  0.50000000  1
  Br  Br5  1  0.57527933  0.11622015  0.04956001  1
  O  O6  1  0.40391776  0.93649975  0.33155908  1
  O  O7  1  0.07961303  0.67833174  0.85188713  1
  O  O8  1  0.33648340  0.23185548  0.91347473  1
  Li  Li9  1  0.47050783  0.62624987  0.67752805  1
  Li  Li10  1  0.37274084  0.19507453  0.90429719  1
  Li  Li11  1  0.90377426  0.65899481  0.68053297  1
  Li  Li12  1  0.03208456  0.08972472  0.85736470  1
  Li  Li13  1  0.69594627  0.54955886  0.10862609  1
