# generated using pymatgen
data_LiCaF3
_symmetry_space_group_name_H-M   'P 1'
_cell_length_a   7.54349416
_cell_length_b   7.54349416
_cell_length_c   30.14162211
_cell_angle_alpha   90.00000000
_cell_angle_beta   90.00000000
_cell_angle_gamma   120.00000000
_symmetry_Int_Tables_number   1
_chemical_formula_structural   LiCaF3
_chemical_formula_sum   'Li18 Ca18 F54'
_cell_volume   1485.39640933
_cell_formula_units_Z   18
loop_
 _symmetry_equiv_pos_site_id
 _symmetry_equiv_pos_as_xyz
  1  'x, y, z'
loop_
 _atom_site_type_symbol
 _atom_site_label
 _atom_site_symmetry_multiplicity
 _atom_site_fract_x
 _atom_site_fract_y
 _atom_site_fract_z
 _atom_site_occupancy
  Ca  Ca0  1  0.33333333  0.66666667  0.00000000  1
  Ca  Ca1  1  0.66666667  0.33333333  0.00000000  1
  Ca  Ca2  1  0.81675555  0.00000000  0.90790763  1
  Ca  Ca3  1  0.00000000  0.81675555  0.90790763  1
  Ca  Ca4  1  0.18324445  0.18324445  0.90790763  1
  Ca  Ca5  1  0.81675555  0.00000000  0.09209237  1
  Ca  Ca6  1  0.00000000  0.81675555  0.09209237  1
  Ca  Ca7  1  0.18324445  0.18324445  0.09209237  1
  Ca  Ca8  1  0.75918931  0.00000000  0.50000000  1
  Ca  Ca9  1  0.00000000  0.75918931  0.50000000  1
  Ca  Ca10  1  0.24081069  0.24081069  0.50000000  1
  Ca  Ca11  1  0.00000000  0.00000000  0.19695825  1
  Ca  Ca12  1  0.00000000  0.00000000  0.80304175  1
  Ca  Ca13  1  0.00000000  0.00000000  0.00000000  1
  Ca  Ca14  1  0.33333333  0.66666667  0.50000000  1
  Ca  Ca15  1  0.66666667  0.33333333  0.50000000  1
  Ca  Ca16  1  0.00000000  0.00000000  0.72573584  1
  Ca  Ca17  1  0.00000000  0.00000000  0.27426416  1
  F  F18  1  0.71227878  0.22389548  0.06651465  1
  F  F19  1  -0.22389548  0.48838330  0.06651465  1
  F  F20  1  -0.48838330  -0.71227878  0.06651465  1
  F  F21  1  0.71227878  0.22389548  -0.06651465  1
  F  F22  1  -0.22389548  0.48838330  -0.06651465  1
  F  F23  1  -0.48838330  -0.71227878  -0.06651465  1
  F  F24  1  0.22389548  0.71227878  -0.06651465  1
  F  F25  1  0.48838330  -0.22389548  -0.06651465  1
  F  F26  1  -0.71227878  -0.48838330  -0.06651465  1
  F  F27  1  0.22389548  0.71227878  0.06651465  1
  F  F28  1  0.48838330  -0.22389548  0.06651465  1
  F  F29  1  -0.71227878  -0.48838330  0.06651465  1
  F  F30  1  0.45006043  0.51866812  0.82164235  1
  F  F31  1  0.48133188  0.93139231  0.82164235  1
  F  F32  1  0.06860769  0.54993957  0.82164235  1
  F  F33  1  0.45006043  0.51866812  0.17835765  1
  F  F34  1  0.48133188  0.93139231  0.17835765  1
  F  F35  1  0.06860769  0.54993957  0.17835765  1
  F  F36  1  0.51866812  0.45006043  0.17835765  1
  F  F37  1  0.93139231  0.48133188  0.17835765  1
  F  F38  1  0.54993957  0.06860769  0.17835765  1
  F  F39  1  0.51866812  0.45006043  0.82164235  1
  F  F40  1  0.93139231  0.48133188  0.82164235  1
  F  F41  1  0.54993957  0.06860769  0.82164235  1
  F  F42  1  0.41994206  0.00000000  0.70897119  1
  F  F43  1  0.00000000  0.41994206  0.70897119  1
  F  F44  1  0.58005794  0.58005794  0.70897119  1
  F  F45  1  0.41994206  0.00000000  0.29102881  1
  F  F46  1  0.00000000  0.41994206  0.29102881  1
  F  F47  1  0.58005794  0.58005794  0.29102881  1
  F  F48  1  0.12542129  0.00000000  0.76106253  1
  F  F49  1  0.00000000  0.12542129  0.76106253  1
  F  F50  1  0.87457871  0.87457871  0.76106253  1
  F  F51  1  0.12542129  0.00000000  0.23893747  1
  F  F52  1  0.00000000  0.12542129  0.23893747  1
  F  F53  1  0.87457871  0.87457871  0.23893747  1
  F  F54  1  0.63729262  0.80671620  0.50000000  1
  F  F55  1  0.19328380  0.83057643  0.50000000  1
  F  F56  1  0.16942357  0.36270738  0.50000000  1
  F  F57  1  0.80671620  0.63729262  0.50000000  1
  F  F58  1  0.83057643  0.19328380  0.50000000  1
  F  F59  1  0.36270738  0.16942357  0.50000000  1
  F  F60  1  0.45079762  0.94446697  0.19839015  1
  F  F61  1  0.05553303  0.50633066  0.19839015  1
  F  F62  1  0.49366934  0.54920238  0.19839015  1
  F  F63  1  0.45079762  0.94446697  0.80160985  1
  F  F64  1  0.05553303  0.50633066  0.80160985  1
  F  F65  1  0.49366934  0.54920238  0.80160985  1
  F  F66  1  0.94446697  0.45079762  0.80160985  1
  F  F67  1  0.50633066  0.05553303  0.80160985  1
  F  F68  1  0.54920238  0.49366934  0.80160985  1
  F  F69  1  0.94446697  0.45079762  0.19839015  1
  F  F70  1  0.50633066  0.05553303  0.19839015  1
  F  F71  1  0.54920238  0.49366934  0.19839015  1
  Li  Li72  1  0.33333333  0.66666667  0.23364836  1
  Li  Li73  1  0.33333333  0.66666667  0.76635164  1
  Li  Li74  1  0.66666667  0.33333333  0.76635164  1
  Li  Li75  1  0.66666667  0.33333333  0.23364836  1
  Li  Li76  1  0.68284125  0.00000000  0.78055545  1
  Li  Li77  1  0.00000000  0.68284125  0.78055545  1
  Li  Li78  1  0.31715875  0.31715875  0.78055545  1
  Li  Li79  1  0.68284125  0.00000000  0.21944455  1
  Li  Li80  1  0.00000000  0.68284125  0.21944455  1
  Li  Li81  1  0.31715875  0.31715875  0.21944455  1
  Li  Li82  1  0.00000000  0.00000000  0.14315110  1
  Li  Li83  1  0.00000000  0.00000000  0.85684890  1
  Li  Li84  1  0.74689106  0.00000000  0.70679014  1
  Li  Li85  1  0.00000000  0.74689106  0.70679014  1
  Li  Li86  1  0.25310894  0.25310894  0.70679014  1
  Li  Li87  1  0.74689106  0.00000000  0.29320986  1
  Li  Li88  1  0.00000000  0.74689106  0.29320986  1
  Li  Li89  1  0.25310894  0.25310894  0.29320986  1
