# generated using pymatgen
data_LiF
_symmetry_space_group_name_H-M   'P 1'
_cell_length_a   6.65692304
_cell_length_b   6.65692304
_cell_length_c   33.25310967
_cell_angle_alpha   90.00000000
_cell_angle_beta   90.00000000
_cell_angle_gamma   120.00000000
_symmetry_Int_Tables_number   1
_chemical_formula_structural   LiF
_chemical_formula_sum   'Li36 F36'
_cell_volume   1276.17422328
_cell_formula_units_Z   36
loop_
 _symmetry_equiv_pos_site_id
 _symmetry_equiv_pos_as_xyz
  1  'x, y, z'
loop_
 _atom_site_type_symbol
 _atom_site_label
 _atom_site_symmetry_multiplicity
 _atom_site_fract_x
 _atom_site_fract_y
 _atom_site_fract_z
 _atom_site_occupancy
  F  F0  1  0.53253703  0.72780354  0.03239576  1
  F  F1  1  -0.72780354  -0.19526651  0.03239576  1
  F  F2  1  0.19526651  -0.53253703  0.03239576  1
  F  F3  1  -0.53253703  -0.72780354  0.53239576  1
  F  F4  1  0.72780354  0.19526651  0.53239576  1
  F  F5  1  -0.19526651  0.53253703  0.53239576  1
  F  F6  1  -0.53253703  -0.72780354  -0.03239576  1
  F  F7  1  0.72780354  0.19526651  -0.03239576  1
  F  F8  1  -0.19526651  0.53253703  -0.03239576  1
  F  F9  1  0.53253703  0.72780354  0.46760424  1
  F  F10  1  -0.72780354  -0.19526651  0.46760424  1
  F  F11  1  0.19526651  -0.53253703  0.46760424  1
  F  F12  1  0.72354775  0.33809187  0.18964251  1
  F  F13  1  0.66190813  0.38545587  0.18964251  1
  F  F14  1  0.61454413  0.27645225  0.18964251  1
  F  F15  1  0.27645225  0.66190813  0.68964251  1
  F  F16  1  0.33809187  0.61454413  0.68964251  1
  F  F17  1  0.38545587  0.72354775  0.68964251  1
  F  F18  1  0.27645225  0.66190813  0.81035749  1
  F  F19  1  0.33809187  0.61454413  0.81035749  1
  F  F20  1  0.38545587  0.72354775  0.81035749  1
  F  F21  1  0.72354775  0.33809187  0.31035749  1
  F  F22  1  0.66190813  0.38545587  0.31035749  1
  F  F23  1  0.61454413  0.27645225  0.31035749  1
  F  F24  1  0.32103251  0.80503608  0.43242839  1
  F  F25  1  0.19496392  0.51599643  0.43242839  1
  F  F26  1  0.48400357  0.67896749  0.43242839  1
  F  F27  1  0.67896749  0.19496392  0.93242839  1
  F  F28  1  0.80503608  0.48400357  0.93242839  1
  F  F29  1  0.51599643  0.32103251  0.93242839  1
  F  F30  1  0.67896749  0.19496392  0.56757161  1
  F  F31  1  0.80503608  0.48400357  0.56757161  1
  F  F32  1  0.51599643  0.32103251  0.56757161  1
  F  F33  1  0.32103251  0.80503608  0.06757161  1
  F  F34  1  0.19496392  0.51599643  0.06757161  1
  F  F35  1  0.48400357  0.67896749  0.06757161  1
  Li  Li36  1  0.33333333  0.66666667  0.99051076  1
  Li  Li37  1  0.66666667  0.33333333  0.49051076  1
  Li  Li38  1  0.66666667  0.33333333  0.00948924  1
  Li  Li39  1  0.33333333  0.66666667  0.50948924  1
  Li  Li40  1  0.14720339  0.58752712  0.91517719  1
  Li  Li41  1  0.41247288  0.55967627  0.91517719  1
  Li  Li42  1  0.44032373  0.85279661  0.91517719  1
  Li  Li43  1  0.85279661  0.41247288  0.41517719  1
  Li  Li44  1  0.58752712  0.44032373  0.41517719  1
  Li  Li45  1  0.55967627  0.14720339  0.41517719  1
  Li  Li46  1  0.85279661  0.41247288  0.08482281  1
  Li  Li47  1  0.58752712  0.44032373  0.08482281  1
  Li  Li48  1  0.55967627  0.14720339  0.08482281  1
  Li  Li49  1  0.14720339  0.58752712  0.58482281  1
  Li  Li50  1  0.41247288  0.55967627  0.58482281  1
  Li  Li51  1  0.44032373  0.85279661  0.58482281  1
  Li  Li52  1  0.42494547  0.01375955  0.01911607  1
  Li  Li53  1  0.98624045  0.41118592  0.01911607  1
  Li  Li54  1  0.58881408  0.57505453  0.01911607  1
  Li  Li55  1  0.57505453  0.98624045  0.51911607  1
  Li  Li56  1  0.01375955  0.58881408  0.51911607  1
  Li  Li57  1  0.41118592  0.42494547  0.51911607  1
  Li  Li58  1  0.57505453  0.98624045  0.98088393  1
  Li  Li59  1  0.01375955  0.58881408  0.98088393  1
  Li  Li60  1  0.41118592  0.42494547  0.98088393  1
  Li  Li61  1  0.42494547  0.01375955  0.48088393  1
  Li  Li62  1  0.98624045  0.41118592  0.48088393  1
  Li  Li63  1  0.58881408  0.57505453  0.48088393  1
  Li  Li64  1  0.55105005  0.09911373  0.25000000  1
  Li  Li65  1  0.90088627  0.45193632  0.25000000  1
  Li  Li66  1  0.54806368  0.44894995  0.25000000  1
  Li  Li67  1  0.44894995  0.90088627  0.75000000  1
  Li  Li68  1  0.09911373  0.54806368  0.75000000  1
  Li  Li69  1  0.45193632  0.55105005  0.75000000  1
  Li  Li70  1  0.66666667  0.33333333  0.25000000  1
  Li  Li71  1  0.33333333  0.66666667  0.75000000  1
