# generated using pymatgen
data_LiF
_symmetry_space_group_name_H-M   'P 1'
_cell_length_a   9.43142459
_cell_length_b   9.30652248
_cell_length_c   8.78998119
_cell_angle_alpha   90.00000000
_cell_angle_beta   90.00000000
_cell_angle_gamma   90.00000000
_symmetry_Int_Tables_number   1
_chemical_formula_structural   LiF
_chemical_formula_sum   'Li24 F24'
_cell_volume   771.52974279
_cell_formula_units_Z   24
loop_
 _symmetry_equiv_pos_site_id
 _symmetry_equiv_pos_as_xyz
  1  'x, y, z'
loop_
 _atom_site_type_symbol
 _atom_site_label
 _atom_site_symmetry_multiplicity
 _atom_site_fract_x
 _atom_site_fract_y
 _atom_site_fract_z
 _atom_site_occupancy
  F  F0  1  0.92195796  0.25000000  0.87010817  1
  F  F1  1  0.57804204  0.75000000  0.37010817  1
  F  F2  1  0.07804204  0.75000000  0.12989183  1
  F  F3  1  0.42195796  0.25000000  0.62989183  1
  F  F4  1  0.76534932  0.58732746  0.82362125  1
  F  F5  1  0.73465068  0.41267254  0.32362125  1
  F  F6  1  0.23465068  0.08732746  0.17637875  1
  F  F7  1  0.26534932  0.91267254  0.67637875  1
  F  F8  1  0.23465068  0.41267254  0.17637875  1
  F  F9  1  0.26534932  0.58732746  0.67637875  1
  F  F10  1  0.76534932  0.91267254  0.82362125  1
  F  F11  1  0.73465068  0.08732746  0.32362125  1
  F  F12  1  0.85713677  0.52173700  0.56344114  1
  F  F13  1  0.64286323  0.47826300  0.06344114  1
  F  F14  1  0.14286323  0.02173700  0.43655886  1
  F  F15  1  0.35713677  0.97826300  0.93655886  1
  F  F16  1  0.14286323  0.47826300  0.43655886  1
  F  F17  1  0.35713677  0.52173700  0.93655886  1
  F  F18  1  0.85713677  0.97826300  0.56344114  1
  F  F19  1  0.64286323  0.02173700  0.06344114  1
  F  F20  1  0.00000000  0.00000000  0.00000000  1
  F  F21  1  0.50000000  0.00000000  0.50000000  1
  F  F22  1  0.00000000  0.50000000  0.00000000  1
  F  F23  1  0.50000000  0.50000000  0.50000000  1
  Li  Li24  1  0.36806521  0.55975048  0.81732818  1
  Li  Li25  1  0.13193479  -0.55975048  1.31732818  1
  Li  Li26  1  -0.36806521  1.05975048  -0.81732818  1
  Li  Li27  1  0.86806521  -0.05975048  -0.31732818  1
  Li  Li28  1  -0.36806521  -0.55975048  -0.81732818  1
  Li  Li29  1  0.86806521  0.55975048  -0.31732818  1
  Li  Li30  1  0.36806521  -0.05975048  0.81732818  1
  Li  Li31  1  0.13193479  1.05975048  1.31732818  1
  Li  Li32  1  0.00000000  0.00000000  0.50000000  1
  Li  Li33  1  0.50000000  0.00000000  0.00000000  1
  Li  Li34  1  0.00000000  0.50000000  0.50000000  1
  Li  Li35  1  0.50000000  0.50000000  0.00000000  1
  Li  Li36  1  0.66012639  0.25000000  0.68384922  1
  Li  Li37  1  0.83987361  0.75000000  0.18384922  1
  Li  Li38  1  0.33987361  0.75000000  0.31615078  1
  Li  Li39  1  0.16012639  0.25000000  0.81615078  1
  Li  Li40  1  0.55830219  0.66796419  0.11963884  1
  Li  Li41  1  0.94169781  0.33203581  0.61963884  1
  Li  Li42  1  0.44169781  0.16796419  0.88036116  1
  Li  Li43  1  0.05830219  0.83203581  0.38036116  1
  Li  Li44  1  0.44169781  0.33203581  0.88036116  1
  Li  Li45  1  0.05830219  0.66796419  0.38036116  1
  Li  Li46  1  0.55830219  0.83203581  0.11963884  1
  Li  Li47  1  0.94169781  0.16796419  0.61963884  1
