# generated using pymatgen
data_LiF
_symmetry_space_group_name_H-M   'P 1'
_cell_length_a   11.62420933
_cell_length_b   5.64411535
_cell_length_c   6.58710616
_cell_angle_alpha   90.00000000
_cell_angle_beta   90.00000000
_cell_angle_gamma   90.00000000
_symmetry_Int_Tables_number   1
_chemical_formula_structural   LiF
_chemical_formula_sum   'Li24 F24'
_cell_volume   432.16935311
_cell_formula_units_Z   24
loop_
 _symmetry_equiv_pos_site_id
 _symmetry_equiv_pos_as_xyz
  1  'x, y, z'
loop_
 _atom_site_type_symbol
 _atom_site_label
 _atom_site_symmetry_multiplicity
 _atom_site_fract_x
 _atom_site_fract_y
 _atom_site_fract_z
 _atom_site_occupancy
  F  F0  1  0.48281802  0.25000000  0.57895740  1
  F  F1  1  0.01718198  0.75000000  0.07895740  1
  F  F2  1  0.51718198  0.75000000  0.42104260  1
  F  F3  1  0.98281802  0.25000000  0.92104260  1
  F  F4  1  0.75925959  0.25000000  0.54053511  1
  F  F5  1  0.74074041  0.75000000  0.04053511  1
  F  F6  1  0.24074041  0.75000000  0.45946489  1
  F  F7  1  0.25925959  0.25000000  0.95946489  1
  F  F8  1  0.87120447  0.61468222  0.11358667  1
  F  F9  1  0.62879553  0.38531778  0.61358667  1
  F  F10  1  0.12879553  0.11468222  0.88641333  1
  F  F11  1  0.37120447  0.88531778  0.38641333  1
  F  F12  1  0.12879553  0.38531778  0.88641333  1
  F  F13  1  0.37120447  0.61468222  0.38641333  1
  F  F14  1  0.87120447  0.88531778  0.11358667  1
  F  F15  1  0.62879553  0.11468222  0.61358667  1
  F  F16  1  0.11100659  0.04088547  0.52003549  1
  F  F17  1  0.38899341  0.95911453  0.02003549  1
  F  F18  1  0.88899341  0.54088547  0.47996451  1
  F  F19  1  0.61100659  0.45911453  0.97996451  1
  F  F20  1  0.88899341  0.95911453  0.47996451  1
  F  F21  1  0.61100659  0.04088547  0.97996451  1
  F  F22  1  0.11100659  0.45911453  0.52003549  1
  F  F23  1  0.38899341  0.54088547  0.02003549  1
  Li  Li24  1  0.00000000  0.00000000  0.50000000  1
  Li  Li25  1  0.50000000  0.00000000  -0.00000000  1
  Li  Li26  1  0.00000000  0.50000000  0.50000000  1
  Li  Li27  1  0.50000000  0.50000000  0.00000000  1
  Li  Li28  1  0.10485414  0.25000000  0.11892096  1
  Li  Li29  1  0.39514586  0.75000000  0.61892096  1
  Li  Li30  1  0.89514586  0.75000000  0.88107904  1
  Li  Li31  1  0.60485414  0.25000000  0.38107904  1
  Li  Li32  1  0.19283264  0.25000000  0.70286718  1
  Li  Li33  1  0.30716736  0.75000000  0.20286718  1
  Li  Li34  1  0.80716736  0.75000000  0.29713282  1
  Li  Li35  1  0.69283264  0.25000000  0.79713282  1
  Li  Li36  1  0.52689966  0.48523920  0.76200165  1
  Li  Li37  1  -0.02689966  -0.48523920  1.26200165  1
  Li  Li38  1  -0.52689966  0.98523920  -0.76200165  1
  Li  Li39  1  1.02689966  0.01476080  -0.26200165  1
  Li  Li40  1  -0.52689966  -0.48523920  -0.76200165  1
  Li  Li41  1  1.02689966  0.48523920  -0.26200165  1
  Li  Li42  1  0.52689966  0.01476080  0.76200165  1
  Li  Li43  1  -0.02689966  0.98523920  1.26200165  1
  Li  Li44  1  0.00000000  0.00000000  0.00000000  1
  Li  Li45  1  0.50000000  0.00000000  0.50000000  1
  Li  Li46  1  0.00000000  0.50000000  0.00000000  1
  Li  Li47  1  0.50000000  0.50000000  0.50000000  1
