# generated using pymatgen
data_Li2Y2MoP3Se2
_symmetry_space_group_name_H-M   'P 1'
_cell_length_a   5.46427480
_cell_length_b   5.66159242
_cell_length_c   7.20340888
_cell_angle_alpha   94.16391711
_cell_angle_beta   99.06814580
_cell_angle_gamma   106.72480011
_symmetry_Int_Tables_number   1
_chemical_formula_structural   Li2Y2MoP3Se2
_chemical_formula_sum   'Li2 Y2 Mo1 P3 Se2'
_cell_volume   209.10789971
_cell_formula_units_Z   1
loop_
 _symmetry_equiv_pos_site_id
 _symmetry_equiv_pos_as_xyz
  1  'x, y, z'
loop_
 _atom_site_type_symbol
 _atom_site_label
 _atom_site_symmetry_multiplicity
 _atom_site_fract_x
 _atom_site_fract_y
 _atom_site_fract_z
 _atom_site_occupancy
  Se  Se0  1  0.00000000  0.00000000  0.00000000  1
  Se  Se1  1  0.50000000  0.50000000  0.50000000  1
  P  P2  1  0.50000000  0.50000000  0.00000000  1
  P  P3  1  0.50000000  0.00000000  0.50000000  1
  P  P4  1  0.00000000  0.50000000  0.50000000  1
  Mo  Mo5  1  0.57382452  0.72224824  0.49674561  1
  Li  Li6  1  0.73347333  0.65179699  0.32001508  1
  Li  Li7  1  0.37890494  0.39517023  0.12553487  1
  Y  Y8  1  0.82182940  0.41120569  0.67929426  1
  Y  Y9  1  0.72786776  0.70509622  0.36141534  1
