# generated using pymatgen
data_LiF
_symmetry_space_group_name_H-M   'P 1'
_cell_length_a   8.92638431
_cell_length_b   8.92638431
_cell_length_c   11.92361632
_cell_angle_alpha   90.00000000
_cell_angle_beta   90.00000000
_cell_angle_gamma   120.00000000
_symmetry_Int_Tables_number   1
_chemical_formula_structural   LiF
_chemical_formula_sum   'Li26 F26'
_cell_volume   822.79147936
_cell_formula_units_Z   26
loop_
 _symmetry_equiv_pos_site_id
 _symmetry_equiv_pos_as_xyz
  1  'x, y, z'
loop_
 _atom_site_type_symbol
 _atom_site_label
 _atom_site_symmetry_multiplicity
 _atom_site_fract_x
 _atom_site_fract_y
 _atom_site_fract_z
 _atom_site_occupancy
  F  F0  1  0.66666667  0.33333333  0.00000000  1
  F  F1  1  0.65356863  0.86816926  0.87443864  1
  F  F2  1  0.13183074  0.78539937  0.87443864  1
  F  F3  1  0.21460063  0.34643137  0.87443864  1
  F  F4  1  0.13183074  0.34643137  0.12556136  1
  F  F5  1  0.21460063  0.86816926  0.12556136  1
  F  F6  1  0.65356863  0.78539937  0.12556136  1
  F  F7  1  0.12304076  0.16912445  0.74151342  1
  F  F8  1  0.83087555  0.95391631  0.74151342  1
  F  F9  1  0.04608369  0.87695924  0.74151342  1
  F  F10  1  0.83087555  0.87695924  0.25848658  1
  F  F11  1  0.04608369  0.16912445  0.25848658  1
  F  F12  1  0.12304076  0.95391631  0.25848658  1
  F  F13  1  0.71436486  0.54705621  0.53734403  1
  F  F14  1  0.45294379  0.16730864  0.53734403  1
  F  F15  1  0.83269136  0.28563514  0.53734403  1
  F  F16  1  0.45294379  0.28563514  0.46265597  1
  F  F17  1  0.83269136  0.54705621  0.46265597  1
  F  F18  1  0.71436486  0.16730864  0.46265597  1
  F  F19  1  0.22604100  0.61585563  0.64634593  1
  F  F20  1  0.38414437  0.61018537  0.64634593  1
  F  F21  1  0.38981463  0.77395900  0.64634593  1
  F  F22  1  0.38414437  0.77395900  0.35365407  1
  F  F23  1  0.38981463  0.61585563  0.35365407  1
  F  F24  1  0.22604100  0.61018537  0.35365407  1
  F  F25  1  0.00000000  0.00000000  0.50000000  1
  Li  Li26  1  0.66666667  0.33333333  0.29344519  1
  Li  Li27  1  0.66666667  0.33333333  0.70655481  1
  Li  Li28  1  0.00000000  0.00000000  0.58365569  1
  Li  Li29  1  0.00000000  0.00000000  0.41634431  1
  Li  Li30  1  0.50718547  0.99075918  0.38699841  1
  Li  Li31  1  -0.99075918  -0.48357371  0.38699841  1
  Li  Li32  1  0.48357371  -0.50718547  0.38699841  1
  Li  Li33  1  -0.99075918  -0.50718547  -0.38699841  1
  Li  Li34  1  0.48357371  0.99075918  -0.38699841  1
  Li  Li35  1  0.50718547  -0.48357371  -0.38699841  1
  Li  Li36  1  0.58955069  0.13514805  0.92642850  1
  Li  Li37  1  0.86485195  0.45440263  0.92642850  1
  Li  Li38  1  0.54559737  0.41044931  0.92642850  1
  Li  Li39  1  0.86485195  0.41044931  0.07357150  1
  Li  Li40  1  0.54559737  0.13514805  0.07357150  1
  Li  Li41  1  0.58955069  0.45440263  0.07357150  1
  Li  Li42  1  0.85662937  0.14337063  0.00000000  1
  Li  Li43  1  0.85662937  0.71325874  0.00000000  1
  Li  Li44  1  0.28674126  0.14337063  0.00000000  1
  Li  Li45  1  0.40517485  0.10681397  0.83091635  1
  Li  Li46  1  0.89318603  0.29836088  0.83091635  1
  Li  Li47  1  0.70163912  0.59482515  0.83091635  1
  Li  Li48  1  0.89318603  0.59482515  0.16908365  1
  Li  Li49  1  0.70163912  0.10681397  0.16908365  1
  Li  Li50  1  0.40517485  0.29836088  0.16908365  1
  Li  Li51  1  0.33333333  0.66666667  0.50000000  1
