# generated using pymatgen
data_Li2Ca3F8
_symmetry_space_group_name_H-M   'P 1'
_cell_length_a   15.43685117
_cell_length_b   15.43685117
_cell_length_c   5.60371507
_cell_angle_alpha   90.00000000
_cell_angle_beta   90.00000000
_cell_angle_gamma   90.00000000
_symmetry_Int_Tables_number   1
_chemical_formula_structural   Li2Ca3F8
_chemical_formula_sum   'Li16 Ca24 F64'
_cell_volume   1335.34498204
_cell_formula_units_Z   8
loop_
 _symmetry_equiv_pos_site_id
 _symmetry_equiv_pos_as_xyz
  1  'x, y, z'
loop_
 _atom_site_type_symbol
 _atom_site_label
 _atom_site_symmetry_multiplicity
 _atom_site_fract_x
 _atom_site_fract_y
 _atom_site_fract_z
 _atom_site_occupancy
  Ca  Ca0  1  0.00000000  0.25000000  0.12500000  1
  Ca  Ca1  1  0.00000000  0.75000000  0.37500000  1
  Ca  Ca2  1  0.00000000  0.75000000  0.87500000  1
  Ca  Ca3  1  0.00000000  0.25000000  0.62500000  1
  Ca  Ca4  1  0.50000000  0.75000000  0.62500000  1
  Ca  Ca5  1  0.50000000  0.25000000  0.87500000  1
  Ca  Ca6  1  0.50000000  0.25000000  0.37500000  1
  Ca  Ca7  1  0.50000000  0.75000000  0.12500000  1
  Ca  Ca8  1  0.43400815  0.00000000  0.25000000  1
  Ca  Ca9  1  0.06599185  0.00000000  0.75000000  1
  Ca  Ca10  1  0.25000000  0.18400815  0.50000000  1
  Ca  Ca11  1  0.25000000  0.81599185  0.00000000  1
  Ca  Ca12  1  0.56599185  0.00000000  0.75000000  1
  Ca  Ca13  1  0.93400815  0.00000000  0.25000000  1
  Ca  Ca14  1  0.75000000  0.81599185  0.50000000  1
  Ca  Ca15  1  0.75000000  0.18400815  0.00000000  1
  Ca  Ca16  1  0.93400815  0.50000000  0.75000000  1
  Ca  Ca17  1  0.56599185  0.50000000  0.25000000  1
  Ca  Ca18  1  0.75000000  0.68400815  0.00000000  1
  Ca  Ca19  1  0.75000000  0.31599185  0.50000000  1
  Ca  Ca20  1  0.06599185  0.50000000  0.25000000  1
  Ca  Ca21  1  0.43400815  0.50000000  0.75000000  1
  Ca  Ca22  1  0.25000000  0.31599185  0.00000000  1
  Ca  Ca23  1  0.25000000  0.68400815  0.50000000  1
  F  F24  1  0.63808360  0.36293723  0.70605883  1
  F  F25  1  -0.13808360  -0.36293723  1.20605883  1
  F  F26  1  -0.11293723  1.38808360  0.95605883  1
  F  F27  1  0.61293723  -0.38808360  1.45605883  1
  F  F28  1  -0.13808360  0.36293723  -0.70605883  1
  F  F29  1  0.63808360  -0.36293723  -0.20605883  1
  F  F30  1  0.61293723  1.38808360  0.04394117  1
  F  F31  1  -0.11293723  -0.38808360  -0.45605883  1
  F  F32  1  -0.63808360  -0.36293723  -0.70605883  1
  F  F33  1  1.13808360  0.36293723  -0.20605883  1
  F  F34  1  1.11293723  -0.38808360  0.04394117  1
  F  F35  1  0.38706277  1.38808360  -0.45605883  1
  F  F36  1  1.13808360  -0.36293723  0.70605883  1
  F  F37  1  -0.63808360  0.36293723  1.20605883  1
  F  F38  1  0.38706277  -0.38808360  0.95605883  1
  F  F39  1  1.11293723  1.38808360  1.45605883  1
  F  F40  1  1.13808360  0.86293723  1.20605883  1
  F  F41  1  0.36191640  0.13706277  1.70605883  1
  F  F42  1  0.38706277  1.88808360  1.45605883  1
  F  F43  1  1.11293723  0.11191640  1.95605883  1
  F  F44  1  0.36191640  0.86293723  -0.20605883  1
  F  F45  1  1.13808360  0.13706277  0.29394117  1
  F  F46  1  1.11293723  1.88808360  0.54394117  1
  F  F47  1  0.38706277  0.11191640  0.04394117  1
  F  F48  1  -0.13808360  0.13706277  -0.20605883  1
  F  F49  1  1.63808360  0.86293723  0.29394117  1
  F  F50  1  1.61293723  0.11191640  0.54394117  1
  F  F51  1  0.88706277  1.88808360  0.04394117  1
  F  F52  1  1.63808360  0.13706277  1.20605883  1
  F  F53  1  -0.13808360  0.86293723  1.70605883  1
  F  F54  1  0.88706277  0.11191640  1.45605883  1
  F  F55  1  1.61293723  1.88808360  1.95605883  1
  F  F56  1  0.35685638  0.04147167  0.49634719  1
  F  F57  1  0.14314362  0.95852833  0.99634719  1
  F  F58  1  0.20852833  0.10685638  0.74634719  1
  F  F59  1  0.29147167  0.89314362  0.24634719  1
  F  F60  1  0.14314362  0.04147167  0.50365281  1
  F  F61  1  0.35685638  0.95852833  0.00365281  1
  F  F62  1  0.29147167  0.10685638  0.25365281  1
  F  F63  1  0.20852833  0.89314362  0.75365281  1
  F  F64  1  0.64314362  0.95852833  0.50365281  1
  F  F65  1  0.85685638  0.04147167  0.00365281  1
  F  F66  1  0.79147167  0.89314362  0.25365281  1
  F  F67  1  0.70852833  0.10685638  0.75365281  1
  F  F68  1  0.85685638  0.95852833  0.49634719  1
  F  F69  1  0.64314362  0.04147167  0.99634719  1
  F  F70  1  0.70852833  0.89314362  0.74634719  1
  F  F71  1  0.79147167  0.10685638  0.24634719  1
  F  F72  1  0.85685638  0.54147167  0.99634719  1
  F  F73  1  0.64314362  0.45852833  0.49634719  1
  F  F74  1  0.70852833  0.60685638  0.24634719  1
  F  F75  1  0.79147167  0.39314362  0.74634719  1
  F  F76  1  0.64314362  0.54147167  0.00365281  1
  F  F77  1  0.85685638  0.45852833  0.50365281  1
  F  F78  1  0.79147167  0.60685638  0.75365281  1
  F  F79  1  0.70852833  0.39314362  0.25365281  1
  F  F80  1  0.14314362  0.45852833  0.00365281  1
  F  F81  1  0.35685638  0.54147167  0.50365281  1
  F  F82  1  0.29147167  0.39314362  0.75365281  1
  F  F83  1  0.20852833  0.60685638  0.25365281  1
  F  F84  1  0.35685638  0.45852833  0.99634719  1
  F  F85  1  0.14314362  0.54147167  0.49634719  1
  F  F86  1  0.20852833  0.39314362  0.24634719  1
  F  F87  1  0.29147167  0.60685638  0.74634719  1
  Li  Li88  1  0.00000000  0.00000000  0.00000000  1
  Li  Li89  1  0.50000000  0.00000000  0.50000000  1
  Li  Li90  1  0.25000000  0.75000000  0.25000000  1
  Li  Li91  1  0.25000000  0.25000000  0.75000000  1
  Li  Li92  1  0.50000000  0.00000000  0.00000000  1
  Li  Li93  1  0.00000000  0.00000000  0.50000000  1
  Li  Li94  1  0.25000000  0.75000000  0.75000000  1
  Li  Li95  1  0.25000000  0.25000000  0.25000000  1
  Li  Li96  1  0.50000000  0.50000000  0.50000000  1
  Li  Li97  1  0.00000000  0.50000000  0.00000000  1
  Li  Li98  1  0.75000000  0.25000000  0.75000000  1
  Li  Li99  1  0.75000000  0.75000000  0.25000000  1
  Li  Li100  1  0.00000000  0.50000000  0.50000000  1
  Li  Li101  1  0.50000000  0.50000000  0.00000000  1
  Li  Li102  1  0.75000000  0.25000000  0.25000000  1
  Li  Li103  1  0.75000000  0.75000000  0.75000000  1
