# generated using pymatgen
data_LiF
_symmetry_space_group_name_H-M   'P 1'
_cell_length_a   8.94436225
_cell_length_b   8.94436225
_cell_length_c   17.47671514
_cell_angle_alpha   90.00000000
_cell_angle_beta   90.00000000
_cell_angle_gamma   120.00000000
_symmetry_Int_Tables_number   1
_chemical_formula_structural   LiF
_chemical_formula_sum   'Li39 F39'
_cell_volume   1210.84680190
_cell_formula_units_Z   39
loop_
 _symmetry_equiv_pos_site_id
 _symmetry_equiv_pos_as_xyz
  1  'x, y, z'
loop_
 _atom_site_type_symbol
 _atom_site_label
 _atom_site_symmetry_multiplicity
 _atom_site_fract_x
 _atom_site_fract_y
 _atom_site_fract_z
 _atom_site_occupancy
  F  F0  1  0.62323945  0.86264850  0.29648846  1
  F  F1  1  0.13735150  0.76059095  0.29648846  1
  F  F2  1  0.23940905  0.37676055  0.29648846  1
  F  F3  1  0.13735150  0.37676055  0.70351154  1
  F  F4  1  0.23940905  0.86264850  0.70351154  1
  F  F5  1  0.62323945  0.76059095  0.70351154  1
  F  F6  1  0.50753147  0.49246853  0.50000000  1
  F  F7  1  0.50753147  0.01506293  0.50000000  1
  F  F8  1  0.98493707  0.49246853  0.50000000  1
  F  F9  1  0.21029045  0.92157018  0.64824721  1
  F  F10  1  0.07842982  0.28872026  0.64824721  1
  F  F11  1  0.71127974  0.78970955  0.64824721  1
  F  F12  1  0.07842982  0.78970955  0.35175279  1
  F  F13  1  0.71127974  0.92157018  0.35175279  1
  F  F14  1  0.21029045  0.28872026  0.35175279  1
  F  F15  1  0.96393530  0.34657158  0.87632269  1
  F  F16  1  0.65342842  0.61736372  0.87632269  1
  F  F17  1  0.38263628  0.03606470  0.87632269  1
  F  F18  1  0.65342842  0.03606470  0.12367731  1
  F  F19  1  0.38263628  0.34657158  0.12367731  1
  F  F20  1  0.96393530  0.61736372  0.12367731  1
  F  F21  1  0.33333333  0.66666667  0.05337922  1
  F  F22  1  0.33333333  0.66666667  0.94662078  1
  F  F23  1  0.66666667  0.33333333  0.73533384  1
  F  F24  1  0.66666667  0.33333333  0.26466616  1
  F  F25  1  0.17696239  0.69005600  0.83377218  1
  F  F26  1  0.30994400  0.48690639  0.83377218  1
  F  F27  1  0.51309361  0.82303761  0.83377218  1
  F  F28  1  0.30994400  0.82303761  0.16622782  1
  F  F29  1  0.51309361  0.69005600  0.16622782  1
  F  F30  1  0.17696239  0.48690639  0.16622782  1
  F  F31  1  0.98108916  0.20125364  0.92558757  1
  F  F32  1  0.79874636  0.77983552  0.92558757  1
  F  F33  1  0.22016448  0.01891084  0.92558757  1
  F  F34  1  0.79874636  0.01891084  0.07441243  1
  F  F35  1  0.22016448  0.20125364  0.07441243  1
  F  F36  1  0.98108916  0.77983552  0.07441243  1
  F  F37  1  0.33333333  0.66666667  0.16398776  1
  F  F38  1  0.33333333  0.66666667  0.83601224  1
  Li  Li39  1  0.00000000  0.00000000  0.50000000  1
  Li  Li40  1  0.66666667  0.33333333  0.50000000  1
  Li  Li41  1  0.98714470  0.57023041  0.08082308  1
  Li  Li42  1  -0.57023041  0.41691429  0.08082308  1
  Li  Li43  1  -0.41691429  -0.98714470  0.08082308  1
  Li  Li44  1  -0.57023041  -0.98714470  -0.08082308  1
  Li  Li45  1  -0.41691429  0.57023041  -0.08082308  1
  Li  Li46  1  0.98714470  0.41691429  -0.08082308  1
  Li  Li47  1  0.84684671  0.57860764  0.24656470  1
  Li  Li48  1  0.42139236  0.26823907  0.24656470  1
  Li  Li49  1  0.73176093  0.15315329  0.24656470  1
  Li  Li50  1  0.42139236  0.15315329  0.75343530  1
  Li  Li51  1  0.73176093  0.57860764  0.75343530  1
  Li  Li52  1  0.84684671  0.26823907  0.75343530  1
  Li  Li53  1  0.94307030  0.44681448  0.21388140  1
  Li  Li54  1  0.55318552  0.49625582  0.21388140  1
  Li  Li55  1  0.50374418  0.05692970  0.21388140  1
  Li  Li56  1  0.55318552  0.05692970  0.78611860  1
  Li  Li57  1  0.50374418  0.44681448  0.78611860  1
  Li  Li58  1  0.94307030  0.49625582  0.78611860  1
  Li  Li59  1  0.86342542  0.83386764  0.79613515  1
  Li  Li60  1  0.16613236  0.02955778  0.79613515  1
  Li  Li61  1  0.97044222  0.13657458  0.79613515  1
  Li  Li62  1  0.16613236  0.13657458  0.20386485  1
  Li  Li63  1  0.97044222  0.83386764  0.20386485  1
  Li  Li64  1  0.86342542  0.02955778  0.20386485  1
  Li  Li65  1  0.94345609  0.61782304  0.30979872  1
  Li  Li66  1  0.38217696  0.32563304  0.30979872  1
  Li  Li67  1  0.67436696  0.05654391  0.30979872  1
  Li  Li68  1  0.38217696  0.05654391  0.69020128  1
  Li  Li69  1  0.67436696  0.61782304  0.69020128  1
  Li  Li70  1  0.94345609  0.32563304  0.69020128  1
  Li  Li71  1  0.27350129  0.72649871  0.00000000  1
  Li  Li72  1  0.27350129  0.54700259  0.00000000  1
  Li  Li73  1  0.45299741  0.72649871  0.00000000  1
  Li  Li74  1  0.16037019  0.83962981  0.50000000  1
  Li  Li75  1  0.16037019  0.32074038  0.50000000  1
  Li  Li76  1  0.67925962  0.83962981  0.50000000  1
  Li  Li77  1  0.00000000  0.00000000  0.00000000  1
