# generated using pymatgen
data_LiYP2Se
_symmetry_space_group_name_H-M   'P 1'
_cell_length_a   3.86537454
_cell_length_b   4.14388236
_cell_length_c   6.73981362
_cell_angle_alpha   96.74743472
_cell_angle_beta   104.69451004
_cell_angle_gamma   117.10176353
_symmetry_Int_Tables_number   1
_chemical_formula_structural   LiYP2Se
_chemical_formula_sum   'Li2 Y2 P4 Se2'
_cell_volume   89.48946170
_cell_formula_units_Z   2
loop_
 _symmetry_equiv_pos_site_id
 _symmetry_equiv_pos_as_xyz
  1  'x, y, z'
loop_
 _atom_site_type_symbol
 _atom_site_label
 _atom_site_symmetry_multiplicity
 _atom_site_fract_x
 _atom_site_fract_y
 _atom_site_fract_z
 _atom_site_occupancy
  P  P0  1  0.12500000  0.00000000  0.25000000  1
  P  P1  1  0.00000000  0.00000000  0.00000000  1
  P  P2  1  0.37500000  0.00000000  0.25000000  1
  P  P3  1  0.25000000  0.25000000  0.25000000  1
  Se  Se4  1  0.00000000  0.25000000  0.12500000  1
  Se  Se5  1  0.44647734  0.55892308  0.46920425  1
  Li  Li6  1  0.57388640  0.07991753  0.78535008  1
  Li  Li7  1  0.26080288  0.83967958  0.50381875  1
  Y  Y8  1  0.40653458  0.85721220  0.51921918  1
  Y  Y9  1  0.26277583  0.82242055  0.61720741  1
