# generated using pymatgen
data_LiYP
_symmetry_space_group_name_H-M   'P 1'
_cell_length_a   5.02353834
_cell_length_b   5.09278836
_cell_length_c   6.93299155
_cell_angle_alpha   94.65767642
_cell_angle_beta   100.14345093
_cell_angle_gamma   108.70803502
_symmetry_Int_Tables_number   1
_chemical_formula_structural   LiYP
_chemical_formula_sum   'Li2 Y2 P2'
_cell_volume   163.56183026
_cell_formula_units_Z   2
loop_
 _symmetry_equiv_pos_site_id
 _symmetry_equiv_pos_as_xyz
  1  'x, y, z'
loop_
 _atom_site_type_symbol
 _atom_site_label
 _atom_site_symmetry_multiplicity
 _atom_site_fract_x
 _atom_site_fract_y
 _atom_site_fract_z
 _atom_site_occupancy
  P  P0  1  0.00000000  0.00000000  0.00000000  1
  P  P1  1  0.50000000  0.50000000  0.50000000  1
  Li  Li2  1  0.50000000  0.50000000  0.00000000  1
  Li  Li3  1  0.50000000  0.00000000  0.50000000  1
  Y  Y4  1  0.00000000  0.50000000  0.50000000  1
  Y  Y5  1  0.54972794  0.94206885  0.45860206  1
