# generated using pymatgen
data_LiY2(MoP)2
_symmetry_space_group_name_H-M   'P 1'
_cell_length_a   4.25991456
_cell_length_b   4.53070330
_cell_length_c   6.36259641
_cell_angle_alpha   94.81780411
_cell_angle_beta   100.44725096
_cell_angle_gamma   109.06632951
_symmetry_Int_Tables_number   1
_chemical_formula_structural   LiY2(MoP)2
_chemical_formula_sum   'Li1 Y2 Mo2 P2'
_cell_volume   112.77674410
_cell_formula_units_Z   1
loop_
 _symmetry_equiv_pos_site_id
 _symmetry_equiv_pos_as_xyz
  1  'x, y, z'
loop_
 _atom_site_type_symbol
 _atom_site_label
 _atom_site_symmetry_multiplicity
 _atom_site_fract_x
 _atom_site_fract_y
 _atom_site_fract_z
 _atom_site_occupancy
  P  P0  1  0.00000000  0.00000000  0.00000000  1
  P  P1  1  0.33300000  0.66700000  0.25000000  1
  Mo  Mo2  1  0.66700000  0.33300000  0.50000000  1
  Mo  Mo3  1  0.00000000  0.00000000  0.75000000  1
  Li  Li4  1  0.94069135  0.01946319  0.02409577  1
  Y  Y5  1  0.96406503  0.95827426  0.68773297  1
  Y  Y6  1  0.93105503  0.46137744  0.99229451  1
