# generated using pymatgen
data_LiF
_symmetry_space_group_name_H-M   'P 1'
_cell_length_a   12.06597704
_cell_length_b   12.06597704
_cell_length_c   9.35875035
_cell_angle_alpha   90.00000000
_cell_angle_beta   90.00000000
_cell_angle_gamma   90.00000000
_symmetry_Int_Tables_number   1
_chemical_formula_structural   LiF
_chemical_formula_sum   'Li40 F40'
_cell_volume   1362.51989177
_cell_formula_units_Z   40
loop_
 _symmetry_equiv_pos_site_id
 _symmetry_equiv_pos_as_xyz
  1  'x, y, z'
loop_
 _atom_site_type_symbol
 _atom_site_label
 _atom_site_symmetry_multiplicity
 _atom_site_fract_x
 _atom_site_fract_y
 _atom_site_fract_z
 _atom_site_occupancy
  F  F0  1  0.00000000  0.25000000  0.12500000  1
  F  F1  1  0.00000000  0.75000000  0.37500000  1
  F  F2  1  0.00000000  0.75000000  0.87500000  1
  F  F3  1  0.00000000  0.25000000  0.62500000  1
  F  F4  1  0.50000000  0.75000000  0.62500000  1
  F  F5  1  0.50000000  0.25000000  0.87500000  1
  F  F6  1  0.50000000  0.25000000  0.37500000  1
  F  F7  1  0.50000000  0.75000000  0.12500000  1
  F  F8  1  0.21225432  0.65637094  0.41902325  1
  F  F9  1  0.28774568  0.34362906  0.91902325  1
  F  F10  1  0.59362906  0.96225432  0.66902325  1
  F  F11  1  0.90637094  0.03774568  0.16902325  1
  F  F12  1  0.28774568  0.65637094  0.58097675  1
  F  F13  1  0.21225432  0.34362906  0.08097675  1
  F  F14  1  0.90637094  0.96225432  0.33097675  1
  F  F15  1  0.59362906  0.03774568  0.83097675  1
  F  F16  1  0.78774568  0.34362906  0.58097675  1
  F  F17  1  0.71225432  0.65637094  0.08097675  1
  F  F18  1  0.40637094  0.03774568  0.33097675  1
  F  F19  1  0.09362906  0.96225432  0.83097675  1
  F  F20  1  0.71225432  0.34362906  0.41902325  1
  F  F21  1  0.78774568  0.65637094  0.91902325  1
  F  F22  1  0.09362906  0.03774568  0.66902325  1
  F  F23  1  0.40637094  0.96225432  0.16902325  1
  F  F24  1  0.71225432  0.15637094  0.91902325  1
  F  F25  1  0.78774568  0.84362906  0.41902325  1
  F  F26  1  0.09362906  0.46225432  0.16902325  1
  F  F27  1  0.40637094  0.53774568  0.66902325  1
  F  F28  1  0.78774568  0.15637094  0.08097675  1
  F  F29  1  0.71225432  0.84362906  0.58097675  1
  F  F30  1  0.40637094  0.46225432  0.83097675  1
  F  F31  1  0.09362906  0.53774568  0.33097675  1
  F  F32  1  0.28774568  0.84362906  0.08097675  1
  F  F33  1  0.21225432  0.15637094  0.58097675  1
  F  F34  1  0.90637094  0.53774568  0.83097675  1
  F  F35  1  0.59362906  0.46225432  0.33097675  1
  F  F36  1  0.21225432  0.84362906  0.91902325  1
  F  F37  1  0.28774568  0.15637094  0.41902325  1
  F  F38  1  0.59362906  0.53774568  0.16902325  1
  F  F39  1  0.90637094  0.46225432  0.66902325  1
  Li  Li40  1  0.09187997  0.63060354  0.65805045  1
  Li  Li41  1  0.40812003  -0.63060354  1.15805045  1
  Li  Li42  1  -0.38060354  0.84187997  0.90805045  1
  Li  Li43  1  0.88060354  0.15812003  1.40805045  1
  Li  Li44  1  0.40812003  0.63060354  -0.65805045  1
  Li  Li45  1  0.09187997  -0.63060354  -0.15805045  1
  Li  Li46  1  0.88060354  0.84187997  0.09194955  1
  Li  Li47  1  -0.38060354  0.15812003  -0.40805045  1
  Li  Li48  1  -0.09187997  -0.63060354  -0.65805045  1
  Li  Li49  1  0.59187997  0.63060354  -0.15805045  1
  Li  Li50  1  1.38060354  0.15812003  0.09194955  1
  Li  Li51  1  0.11939646  0.84187997  -0.40805045  1
  Li  Li52  1  0.59187997  -0.63060354  0.65805045  1
  Li  Li53  1  -0.09187997  0.63060354  1.15805045  1
  Li  Li54  1  0.11939646  0.15812003  0.90805045  1
  Li  Li55  1  1.38060354  0.84187997  1.40805045  1
  Li  Li56  1  0.59187997  1.13060354  1.15805045  1
  Li  Li57  1  0.90812003  -0.13060354  1.65805045  1
  Li  Li58  1  0.11939646  1.34187997  1.40805045  1
  Li  Li59  1  1.38060354  0.65812003  1.90805045  1
  Li  Li60  1  0.90812003  1.13060354  -0.15805045  1
  Li  Li61  1  0.59187997  -0.13060354  0.34194955  1
  Li  Li62  1  1.38060354  1.34187997  0.59194955  1
  Li  Li63  1  0.11939646  0.65812003  0.09194955  1
  Li  Li64  1  0.40812003  -0.13060354  -0.15805045  1
  Li  Li65  1  1.09187997  1.13060354  0.34194955  1
  Li  Li66  1  1.88060354  0.65812003  0.59194955  1
  Li  Li67  1  0.61939646  1.34187997  0.09194955  1
  Li  Li68  1  1.09187997  -0.13060354  1.15805045  1
  Li  Li69  1  0.40812003  1.13060354  1.65805045  1
  Li  Li70  1  0.61939646  0.65812003  1.40805045  1
  Li  Li71  1  1.88060354  1.34187997  1.90805045  1
  Li  Li72  1  0.00000000  0.25000000  0.37500000  1
  Li  Li73  1  0.00000000  0.75000000  0.62500000  1
  Li  Li74  1  0.50000000  0.25000000  0.62500000  1
  Li  Li75  1  0.50000000  0.75000000  0.37500000  1
  Li  Li76  1  0.50000000  0.75000000  0.87500000  1
  Li  Li77  1  0.50000000  0.25000000  0.12500000  1
  Li  Li78  1  0.00000000  0.75000000  0.12500000  1
  Li  Li79  1  0.00000000  0.25000000  0.87500000  1
