# generated using pymatgen
data_Li3Y2P3Se2
_symmetry_space_group_name_H-M   'P 1'
_cell_length_a   5.60776185
_cell_length_b   5.69131546
_cell_length_c   7.31763931
_cell_angle_alpha   93.68090174
_cell_angle_beta   98.01623874
_cell_angle_gamma   104.78471933
_symmetry_Int_Tables_number   1
_chemical_formula_structural   Li3Y2P3Se2
_chemical_formula_sum   'Li3 Y2 P3 Se2'
_cell_volume   222.38977223
_cell_formula_units_Z   1
loop_
 _symmetry_equiv_pos_site_id
 _symmetry_equiv_pos_as_xyz
  1  'x, y, z'
loop_
 _atom_site_type_symbol
 _atom_site_label
 _atom_site_symmetry_multiplicity
 _atom_site_fract_x
 _atom_site_fract_y
 _atom_site_fract_z
 _atom_site_occupancy
  Se  Se0  1  0.00000000  0.00000000  0.00000000  1
  Se  Se1  1  0.33300000  0.66700000  0.25000000  1
  P  P2  1  0.66700000  0.33300000  0.50000000  1
  P  P3  1  0.00000000  0.00000000  0.75000000  1
  P  P4  1  0.38702408  0.89522586  0.40058616  1
  Li  Li5  1  0.03686915  0.73902832  0.50808594  1
  Li  Li6  1  0.78675692  0.56684471  0.64911902  1
  Li  Li7  1  0.10999667  0.27488120  0.02962118  1
  Y  Y8  1  0.36591067  0.48894871  0.68595798  1
  Y  Y9  1  0.96019002  0.97781274  0.42169486  1
