# generated using pymatgen
data_LiF
_symmetry_space_group_name_H-M   'P 1'
_cell_length_a   10.24322393
_cell_length_b   4.63265188
_cell_length_c   9.55789412
_cell_angle_alpha   90.00000000
_cell_angle_beta   90.00000000
_cell_angle_gamma   90.00000000
_symmetry_Int_Tables_number   1
_chemical_formula_structural   LiF
_chemical_formula_sum   'Li24 F24'
_cell_volume   453.55352751
_cell_formula_units_Z   24
loop_
 _symmetry_equiv_pos_site_id
 _symmetry_equiv_pos_as_xyz
  1  'x, y, z'
loop_
 _atom_site_type_symbol
 _atom_site_label
 _atom_site_symmetry_multiplicity
 _atom_site_fract_x
 _atom_site_fract_y
 _atom_site_fract_z
 _atom_site_occupancy
  F  F0  1  0.74621955  0.36893100  0.03925484  1
  F  F1  1  0.75378045  0.63106900  0.53925484  1
  F  F2  1  0.25378045  0.86893100  0.96074516  1
  F  F3  1  0.24621955  0.13106900  0.46074516  1
  F  F4  1  0.25378045  0.63106900  0.96074516  1
  F  F5  1  0.24621955  0.36893100  0.46074516  1
  F  F6  1  0.74621955  0.13106900  0.03925484  1
  F  F7  1  0.75378045  0.86893100  0.53925484  1
  F  F8  1  0.97515733  0.49516945  0.59572930  1
  F  F9  1  0.52484267  0.50483055  0.09572930  1
  F  F10  1  0.02484267  0.99516945  0.40427070  1
  F  F11  1  0.47515733  0.00483055  0.90427070  1
  F  F12  1  0.02484267  0.50483055  0.40427070  1
  F  F13  1  0.47515733  0.49516945  0.90427070  1
  F  F14  1  0.97515733  0.00483055  0.59572930  1
  F  F15  1  0.52484267  0.99516945  0.09572930  1
  F  F16  1  0.00000000  0.00000000  0.00000000  1
  F  F17  1  0.50000000  0.00000000  0.50000000  1
  F  F18  1  0.00000000  0.50000000  0.00000000  1
  F  F19  1  0.50000000  0.50000000  0.50000000  1
  F  F20  1  0.86053702  0.25000000  0.98140720  1
  F  F21  1  0.63946298  0.75000000  0.48140720  1
  F  F22  1  0.13946298  0.75000000  0.01859280  1
  F  F23  1  0.36053702  0.25000000  0.51859280  1
  Li  Li24  1  0.75220381  0.25000000  0.55910456  1
  Li  Li25  1  0.74779619  0.75000000  0.05910456  1
  Li  Li26  1  0.24779619  0.75000000  0.44089544  1
  Li  Li27  1  0.25220381  0.25000000  0.94089544  1
  Li  Li28  1  0.00000000  0.00000000  0.50000000  1
  Li  Li29  1  0.50000000  0.00000000  -0.00000000  1
  Li  Li30  1  0.00000000  0.50000000  0.50000000  1
  Li  Li31  1  0.50000000  0.50000000  -0.00000000  1
  Li  Li32  1  0.45397481  0.94220646  0.68365586  1
  Li  Li33  1  0.04602519  -0.94220646  1.18365586  1
  Li  Li34  1  -0.45397481  1.44220646  -0.68365586  1
  Li  Li35  1  0.95397481  -0.44220646  -0.18365586  1
  Li  Li36  1  -0.45397481  -0.94220646  -0.68365586  1
  Li  Li37  1  0.95397481  0.94220646  -0.18365586  1
  Li  Li38  1  0.45397481  -0.44220646  0.68365586  1
  Li  Li39  1  0.04602519  1.44220646  1.18365586  1
  Li  Li40  1  0.62459579  0.53992074  0.01864036  1
  Li  Li41  1  0.87540421  0.46007926  0.51864036  1
  Li  Li42  1  0.37540421  0.03992074  0.98135964  1
  Li  Li43  1  0.12459579  0.96007926  0.48135964  1
  Li  Li44  1  0.37540421  0.46007926  0.98135964  1
  Li  Li45  1  0.12459579  0.53992074  0.48135964  1
  Li  Li46  1  0.62459579  0.96007926  0.01864036  1
  Li  Li47  1  0.87540421  0.03992074  0.51864036  1
