# generated using pymatgen
data_Li2YAs2P3Pb2
_symmetry_space_group_name_H-M   'P 1'
_cell_length_a   5.66835054
_cell_length_b   5.66598375
_cell_length_c   7.32747570
_cell_angle_alpha   94.82559429
_cell_angle_beta   99.30276945
_cell_angle_gamma   104.68578177
_symmetry_Int_Tables_number   1
_chemical_formula_structural   Li2YAs2P3Pb2
_chemical_formula_sum   'Li2 Y1 As2 P3 Pb2'
_cell_volume   222.71512370
_cell_formula_units_Z   1
loop_
 _symmetry_equiv_pos_site_id
 _symmetry_equiv_pos_as_xyz
  1  'x, y, z'
loop_
 _atom_site_type_symbol
 _atom_site_label
 _atom_site_symmetry_multiplicity
 _atom_site_fract_x
 _atom_site_fract_y
 _atom_site_fract_z
 _atom_site_occupancy
  Pb  Pb0  1  0.00000000  0.00000000  0.00000000  1
  Pb  Pb1  1  0.50000000  0.50000000  0.50000000  1
  Y  Y2  1  0.50000000  0.50000000  0.00000000  1
  P  P3  1  0.50000000  0.00000000  0.50000000  1
  P  P4  1  0.00000000  0.50000000  0.50000000  1
  P  P5  1  0.44332820  0.46498317  0.85926425  1
  As  As6  1  0.98572176  0.30063082  0.24870686  1
  As  As7  1  0.79109332  0.00778752  0.32473637  1
  Li  Li8  1  0.53210230  0.18695465  0.76299811  1
  Li  Li9  1  0.81034087  0.48078321  0.77805822  1
