# generated using pymatgen
data_LiF
_symmetry_space_group_name_H-M   'P 1'
_cell_length_a   5.03045014
_cell_length_b   9.41135508
_cell_length_c   12.56733303
_cell_angle_alpha   90.00000000
_cell_angle_beta   90.00000000
_cell_angle_gamma   90.00000000
_symmetry_Int_Tables_number   1
_chemical_formula_structural   LiF
_chemical_formula_sum   'Li28 F28'
_cell_volume   594.97967797
_cell_formula_units_Z   28
loop_
 _symmetry_equiv_pos_site_id
 _symmetry_equiv_pos_as_xyz
  1  'x, y, z'
loop_
 _atom_site_type_symbol
 _atom_site_label
 _atom_site_symmetry_multiplicity
 _atom_site_fract_x
 _atom_site_fract_y
 _atom_site_fract_z
 _atom_site_occupancy
  F  F0  1  0.01799036  0.66429895  0.87143504  1
  F  F1  1  0.48200964  0.33570105  0.37143504  1
  F  F2  1  0.98200964  0.16429895  0.12856496  1
  F  F3  1  0.51799036  0.83570105  0.62856496  1
  F  F4  1  0.98200964  0.33570105  0.12856496  1
  F  F5  1  0.51799036  0.66429895  0.62856496  1
  F  F6  1  0.01799036  0.83570105  0.87143504  1
  F  F7  1  0.48200964  0.16429895  0.37143504  1
  F  F8  1  0.34218431  0.34381639  0.78438855  1
  F  F9  1  0.15781569  0.65618361  0.28438855  1
  F  F10  1  0.65781569  0.84381639  0.21561145  1
  F  F11  1  0.84218431  0.15618361  0.71561145  1
  F  F12  1  0.65781569  0.65618361  0.21561145  1
  F  F13  1  0.84218431  0.34381639  0.71561145  1
  F  F14  1  0.34218431  0.15618361  0.78438855  1
  F  F15  1  0.15781569  0.84381639  0.28438855  1
  F  F16  1  0.98058428  0.25000000  0.60693540  1
  F  F17  1  0.51941572  0.75000000  0.10693540  1
  F  F18  1  0.01941572  0.75000000  0.39306460  1
  F  F19  1  0.48058428  0.25000000  0.89306460  1
  F  F20  1  0.15461119  0.01108968  0.23186881  1
  F  F21  1  0.34538881  0.98891032  0.73186881  1
  F  F22  1  0.84538881  0.51108968  0.76813119  1
  F  F23  1  0.65461119  0.48891032  0.26813119  1
  F  F24  1  0.84538881  0.98891032  0.76813119  1
  F  F25  1  0.65461119  0.01108968  0.26813119  1
  F  F26  1  0.15461119  0.48891032  0.23186881  1
  F  F27  1  0.34538881  0.51108968  0.73186881  1
  Li  Li28  1  0.19931468  0.25000000  0.30773830  1
  Li  Li29  1  0.30068532  0.75000000  0.80773830  1
  Li  Li30  1  0.80068532  0.75000000  0.69226170  1
  Li  Li31  1  0.69931468  0.25000000  0.19226170  1
  Li  Li32  1  0.00000000  0.00000000  0.00000000  1
  Li  Li33  1  0.50000000  0.00000000  0.50000000  1
  Li  Li34  1  0.00000000  0.50000000  0.00000000  1
  Li  Li35  1  0.50000000  0.50000000  0.50000000  1
  Li  Li36  1  0.52689983  0.25000000  0.68321720  1
  Li  Li37  1  0.97310017  0.75000000  0.18321720  1
  Li  Li38  1  0.47310017  0.75000000  0.31678280  1
  Li  Li39  1  0.02689983  0.25000000  0.81678280  1
  Li  Li40  1  0.31596046  0.97187933  0.27036955  1
  Li  Li41  1  0.18403954  -0.97187933  0.77036955  1
  Li  Li42  1  -0.31596046  1.47187933  -0.27036955  1
  Li  Li43  1  0.81596046  -0.47187933  0.22963045  1
  Li  Li44  1  -0.31596046  -0.97187933  -0.27036955  1
  Li  Li45  1  0.81596046  0.97187933  0.22963045  1
  Li  Li46  1  0.31596046  -0.47187933  0.27036955  1
  Li  Li47  1  0.18403954  1.47187933  0.77036955  1
  Li  Li48  1  0.13148590  0.25000000  0.06086062  1
  Li  Li49  1  0.36851410  0.75000000  0.56086062  1
  Li  Li50  1  0.86851410  0.75000000  0.93913938  1
  Li  Li51  1  0.63148590  0.25000000  0.43913938  1
  Li  Li52  1  0.00000000  0.00000000  0.50000000  1
  Li  Li53  1  0.50000000  0.00000000  -0.00000000  1
  Li  Li54  1  0.00000000  0.50000000  0.50000000  1
  Li  Li55  1  0.50000000  0.50000000  0.00000000  1
