# generated using pymatgen
data_LiF
_symmetry_space_group_name_H-M   'P 1'
_cell_length_a   9.53529282
_cell_length_b   9.53529282
_cell_length_c   15.98816480
_cell_angle_alpha   90.00000000
_cell_angle_beta   90.00000000
_cell_angle_gamma   120.00000000
_symmetry_Int_Tables_number   1
_chemical_formula_structural   LiF
_chemical_formula_sum   'Li36 F36'
_cell_volume   1258.91763415
_cell_formula_units_Z   36
loop_
 _symmetry_equiv_pos_site_id
 _symmetry_equiv_pos_as_xyz
  1  'x, y, z'
loop_
 _atom_site_type_symbol
 _atom_site_label
 _atom_site_symmetry_multiplicity
 _atom_site_fract_x
 _atom_site_fract_y
 _atom_site_fract_z
 _atom_site_occupancy
  F  F0  1  0.00000000  0.00000000  0.00000000  1
  F  F1  1  0.66666667  0.33333333  0.33333333  1
  F  F2  1  0.33333333  0.66666667  0.66666667  1
  F  F3  1  0.50000000  0.00000000  0.00000000  1
  F  F4  1  0.00000000  0.50000000  0.00000000  1
  F  F5  1  0.50000000  0.50000000  0.00000000  1
  F  F6  1  0.16666667  0.33333333  0.33333333  1
  F  F7  1  0.66666667  0.83333333  0.33333333  1
  F  F8  1  0.16666667  0.83333333  0.33333333  1
  F  F9  1  0.83333333  0.66666667  0.66666667  1
  F  F10  1  0.33333333  0.16666667  0.66666667  1
  F  F11  1  0.83333333  0.16666667  0.66666667  1
  F  F12  1  0.00000000  0.00000000  0.30092076  1
  F  F13  1  0.00000000  0.00000000  0.69907924  1
  F  F14  1  0.66666667  0.33333333  0.63425409  1
  F  F15  1  0.66666667  0.33333333  0.03241257  1
  F  F16  1  0.33333333  0.66666667  0.96758743  1
  F  F17  1  0.33333333  0.66666667  0.36574591  1
  F  F18  1  0.70582525  0.29417475  0.22723914  1
  F  F19  1  0.70582525  0.41165049  0.22723914  1
  F  F20  1  0.58834951  0.29417475  0.22723914  1
  F  F21  1  0.29417475  0.70582525  0.77276086  1
  F  F22  1  0.41165049  0.70582525  0.77276086  1
  F  F23  1  0.29417475  0.58834951  0.77276086  1
  F  F24  1  0.37249191  0.62750809  0.56057247  1
  F  F25  1  0.37249191  0.74498383  0.56057247  1
  F  F26  1  0.25501617  0.62750809  0.56057247  1
  F  F27  1  0.96084142  0.03915858  0.10609419  1
  F  F28  1  0.07831716  0.03915858  0.10609419  1
  F  F29  1  0.96084142  0.92168284  0.10609419  1
  F  F30  1  0.03915858  0.96084142  0.89390581  1
  F  F31  1  0.03915858  0.07831716  0.89390581  1
  F  F32  1  0.92168284  0.96084142  0.89390581  1
  F  F33  1  0.62750809  0.37249191  0.43942753  1
  F  F34  1  0.74498383  0.37249191  0.43942753  1
  F  F35  1  0.62750809  0.25501617  0.43942753  1
  Li  Li36  1  0.31427466  0.23989167  0.90289734  1
  Li  Li37  1  -0.23989167  0.07438299  0.90289734  1
  Li  Li38  1  -0.07438299  -0.31427466  0.90289734  1
  Li  Li39  1  0.23989167  0.31427466  -0.90289734  1
  Li  Li40  1  0.07438299  -0.23989167  -0.90289734  1
  Li  Li41  1  -0.31427466  -0.07438299  -0.90289734  1
  Li  Li42  1  -0.31427466  -0.23989167  -0.90289734  1
  Li  Li43  1  0.23989167  -0.07438299  -0.90289734  1
  Li  Li44  1  0.07438299  0.31427466  -0.90289734  1
  Li  Li45  1  -0.23989167  -0.31427466  0.90289734  1
  Li  Li46  1  -0.07438299  0.23989167  0.90289734  1
  Li  Li47  1  0.31427466  0.07438299  0.90289734  1
  Li  Li48  1  0.98094133  0.57322501  1.23623068  1
  Li  Li49  1  0.42677499  0.40771632  1.23623068  1
  Li  Li50  1  0.59228368  0.01905867  1.23623068  1
  Li  Li51  1  0.90655834  0.64760799  -0.56956401  1
  Li  Li52  1  0.74104965  0.09344166  -0.56956401  1
  Li  Li53  1  0.35239201  0.25895035  -0.56956401  1
  Li  Li54  1  0.35239201  0.09344166  -0.56956401  1
  Li  Li55  1  0.90655834  0.25895035  -0.56956401  1
  Li  Li56  1  0.74104965  0.64760799  -0.56956401  1
  Li  Li57  1  0.42677499  0.01905867  1.23623068  1
  Li  Li58  1  0.59228368  0.57322501  1.23623068  1
  Li  Li59  1  0.98094133  0.40771632  1.23623068  1
  Li  Li60  1  0.64760799  0.90655834  1.56956401  1
  Li  Li61  1  0.09344166  0.74104965  1.56956401  1
  Li  Li62  1  0.25895035  0.35239201  1.56956401  1
  Li  Li63  1  0.57322501  0.98094133  -0.23623068  1
  Li  Li64  1  0.40771632  0.42677499  -0.23623068  1
  Li  Li65  1  0.01905867  0.59228368  -0.23623068  1
  Li  Li66  1  0.01905867  0.42677499  -0.23623068  1
  Li  Li67  1  0.57322501  0.59228368  -0.23623068  1
  Li  Li68  1  0.40771632  0.98094133  -0.23623068  1
  Li  Li69  1  0.09344166  0.35239201  1.56956401  1
  Li  Li70  1  0.25895035  0.90655834  1.56956401  1
  Li  Li71  1  0.64760799  0.74104965  1.56956401  1
