# generated using pymatgen
data_LiF
_symmetry_space_group_name_H-M   'P 1'
_cell_length_a   3.23346884
_cell_length_b   6.50553523
_cell_length_c   4.64295841
_cell_angle_alpha   90.00000000
_cell_angle_beta   90.00000000
_cell_angle_gamma   90.00000000
_symmetry_Int_Tables_number   1
_chemical_formula_structural   LiF
_chemical_formula_sum   'Li6 F6'
_cell_volume   97.66669850
_cell_formula_units_Z   6
loop_
 _symmetry_equiv_pos_site_id
 _symmetry_equiv_pos_as_xyz
  1  'x, y, z'
loop_
 _atom_site_type_symbol
 _atom_site_label
 _atom_site_symmetry_multiplicity
 _atom_site_fract_x
 _atom_site_fract_y
 _atom_site_fract_z
 _atom_site_occupancy
  F  F0  1  0.25276363  0.38509033  0.50000000  1
  F  F1  1  -0.25276363  -0.38509033  0.50000000  1
  F  F2  1  0.24723637  0.88509033  0.50000000  1
  F  F3  1  0.75276363  0.11490967  0.50000000  1
  F  F4  1  0.00000000  0.00000000  0.00000000  1
  F  F5  1  0.50000000  0.50000000  0.00000000  1
  Li  Li6  1  0.00000000  0.00000000  0.50000000  1
  Li  Li7  1  0.50000000  0.50000000  0.50000000  1
  Li  Li8  1  0.00000000  0.50000000  0.81976187  1
  Li  Li9  1  0.50000000  0.00000000  0.18023813  1
  Li  Li10  1  0.00000000  0.50000000  0.18023813  1
  Li  Li11  1  0.50000000  0.00000000  0.81976187  1
