# generated using pymatgen
data_LiY2Cu3(PSe)2
_symmetry_space_group_name_H-M   'P 1'
_cell_length_a   4.96735412
_cell_length_b   5.07117541
_cell_length_c   6.88198399
_cell_angle_alpha   94.70226023
_cell_angle_beta   100.00207302
_cell_angle_gamma   108.51312298
_symmetry_Int_Tables_number   1
_chemical_formula_structural   LiY2Cu3(PSe)2
_chemical_formula_sum   'Li1 Y2 Cu3 P2 Se2'
_cell_volume   160.13488653
_cell_formula_units_Z   1
loop_
 _symmetry_equiv_pos_site_id
 _symmetry_equiv_pos_as_xyz
  1  'x, y, z'
loop_
 _atom_site_type_symbol
 _atom_site_label
 _atom_site_symmetry_multiplicity
 _atom_site_fract_x
 _atom_site_fract_y
 _atom_site_fract_z
 _atom_site_occupancy
  Se  Se0  1  0.00000000  0.00000000  0.00000000  1
  Se  Se1  1  0.50000000  0.50000000  0.50000000  1
  Cu  Cu2  1  0.25000000  0.25000000  0.25000000  1
  Cu  Cu3  1  0.75000000  0.25000000  0.00000000  1
  Cu  Cu4  1  0.25000000  0.75000000  0.50000000  1
  Y  Y5  1  0.96658478  0.86264972  0.96492828  1
  Y  Y6  1  0.48629646  0.60535833  0.01322235  1
  P  P7  1  0.18712711  0.97608306  0.60690404  1
  P  P8  1  0.21998056  0.57948030  0.17577617  1
  Li  Li9  1  0.79134207  0.71333951  0.20738498  1
