# generated using pymatgen
data_Li2Y2As3P2Se
_symmetry_space_group_name_H-M   'P 1'
_cell_length_a   4.43156202
_cell_length_b   4.63526417
_cell_length_c   6.93535540
_cell_angle_alpha   95.75192313
_cell_angle_beta   102.52649277
_cell_angle_gamma   113.10318914
_symmetry_Int_Tables_number   1
_chemical_formula_structural   Li2Y2As3P2Se
_chemical_formula_sum   'Li2 Y2 As3 P2 Se1'
_cell_volume   125.16323645
_cell_formula_units_Z   1
loop_
 _symmetry_equiv_pos_site_id
 _symmetry_equiv_pos_as_xyz
  1  'x, y, z'
loop_
 _atom_site_type_symbol
 _atom_site_label
 _atom_site_symmetry_multiplicity
 _atom_site_fract_x
 _atom_site_fract_y
 _atom_site_fract_z
 _atom_site_occupancy
  Se  Se0  1  0.00000000  0.00000000  0.00000000  1
  Y  Y1  1  0.50000000  0.50000000  0.50000000  1
  Y  Y2  1  0.50000000  0.50000000  0.00000000  1
  P  P3  1  0.50000000  0.00000000  0.50000000  1
  P  P4  1  0.00000000  0.50000000  0.50000000  1
  As  As5  1  0.61059097  0.58402567  0.54424391  1
  As  As6  1  0.32222298  0.21342097  0.98894910  1
  As  As7  1  0.80340159  0.16021339  0.17738709  1
  Li  Li8  1  0.61276953  0.66803815  0.03134278  1
  Li  Li9  1  0.67985073  0.08905133  0.92501217  1
