# generated using pymatgen
data_Li2Si4Te3F12
_symmetry_space_group_name_H-M   'P 1'
_cell_length_a   6.45651918
_cell_length_b   9.74612234
_cell_length_c   17.75140698
_cell_angle_alpha   90.00000000
_cell_angle_beta   90.00000000
_cell_angle_gamma   90.00000000
_symmetry_Int_Tables_number   1
_chemical_formula_structural   Li2Si4Te3F12
_chemical_formula_sum   'Li8 Si16 Te12 F48'
_cell_volume   1117.02549399
_cell_formula_units_Z   4
loop_
 _symmetry_equiv_pos_site_id
 _symmetry_equiv_pos_as_xyz
  1  'x, y, z'
loop_
 _atom_site_type_symbol
 _atom_site_label
 _atom_site_symmetry_multiplicity
 _atom_site_fract_x
 _atom_site_fract_y
 _atom_site_fract_z
 _atom_site_occupancy
  F  F0  1  0.00000000  0.00000000  0.50000000  1
  F  F1  1  0.50000000  0.50000000  0.00000000  1
  F  F2  1  0.07706482  0.18893439  0.64303653  1
  F  F3  1  0.92293518  0.81106561  0.64303653  1
  F  F4  1  0.42293518  0.68893439  0.85696347  1
  F  F5  1  0.57706482  0.31106561  0.85696347  1
  F  F6  1  0.92293518  0.81106561  0.35696347  1
  F  F7  1  0.07706482  0.18893439  0.35696347  1
  F  F8  1  0.57706482  0.31106561  0.14303653  1
  F  F9  1  0.42293518  0.68893439  0.14303653  1
  F  F10  1  0.00000000  0.50000000  0.50000000  1
  F  F11  1  0.50000000  0.00000000  0.00000000  1
  F  F12  1  0.04903895  0.30968434  0.39699122  1
  F  F13  1  0.95096105  0.69031566  0.39699122  1
  F  F14  1  0.45096105  0.80968434  0.10300878  1
  F  F15  1  0.54903895  0.19031566  0.10300878  1
  F  F16  1  0.95096105  0.69031566  0.60300878  1
  F  F17  1  0.04903895  0.30968434  0.60300878  1
  F  F18  1  0.54903895  0.19031566  0.89699122  1
  F  F19  1  0.45096105  0.80968434  0.89699122  1
  F  F20  1  0.00000000  0.00000000  0.00000000  1
  F  F21  1  0.50000000  0.50000000  0.50000000  1
  F  F22  1  0.88753556  0.71186151  0.91613818  1
  F  F23  1  0.11246444  0.28813849  0.91613818  1
  F  F24  1  0.61246444  0.21186151  0.58386182  1
  F  F25  1  0.38753556  0.78813849  0.58386182  1
  F  F26  1  0.11246444  0.28813849  0.08386182  1
  F  F27  1  0.88753556  0.71186151  0.08386182  1
  F  F28  1  0.38753556  0.78813849  0.41613818  1
  F  F29  1  0.61246444  0.21186151  0.41613818  1
  F  F30  1  0.04767875  0.61115159  0.89866048  1
  F  F31  1  0.95232125  0.38884841  0.89866048  1
  F  F32  1  0.45232125  0.11115159  0.60133952  1
  F  F33  1  0.54767875  0.88884841  0.60133952  1
  F  F34  1  0.95232125  0.38884841  0.10133952  1
  F  F35  1  0.04767875  0.61115159  0.10133952  1
  F  F36  1  0.54767875  0.88884841  0.39866048  1
  F  F37  1  0.45232125  0.11115159  0.39866048  1
  F  F38  1  0.11054698  0.89371868  0.03752821  1
  F  F39  1  0.88945302  0.10628132  0.03752821  1
  F  F40  1  0.38945302  0.39371868  0.46247179  1
  F  F41  1  0.61054698  0.60628132  0.46247179  1
  F  F42  1  0.88945302  0.10628132  0.96247179  1
  F  F43  1  0.11054698  0.89371868  0.96247179  1
  F  F44  1  0.61054698  0.60628132  0.53752821  1
  F  F45  1  0.38945302  0.39371868  0.53752821  1
  F  F46  1  0.00000000  0.50000000  0.00000000  1
  F  F47  1  0.50000000  0.00000000  0.50000000  1
  Li  Li48  1  0.95599457  0.83471507  0.11404306  1
  Li  Li49  1  0.04400543  0.16528493  0.11404306  1
  Li  Li50  1  0.54400543  0.33471507  0.38595694  1
  Li  Li51  1  0.45599457  0.66528493  0.38595694  1
  Li  Li52  1  0.04400543  0.16528493  0.88595694  1
  Li  Li53  1  0.95599457  0.83471507  0.88595694  1
  Li  Li54  1  0.45599457  0.66528493  0.61404306  1
  Li  Li55  1  0.54400543  0.33471507  0.61404306  1
  Si  Si56  1  0.13048107  0.53138085  0.40849505  1
  Si  Si57  1  -0.13048107  -0.53138085  0.40849505  1
  Si  Si58  1  0.36951893  1.03138085  0.09150495  1
  Si  Si59  1  0.63048107  -0.03138085  0.09150495  1
  Si  Si60  1  -0.13048107  -0.53138085  -0.40849505  1
  Si  Si61  1  0.13048107  0.53138085  -0.40849505  1
  Si  Si62  1  0.63048107  -0.03138085  0.90849505  1
  Si  Si63  1  0.36951893  1.03138085  0.90849505  1
  Si  Si64  1  0.32315666  0.99027493  0.00000000  1
  Si  Si65  1  0.67684334  0.00972507  0.00000000  1
  Si  Si66  1  0.17684334  0.49027493  0.50000000  1
  Si  Si67  1  0.82315666  0.50972507  0.50000000  1
  Si  Si68  1  0.31530081  0.49495516  0.00000000  1
  Si  Si69  1  0.68469919  0.50504484  0.00000000  1
  Si  Si70  1  0.18469919  0.99495516  0.50000000  1
  Si  Si71  1  0.81530081  0.00504484  0.50000000  1
  Te  Te72  1  0.15576175  0.64534527  0.00000000  1
  Te  Te73  1  0.84423825  0.35465473  0.00000000  1
  Te  Te74  1  0.34423825  0.14534527  0.50000000  1
  Te  Te75  1  0.65576175  0.85465473  0.50000000  1
  Te  Te76  1  0.47337576  0.42640806  0.74824847  1
  Te  Te77  1  0.52662424  0.57359194  0.74824847  1
  Te  Te78  1  0.02662424  0.92640806  0.75175153  1
  Te  Te79  1  0.97337576  0.07359194  0.75175153  1
  Te  Te80  1  0.52662424  0.57359194  0.25175153  1
  Te  Te81  1  0.47337576  0.42640806  0.25175153  1
  Te  Te82  1  0.97337576  0.07359194  0.24824847  1
  Te  Te83  1  0.02662424  0.92640806  0.24824847  1
