# generated using pymatgen
data_LiF
_symmetry_space_group_name_H-M   'P 1'
_cell_length_a   9.08277218
_cell_length_b   9.08277218
_cell_length_c   17.47044229
_cell_angle_alpha   90.00000000
_cell_angle_beta   90.00000000
_cell_angle_gamma   120.00000000
_symmetry_Int_Tables_number   1
_chemical_formula_structural   LiF
_chemical_formula_sum   'Li32 F32'
_cell_volume   1248.16319920
_cell_formula_units_Z   32
loop_
 _symmetry_equiv_pos_site_id
 _symmetry_equiv_pos_as_xyz
  1  'x, y, z'
loop_
 _atom_site_type_symbol
 _atom_site_label
 _atom_site_symmetry_multiplicity
 _atom_site_fract_x
 _atom_site_fract_y
 _atom_site_fract_z
 _atom_site_occupancy
  F  F0  1  0.27751608  0.58369847  0.25000000  1
  F  F1  1  0.41630153  0.69381760  0.25000000  1
  F  F2  1  0.30618240  0.72248392  0.25000000  1
  F  F3  1  0.72248392  0.41630153  0.75000000  1
  F  F4  1  0.58369847  0.30618240  0.75000000  1
  F  F5  1  0.69381760  0.27751608  0.75000000  1
  F  F6  1  0.11236577  0.13076809  0.63365179  1
  F  F7  1  -0.13076809  -0.01840232  0.63365179  1
  F  F8  1  0.01840232  -0.11236577  0.63365179  1
  F  F9  1  -0.11236577  -0.13076809  1.13365179  1
  F  F10  1  0.13076809  0.01840232  1.13365179  1
  F  F11  1  -0.01840232  0.11236577  1.13365179  1
  F  F12  1  -0.11236577  -0.13076809  -0.63365179  1
  F  F13  1  0.13076809  0.01840232  -0.63365179  1
  F  F14  1  -0.01840232  0.11236577  -0.63365179  1
  F  F15  1  0.11236577  0.13076809  -0.13365179  1
  F  F16  1  -0.13076809  -0.01840232  -0.13365179  1
  F  F17  1  0.01840232  -0.11236577  -0.13365179  1
  F  F18  1  0.66666667  0.33333333  0.25000000  1
  F  F19  1  0.33333333  0.66666667  0.75000000  1
  F  F20  1  0.72322502  0.30712747  0.46657969  1
  F  F21  1  0.69287253  0.41609755  0.46657969  1
  F  F22  1  0.58390245  0.27677498  0.46657969  1
  F  F23  1  0.27677498  0.69287253  0.96657969  1
  F  F24  1  0.30712747  0.58390245  0.96657969  1
  F  F25  1  0.41609755  0.72322502  0.96657969  1
  F  F26  1  0.27677498  0.69287253  0.53342031  1
  F  F27  1  0.30712747  0.58390245  0.53342031  1
  F  F28  1  0.41609755  0.72322502  0.53342031  1
  F  F29  1  0.72322502  0.30712747  0.03342031  1
  F  F30  1  0.69287253  0.41609755  0.03342031  1
  F  F31  1  0.58390245  0.27677498  0.03342031  1
  Li  Li32  1  0.62109652  0.89722764  0.44300898  1
  Li  Li33  1  0.10277236  0.72386888  0.44300898  1
  Li  Li34  1  0.27613112  0.37890348  0.44300898  1
  Li  Li35  1  0.37890348  0.10277236  0.94300898  1
  Li  Li36  1  0.89722764  0.27613112  0.94300898  1
  Li  Li37  1  0.72386888  0.62109652  0.94300898  1
  Li  Li38  1  0.37890348  0.10277236  0.55699102  1
  Li  Li39  1  0.89722764  0.27613112  0.55699102  1
  Li  Li40  1  0.72386888  0.62109652  0.55699102  1
  Li  Li41  1  0.62109652  0.89722764  0.05699102  1
  Li  Li42  1  0.10277236  0.72386888  0.05699102  1
  Li  Li43  1  0.27613112  0.37890348  0.05699102  1
  Li  Li44  1  0.73011881  0.58085974  0.20418700  1
  Li  Li45  1  0.41914026  0.14925907  0.20418700  1
  Li  Li46  1  0.85074093  0.26988119  0.20418700  1
  Li  Li47  1  0.26988119  0.41914026  0.70418700  1
  Li  Li48  1  0.58085974  0.85074093  0.70418700  1
  Li  Li49  1  0.14925907  0.73011881  0.70418700  1
  Li  Li50  1  0.26988119  0.41914026  0.79581300  1
  Li  Li51  1  0.58085974  0.85074093  0.79581300  1
  Li  Li52  1  0.14925907  0.73011881  0.79581300  1
  Li  Li53  1  0.73011881  0.58085974  0.29581300  1
  Li  Li54  1  0.41914026  0.14925907  0.29581300  1
  Li  Li55  1  0.85074093  0.26988119  0.29581300  1
  Li  Li56  1  0.35525165  0.46759586  0.25000000  1
  Li  Li57  1  0.53240414  0.88765580  0.25000000  1
  Li  Li58  1  0.11234420  0.64474835  0.25000000  1
  Li  Li59  1  0.64474835  0.53240414  0.75000000  1
  Li  Li60  1  0.46759586  0.11234420  0.75000000  1
  Li  Li61  1  0.88765580  0.35525165  0.75000000  1
  Li  Li62  1  0.00000000  0.00000000  0.25000000  1
  Li  Li63  1  0.00000000  0.00000000  0.75000000  1
