# generated using pymatgen
data_LiF
_symmetry_space_group_name_H-M   'P 1'
_cell_length_a   10.49291214
_cell_length_b   9.15858585
_cell_length_c   7.31141325
_cell_angle_alpha   90.00000000
_cell_angle_beta   90.00000000
_cell_angle_gamma   90.00000000
_symmetry_Int_Tables_number   1
_chemical_formula_structural   LiF
_chemical_formula_sum   'Li24 F24'
_cell_volume   702.62854411
_cell_formula_units_Z   24
loop_
 _symmetry_equiv_pos_site_id
 _symmetry_equiv_pos_as_xyz
  1  'x, y, z'
loop_
 _atom_site_type_symbol
 _atom_site_label
 _atom_site_symmetry_multiplicity
 _atom_site_fract_x
 _atom_site_fract_y
 _atom_site_fract_z
 _atom_site_occupancy
  F  F0  1  0.49481958  0.34054565  0.60414086  1
  F  F1  1  0.00518042  0.65945435  0.10414086  1
  F  F2  1  0.50518042  0.84054565  0.39585914  1
  F  F3  1  0.99481958  0.15945435  0.89585914  1
  F  F4  1  0.50518042  0.65945435  0.39585914  1
  F  F5  1  0.99481958  0.34054565  0.89585914  1
  F  F6  1  0.49481958  0.15945435  0.60414086  1
  F  F7  1  0.00518042  0.84054565  0.10414086  1
  F  F8  1  0.90287879  0.98084030  0.93285665  1
  F  F9  1  0.59712121  0.01915970  0.43285665  1
  F  F10  1  0.09712121  0.48084030  0.06714335  1
  F  F11  1  0.40287879  0.51915970  0.56714335  1
  F  F12  1  0.09712121  0.01915970  0.06714335  1
  F  F13  1  0.40287879  0.98084030  0.56714335  1
  F  F14  1  0.90287879  0.51915970  0.93285665  1
  F  F15  1  0.59712121  0.48084030  0.43285665  1
  F  F16  1  0.97412275  0.08049946  0.82420036  1
  F  F17  1  0.52587725  0.91950054  0.32420036  1
  F  F18  1  0.02587725  0.58049946  0.17579964  1
  F  F19  1  0.47412275  0.41950054  0.67579964  1
  F  F20  1  0.02587725  0.91950054  0.17579964  1
  F  F21  1  0.47412275  0.08049946  0.67579964  1
  F  F22  1  0.97412275  0.41950054  0.82420036  1
  F  F23  1  0.52587725  0.58049946  0.32420036  1
  Li  Li24  1  0.96420328  0.85178049  0.97066566  1
  Li  Li25  1  -0.46420328  -0.85178049  1.47066566  1
  Li  Li26  1  -0.96420328  1.35178049  -0.97066566  1
  Li  Li27  1  1.46420328  -0.35178049  -0.47066566  1
  Li  Li28  1  -0.96420328  -0.85178049  -0.97066566  1
  Li  Li29  1  1.46420328  0.85178049  -0.47066566  1
  Li  Li30  1  0.96420328  -0.35178049  0.97066566  1
  Li  Li31  1  -0.46420328  1.35178049  1.47066566  1
  Li  Li32  1  0.79938876  0.06121581  0.33991399  1
  Li  Li33  1  0.70061124  0.93878419  0.83991399  1
  Li  Li34  1  0.20061124  0.56121581  0.66008601  1
  Li  Li35  1  0.29938876  0.43878419  0.16008601  1
  Li  Li36  1  0.20061124  0.93878419  0.66008601  1
  Li  Li37  1  0.29938876  0.06121581  0.16008601  1
  Li  Li38  1  0.79938876  0.43878419  0.33991399  1
  Li  Li39  1  0.70061124  0.56121581  0.83991399  1
  Li  Li40  1  0.15424703  0.14673811  0.55221796  1
  Li  Li41  1  0.34575297  0.85326189  0.05221796  1
  Li  Li42  1  0.84575297  0.64673811  0.44778204  1
  Li  Li43  1  0.65424703  0.35326189  0.94778204  1
  Li  Li44  1  0.84575297  0.85326189  0.44778204  1
  Li  Li45  1  0.65424703  0.14673811  0.94778204  1
  Li  Li46  1  0.15424703  0.35326189  0.55221796  1
  Li  Li47  1  0.34575297  0.64673811  0.05221796  1
