# generated using pymatgen
data_LiF
_symmetry_space_group_name_H-M   'P 1'
_cell_length_a   6.64918196
_cell_length_b   8.14694768
_cell_length_c   5.32545685
_cell_angle_alpha   90.00000000
_cell_angle_beta   90.00000000
_cell_angle_gamma   90.00000000
_symmetry_Int_Tables_number   1
_chemical_formula_structural   LiF
_chemical_formula_sum   'Li8 F8'
_cell_volume   288.48286069
_cell_formula_units_Z   8
loop_
 _symmetry_equiv_pos_site_id
 _symmetry_equiv_pos_as_xyz
  1  'x, y, z'
loop_
 _atom_site_type_symbol
 _atom_site_label
 _atom_site_symmetry_multiplicity
 _atom_site_fract_x
 _atom_site_fract_y
 _atom_site_fract_z
 _atom_site_occupancy
  F  F0  1  0.79539843  0.93074732  0.68090134  1
  F  F1  1  -0.79539843  -0.93074732  0.68090134  1
  F  F2  1  -0.29539843  1.43074732  -0.18090134  1
  F  F3  1  1.29539843  -0.43074732  -0.18090134  1
  F  F4  1  -0.79539843  -0.93074732  -0.68090134  1
  F  F5  1  0.79539843  0.93074732  -0.68090134  1
  F  F6  1  1.29539843  -0.43074732  1.18090134  1
  F  F7  1  -0.29539843  1.43074732  1.18090134  1
  Li  Li8  1  0.31186381  0.38208880  -0.00000000  1
  Li  Li9  1  0.68813619  0.61791120  0.00000000  1
  Li  Li10  1  0.18813619  0.88208880  0.50000000  1
  Li  Li11  1  0.81186381  0.11791120  0.50000000  1
  Li  Li12  1  0.00000000  0.50000000  -0.00000000  1
  Li  Li13  1  0.50000000  0.00000000  0.50000000  1
  Li  Li14  1  0.00000000  0.00000000  0.50000000  1
  Li  Li15  1  0.50000000  0.50000000  0.00000000  1
