# generated using pymatgen
data_Li2YAs(P2Se)2
_symmetry_space_group_name_H-M   'P 1'
_cell_length_a   4.30674031
_cell_length_b   4.53581835
_cell_length_c   6.93576182
_cell_angle_alpha   96.32758148
_cell_angle_beta   103.55421493
_cell_angle_gamma   114.31737482
_symmetry_Int_Tables_number   1
_chemical_formula_structural   Li2YAs(P2Se)2
_chemical_formula_sum   'Li2 Y1 As1 P4 Se2'
_cell_volume   116.71434745
_cell_formula_units_Z   1
loop_
 _symmetry_equiv_pos_site_id
 _symmetry_equiv_pos_as_xyz
  1  'x, y, z'
loop_
 _atom_site_type_symbol
 _atom_site_label
 _atom_site_symmetry_multiplicity
 _atom_site_fract_x
 _atom_site_fract_y
 _atom_site_fract_z
 _atom_site_occupancy
  Se  Se0  1  0.12500000  0.00000000  0.25000000  1
  Se  Se1  1  0.00000000  0.00000000  0.00000000  1
  Y  Y2  1  0.37500000  0.00000000  0.25000000  1
  P  P3  1  0.25000000  0.25000000  0.25000000  1
  P  P4  1  0.00000000  0.25000000  0.12500000  1
  P  P5  1  0.96037575  0.44943115  0.76993208  1
  P  P6  1  0.52885742  0.36911800  0.40693479  1
  As  As7  1  0.28818167  0.34567855  0.07537042  1
  Li  Li8  1  0.69803777  0.97423278  0.17280281  1
  Li  Li9  1  0.97302120  0.34791208  0.83554620  1
