# generated using pymatgen
data_NaLi8Br3(ClF2)2
_symmetry_space_group_name_H-M   'P 1'
_cell_length_a   6.68268821
_cell_length_b   6.68268821
_cell_length_c   35.35913882
_cell_angle_alpha   90.00000000
_cell_angle_beta   90.00000000
_cell_angle_gamma   90.00000000
_symmetry_Int_Tables_number   1
_chemical_formula_structural   NaLi8Br3(ClF2)2
_chemical_formula_sum   'Na4 Li32 Br12 Cl8 F16'
_cell_volume   1579.07979879
_cell_formula_units_Z   4
loop_
 _symmetry_equiv_pos_site_id
 _symmetry_equiv_pos_as_xyz
  1  'x, y, z'
loop_
 _atom_site_type_symbol
 _atom_site_label
 _atom_site_symmetry_multiplicity
 _atom_site_fract_x
 _atom_site_fract_y
 _atom_site_fract_z
 _atom_site_occupancy
  Br  Br0  1  0.84503818  0.84503818  0.65991851  1
  Br  Br1  1  0.15496182  0.15496182  0.65991851  1
  Br  Br2  1  0.15496182  0.84503818  0.65991851  1
  Br  Br3  1  0.84503818  0.15496182  0.65991851  1
  Br  Br4  1  0.15496182  0.84503818  0.34008149  1
  Br  Br5  1  0.84503818  0.15496182  0.34008149  1
  Br  Br6  1  0.84503818  0.84503818  0.34008149  1
  Br  Br7  1  0.15496182  0.15496182  0.34008149  1
  Br  Br8  1  0.24316120  0.50000000  0.50000000  1
  Br  Br9  1  0.75683880  0.50000000  0.50000000  1
  Br  Br10  1  0.50000000  0.24316120  0.50000000  1
  Br  Br11  1  0.50000000  0.75683880  0.50000000  1
  Cl  Cl12  1  0.00000000  0.50000000  0.50000000  1
  Cl  Cl13  1  0.50000000  0.00000000  0.50000000  1
  Cl  Cl14  1  0.00000000  0.50000000  0.05745522  1
  Cl  Cl15  1  0.50000000  0.00000000  0.05745522  1
  Cl  Cl16  1  0.00000000  0.50000000  0.94254478  1
  Cl  Cl17  1  0.50000000  0.00000000  0.94254478  1
  Cl  Cl18  1  0.50000000  0.50000000  0.00000000  1
  Cl  Cl19  1  0.00000000  0.00000000  0.00000000  1
  F  F20  1  0.16223498  0.50000000  0.18294193  1
  F  F21  1  0.83776502  0.50000000  0.18294193  1
  F  F22  1  0.50000000  0.16223498  0.18294193  1
  F  F23  1  0.50000000  0.83776502  0.18294193  1
  F  F24  1  0.83776502  0.50000000  0.81705807  1
  F  F25  1  0.16223498  0.50000000  0.81705807  1
  F  F26  1  0.50000000  0.16223498  0.81705807  1
  F  F27  1  0.50000000  0.83776502  0.81705807  1
  F  F28  1  0.20996343  0.70871518  0.50000000  1
  F  F29  1  0.79003657  0.29128482  0.50000000  1
  F  F30  1  0.29128482  0.20996343  0.50000000  1
  F  F31  1  0.70871518  0.79003657  0.50000000  1
  F  F32  1  0.79003657  0.70871518  0.50000000  1
  F  F33  1  0.20996343  0.29128482  0.50000000  1
  F  F34  1  0.70871518  0.20996343  0.50000000  1
  F  F35  1  0.29128482  0.79003657  0.50000000  1
  Li  Li36  1  0.34278341  0.00000000  0.65637572  1
  Li  Li37  1  0.65721659  0.00000000  0.65637572  1
  Li  Li38  1  0.00000000  0.34278341  0.65637572  1
  Li  Li39  1  0.00000000  0.65721659  0.65637572  1
  Li  Li40  1  0.65721659  0.00000000  0.34362428  1
  Li  Li41  1  0.34278341  0.00000000  0.34362428  1
  Li  Li42  1  0.00000000  0.34278341  0.34362428  1
  Li  Li43  1  0.00000000  0.65721659  0.34362428  1
  Li  Li44  1  0.62877519  0.10749823  0.17774602  1
  Li  Li45  1  -0.62877519  -0.10749823  0.17774602  1
  Li  Li46  1  -0.10749823  0.62877519  0.17774602  1
  Li  Li47  1  0.10749823  -0.62877519  0.17774602  1
  Li  Li48  1  -0.62877519  0.10749823  -0.17774602  1
  Li  Li49  1  0.62877519  -0.10749823  -0.17774602  1
  Li  Li50  1  0.10749823  0.62877519  -0.17774602  1
  Li  Li51  1  -0.10749823  -0.62877519  -0.17774602  1
  Li  Li52  1  -0.62877519  -0.10749823  -0.17774602  1
  Li  Li53  1  0.62877519  0.10749823  -0.17774602  1
  Li  Li54  1  0.10749823  -0.62877519  -0.17774602  1
  Li  Li55  1  -0.10749823  0.62877519  -0.17774602  1
  Li  Li56  1  0.62877519  -0.10749823  0.17774602  1
  Li  Li57  1  -0.62877519  0.10749823  0.17774602  1
  Li  Li58  1  -0.10749823  -0.62877519  0.17774602  1
  Li  Li59  1  0.10749823  0.62877519  0.17774602  1
  Li  Li60  1  0.00000000  0.50000000  0.27972920  1
  Li  Li61  1  0.50000000  0.00000000  0.27972920  1
  Li  Li62  1  0.00000000  0.50000000  0.72027080  1
  Li  Li63  1  0.50000000  0.00000000  0.72027080  1
  Li  Li64  1  0.00000000  0.50000000  0.23241852  1
  Li  Li65  1  0.50000000  0.00000000  0.23241852  1
  Li  Li66  1  0.00000000  0.50000000  0.76758148  1
  Li  Li67  1  0.50000000  0.00000000  0.76758148  1
  Na  Na68  1  0.79876222  0.00000000  0.00000000  1
  Na  Na69  1  0.20123778  0.00000000  0.00000000  1
  Na  Na70  1  0.00000000  0.79876222  0.00000000  1
  Na  Na71  1  0.00000000  0.20123778  0.00000000  1
