# generated using pymatgen
data_LiF
_symmetry_space_group_name_H-M   'P 1'
_cell_length_a   7.92713247
_cell_length_b   8.06182898
_cell_length_c   7.44478373
_cell_angle_alpha   90.00000000
_cell_angle_beta   90.00000000
_cell_angle_gamma   90.00000000
_symmetry_Int_Tables_number   1
_chemical_formula_structural   LiF
_chemical_formula_sum   'Li24 F24'
_cell_volume   475.77518079
_cell_formula_units_Z   24
loop_
 _symmetry_equiv_pos_site_id
 _symmetry_equiv_pos_as_xyz
  1  'x, y, z'
loop_
 _atom_site_type_symbol
 _atom_site_label
 _atom_site_symmetry_multiplicity
 _atom_site_fract_x
 _atom_site_fract_y
 _atom_site_fract_z
 _atom_site_occupancy
  F  F0  1  0.82969460  0.15737878  0.94923973  1
  F  F1  1  0.67030540  0.84262122  0.44923973  1
  F  F2  1  0.17030540  0.65737878  0.05076027  1
  F  F3  1  0.32969460  0.34262122  0.55076027  1
  F  F4  1  0.17030540  0.84262122  0.05076027  1
  F  F5  1  0.32969460  0.15737878  0.55076027  1
  F  F6  1  0.82969460  0.34262122  0.94923973  1
  F  F7  1  0.67030540  0.65737878  0.44923973  1
  F  F8  1  0.60611881  0.05965534  0.90830617  1
  F  F9  1  0.89388119  0.94034466  0.40830617  1
  F  F10  1  0.39388119  0.55965534  0.09169383  1
  F  F11  1  0.10611881  0.44034466  0.59169383  1
  F  F12  1  0.39388119  0.94034466  0.09169383  1
  F  F13  1  0.10611881  0.05965534  0.59169383  1
  F  F14  1  0.60611881  0.44034466  0.90830617  1
  F  F15  1  0.89388119  0.55965534  0.40830617  1
  F  F16  1  0.93654886  0.25000000  0.35533391  1
  F  F17  1  0.56345114  0.75000000  0.85533391  1
  F  F18  1  0.06345114  0.75000000  0.64466609  1
  F  F19  1  0.43654886  0.25000000  0.14466609  1
  F  F20  1  0.00000000  0.00000000  0.50000000  1
  F  F21  1  0.50000000  0.00000000  0.00000000  1
  F  F22  1  0.00000000  0.50000000  0.50000000  1
  F  F23  1  0.50000000  0.50000000  0.00000000  1
  Li  Li24  1  0.21278914  0.25000000  0.96011078  1
  Li  Li25  1  0.28721086  0.75000000  0.46011078  1
  Li  Li26  1  0.78721086  0.75000000  0.03988922  1
  Li  Li27  1  0.71278914  0.25000000  0.53988922  1
  Li  Li28  1  0.79985092  0.03932369  0.95323339  1
  Li  Li29  1  -0.29985092  -0.03932369  1.45323339  1
  Li  Li30  1  -0.79985092  0.53932369  -0.95323339  1
  Li  Li31  1  1.29985092  0.46067631  -0.45323339  1
  Li  Li32  1  -0.79985092  -0.03932369  -0.95323339  1
  Li  Li33  1  1.29985092  0.03932369  -0.45323339  1
  Li  Li34  1  0.79985092  0.46067631  0.95323339  1
  Li  Li35  1  -0.29985092  0.53932369  1.45323339  1
  Li  Li36  1  0.00000000  0.00000000  0.00000000  1
  Li  Li37  1  0.50000000  0.00000000  0.50000000  1
  Li  Li38  1  0.00000000  0.50000000  0.00000000  1
  Li  Li39  1  0.50000000  0.50000000  0.50000000  1
  Li  Li40  1  0.92992704  0.51712998  0.81644118  1
  Li  Li41  1  0.57007296  0.48287002  0.31644118  1
  Li  Li42  1  0.07007296  0.01712998  0.18355882  1
  Li  Li43  1  0.42992704  0.98287002  0.68355882  1
  Li  Li44  1  0.07007296  0.48287002  0.18355882  1
  Li  Li45  1  0.42992704  0.51712998  0.68355882  1
  Li  Li46  1  0.92992704  0.98287002  0.81644118  1
  Li  Li47  1  0.57007296  0.01712998  0.31644118  1
