# generated using pymatgen
data_LiF
_symmetry_space_group_name_H-M   'P 1'
_cell_length_a   18.27571630
_cell_length_b   6.16229157
_cell_length_c   7.43571520
_cell_angle_alpha   90.00000000
_cell_angle_beta   90.00000000
_cell_angle_gamma   90.00000000
_symmetry_Int_Tables_number   1
_chemical_formula_structural   LiF
_chemical_formula_sum   'Li30 F30'
_cell_volume   837.41242072
_cell_formula_units_Z   30
loop_
 _symmetry_equiv_pos_site_id
 _symmetry_equiv_pos_as_xyz
  1  'x, y, z'
loop_
 _atom_site_type_symbol
 _atom_site_label
 _atom_site_symmetry_multiplicity
 _atom_site_fract_x
 _atom_site_fract_y
 _atom_site_fract_z
 _atom_site_occupancy
  F  F0  1  0.19810335  0.49938373  0.50000000  1
  F  F1  1  0.80189665  0.50061627  0.50000000  1
  F  F2  1  0.30189665  0.99938373  0.50000000  1
  F  F3  1  0.69810335  0.00061627  0.50000000  1
  F  F4  1  0.00000000  0.50000000  0.30180028  1
  F  F5  1  0.50000000  0.00000000  0.69819972  1
  F  F6  1  0.00000000  0.50000000  0.69819972  1
  F  F7  1  0.50000000  0.00000000  0.30180028  1
  F  F8  1  0.87923058  0.73848459  0.00000000  1
  F  F9  1  0.12076942  0.26151541  -0.00000000  1
  F  F10  1  0.62076942  0.23848459  0.00000000  1
  F  F11  1  0.37923058  0.76151541  -0.00000000  1
  F  F12  1  0.91345187  0.54596578  0.58864415  1
  F  F13  1  0.08654813  0.45403422  0.58864415  1
  F  F14  1  0.58654813  0.04596578  0.41135585  1
  F  F15  1  0.41345187  0.95403422  0.41135585  1
  F  F16  1  0.08654813  0.45403422  0.41135585  1
  F  F17  1  0.91345187  0.54596578  0.41135585  1
  F  F18  1  0.41345187  0.95403422  0.58864415  1
  F  F19  1  0.58654813  0.04596578  0.58864415  1
  F  F20  1  0.86121129  0.79883932  0.05081152  1
  F  F21  1  0.13878871  0.20116068  0.05081152  1
  F  F22  1  0.63878871  0.29883932  0.94918848  1
  F  F23  1  0.36121129  0.70116068  0.94918848  1
  F  F24  1  0.13878871  0.20116068  0.94918848  1
  F  F25  1  0.86121129  0.79883932  0.94918848  1
  F  F26  1  0.36121129  0.70116068  0.05081152  1
  F  F27  1  0.63878871  0.29883932  0.05081152  1
  F  F28  1  0.00000000  0.50000000  0.00000000  1
  F  F29  1  0.50000000  0.00000000  0.00000000  1
  Li  Li30  1  0.52281365  0.80769630  0.68733790  1
  Li  Li31  1  -0.52281365  -0.80769630  0.68733790  1
  Li  Li32  1  -0.02281365  1.30769630  -0.68733790  1
  Li  Li33  1  1.02281365  -0.30769630  -0.68733790  1
  Li  Li34  1  -0.52281365  -0.80769630  -0.68733790  1
  Li  Li35  1  0.52281365  0.80769630  -0.68733790  1
  Li  Li36  1  1.02281365  -0.30769630  0.68733790  1
  Li  Li37  1  -0.02281365  1.30769630  0.68733790  1
  Li  Li38  1  0.00000000  0.50000000  0.50000000  1
  Li  Li39  1  0.50000000  0.00000000  0.50000000  1
  Li  Li40  1  0.08709316  0.67542878  0.50000000  1
  Li  Li41  1  0.91290684  0.32457122  0.50000000  1
  Li  Li42  1  0.41290684  0.17542878  0.50000000  1
  Li  Li43  1  0.58709316  0.82457122  0.50000000  1
  Li  Li44  1  0.24296315  0.34760694  0.36458624  1
  Li  Li45  1  0.75703685  0.65239306  0.36458624  1
  Li  Li46  1  0.25703685  0.84760694  0.63541376  1
  Li  Li47  1  0.74296315  0.15239306  0.63541376  1
  Li  Li48  1  0.75703685  0.65239306  0.63541376  1
  Li  Li49  1  0.24296315  0.34760694  0.63541376  1
  Li  Li50  1  0.74296315  0.15239306  0.36458624  1
  Li  Li51  1  0.25703685  0.84760694  0.36458624  1
  Li  Li52  1  0.00000000  0.00000000  0.78061585  1
  Li  Li53  1  0.50000000  0.50000000  0.21938415  1
  Li  Li54  1  0.00000000  0.00000000  0.21938415  1
  Li  Li55  1  0.50000000  0.50000000  0.78061585  1
  Li  Li56  1  0.43838369  0.31726503  -0.00000000  1
  Li  Li57  1  0.56161631  0.68273497  -0.00000000  1
  Li  Li58  1  0.06161631  0.81726503  -0.00000000  1
  Li  Li59  1  0.93838369  0.18273497  0.00000000  1
