# generated using pymatgen
data_Li2Y2P3Se2
_symmetry_space_group_name_H-M   'P 1'
_cell_length_a   5.15201840
_cell_length_b   5.28499927
_cell_length_c   7.02102060
_cell_angle_alpha   94.49428194
_cell_angle_beta   99.78761172
_cell_angle_gamma   108.05174433
_symmetry_Int_Tables_number   1
_chemical_formula_structural   Li2Y2P3Se2
_chemical_formula_sum   'Li2 Y2 P3 Se2'
_cell_volume   177.35524541
_cell_formula_units_Z   1
loop_
 _symmetry_equiv_pos_site_id
 _symmetry_equiv_pos_as_xyz
  1  'x, y, z'
loop_
 _atom_site_type_symbol
 _atom_site_label
 _atom_site_symmetry_multiplicity
 _atom_site_fract_x
 _atom_site_fract_y
 _atom_site_fract_z
 _atom_site_occupancy
  Se  Se0  1  0.12500000  0.12500000  0.12500000  1
  Se  Se1  1  0.50000000  0.50000000  0.50000000  1
  P  P2  1  0.25000000  0.25000000  0.25000000  1
  P  P3  1  0.75000000  0.75000000  0.75000000  1
  P  P4  1  0.27466643  0.39950399  0.07426938  1
  Li  Li5  1  0.94928339  0.81605266  0.46654210  1
  Li  Li6  1  0.75106249  0.82914209  0.45006256  1
  Y  Y7  1  0.01952564  0.27437867  0.89904841  1
  Y  Y8  1  0.01553906  0.54367691  0.99503006  1
