# generated using pymatgen
data_Li3Y2P3Se
_symmetry_space_group_name_H-M   'P 1'
_cell_length_a   5.72345989
_cell_length_b   6.03307031
_cell_length_c   7.35738819
_cell_angle_alpha   93.14139527
_cell_angle_beta   96.99108523
_cell_angle_gamma   102.79858636
_symmetry_Int_Tables_number   1
_chemical_formula_structural   Li3Y2P3Se
_chemical_formula_sum   'Li3 Y2 P3 Se1'
_cell_volume   245.01810519
_cell_formula_units_Z   1
loop_
 _symmetry_equiv_pos_site_id
 _symmetry_equiv_pos_as_xyz
  1  'x, y, z'
loop_
 _atom_site_type_symbol
 _atom_site_label
 _atom_site_symmetry_multiplicity
 _atom_site_fract_x
 _atom_site_fract_y
 _atom_site_fract_z
 _atom_site_occupancy
  Se  Se0  1  0.00000000  0.00000000  0.00000000  1
  P  P1  1  0.50000000  0.50000000  0.50000000  1
  P  P2  1  0.50000000  0.50000000  0.00000000  1
  P  P3  1  0.50000000  0.00000000  0.50000000  1
  Li  Li4  1  0.00000000  0.50000000  0.50000000  1
  Li  Li5  1  0.46330879  0.26117213  0.51559993  1
  Li  Li6  1  0.96847557  0.97871663  0.98623807  1
  Y  Y7  1  0.78499611  0.94394919  0.17880171  1
  Y  Y8  1  0.53832682  0.82420247  0.62245382  1
