# generated using pymatgen
data_Li2ClF
_symmetry_space_group_name_H-M   'P 1'
_cell_length_a   16.60941399
_cell_length_b   16.60941399
_cell_length_c   16.60941399
_cell_angle_alpha   90.00000000
_cell_angle_beta   90.00000000
_cell_angle_gamma   90.00000000
_symmetry_Int_Tables_number   1
_chemical_formula_structural   Li2ClF
_chemical_formula_sum   'Li192 Cl96 F96'
_cell_volume   4582.08277057
_cell_formula_units_Z   96
loop_
 _symmetry_equiv_pos_site_id
 _symmetry_equiv_pos_as_xyz
  1  'x, y, z'
loop_
 _atom_site_type_symbol
 _atom_site_label
 _atom_site_symmetry_multiplicity
 _atom_site_fract_x
 _atom_site_fract_y
 _atom_site_fract_z
 _atom_site_occupancy
  Cl  Cl0  1  0.37500000  0.37500000  0.37500000  1
  Cl  Cl1  1  0.12500000  0.62500000  0.12500000  1
  Cl  Cl2  1  0.37500000  0.87500000  0.87500000  1
  Cl  Cl3  1  0.12500000  0.12500000  0.62500000  1
  Cl  Cl4  1  0.87500000  0.37500000  0.87500000  1
  Cl  Cl5  1  0.62500000  0.62500000  0.62500000  1
  Cl  Cl6  1  0.87500000  0.87500000  0.37500000  1
  Cl  Cl7  1  0.62500000  0.12500000  0.12500000  1
  Cl  Cl8  1  0.81225468  0.81225468  0.81225468  1
  Cl  Cl9  1  0.93774532  0.43774532  0.31225468  1
  Cl  Cl10  1  0.43774532  0.31225468  0.93774532  1
  Cl  Cl11  1  0.31225468  0.93774532  0.43774532  1
  Cl  Cl12  1  0.56225468  0.06225468  0.68774532  1
  Cl  Cl13  1  0.18774532  0.18774532  0.18774532  1
  Cl  Cl14  1  0.06225468  0.68774532  0.56225468  1
  Cl  Cl15  1  0.68774532  0.56225468  0.06225468  1
  Cl  Cl16  1  0.81225468  0.31225468  0.31225468  1
  Cl  Cl17  1  0.93774532  0.93774532  0.81225468  1
  Cl  Cl18  1  0.43774532  0.81225468  0.43774532  1
  Cl  Cl19  1  0.31225468  0.43774532  0.93774532  1
  Cl  Cl20  1  0.56225468  0.56225468  0.18774532  1
  Cl  Cl21  1  0.18774532  0.68774532  0.68774532  1
  Cl  Cl22  1  0.06225468  0.18774532  0.06225468  1
  Cl  Cl23  1  0.68774532  0.06225468  0.56225468  1
  Cl  Cl24  1  0.31225468  0.81225468  0.31225468  1
  Cl  Cl25  1  0.43774532  0.43774532  0.81225468  1
  Cl  Cl26  1  0.93774532  0.31225468  0.43774532  1
  Cl  Cl27  1  0.81225468  0.93774532  0.93774532  1
  Cl  Cl28  1  0.06225468  0.06225468  0.18774532  1
  Cl  Cl29  1  0.68774532  0.18774532  0.68774532  1
  Cl  Cl30  1  0.56225468  0.68774532  0.06225468  1
  Cl  Cl31  1  0.18774532  0.56225468  0.56225468  1
  Cl  Cl32  1  0.31225468  0.31225468  0.81225468  1
  Cl  Cl33  1  0.43774532  0.93774532  0.31225468  1
  Cl  Cl34  1  0.93774532  0.81225468  0.93774532  1
  Cl  Cl35  1  0.81225468  0.43774532  0.43774532  1
  Cl  Cl36  1  0.06225468  0.56225468  0.68774532  1
  Cl  Cl37  1  0.68774532  0.68774532  0.18774532  1
  Cl  Cl38  1  0.56225468  0.18774532  0.56225468  1
  Cl  Cl39  1  0.18774532  0.06225468  0.06225468  1
  Cl  Cl40  1  0.50000000  0.50000000  0.50000000  1
  Cl  Cl41  1  0.25000000  0.75000000  -0.00000000  1
  Cl  Cl42  1  0.75000000  0.00000000  0.25000000  1
  Cl  Cl43  1  0.00000000  0.25000000  0.75000000  1
  Cl  Cl44  1  0.50000000  -0.00000000  -0.00000000  1
  Cl  Cl45  1  0.25000000  0.25000000  0.50000000  1
  Cl  Cl46  1  0.75000000  0.50000000  0.75000000  1
  Cl  Cl47  1  0.00000000  0.75000000  0.25000000  1
  Cl  Cl48  1  0.00000000  0.50000000  -0.00000000  1
  Cl  Cl49  1  0.75000000  0.75000000  0.50000000  1
  Cl  Cl50  1  0.25000000  -0.00000000  0.75000000  1
  Cl  Cl51  1  0.50000000  0.25000000  0.25000000  1
  Cl  Cl52  1  0.00000000  0.00000000  0.50000000  1
  Cl  Cl53  1  0.75000000  0.25000000  -0.00000000  1
  Cl  Cl54  1  0.25000000  0.50000000  0.25000000  1
  Cl  Cl55  1  0.50000000  0.75000000  0.75000000  1
  Cl  Cl56  1  0.30058283  0.30058283  0.30058283  1
  Cl  Cl57  1  0.44941717  0.94941717  0.80058283  1
  Cl  Cl58  1  0.94941717  0.80058283  0.44941717  1
  Cl  Cl59  1  0.80058283  0.44941717  0.94941717  1
  Cl  Cl60  1  0.05058283  0.55058283  0.19941717  1
  Cl  Cl61  1  0.69941717  0.69941717  0.69941717  1
  Cl  Cl62  1  0.55058283  0.19941717  0.05058283  1
  Cl  Cl63  1  0.19941717  0.05058283  0.55058283  1
  Cl  Cl64  1  0.30058283  0.80058283  0.80058283  1
  Cl  Cl65  1  0.44941717  0.44941717  0.30058283  1
  Cl  Cl66  1  0.94941717  0.30058283  0.94941717  1
  Cl  Cl67  1  0.80058283  0.94941717  0.44941717  1
  Cl  Cl68  1  0.05058283  0.05058283  0.69941717  1
  Cl  Cl69  1  0.69941717  0.19941717  0.19941717  1
  Cl  Cl70  1  0.55058283  0.69941717  0.55058283  1
  Cl  Cl71  1  0.19941717  0.55058283  0.05058283  1
  Cl  Cl72  1  0.80058283  0.30058283  0.80058283  1
  Cl  Cl73  1  0.94941717  0.94941717  0.30058283  1
  Cl  Cl74  1  0.44941717  0.80058283  0.94941717  1
  Cl  Cl75  1  0.30058283  0.44941717  0.44941717  1
  Cl  Cl76  1  0.55058283  0.55058283  0.69941717  1
  Cl  Cl77  1  0.19941717  0.69941717  0.19941717  1
  Cl  Cl78  1  0.05058283  0.19941717  0.55058283  1
  Cl  Cl79  1  0.69941717  0.05058283  0.05058283  1
  Cl  Cl80  1  0.80058283  0.80058283  0.30058283  1
  Cl  Cl81  1  0.94941717  0.44941717  0.80058283  1
  Cl  Cl82  1  0.44941717  0.30058283  0.44941717  1
  Cl  Cl83  1  0.30058283  0.94941717  0.94941717  1
  Cl  Cl84  1  0.55058283  0.05058283  0.19941717  1
  Cl  Cl85  1  0.19941717  0.19941717  0.69941717  1
  Cl  Cl86  1  0.05058283  0.69941717  0.05058283  1
  Cl  Cl87  1  0.69941717  0.55058283  0.55058283  1
  Cl  Cl88  1  0.12500000  0.12500000  0.12500000  1
  Cl  Cl89  1  0.87500000  0.37500000  0.37500000  1
  Cl  Cl90  1  0.12500000  0.62500000  0.62500000  1
  Cl  Cl91  1  0.87500000  0.87500000  0.87500000  1
  Cl  Cl92  1  0.62500000  0.12500000  0.62500000  1
  Cl  Cl93  1  0.37500000  0.37500000  0.87500000  1
  Cl  Cl94  1  0.62500000  0.62500000  0.12500000  1
  Cl  Cl95  1  0.37500000  0.87500000  0.37500000  1
  F  F96  1  0.15197866  0.15197866  0.31444125  1
  F  F97  1  0.59802134  0.09802134  0.81444125  1
  F  F98  1  0.09802134  0.65197866  0.43555875  1
  F  F99  1  0.65197866  0.59802134  0.93555875  1
  F  F100  1  0.31444125  0.15197866  0.15197866  1
  F  F101  1  0.81444125  0.59802134  0.09802134  1
  F  F102  1  0.43555875  0.09802134  0.65197866  1
  F  F103  1  0.93555875  0.65197866  0.59802134  1
  F  F104  1  0.15197866  0.31444125  0.15197866  1
  F  F105  1  0.09802134  0.81444125  0.59802134  1
  F  F106  1  0.65197866  0.43555875  0.09802134  1
  F  F107  1  0.59802134  0.93555875  0.65197866  1
  F  F108  1  0.90197866  0.40197866  0.18555875  1
  F  F109  1  0.84802134  0.84802134  0.68555875  1
  F  F110  1  0.40197866  0.34802134  0.06444125  1
  F  F111  1  0.34802134  0.90197866  0.56444125  1
  F  F112  1  0.90197866  0.56444125  0.34802134  1
  F  F113  1  0.34802134  0.06444125  0.40197866  1
  F  F114  1  0.84802134  0.68555875  0.84802134  1
  F  F115  1  0.40197866  0.18555875  0.90197866  1
  F  F116  1  0.06444125  0.40197866  0.34802134  1
  F  F117  1  0.56444125  0.34802134  0.90197866  1
  F  F118  1  0.18555875  0.90197866  0.40197866  1
  F  F119  1  0.68555875  0.84802134  0.84802134  1
  F  F120  1  0.15197866  0.65197866  0.81444125  1
  F  F121  1  0.59802134  0.59802134  0.31444125  1
  F  F122  1  0.09802134  0.15197866  0.93555875  1
  F  F123  1  0.65197866  0.09802134  0.43555875  1
  F  F124  1  0.31444125  0.65197866  0.65197866  1
  F  F125  1  0.81444125  0.09802134  0.59802134  1
  F  F126  1  0.43555875  0.59802134  0.15197866  1
  F  F127  1  0.93555875  0.15197866  0.09802134  1
  F  F128  1  0.15197866  0.81444125  0.65197866  1
  F  F129  1  0.09802134  0.31444125  0.09802134  1
  F  F130  1  0.65197866  0.93555875  0.59802134  1
  F  F131  1  0.59802134  0.43555875  0.15197866  1
  F  F132  1  0.90197866  0.90197866  0.68555875  1
  F  F133  1  0.84802134  0.34802134  0.18555875  1
  F  F134  1  0.40197866  0.84802134  0.56444125  1
  F  F135  1  0.34802134  0.40197866  0.06444125  1
  F  F136  1  0.90197866  0.06444125  0.84802134  1
  F  F137  1  0.34802134  0.56444125  0.90197866  1
  F  F138  1  0.84802134  0.18555875  0.34802134  1
  F  F139  1  0.40197866  0.68555875  0.40197866  1
  F  F140  1  0.06444125  0.90197866  0.84802134  1
  F  F141  1  0.56444125  0.84802134  0.40197866  1
  F  F142  1  0.18555875  0.40197866  0.90197866  1
  F  F143  1  0.68555875  0.34802134  0.34802134  1
  F  F144  1  0.65197866  0.15197866  0.81444125  1
  F  F145  1  0.09802134  0.09802134  0.31444125  1
  F  F146  1  0.59802134  0.65197866  0.93555875  1
  F  F147  1  0.15197866  0.59802134  0.43555875  1
  F  F148  1  0.81444125  0.15197866  0.65197866  1
  F  F149  1  0.31444125  0.59802134  0.59802134  1
  F  F150  1  0.93555875  0.09802134  0.15197866  1
  F  F151  1  0.43555875  0.65197866  0.09802134  1
  F  F152  1  0.65197866  0.31444125  0.65197866  1
  F  F153  1  0.59802134  0.81444125  0.09802134  1
  F  F154  1  0.15197866  0.43555875  0.59802134  1
  F  F155  1  0.09802134  0.93555875  0.15197866  1
  F  F156  1  0.40197866  0.40197866  0.68555875  1
  F  F157  1  0.34802134  0.84802134  0.18555875  1
  F  F158  1  0.90197866  0.34802134  0.56444125  1
  F  F159  1  0.84802134  0.90197866  0.06444125  1
  F  F160  1  0.40197866  0.56444125  0.84802134  1
  F  F161  1  0.84802134  0.06444125  0.90197866  1
  F  F162  1  0.34802134  0.68555875  0.34802134  1
  F  F163  1  0.90197866  0.18555875  0.40197866  1
  F  F164  1  0.56444125  0.40197866  0.84802134  1
  F  F165  1  0.06444125  0.34802134  0.40197866  1
  F  F166  1  0.68555875  0.90197866  0.90197866  1
  F  F167  1  0.18555875  0.84802134  0.34802134  1
  F  F168  1  0.65197866  0.65197866  0.31444125  1
  F  F169  1  0.09802134  0.59802134  0.81444125  1
  F  F170  1  0.59802134  0.15197866  0.43555875  1
  F  F171  1  0.15197866  0.09802134  0.93555875  1
  F  F172  1  0.81444125  0.65197866  0.15197866  1
  F  F173  1  0.31444125  0.09802134  0.09802134  1
  F  F174  1  0.93555875  0.59802134  0.65197866  1
  F  F175  1  0.43555875  0.15197866  0.59802134  1
  F  F176  1  0.65197866  0.81444125  0.15197866  1
  F  F177  1  0.59802134  0.31444125  0.59802134  1
  F  F178  1  0.15197866  0.93555875  0.09802134  1
  F  F179  1  0.09802134  0.43555875  0.65197866  1
  F  F180  1  0.40197866  0.90197866  0.18555875  1
  F  F181  1  0.34802134  0.34802134  0.68555875  1
  F  F182  1  0.90197866  0.84802134  0.06444125  1
  F  F183  1  0.84802134  0.40197866  0.56444125  1
  F  F184  1  0.40197866  0.06444125  0.34802134  1
  F  F185  1  0.84802134  0.56444125  0.40197866  1
  F  F186  1  0.34802134  0.18555875  0.84802134  1
  F  F187  1  0.90197866  0.68555875  0.90197866  1
  F  F188  1  0.56444125  0.90197866  0.34802134  1
  F  F189  1  0.06444125  0.84802134  0.90197866  1
  F  F190  1  0.68555875  0.40197866  0.40197866  1
  F  F191  1  0.18555875  0.34802134  0.84802134  1
  Li  Li192  1  0.57286240  0.33688198  0.47902359  1
  Li  Li193  1  0.17713760  -0.08688198  0.97902359  1
  Li  Li194  1  -0.32286240  0.83688198  0.27097641  1
  Li  Li195  1  1.07286240  0.41311802  -0.22902359  1
  Li  Li196  1  0.47902359  0.57286240  0.33688198  1
  Li  Li197  1  0.97902359  0.17713760  -0.08688198  1
  Li  Li198  1  0.27097641  -0.32286240  0.83688198  1
  Li  Li199  1  -0.22902359  1.07286240  0.41311802  1
  Li  Li200  1  0.33688198  0.47902359  0.57286240  1
  Li  Li201  1  -0.08688198  0.97902359  0.17713760  1
  Li  Li202  1  0.83688198  0.27097641  -0.32286240  1
  Li  Li203  1  0.41311802  -0.22902359  1.07286240  1
  Li  Li204  1  1.08688198  0.82286240  0.02097641  1
  Li  Li205  1  -0.33688198  -0.57286240  -0.47902359  1
  Li  Li206  1  0.58688198  -0.07286240  1.22902359  1
  Li  Li207  1  0.16311802  1.32286240  0.72902359  1
  Li  Li208  1  1.32286240  0.72902359  0.16311802  1
  Li  Li209  1  -0.07286240  1.22902359  0.58688198  1
  Li  Li210  1  -0.57286240  -0.47902359  -0.33688198  1
  Li  Li211  1  0.82286240  0.02097641  1.08688198  1
  Li  Li212  1  1.22902359  0.58688198  -0.07286240  1
  Li  Li213  1  0.72902359  0.16311802  1.32286240  1
  Li  Li214  1  0.02097641  1.08688198  0.82286240  1
  Li  Li215  1  -0.47902359  -0.33688198  -0.57286240  1
  Li  Li216  1  -0.57286240  -0.33688198  -0.47902359  1
  Li  Li217  1  0.82286240  1.08688198  0.02097641  1
  Li  Li218  1  1.32286240  0.16311802  0.72902359  1
  Li  Li219  1  -0.07286240  0.58688198  1.22902359  1
  Li  Li220  1  -0.47902359  -0.57286240  -0.33688198  1
  Li  Li221  1  0.02097641  0.82286240  1.08688198  1
  Li  Li222  1  0.72902359  1.32286240  0.16311802  1
  Li  Li223  1  1.22902359  -0.07286240  0.58688198  1
  Li  Li224  1  -0.33688198  -0.47902359  -0.57286240  1
  Li  Li225  1  1.08688198  0.02097641  0.82286240  1
  Li  Li226  1  0.16311802  0.72902359  1.32286240  1
  Li  Li227  1  0.58688198  1.22902359  -0.07286240  1
  Li  Li228  1  -0.08688198  0.17713760  0.97902359  1
  Li  Li229  1  0.33688198  0.57286240  0.47902359  1
  Li  Li230  1  0.41311802  1.07286240  -0.22902359  1
  Li  Li231  1  0.83688198  -0.32286240  0.27097641  1
  Li  Li232  1  -0.32286240  0.27097641  0.83688198  1
  Li  Li233  1  1.07286240  -0.22902359  0.41311802  1
  Li  Li234  1  0.57286240  0.47902359  0.33688198  1
  Li  Li235  1  0.17713760  0.97902359  -0.08688198  1
  Li  Li236  1  -0.22902359  0.41311802  1.07286240  1
  Li  Li237  1  0.27097641  0.83688198  -0.32286240  1
  Li  Li238  1  0.97902359  -0.08688198  0.17713760  1
  Li  Li239  1  0.47902359  0.33688198  0.57286240  1
  Li  Li240  1  0.57286240  0.83688198  0.97902359  1
  Li  Li241  1  0.17713760  0.41311802  1.47902359  1
  Li  Li242  1  -0.32286240  1.33688198  0.77097641  1
  Li  Li243  1  1.07286240  0.91311802  0.27097641  1
  Li  Li244  1  0.47902359  1.07286240  0.83688198  1
  Li  Li245  1  0.97902359  0.67713760  0.41311802  1
  Li  Li246  1  0.27097641  0.17713760  1.33688198  1
  Li  Li247  1  -0.22902359  1.57286240  0.91311802  1
  Li  Li248  1  0.33688198  0.97902359  1.07286240  1
  Li  Li249  1  -0.08688198  1.47902359  0.67713760  1
  Li  Li250  1  0.83688198  0.77097641  0.17713760  1
  Li  Li251  1  0.41311802  0.27097641  1.57286240  1
  Li  Li252  1  1.08688198  1.32286240  0.52097641  1
  Li  Li253  1  -0.33688198  -0.07286240  0.02097641  1
  Li  Li254  1  0.58688198  0.42713760  1.72902359  1
  Li  Li255  1  0.16311802  1.82286240  1.22902359  1
  Li  Li256  1  1.32286240  1.22902359  0.66311802  1
  Li  Li257  1  -0.07286240  1.72902359  1.08688198  1
  Li  Li258  1  -0.57286240  0.02097641  0.16311802  1
  Li  Li259  1  0.82286240  0.52097641  1.58688198  1
  Li  Li260  1  1.22902359  1.08688198  0.42713760  1
  Li  Li261  1  0.72902359  0.66311802  1.82286240  1
  Li  Li262  1  0.02097641  1.58688198  1.32286240  1
  Li  Li263  1  -0.47902359  0.16311802  -0.07286240  1
  Li  Li264  1  -0.57286240  0.16311802  0.02097641  1
  Li  Li265  1  0.82286240  1.58688198  0.52097641  1
  Li  Li266  1  1.32286240  0.66311802  1.22902359  1
  Li  Li267  1  -0.07286240  1.08688198  1.72902359  1
  Li  Li268  1  -0.47902359  -0.07286240  0.16311802  1
  Li  Li269  1  0.02097641  1.32286240  1.58688198  1
  Li  Li270  1  0.72902359  1.82286240  0.66311802  1
  Li  Li271  1  1.22902359  0.42713760  1.08688198  1
  Li  Li272  1  -0.33688198  0.02097641  -0.07286240  1
  Li  Li273  1  1.08688198  0.52097641  1.32286240  1
  Li  Li274  1  0.16311802  1.22902359  1.82286240  1
  Li  Li275  1  0.58688198  1.72902359  0.42713760  1
  Li  Li276  1  -0.08688198  0.67713760  1.47902359  1
  Li  Li277  1  0.33688198  1.07286240  0.97902359  1
  Li  Li278  1  0.41311802  1.57286240  0.27097641  1
  Li  Li279  1  0.83688198  0.17713760  0.77097641  1
  Li  Li280  1  -0.32286240  0.77097641  1.33688198  1
  Li  Li281  1  1.07286240  0.27097641  0.91311802  1
  Li  Li282  1  0.57286240  0.97902359  0.83688198  1
  Li  Li283  1  0.17713760  1.47902359  0.41311802  1
  Li  Li284  1  -0.22902359  0.91311802  1.57286240  1
  Li  Li285  1  0.27097641  1.33688198  0.17713760  1
  Li  Li286  1  0.97902359  0.41311802  0.67713760  1
  Li  Li287  1  0.47902359  0.83688198  1.07286240  1
  Li  Li288  1  1.07286240  0.33688198  0.97902359  1
  Li  Li289  1  0.67713760  -0.08688198  1.47902359  1
  Li  Li290  1  0.17713760  0.83688198  0.77097641  1
  Li  Li291  1  1.57286240  0.41311802  0.27097641  1
  Li  Li292  1  0.97902359  0.57286240  0.83688198  1
  Li  Li293  1  1.47902359  0.17713760  0.41311802  1
  Li  Li294  1  0.77097641  -0.32286240  1.33688198  1
  Li  Li295  1  0.27097641  1.07286240  0.91311802  1
  Li  Li296  1  0.83688198  0.47902359  1.07286240  1
  Li  Li297  1  0.41311802  0.97902359  0.67713760  1
  Li  Li298  1  1.33688198  0.27097641  0.17713760  1
  Li  Li299  1  0.91311802  -0.22902359  1.57286240  1
  Li  Li300  1  1.58688198  0.82286240  0.52097641  1
  Li  Li301  1  0.16311802  -0.57286240  0.02097641  1
  Li  Li302  1  1.08688198  -0.07286240  1.72902359  1
  Li  Li303  1  0.66311802  1.32286240  1.22902359  1
  Li  Li304  1  1.82286240  0.72902359  0.66311802  1
  Li  Li305  1  0.42713760  1.22902359  1.08688198  1
  Li  Li306  1  -0.07286240  -0.47902359  0.16311802  1
  Li  Li307  1  1.32286240  0.02097641  1.58688198  1
  Li  Li308  1  1.72902359  0.58688198  0.42713760  1
  Li  Li309  1  1.22902359  0.16311802  1.82286240  1
  Li  Li310  1  0.52097641  1.08688198  1.32286240  1
  Li  Li311  1  0.02097641  -0.33688198  -0.07286240  1
  Li  Li312  1  -0.07286240  -0.33688198  0.02097641  1
  Li  Li313  1  1.32286240  1.08688198  0.52097641  1
  Li  Li314  1  1.82286240  0.16311802  1.22902359  1
  Li  Li315  1  0.42713760  0.58688198  1.72902359  1
  Li  Li316  1  0.02097641  -0.57286240  0.16311802  1
  Li  Li317  1  0.52097641  0.82286240  1.58688198  1
  Li  Li318  1  1.22902359  1.32286240  0.66311802  1
  Li  Li319  1  1.72902359  -0.07286240  1.08688198  1
  Li  Li320  1  0.16311802  -0.47902359  -0.07286240  1
  Li  Li321  1  1.58688198  0.02097641  1.32286240  1
  Li  Li322  1  0.66311802  0.72902359  1.82286240  1
  Li  Li323  1  1.08688198  1.22902359  0.42713760  1
  Li  Li324  1  0.41311802  0.17713760  1.47902359  1
  Li  Li325  1  0.83688198  0.57286240  0.97902359  1
  Li  Li326  1  0.91311802  1.07286240  0.27097641  1
  Li  Li327  1  1.33688198  -0.32286240  0.77097641  1
  Li  Li328  1  0.17713760  0.27097641  1.33688198  1
  Li  Li329  1  1.57286240  -0.22902359  0.91311802  1
  Li  Li330  1  1.07286240  0.47902359  0.83688198  1
  Li  Li331  1  0.67713760  0.97902359  0.41311802  1
  Li  Li332  1  0.27097641  0.41311802  1.57286240  1
  Li  Li333  1  0.77097641  0.83688198  0.17713760  1
  Li  Li334  1  1.47902359  -0.08688198  0.67713760  1
  Li  Li335  1  0.97902359  0.33688198  1.07286240  1
  Li  Li336  1  1.07286240  0.83688198  0.47902359  1
  Li  Li337  1  0.67713760  0.41311802  0.97902359  1
  Li  Li338  1  0.17713760  1.33688198  0.27097641  1
  Li  Li339  1  1.57286240  0.91311802  -0.22902359  1
  Li  Li340  1  0.97902359  1.07286240  0.33688198  1
  Li  Li341  1  1.47902359  0.67713760  -0.08688198  1
  Li  Li342  1  0.77097641  0.17713760  0.83688198  1
  Li  Li343  1  0.27097641  1.57286240  0.41311802  1
  Li  Li344  1  0.83688198  0.97902359  0.57286240  1
  Li  Li345  1  0.41311802  1.47902359  0.17713760  1
  Li  Li346  1  1.33688198  0.77097641  -0.32286240  1
  Li  Li347  1  0.91311802  0.27097641  1.07286240  1
  Li  Li348  1  1.58688198  1.32286240  0.02097641  1
  Li  Li349  1  0.16311802  -0.07286240  -0.47902359  1
  Li  Li350  1  1.08688198  0.42713760  1.22902359  1
  Li  Li351  1  0.66311802  1.82286240  0.72902359  1
  Li  Li352  1  1.82286240  1.22902359  0.16311802  1
  Li  Li353  1  0.42713760  1.72902359  0.58688198  1
  Li  Li354  1  -0.07286240  0.02097641  -0.33688198  1
  Li  Li355  1  1.32286240  0.52097641  1.08688198  1
  Li  Li356  1  1.72902359  1.08688198  -0.07286240  1
  Li  Li357  1  1.22902359  0.66311802  1.32286240  1
  Li  Li358  1  0.52097641  1.58688198  0.82286240  1
  Li  Li359  1  0.02097641  0.16311802  -0.57286240  1
  Li  Li360  1  -0.07286240  0.16311802  -0.47902359  1
  Li  Li361  1  1.32286240  1.58688198  0.02097641  1
  Li  Li362  1  1.82286240  0.66311802  0.72902359  1
  Li  Li363  1  0.42713760  1.08688198  1.22902359  1
  Li  Li364  1  0.02097641  -0.07286240  -0.33688198  1
  Li  Li365  1  0.52097641  1.32286240  1.08688198  1
  Li  Li366  1  1.22902359  1.82286240  0.16311802  1
  Li  Li367  1  1.72902359  0.42713760  0.58688198  1
  Li  Li368  1  0.16311802  0.02097641  -0.57286240  1
  Li  Li369  1  1.58688198  0.52097641  0.82286240  1
  Li  Li370  1  0.66311802  1.22902359  1.32286240  1
  Li  Li371  1  1.08688198  1.72902359  -0.07286240  1
  Li  Li372  1  0.41311802  0.67713760  0.97902359  1
  Li  Li373  1  0.83688198  1.07286240  0.47902359  1
  Li  Li374  1  0.91311802  1.57286240  -0.22902359  1
  Li  Li375  1  1.33688198  0.17713760  0.27097641  1
  Li  Li376  1  0.17713760  0.77097641  0.83688198  1
  Li  Li377  1  1.57286240  0.27097641  0.41311802  1
  Li  Li378  1  1.07286240  0.97902359  0.33688198  1
  Li  Li379  1  0.67713760  1.47902359  -0.08688198  1
  Li  Li380  1  0.27097641  0.91311802  1.07286240  1
  Li  Li381  1  0.77097641  1.33688198  -0.32286240  1
  Li  Li382  1  1.47902359  0.41311802  0.17713760  1
  Li  Li383  1  0.97902359  0.83688198  0.57286240  1
