# generated using pymatgen
data_LiF
_symmetry_space_group_name_H-M   'P 1'
_cell_length_a   4.86768903
_cell_length_b   13.22303084
_cell_length_c   6.07723694
_cell_angle_alpha   90.00000000
_cell_angle_beta   90.00000000
_cell_angle_gamma   90.00000000
_symmetry_Int_Tables_number   1
_chemical_formula_structural   LiF
_chemical_formula_sum   'Li24 F24'
_cell_volume   391.16501507
_cell_formula_units_Z   24
loop_
 _symmetry_equiv_pos_site_id
 _symmetry_equiv_pos_as_xyz
  1  'x, y, z'
loop_
 _atom_site_type_symbol
 _atom_site_label
 _atom_site_symmetry_multiplicity
 _atom_site_fract_x
 _atom_site_fract_y
 _atom_site_fract_z
 _atom_site_occupancy
  F  F0  1  0.76374529  0.25000000  0.53793472  1
  F  F1  1  0.73625471  0.75000000  0.03793472  1
  F  F2  1  0.23625471  0.75000000  0.46206528  1
  F  F3  1  0.26374529  0.25000000  0.96206528  1
  F  F4  1  0.21572106  0.42522172  0.13393033  1
  F  F5  1  0.28427894  0.57477828  0.63393033  1
  F  F6  1  0.78427894  0.92522172  0.86606967  1
  F  F7  1  0.71572106  0.07477828  0.36606967  1
  F  F8  1  0.78427894  0.57477828  0.86606967  1
  F  F9  1  0.71572106  0.42522172  0.36606967  1
  F  F10  1  0.21572106  0.07477828  0.13393033  1
  F  F11  1  0.28427894  0.92522172  0.63393033  1
  F  F12  1  0.18823402  0.70072051  0.57310564  1
  F  F13  1  0.31176598  0.29927949  0.07310564  1
  F  F14  1  0.81176598  0.20072051  0.42689436  1
  F  F15  1  0.68823402  0.79927949  0.92689436  1
  F  F16  1  0.81176598  0.29927949  0.42689436  1
  F  F17  1  0.68823402  0.70072051  0.92689436  1
  F  F18  1  0.18823402  0.79927949  0.57310564  1
  F  F19  1  0.31176598  0.20072051  0.07310564  1
  F  F20  1  0.79259609  0.25000000  0.98255151  1
  F  F21  1  0.70740391  0.75000000  0.48255151  1
  F  F22  1  0.20740391  0.75000000  0.01744849  1
  F  F23  1  0.29259609  0.25000000  0.51744849  1
  Li  Li24  1  0.80774991  0.47394547  0.56512337  1
  Li  Li25  1  -0.30774991  -0.47394547  1.06512337  1
  Li  Li26  1  -0.80774991  0.97394547  -0.56512337  1
  Li  Li27  1  1.30774991  0.02605453  -0.06512337  1
  Li  Li28  1  -0.80774991  -0.47394547  -0.56512337  1
  Li  Li29  1  1.30774991  0.47394547  -0.06512337  1
  Li  Li30  1  0.80774991  0.02605453  0.56512337  1
  Li  Li31  1  -0.30774991  0.97394547  1.06512337  1
  Li  Li32  1  0.09910199  0.85260289  0.24590096  1
  Li  Li33  1  0.40089801  0.14739711  0.74590096  1
  Li  Li34  1  0.90089801  0.35260289  0.75409904  1
  Li  Li35  1  0.59910199  0.64739711  0.25409904  1
  Li  Li36  1  0.90089801  0.14739711  0.75409904  1
  Li  Li37  1  0.59910199  0.85260289  0.25409904  1
  Li  Li38  1  0.09910199  0.64739711  0.24590096  1
  Li  Li39  1  0.40089801  0.35260289  0.74590096  1
  Li  Li40  1  0.00000000  0.00000000  0.00000000  1
  Li  Li41  1  0.50000000  0.00000000  0.50000000  1
  Li  Li42  1  0.00000000  0.50000000  0.00000000  1
  Li  Li43  1  0.50000000  0.50000000  0.50000000  1
  Li  Li44  1  0.59490461  0.25000000  0.13178932  1
  Li  Li45  1  0.90509539  0.75000000  0.63178932  1
  Li  Li46  1  0.40509539  0.75000000  0.86821068  1
  Li  Li47  1  0.09490461  0.25000000  0.36821068  1
