# generated using pymatgen
data_Li2Si4Te3F12
_symmetry_space_group_name_H-M   'P 1'
_cell_length_a   6.30915343
_cell_length_b   10.70641797
_cell_length_c   13.52587690
_cell_angle_alpha   90.00000000
_cell_angle_beta   90.00000000
_cell_angle_gamma   90.00000000
_symmetry_Int_Tables_number   1
_chemical_formula_structural   Li2Si4Te3F12
_chemical_formula_sum   'Li8 Si16 Te12 F48'
_cell_volume   913.65179844
_cell_formula_units_Z   4
loop_
 _symmetry_equiv_pos_site_id
 _symmetry_equiv_pos_as_xyz
  1  'x, y, z'
loop_
 _atom_site_type_symbol
 _atom_site_label
 _atom_site_symmetry_multiplicity
 _atom_site_fract_x
 _atom_site_fract_y
 _atom_site_fract_z
 _atom_site_occupancy
  F  F0  1  0.00000000  0.00000000  0.30329665  1
  F  F1  1  0.50000000  0.50000000  0.19670335  1
  F  F2  1  0.00000000  0.00000000  0.69670335  1
  F  F3  1  0.50000000  0.50000000  0.80329665  1
  F  F4  1  0.00000000  0.00000000  0.50000000  1
  F  F5  1  0.50000000  0.50000000  0.00000000  1
  F  F6  1  0.25188144  0.63227492  0.30817343  1
  F  F7  1  0.74811856  0.36772508  0.30817343  1
  F  F8  1  0.24811856  0.13227492  0.19182657  1
  F  F9  1  0.75188144  0.86772508  0.19182657  1
  F  F10  1  0.74811856  0.36772508  0.69182657  1
  F  F11  1  0.25188144  0.63227492  0.69182657  1
  F  F12  1  0.75188144  0.86772508  0.80817343  1
  F  F13  1  0.24811856  0.13227492  0.80817343  1
  F  F14  1  0.62972383  0.94252240  0.22614980  1
  F  F15  1  0.37027617  0.05747760  0.22614980  1
  F  F16  1  0.87027617  0.44252240  0.27385020  1
  F  F17  1  0.12972383  0.55747760  0.27385020  1
  F  F18  1  0.37027617  0.05747760  0.77385020  1
  F  F19  1  0.62972383  0.94252240  0.77385020  1
  F  F20  1  0.12972383  0.55747760  0.72614980  1
  F  F21  1  0.87027617  0.44252240  0.72614980  1
  F  F22  1  0.93275872  0.85067197  0.33716448  1
  F  F23  1  0.06724128  0.14932803  0.33716448  1
  F  F24  1  0.56724128  0.35067197  0.16283552  1
  F  F25  1  0.43275872  0.64932803  0.16283552  1
  F  F26  1  0.06724128  0.14932803  0.66283552  1
  F  F27  1  0.93275872  0.85067197  0.66283552  1
  F  F28  1  0.43275872  0.64932803  0.83716448  1
  F  F29  1  0.56724128  0.35067197  0.83716448  1
  F  F30  1  0.68632891  0.69791679  0.89438630  1
  F  F31  1  0.31367109  0.30208321  0.89438630  1
  F  F32  1  0.81367109  0.19791679  0.60561370  1
  F  F33  1  0.18632891  0.80208321  0.60561370  1
  F  F34  1  0.31367109  0.30208321  0.10561370  1
  F  F35  1  0.68632891  0.69791679  0.10561370  1
  F  F36  1  0.18632891  0.80208321  0.39438630  1
  F  F37  1  0.81367109  0.19791679  0.39438630  1
  F  F38  1  0.18920728  0.19169458  0.54725094  1
  F  F39  1  0.81079272  0.80830542  0.54725094  1
  F  F40  1  0.31079272  0.69169458  0.95274906  1
  F  F41  1  0.68920728  0.30830542  0.95274906  1
  F  F42  1  0.81079272  0.80830542  0.45274906  1
  F  F43  1  0.18920728  0.19169458  0.45274906  1
  F  F44  1  0.68920728  0.30830542  0.04725094  1
  F  F45  1  0.31079272  0.69169458  0.04725094  1
  F  F46  1  0.00000000  0.50000000  0.00000000  1
  F  F47  1  0.50000000  0.00000000  0.50000000  1
  Li  Li48  1  0.09176875  0.62242203  0.21942539  1
  Li  Li49  1  0.90823125  0.37757797  0.21942539  1
  Li  Li50  1  0.40823125  0.12242203  0.28057461  1
  Li  Li51  1  0.59176875  0.87757797  0.28057461  1
  Li  Li52  1  0.90823125  0.37757797  0.78057461  1
  Li  Li53  1  0.09176875  0.62242203  0.78057461  1
  Li  Li54  1  0.59176875  0.87757797  0.71942539  1
  Li  Li55  1  0.40823125  0.12242203  0.71942539  1
  Si  Si56  1  0.00000000  0.00000000  0.00000000  1
  Si  Si57  1  0.50000000  0.50000000  0.50000000  1
  Si  Si58  1  0.68459741  0.88711144  0.00000000  1
  Si  Si59  1  0.31540259  0.11288856  0.00000000  1
  Si  Si60  1  0.81540259  0.38711144  0.50000000  1
  Si  Si61  1  0.18459741  0.61288856  0.50000000  1
  Si  Si62  1  0.63472466  0.20642647  0.35859426  1
  Si  Si63  1  -0.63472466  -0.20642647  0.35859426  1
  Si  Si64  1  -0.13472466  0.70642647  0.14140574  1
  Si  Si65  1  1.13472466  0.29357353  0.14140574  1
  Si  Si66  1  -0.63472466  -0.20642647  -0.35859426  1
  Si  Si67  1  0.63472466  0.20642647  -0.35859426  1
  Si  Si68  1  1.13472466  0.29357353  0.85859426  1
  Si  Si69  1  -0.13472466  0.70642647  0.85859426  1
  Si  Si70  1  0.00000000  0.50000000  0.50000000  1
  Si  Si71  1  0.50000000  0.00000000  0.00000000  1
  Te  Te72  1  0.10898985  0.77484814  0.74526809  1
  Te  Te73  1  0.89101015  0.22515186  0.74526809  1
  Te  Te74  1  0.39101015  0.27484814  0.75473191  1
  Te  Te75  1  0.60898985  0.72515186  0.75473191  1
  Te  Te76  1  0.89101015  0.22515186  0.25473191  1
  Te  Te77  1  0.10898985  0.77484814  0.25473191  1
  Te  Te78  1  0.60898985  0.72515186  0.24526809  1
  Te  Te79  1  0.39101015  0.27484814  0.24526809  1
  Te  Te80  1  0.05861108  0.20253534  0.00000000  1
  Te  Te81  1  0.94138892  0.79746466  0.00000000  1
  Te  Te82  1  0.44138892  0.70253534  0.50000000  1
  Te  Te83  1  0.55861108  0.29746466  0.50000000  1
