# generated using pymatgen
data_LiF
_symmetry_space_group_name_H-M   'P 1'
_cell_length_a   13.90539879
_cell_length_b   13.90539879
_cell_length_c   8.52415971
_cell_angle_alpha   90.00000000
_cell_angle_beta   90.00000000
_cell_angle_gamma   90.00000000
_symmetry_Int_Tables_number   1
_chemical_formula_structural   LiF
_chemical_formula_sum   'Li64 F64'
_cell_volume   1648.23250464
_cell_formula_units_Z   64
loop_
 _symmetry_equiv_pos_site_id
 _symmetry_equiv_pos_as_xyz
  1  'x, y, z'
loop_
 _atom_site_type_symbol
 _atom_site_label
 _atom_site_symmetry_multiplicity
 _atom_site_fract_x
 _atom_site_fract_y
 _atom_site_fract_z
 _atom_site_occupancy
  F  F0  1  0.39797175  0.00708594  0.10598530  1
  F  F1  1  0.10202825  -0.00708594  0.60598530  1
  F  F2  1  0.24291406  1.14797175  0.35598530  1
  F  F3  1  0.25708594  -0.14797175  0.85598530  1
  F  F4  1  0.10202825  0.00708594  -0.10598530  1
  F  F5  1  0.39797175  -0.00708594  0.39401470  1
  F  F6  1  0.25708594  1.14797175  0.64401470  1
  F  F7  1  0.24291406  -0.14797175  0.14401470  1
  F  F8  1  -0.39797175  -0.00708594  -0.10598530  1
  F  F9  1  0.89797175  0.00708594  0.39401470  1
  F  F10  1  0.75708594  -0.14797175  0.64401470  1
  F  F11  1  0.74291406  1.14797175  0.14401470  1
  F  F12  1  0.89797175  -0.00708594  0.10598530  1
  F  F13  1  -0.39797175  0.00708594  0.60598530  1
  F  F14  1  0.74291406  -0.14797175  0.35598530  1
  F  F15  1  0.75708594  1.14797175  0.85598530  1
  F  F16  1  0.89797175  0.50708594  0.60598530  1
  F  F17  1  0.60202825  0.49291406  1.10598530  1
  F  F18  1  0.74291406  1.64797175  0.85598530  1
  F  F19  1  0.75708594  0.35202825  1.35598530  1
  F  F20  1  0.60202825  0.50708594  0.39401470  1
  F  F21  1  0.89797175  0.49291406  0.89401470  1
  F  F22  1  0.75708594  1.64797175  1.14401470  1
  F  F23  1  0.74291406  0.35202825  0.64401470  1
  F  F24  1  0.10202825  0.49291406  0.39401470  1
  F  F25  1  1.39797175  0.50708594  0.89401470  1
  F  F26  1  1.25708594  0.35202825  1.14401470  1
  F  F27  1  1.24291406  1.64797175  0.64401470  1
  F  F28  1  1.39797175  0.49291406  0.60598530  1
  F  F29  1  0.10202825  0.50708594  1.10598530  1
  F  F30  1  1.24291406  0.35202825  0.85598530  1
  F  F31  1  1.25708594  1.64797175  1.35598530  1
  F  F32  1  0.32399969  0.53918240  0.69733590  1
  F  F33  1  0.17600031  0.46081760  0.19733590  1
  F  F34  1  0.71081760  0.07399969  0.94733590  1
  F  F35  1  0.78918240  0.92600031  0.44733590  1
  F  F36  1  0.17600031  0.53918240  0.30266410  1
  F  F37  1  0.32399969  0.46081760  0.80266410  1
  F  F38  1  0.78918240  0.07399969  0.05266410  1
  F  F39  1  0.71081760  0.92600031  0.55266410  1
  F  F40  1  0.67600031  0.46081760  0.30266410  1
  F  F41  1  0.82399969  0.53918240  0.80266410  1
  F  F42  1  0.28918240  0.92600031  0.05266410  1
  F  F43  1  0.21081760  0.07399969  0.55266410  1
  F  F44  1  0.82399969  0.46081760  0.69733590  1
  F  F45  1  0.67600031  0.53918240  0.19733590  1
  F  F46  1  0.21081760  0.92600031  0.94733590  1
  F  F47  1  0.28918240  0.07399969  0.44733590  1
  F  F48  1  0.82399969  0.03918240  0.19733590  1
  F  F49  1  0.67600031  0.96081760  0.69733590  1
  F  F50  1  0.21081760  0.57399969  0.44733590  1
  F  F51  1  0.28918240  0.42600031  0.94733590  1
  F  F52  1  0.67600031  0.03918240  0.80266410  1
  F  F53  1  0.82399969  0.96081760  0.30266410  1
  F  F54  1  0.28918240  0.57399969  0.55266410  1
  F  F55  1  0.21081760  0.42600031  0.05266410  1
  F  F56  1  0.17600031  0.96081760  0.80266410  1
  F  F57  1  0.32399969  0.03918240  0.30266410  1
  F  F58  1  0.78918240  0.42600031  0.55266410  1
  F  F59  1  0.71081760  0.57399969  0.05266410  1
  F  F60  1  0.32399969  0.96081760  0.19733590  1
  F  F61  1  0.17600031  0.03918240  0.69733590  1
  F  F62  1  0.71081760  0.42600031  0.44733590  1
  F  F63  1  0.78918240  0.57399969  0.94733590  1
  Li  Li64  1  0.62801253  0.87801253  0.12500000  1
  Li  Li65  1  0.87198747  0.12198747  0.62500000  1
  Li  Li66  1  0.37198747  0.37801253  0.37500000  1
  Li  Li67  1  0.12801253  0.62198747  0.87500000  1
  Li  Li68  1  0.37198747  0.12198747  0.87500000  1
  Li  Li69  1  0.12801253  0.87801253  0.37500000  1
  Li  Li70  1  0.62801253  0.62198747  0.62500000  1
  Li  Li71  1  0.87198747  0.37801253  0.12500000  1
  Li  Li72  1  0.12801253  0.37801253  0.62500000  1
  Li  Li73  1  0.37198747  0.62198747  0.12500000  1
  Li  Li74  1  0.87198747  0.87801253  0.87500000  1
  Li  Li75  1  0.62801253  0.12198747  0.37500000  1
  Li  Li76  1  0.87198747  0.62198747  0.37500000  1
  Li  Li77  1  0.62801253  0.37801253  0.87500000  1
  Li  Li78  1  0.12801253  0.12198747  0.12500000  1
  Li  Li79  1  0.37198747  0.87801253  0.62500000  1
  Li  Li80  1  0.99884995  0.17483734  0.03610693  1
  Li  Li81  1  0.50115005  0.82516266  0.53610693  1
  Li  Li82  1  0.07516266  0.74884995  0.28610693  1
  Li  Li83  1  0.42483734  0.25115005  0.78610693  1
  Li  Li84  1  0.50115005  0.17483734  0.96389307  1
  Li  Li85  1  0.99884995  0.82516266  0.46389307  1
  Li  Li86  1  0.42483734  0.74884995  0.71389307  1
  Li  Li87  1  0.07516266  0.25115005  0.21389307  1
  Li  Li88  1  0.00115005  0.82516266  0.96389307  1
  Li  Li89  1  0.49884995  0.17483734  0.46389307  1
  Li  Li90  1  0.92483734  0.25115005  0.71389307  1
  Li  Li91  1  0.57516266  0.74884995  0.21389307  1
  Li  Li92  1  0.49884995  0.82516266  0.03610693  1
  Li  Li93  1  0.00115005  0.17483734  0.53610693  1
  Li  Li94  1  0.57516266  0.25115005  0.28610693  1
  Li  Li95  1  0.92483734  0.74884995  0.78610693  1
  Li  Li96  1  0.49884995  0.67483734  0.53610693  1
  Li  Li97  1  0.00115005  0.32516266  0.03610693  1
  Li  Li98  1  0.57516266  0.24884995  0.78610693  1
  Li  Li99  1  0.92483734  0.75115005  0.28610693  1
  Li  Li100  1  0.00115005  0.67483734  0.46389307  1
  Li  Li101  1  0.49884995  0.32516266  0.96389307  1
  Li  Li102  1  0.92483734  0.24884995  0.21389307  1
  Li  Li103  1  0.57516266  0.75115005  0.71389307  1
  Li  Li104  1  0.50115005  0.32516266  0.46389307  1
  Li  Li105  1  0.99884995  0.67483734  0.96389307  1
  Li  Li106  1  0.42483734  0.75115005  0.21389307  1
  Li  Li107  1  0.07516266  0.24884995  0.71389307  1
  Li  Li108  1  0.99884995  0.32516266  0.53610693  1
  Li  Li109  1  0.50115005  0.67483734  0.03610693  1
  Li  Li110  1  0.07516266  0.75115005  0.78610693  1
  Li  Li111  1  0.42483734  0.24884995  0.28610693  1
  Li  Li112  1  0.97613269  0.00000000  0.25000000  1
  Li  Li113  1  0.52386731  -0.00000000  0.75000000  1
  Li  Li114  1  0.25000000  0.72613269  0.50000000  1
  Li  Li115  1  0.25000000  0.27386731  -0.00000000  1
  Li  Li116  1  0.02386731  0.00000000  0.75000000  1
  Li  Li117  1  0.47613269  0.00000000  0.25000000  1
  Li  Li118  1  0.75000000  0.27386731  0.50000000  1
  Li  Li119  1  0.75000000  0.72613269  0.00000000  1
  Li  Li120  1  0.47613269  0.50000000  0.75000000  1
  Li  Li121  1  0.02386731  0.50000000  0.25000000  1
  Li  Li122  1  0.75000000  0.22613269  0.00000000  1
  Li  Li123  1  0.75000000  0.77386731  0.50000000  1
  Li  Li124  1  0.52386731  0.50000000  0.25000000  1
  Li  Li125  1  0.97613269  0.50000000  0.75000000  1
  Li  Li126  1  0.25000000  0.77386731  0.00000000  1
  Li  Li127  1  0.25000000  0.22613269  0.50000000  1
