# generated using pymatgen
data_LiF
_symmetry_space_group_name_H-M   'P 1'
_cell_length_a   10.61723874
_cell_length_b   12.02750316
_cell_length_c   7.15472541
_cell_angle_alpha   90.00000000
_cell_angle_beta   90.00000000
_cell_angle_gamma   90.00000000
_symmetry_Int_Tables_number   1
_chemical_formula_structural   LiF
_chemical_formula_sum   'Li36 F36'
_cell_volume   913.65036828
_cell_formula_units_Z   36
loop_
 _symmetry_equiv_pos_site_id
 _symmetry_equiv_pos_as_xyz
  1  'x, y, z'
loop_
 _atom_site_type_symbol
 _atom_site_label
 _atom_site_symmetry_multiplicity
 _atom_site_fract_x
 _atom_site_fract_y
 _atom_site_fract_z
 _atom_site_occupancy
  F  F0  1  0.62642624  0.25000000  0.97454372  1
  F  F1  1  0.87357376  0.75000000  0.47454372  1
  F  F2  1  0.37357376  0.75000000  0.02545628  1
  F  F3  1  0.12642624  0.25000000  0.52545628  1
  F  F4  1  0.78488560  0.91624702  0.47285871  1
  F  F5  1  0.71511440  0.08375298  0.97285871  1
  F  F6  1  0.21511440  0.41624702  0.52714129  1
  F  F7  1  0.28488560  0.58375298  0.02714129  1
  F  F8  1  0.21511440  0.08375298  0.52714129  1
  F  F9  1  0.28488560  0.91624702  0.02714129  1
  F  F10  1  0.78488560  0.58375298  0.47285871  1
  F  F11  1  0.71511440  0.41624702  0.97285871  1
  F  F12  1  0.00000000  0.00000000  0.00000000  1
  F  F13  1  0.50000000  0.00000000  0.50000000  1
  F  F14  1  0.00000000  0.50000000  0.00000000  1
  F  F15  1  0.50000000  0.50000000  0.50000000  1
  F  F16  1  0.36942396  0.82935169  0.60329511  1
  F  F17  1  0.13057604  0.17064831  0.10329511  1
  F  F18  1  0.63057604  0.32935169  0.39670489  1
  F  F19  1  0.86942396  0.67064831  0.89670489  1
  F  F20  1  0.63057604  0.17064831  0.39670489  1
  F  F21  1  0.86942396  0.82935169  0.89670489  1
  F  F22  1  0.36942396  0.67064831  0.60329511  1
  F  F23  1  0.13057604  0.32935169  0.10329511  1
  F  F24  1  0.35815599  0.69589036  0.36575013  1
  F  F25  1  0.14184401  0.30410964  0.86575013  1
  F  F26  1  0.64184401  0.19589036  0.63424987  1
  F  F27  1  0.85815599  0.80410964  0.13424987  1
  F  F28  1  0.64184401  0.30410964  0.63424987  1
  F  F29  1  0.85815599  0.69589036  0.13424987  1
  F  F30  1  0.35815599  0.80410964  0.36575013  1
  F  F31  1  0.14184401  0.19589036  0.86575013  1
  F  F32  1  0.35073392  0.25000000  0.87809634  1
  F  F33  1  0.14926608  0.75000000  0.37809634  1
  F  F34  1  0.64926608  0.75000000  0.12190366  1
  F  F35  1  0.85073392  0.25000000  0.62190366  1
  Li  Li36  1  0.88176279  0.25000000  0.30689462  1
  Li  Li37  1  0.61823721  0.75000000  0.80689462  1
  Li  Li38  1  0.11823721  0.75000000  0.69310538  1
  Li  Li39  1  0.38176279  0.25000000  0.19310538  1
  Li  Li40  1  0.44894206  0.44361220  0.57937258  1
  Li  Li41  1  0.05105794  -0.44361220  1.07937258  1
  Li  Li42  1  -0.44894206  0.94361220  -0.57937258  1
  Li  Li43  1  0.94894206  0.05638780  -0.07937258  1
  Li  Li44  1  -0.44894206  -0.44361220  -0.57937258  1
  Li  Li45  1  0.94894206  0.44361220  -0.07937258  1
  Li  Li46  1  0.44894206  0.05638780  0.57937258  1
  Li  Li47  1  0.05105794  0.94361220  1.07937258  1
  Li  Li48  1  0.00000000  0.00000000  0.50000000  1
  Li  Li49  1  0.50000000  0.00000000  0.00000000  1
  Li  Li50  1  0.00000000  0.50000000  0.50000000  1
  Li  Li51  1  0.50000000  0.50000000  0.00000000  1
  Li  Li52  1  0.09229314  0.25000000  0.96429448  1
  Li  Li53  1  0.40770686  0.75000000  0.46429448  1
  Li  Li54  1  0.90770686  0.75000000  0.03570552  1
  Li  Li55  1  0.59229314  0.25000000  0.53570552  1
  Li  Li56  1  0.93470888  0.32426825  0.96885608  1
  Li  Li57  1  0.56529112  0.67573175  0.46885608  1
  Li  Li58  1  0.06529112  0.82426825  0.03114392  1
  Li  Li59  1  0.43470888  0.17573175  0.53114392  1
  Li  Li60  1  0.06529112  0.67573175  0.03114392  1
  Li  Li61  1  0.43470888  0.32426825  0.53114392  1
  Li  Li62  1  0.93470888  0.17573175  0.96885608  1
  Li  Li63  1  0.56529112  0.82426825  0.46885608  1
  Li  Li64  1  0.19223340  0.07784768  0.67435129  1
  Li  Li65  1  0.30776660  0.92215232  0.17435129  1
  Li  Li66  1  0.80776660  0.57784768  0.32564871  1
  Li  Li67  1  0.69223340  0.42215232  0.82564871  1
  Li  Li68  1  0.80776660  0.92215232  0.32564871  1
  Li  Li69  1  0.69223340  0.07784768  0.82564871  1
  Li  Li70  1  0.19223340  0.42215232  0.67435129  1
  Li  Li71  1  0.30776660  0.57784768  0.17435129  1
