# generated using pymatgen
data_LiF
_symmetry_space_group_name_H-M   'P 1'
_cell_length_a   7.34231931
_cell_length_b   7.34231931
_cell_length_c   6.14000320
_cell_angle_alpha   90.00000000
_cell_angle_beta   90.00000000
_cell_angle_gamma   120.00000000
_symmetry_Int_Tables_number   1
_chemical_formula_structural   LiF
_chemical_formula_sum   'Li14 F14'
_cell_volume   286.65912075
_cell_formula_units_Z   14
loop_
 _symmetry_equiv_pos_site_id
 _symmetry_equiv_pos_as_xyz
  1  'x, y, z'
loop_
 _atom_site_type_symbol
 _atom_site_label
 _atom_site_symmetry_multiplicity
 _atom_site_fract_x
 _atom_site_fract_y
 _atom_site_fract_z
 _atom_site_occupancy
  F  F0  1  0.06612855  0.98080050  0.67820490  1
  F  F1  1  0.01919950  0.08532805  0.67820490  1
  F  F2  1  0.91467195  0.93387145  0.67820490  1
  F  F3  1  0.01919950  0.93387145  0.32179510  1
  F  F4  1  0.91467195  0.98080050  0.32179510  1
  F  F5  1  0.06612855  0.08532805  0.32179510  1
  F  F6  1  0.49866187  0.20861722  0.74467825  1
  F  F7  1  0.79138278  0.29004465  0.74467825  1
  F  F8  1  0.70995535  0.50133813  0.74467825  1
  F  F9  1  0.79138278  0.50133813  0.25532175  1
  F  F10  1  0.70995535  0.20861722  0.25532175  1
  F  F11  1  0.49866187  0.29004465  0.25532175  1
  F  F12  1  0.33333333  0.66666667  0.70018657  1
  F  F13  1  0.33333333  0.66666667  0.29981343  1
  Li  Li14  1  0.00000000  0.00000000  0.50000000  1
  Li  Li15  1  0.86512028  0.13487972  0.00000000  1
  Li  Li16  1  0.86512028  0.73024055  0.00000000  1
  Li  Li17  1  0.26975945  0.13487972  0.00000000  1
  Li  Li18  1  0.82732290  0.17267710  0.50000000  1
  Li  Li19  1  0.82732290  0.65464581  0.50000000  1
  Li  Li20  1  0.34535419  0.17267710  0.50000000  1
  Li  Li21  1  0.05864891  0.79839268  0.23236306  1
  Li  Li22  1  -0.79839268  -0.73974377  0.23236306  1
  Li  Li23  1  0.73974377  -0.05864891  0.23236306  1
  Li  Li24  1  -0.79839268  -0.05864891  -0.23236306  1
  Li  Li25  1  0.73974377  0.79839268  -0.23236306  1
  Li  Li26  1  0.05864891  -0.73974377  -0.23236306  1
  Li  Li27  1  0.66666667  0.33333333  0.00000000  1
