# generated using pymatgen
data_Li2Si4Te3F12
_symmetry_space_group_name_H-M   'P 1'
_cell_length_a   6.89700209
_cell_length_b   11.56077414
_cell_length_c   13.42327553
_cell_angle_alpha   90.00000000
_cell_angle_beta   90.00000000
_cell_angle_gamma   90.00000000
_symmetry_Int_Tables_number   1
_chemical_formula_structural   Li2Si4Te3F12
_chemical_formula_sum   'Li8 Si16 Te12 F48'
_cell_volume   1070.30062470
_cell_formula_units_Z   4
loop_
 _symmetry_equiv_pos_site_id
 _symmetry_equiv_pos_as_xyz
  1  'x, y, z'
loop_
 _atom_site_type_symbol
 _atom_site_label
 _atom_site_symmetry_multiplicity
 _atom_site_fract_x
 _atom_site_fract_y
 _atom_site_fract_z
 _atom_site_occupancy
  F  F0  1  0.41066230  0.43826982  0.62160581  1
  F  F1  1  0.58933770  0.56173018  0.62160581  1
  F  F2  1  0.08933770  0.93826982  0.37839419  1
  F  F3  1  0.91066230  0.06173018  0.37839419  1
  F  F4  1  0.58933770  0.56173018  0.37839419  1
  F  F5  1  0.41066230  0.43826982  0.37839419  1
  F  F6  1  0.91066230  0.06173018  0.62160581  1
  F  F7  1  0.08933770  0.93826982  0.62160581  1
  F  F8  1  0.18742595  0.63718444  0.79913924  1
  F  F9  1  0.81257405  0.36281556  0.79913924  1
  F  F10  1  0.31257405  0.13718444  0.20086076  1
  F  F11  1  0.68742595  0.86281556  0.20086076  1
  F  F12  1  0.81257405  0.36281556  0.20086076  1
  F  F13  1  0.18742595  0.63718444  0.20086076  1
  F  F14  1  0.68742595  0.86281556  0.79913924  1
  F  F15  1  0.31257405  0.13718444  0.79913924  1
  F  F16  1  0.00000000  0.00000000  0.18216791  1
  F  F17  1  0.50000000  0.50000000  0.81783209  1
  F  F18  1  0.00000000  0.00000000  0.81783209  1
  F  F19  1  0.50000000  0.50000000  0.18216791  1
  F  F20  1  0.55708444  0.12698007  0.84897560  1
  F  F21  1  0.44291556  0.87301993  0.84897560  1
  F  F22  1  0.94291556  0.62698007  0.15102440  1
  F  F23  1  0.05708444  0.37301993  0.15102440  1
  F  F24  1  0.44291556  0.87301993  0.15102440  1
  F  F25  1  0.55708444  0.12698007  0.15102440  1
  F  F26  1  0.05708444  0.37301993  0.84897560  1
  F  F27  1  0.94291556  0.62698007  0.84897560  1
  F  F28  1  0.79789346  0.90868423  0.50000000  1
  F  F29  1  0.20210654  0.09131577  0.50000000  1
  F  F30  1  0.70210654  0.40868423  0.50000000  1
  F  F31  1  0.29789346  0.59131577  0.50000000  1
  F  F32  1  0.05977462  0.35981040  0.59633633  1
  F  F33  1  0.94022538  0.64018960  0.59633633  1
  F  F34  1  0.44022538  0.85981040  0.40366367  1
  F  F35  1  0.55977462  0.14018960  0.40366367  1
  F  F36  1  0.94022538  0.64018960  0.40366367  1
  F  F37  1  0.05977462  0.35981040  0.40366367  1
  F  F38  1  0.55977462  0.14018960  0.59633633  1
  F  F39  1  0.44022538  0.85981040  0.59633633  1
  F  F40  1  0.83504499  0.78838468  0.61875283  1
  F  F41  1  0.16495501  0.21161532  0.61875283  1
  F  F42  1  0.66495501  0.28838468  0.38124717  1
  F  F43  1  0.33504499  0.71161532  0.38124717  1
  F  F44  1  0.16495501  0.21161532  0.38124717  1
  F  F45  1  0.83504499  0.78838468  0.38124717  1
  F  F46  1  0.33504499  0.71161532  0.61875283  1
  F  F47  1  0.66495501  0.28838468  0.61875283  1
  Li  Li48  1  0.54769921  0.05868902  0.25146617  1
  Li  Li49  1  0.45230079  0.94131098  0.25146617  1
  Li  Li50  1  0.95230079  0.55868902  0.74853383  1
  Li  Li51  1  0.04769921  0.44131098  0.74853383  1
  Li  Li52  1  0.45230079  0.94131098  0.74853383  1
  Li  Li53  1  0.54769921  0.05868902  0.74853383  1
  Li  Li54  1  0.04769921  0.44131098  0.25146617  1
  Li  Li55  1  0.95230079  0.55868902  0.25146617  1
  Si  Si56  1  0.83330160  0.27106063  0.58967011  1
  Si  Si57  1  -0.83330160  -0.27106063  0.58967011  1
  Si  Si58  1  -0.33330160  0.77106063  -0.58967011  1
  Si  Si59  1  1.33330160  0.22893937  -0.58967011  1
  Si  Si60  1  -0.83330160  -0.27106063  -0.58967011  1
  Si  Si61  1  0.83330160  0.27106063  -0.58967011  1
  Si  Si62  1  1.33330160  0.22893937  0.58967011  1
  Si  Si63  1  -0.33330160  0.77106063  0.58967011  1
  Si  Si64  1  0.96849157  0.56041837  0.36867373  1
  Si  Si65  1  0.03150843  0.43958163  0.36867373  1
  Si  Si66  1  0.53150843  0.06041837  0.63132627  1
  Si  Si67  1  0.46849157  0.93958163  0.63132627  1
  Si  Si68  1  0.03150843  0.43958163  0.63132627  1
  Si  Si69  1  0.96849157  0.56041837  0.63132627  1
  Si  Si70  1  0.46849157  0.93958163  0.36867373  1
  Si  Si71  1  0.53150843  0.06041837  0.36867373  1
  Te  Te72  1  0.00000000  0.50000000  0.00000000  1
  Te  Te73  1  0.50000000  0.00000000  0.00000000  1
  Te  Te74  1  0.13248775  0.20372253  0.00000000  1
  Te  Te75  1  0.86751225  0.79627747  -0.00000000  1
  Te  Te76  1  0.36751225  0.70372253  -0.00000000  1
  Te  Te77  1  0.63248775  0.29627747  -0.00000000  1
  Te  Te78  1  0.08793912  0.42410825  0.50000000  1
  Te  Te79  1  0.91206088  0.57589175  0.50000000  1
  Te  Te80  1  0.41206088  0.92410825  0.50000000  1
  Te  Te81  1  0.58793912  0.07589175  0.50000000  1
  Te  Te82  1  0.00000000  0.00000000  0.00000000  1
  Te  Te83  1  0.50000000  0.50000000  0.00000000  1
