# generated using pymatgen
data_LiF
_symmetry_space_group_name_H-M   'P 1'
_cell_length_a   8.26572036
_cell_length_b   5.57845757
_cell_length_c   16.23787297
_cell_angle_alpha   90.00000000
_cell_angle_beta   90.00000000
_cell_angle_gamma   90.00000000
_symmetry_Int_Tables_number   1
_chemical_formula_structural   LiF
_chemical_formula_sum   'Li24 F24'
_cell_volume   748.72784106
_cell_formula_units_Z   24
loop_
 _symmetry_equiv_pos_site_id
 _symmetry_equiv_pos_as_xyz
  1  'x, y, z'
loop_
 _atom_site_type_symbol
 _atom_site_label
 _atom_site_symmetry_multiplicity
 _atom_site_fract_x
 _atom_site_fract_y
 _atom_site_fract_z
 _atom_site_occupancy
  F  F0  1  0.34104738  0.25000000  0.64120382  1
  F  F1  1  0.15895262  0.75000000  0.14120382  1
  F  F2  1  0.65895262  0.75000000  0.35879618  1
  F  F3  1  0.84104738  0.25000000  0.85879618  1
  F  F4  1  0.66171792  0.25000000  0.29504747  1
  F  F5  1  0.83828208  0.75000000  0.79504747  1
  F  F6  1  0.33828208  0.75000000  0.70495253  1
  F  F7  1  0.16171792  0.25000000  0.20495253  1
  F  F8  1  0.33798723  0.96563575  0.01008519  1
  F  F9  1  0.16201277  0.03436425  0.51008519  1
  F  F10  1  0.66201277  0.46563575  0.98991481  1
  F  F11  1  0.83798723  0.53436425  0.48991481  1
  F  F12  1  0.66201277  0.03436425  0.98991481  1
  F  F13  1  0.83798723  0.96563575  0.48991481  1
  F  F14  1  0.33798723  0.53436425  0.01008519  1
  F  F15  1  0.16201277  0.46563575  0.51008519  1
  F  F16  1  0.36860396  0.25000000  0.41568701  1
  F  F17  1  0.13139604  0.75000000  0.91568701  1
  F  F18  1  0.63139604  0.75000000  0.58431299  1
  F  F19  1  0.86860396  0.25000000  0.08431299  1
  F  F20  1  0.00000000  0.00000000  0.00000000  1
  F  F21  1  0.50000000  0.00000000  0.50000000  1
  F  F22  1  0.00000000  0.50000000  0.00000000  1
  F  F23  1  0.50000000  0.50000000  0.50000000  1
  Li  Li24  1  0.95199361  0.45405194  0.16669502  1
  Li  Li25  1  -0.45199361  -0.45405194  0.66669502  1
  Li  Li26  1  -0.95199361  0.95405194  -0.16669502  1
  Li  Li27  1  1.45199361  0.04594806  0.33330498  1
  Li  Li28  1  -0.95199361  -0.45405194  -0.16669502  1
  Li  Li29  1  1.45199361  0.45405194  0.33330498  1
  Li  Li30  1  0.95199361  0.04594806  0.16669502  1
  Li  Li31  1  -0.45199361  0.95405194  0.66669502  1
  Li  Li32  1  0.84711506  0.01194074  0.23813463  1
  Li  Li33  1  0.65288494  0.98805926  0.73813463  1
  Li  Li34  1  0.15288494  0.51194074  0.76186537  1
  Li  Li35  1  0.34711506  0.48805926  0.26186537  1
  Li  Li36  1  0.15288494  0.98805926  0.76186537  1
  Li  Li37  1  0.34711506  0.01194074  0.26186537  1
  Li  Li38  1  0.84711506  0.48805926  0.23813463  1
  Li  Li39  1  0.65288494  0.51194074  0.73813463  1
  Li  Li40  1  0.94661814  0.89372651  0.47993660  1
  Li  Li41  1  0.55338186  0.10627349  0.97993660  1
  Li  Li42  1  0.05338186  0.39372651  0.52006340  1
  Li  Li43  1  0.44661814  0.60627349  0.02006340  1
  Li  Li44  1  0.05338186  0.10627349  0.52006340  1
  Li  Li45  1  0.44661814  0.89372651  0.02006340  1
  Li  Li46  1  0.94661814  0.60627349  0.47993660  1
  Li  Li47  1  0.55338186  0.39372651  0.97993660  1
