# generated using pymatgen
data_LiF
_symmetry_space_group_name_H-M   'P 1'
_cell_length_a   11.12744736
_cell_length_b   11.12744736
_cell_length_c   15.09187353
_cell_angle_alpha   90.00000000
_cell_angle_beta   90.00000000
_cell_angle_gamma   90.00000000
_symmetry_Int_Tables_number   1
_chemical_formula_structural   LiF
_chemical_formula_sum   'Li64 F64'
_cell_volume   1868.67706071
_cell_formula_units_Z   64
loop_
 _symmetry_equiv_pos_site_id
 _symmetry_equiv_pos_as_xyz
  1  'x, y, z'
loop_
 _atom_site_type_symbol
 _atom_site_label
 _atom_site_symmetry_multiplicity
 _atom_site_fract_x
 _atom_site_fract_y
 _atom_site_fract_z
 _atom_site_occupancy
  F  F0  1  0.17196606  0.48115840  0.71525389  1
  F  F1  1  0.32803394  -0.48115840  1.21525389  1
  F  F2  1  -0.23115840  0.92196606  0.96525389  1
  F  F3  1  0.73115840  0.07803394  1.46525389  1
  F  F4  1  0.32803394  0.48115840  -0.71525389  1
  F  F5  1  0.17196606  -0.48115840  -0.21525389  1
  F  F6  1  0.73115840  0.92196606  0.03474611  1
  F  F7  1  -0.23115840  0.07803394  -0.46525389  1
  F  F8  1  -0.17196606  -0.48115840  -0.71525389  1
  F  F9  1  0.67196606  0.48115840  -0.21525389  1
  F  F10  1  1.23115840  0.07803394  0.03474611  1
  F  F11  1  0.26884160  0.92196606  -0.46525389  1
  F  F12  1  0.67196606  -0.48115840  0.71525389  1
  F  F13  1  -0.17196606  0.48115840  1.21525389  1
  F  F14  1  0.26884160  0.07803394  0.96525389  1
  F  F15  1  1.23115840  0.92196606  1.46525389  1
  F  F16  1  0.67196606  0.98115840  1.21525389  1
  F  F17  1  0.82803394  0.01884160  1.71525389  1
  F  F18  1  0.26884160  1.42196606  1.46525389  1
  F  F19  1  1.23115840  0.57803394  1.96525389  1
  F  F20  1  0.82803394  0.98115840  -0.21525389  1
  F  F21  1  0.67196606  0.01884160  0.28474611  1
  F  F22  1  1.23115840  1.42196606  0.53474611  1
  F  F23  1  0.26884160  0.57803394  0.03474611  1
  F  F24  1  0.32803394  0.01884160  -0.21525389  1
  F  F25  1  1.17196606  0.98115840  0.28474611  1
  F  F26  1  1.73115840  0.57803394  0.53474611  1
  F  F27  1  0.76884160  1.42196606  0.03474611  1
  F  F28  1  1.17196606  0.01884160  1.21525389  1
  F  F29  1  0.32803394  0.98115840  1.71525389  1
  F  F30  1  0.76884160  0.57803394  1.46525389  1
  F  F31  1  1.73115840  1.42196606  1.96525389  1
  F  F32  1  0.28888663  0.17967708  0.74815121  1
  F  F33  1  0.21111337  0.82032292  0.24815121  1
  F  F34  1  0.07032292  0.03888663  0.99815121  1
  F  F35  1  0.42967708  0.96111337  0.49815121  1
  F  F36  1  0.21111337  0.17967708  0.25184879  1
  F  F37  1  0.28888663  0.82032292  0.75184879  1
  F  F38  1  0.42967708  0.03888663  0.00184879  1
  F  F39  1  0.07032292  0.96111337  0.50184879  1
  F  F40  1  0.71111337  0.82032292  0.25184879  1
  F  F41  1  0.78888663  0.17967708  0.75184879  1
  F  F42  1  0.92967708  0.96111337  0.00184879  1
  F  F43  1  0.57032292  0.03888663  0.50184879  1
  F  F44  1  0.78888663  0.82032292  0.74815121  1
  F  F45  1  0.71111337  0.17967708  0.24815121  1
  F  F46  1  0.57032292  0.96111337  0.99815121  1
  F  F47  1  0.92967708  0.03888663  0.49815121  1
  F  F48  1  0.78888663  0.67967708  0.24815121  1
  F  F49  1  0.71111337  0.32032292  0.74815121  1
  F  F50  1  0.57032292  0.53888663  0.49815121  1
  F  F51  1  0.92967708  0.46111337  0.99815121  1
  F  F52  1  0.71111337  0.67967708  0.75184879  1
  F  F53  1  0.78888663  0.32032292  0.25184879  1
  F  F54  1  0.92967708  0.53888663  0.50184879  1
  F  F55  1  0.57032292  0.46111337  0.00184879  1
  F  F56  1  0.21111337  0.32032292  0.75184879  1
  F  F57  1  0.28888663  0.67967708  0.25184879  1
  F  F58  1  0.42967708  0.46111337  0.50184879  1
  F  F59  1  0.07032292  0.53888663  0.00184879  1
  F  F60  1  0.28888663  0.32032292  0.24815121  1
  F  F61  1  0.21111337  0.67967708  0.74815121  1
  F  F62  1  0.07032292  0.46111337  0.49815121  1
  F  F63  1  0.42967708  0.53888663  0.99815121  1
  Li  Li64  1  0.57802640  0.22140623  0.23518030  1
  Li  Li65  1  0.92197360  0.77859377  0.73518030  1
  Li  Li66  1  0.02859377  0.32802640  0.48518030  1
  Li  Li67  1  0.47140623  0.67197360  0.98518030  1
  Li  Li68  1  0.92197360  0.22140623  0.76481970  1
  Li  Li69  1  0.57802640  0.77859377  0.26481970  1
  Li  Li70  1  0.47140623  0.32802640  0.51481970  1
  Li  Li71  1  0.02859377  0.67197360  0.01481970  1
  Li  Li72  1  0.42197360  0.77859377  0.76481970  1
  Li  Li73  1  0.07802640  0.22140623  0.26481970  1
  Li  Li74  1  0.97140623  0.67197360  0.51481970  1
  Li  Li75  1  0.52859377  0.32802640  0.01481970  1
  Li  Li76  1  0.07802640  0.77859377  0.23518030  1
  Li  Li77  1  0.42197360  0.22140623  0.73518030  1
  Li  Li78  1  0.52859377  0.67197360  0.48518030  1
  Li  Li79  1  0.97140623  0.32802640  0.98518030  1
  Li  Li80  1  0.07802640  0.72140623  0.73518030  1
  Li  Li81  1  0.42197360  0.27859377  0.23518030  1
  Li  Li82  1  0.52859377  0.82802640  0.98518030  1
  Li  Li83  1  0.97140623  0.17197360  0.48518030  1
  Li  Li84  1  0.42197360  0.72140623  0.26481970  1
  Li  Li85  1  0.07802640  0.27859377  0.76481970  1
  Li  Li86  1  0.97140623  0.82802640  0.01481970  1
  Li  Li87  1  0.52859377  0.17197360  0.51481970  1
  Li  Li88  1  0.92197360  0.27859377  0.26481970  1
  Li  Li89  1  0.57802640  0.72140623  0.76481970  1
  Li  Li90  1  0.47140623  0.17197360  0.01481970  1
  Li  Li91  1  0.02859377  0.82802640  0.51481970  1
  Li  Li92  1  0.57802640  0.27859377  0.73518030  1
  Li  Li93  1  0.92197360  0.72140623  0.23518030  1
  Li  Li94  1  0.02859377  0.17197360  0.98518030  1
  Li  Li95  1  0.47140623  0.82802640  0.48518030  1
  Li  Li96  1  0.06447558  0.43499906  0.19819013  1
  Li  Li97  1  0.43552442  0.56500094  0.69819013  1
  Li  Li98  1  0.81500094  0.81447558  0.44819013  1
  Li  Li99  1  0.68499906  0.18552442  0.94819013  1
  Li  Li100  1  0.43552442  0.43499906  0.80180987  1
  Li  Li101  1  0.06447558  0.56500094  0.30180987  1
  Li  Li102  1  0.68499906  0.81447558  0.55180987  1
  Li  Li103  1  0.81500094  0.18552442  0.05180987  1
  Li  Li104  1  0.93552442  0.56500094  0.80180987  1
  Li  Li105  1  0.56447558  0.43499906  0.30180987  1
  Li  Li106  1  0.18499906  0.18552442  0.55180987  1
  Li  Li107  1  0.31500094  0.81447558  0.05180987  1
  Li  Li108  1  0.56447558  0.56500094  0.19819013  1
  Li  Li109  1  0.93552442  0.43499906  0.69819013  1
  Li  Li110  1  0.31500094  0.18552442  0.44819013  1
  Li  Li111  1  0.18499906  0.81447558  0.94819013  1
  Li  Li112  1  0.56447558  0.93499906  0.69819013  1
  Li  Li113  1  0.93552442  0.06500094  0.19819013  1
  Li  Li114  1  0.31500094  0.31447558  0.94819013  1
  Li  Li115  1  0.18499906  0.68552442  0.44819013  1
  Li  Li116  1  0.93552442  0.93499906  0.30180987  1
  Li  Li117  1  0.56447558  0.06500094  0.80180987  1
  Li  Li118  1  0.18499906  0.31447558  0.05180987  1
  Li  Li119  1  0.31500094  0.68552442  0.55180987  1
  Li  Li120  1  0.43552442  0.06500094  0.30180987  1
  Li  Li121  1  0.06447558  0.93499906  0.80180987  1
  Li  Li122  1  0.68499906  0.68552442  0.05180987  1
  Li  Li123  1  0.81500094  0.31447558  0.55180987  1
  Li  Li124  1  0.06447558  0.06500094  0.69819013  1
  Li  Li125  1  0.43552442  0.93499906  0.19819013  1
  Li  Li126  1  0.81500094  0.68552442  0.94819013  1
  Li  Li127  1  0.68499906  0.31447558  0.44819013  1
