# generated using pymatgen
data_Li2Ca3F8
_symmetry_space_group_name_H-M   'P 1'
_cell_length_a   12.47665864
_cell_length_b   12.47665864
_cell_length_c   8.21764981
_cell_angle_alpha   90.00000000
_cell_angle_beta   90.00000000
_cell_angle_gamma   120.00000000
_symmetry_Int_Tables_number   1
_chemical_formula_structural   Li2Ca3F8
_chemical_formula_sum   'Li16 Ca24 F64'
_cell_volume   1107.83440337
_cell_formula_units_Z   8
loop_
 _symmetry_equiv_pos_site_id
 _symmetry_equiv_pos_as_xyz
  1  'x, y, z'
loop_
 _atom_site_type_symbol
 _atom_site_label
 _atom_site_symmetry_multiplicity
 _atom_site_fract_x
 _atom_site_fract_y
 _atom_site_fract_z
 _atom_site_occupancy
  Ca  Ca0  1  0.83309075  0.16690925  0.50000000  1
  Ca  Ca1  1  0.83309075  0.66618150  0.50000000  1
  Ca  Ca2  1  0.33381850  0.16690925  0.50000000  1
  Ca  Ca3  1  0.31653844  0.33348736  0.85045348  1
  Ca  Ca4  1  0.66651264  0.98305109  0.85045348  1
  Ca  Ca5  1  0.01694891  0.68346156  0.85045348  1
  Ca  Ca6  1  0.66651264  0.68346156  0.14954652  1
  Ca  Ca7  1  0.01694891  0.33348736  0.14954652  1
  Ca  Ca8  1  0.31653844  0.98305109  0.14954652  1
  Ca  Ca9  1  0.12642435  0.85695159  0.29368925  1
  Ca  Ca10  1  0.14304841  0.26947276  0.29368925  1
  Ca  Ca11  1  0.73052724  0.87357565  0.29368925  1
  Ca  Ca12  1  0.14304841  0.87357565  0.70631075  1
  Ca  Ca13  1  0.73052724  0.85695159  0.70631075  1
  Ca  Ca14  1  0.12642435  0.26947276  0.70631075  1
  Ca  Ca15  1  0.63179782  0.65178107  0.79028411  1
  Ca  Ca16  1  0.34821893  0.98001675  0.79028411  1
  Ca  Ca17  1  0.01998325  0.36820218  0.79028411  1
  Ca  Ca18  1  0.34821893  0.36820218  0.20971589  1
  Ca  Ca19  1  0.01998325  0.65178107  0.20971589  1
  Ca  Ca20  1  0.63179782  0.98001675  0.20971589  1
  Ca  Ca21  1  0.39323960  0.60676040  0.50000000  1
  Ca  Ca22  1  0.39323960  0.78647919  0.50000000  1
  Ca  Ca23  1  0.21352081  0.60676040  0.50000000  1
  F  F24  1  0.97293509  0.02706491  0.00000000  1
  F  F25  1  0.97293509  0.94587018  0.00000000  1
  F  F26  1  0.05412982  0.02706491  0.00000000  1
  F  F27  1  0.33333333  0.66666667  0.00000000  1
  F  F28  1  0.66666667  0.33333333  0.87595523  1
  F  F29  1  0.66666667  0.33333333  0.12404477  1
  F  F30  1  0.00000000  0.00000000  0.86705717  1
  F  F31  1  0.00000000  0.00000000  0.13294283  1
  F  F32  1  0.66666667  0.33333333  0.50000000  1
  F  F33  1  0.07164585  0.55334513  0.68688294  1
  F  F34  1  -0.55334513  -0.48169928  0.68688294  1
  F  F35  1  0.48169928  -0.07164585  0.68688294  1
  F  F36  1  -0.55334513  -0.07164585  -0.68688294  1
  F  F37  1  0.48169928  0.55334513  -0.68688294  1
  F  F38  1  0.07164585  -0.48169928  -0.68688294  1
  F  F39  1  0.88954116  0.84972309  0.52899756  1
  F  F40  1  0.15027691  0.03981807  0.52899756  1
  F  F41  1  0.96018193  0.11045884  0.52899756  1
  F  F42  1  0.15027691  0.11045884  0.47100244  1
  F  F43  1  0.96018193  0.84972309  0.47100244  1
  F  F44  1  0.88954116  0.03981807  0.47100244  1
  F  F45  1  0.24410090  0.83060414  0.70130259  1
  F  F46  1  0.16939586  0.41349676  0.70130259  1
  F  F47  1  0.58650324  0.75589910  0.70130259  1
  F  F48  1  0.16939586  0.75589910  0.29869741  1
  F  F49  1  0.58650324  0.83060414  0.29869741  1
  F  F50  1  0.24410090  0.41349676  0.29869741  1
  F  F51  1  0.48482076  0.40143628  0.67803119  1
  F  F52  1  0.59856372  0.08338448  0.67803119  1
  F  F53  1  0.91661552  0.51517924  0.67803119  1
  F  F54  1  0.59856372  0.51517924  0.32196881  1
  F  F55  1  0.91661552  0.40143628  0.32196881  1
  F  F56  1  0.48482076  0.08338448  0.32196881  1
  F  F57  1  0.33333333  0.66666667  0.79960600  1
  F  F58  1  0.33333333  0.66666667  0.20039400  1
  F  F59  1  0.84771729  0.38594622  0.04990999  1
  F  F60  1  0.61405378  0.46177107  0.04990999  1
  F  F61  1  0.53822893  0.15228271  0.04990999  1
  F  F62  1  0.61405378  0.15228271  0.95009001  1
  F  F63  1  0.53822893  0.38594622  0.95009001  1
  F  F64  1  0.84771729  0.46177107  0.95009001  1
  F  F65  1  0.06838289  0.93161711  0.00000000  1
  F  F66  1  0.06838289  0.13676579  0.00000000  1
  F  F67  1  0.86323421  0.93161711  0.00000000  1
  F  F68  1  0.92934213  0.33103845  0.20377876  1
  F  F69  1  0.66896155  0.59830369  0.20377876  1
  F  F70  1  0.40169631  0.07065787  0.20377876  1
  F  F71  1  0.66896155  0.07065787  0.79622124  1
  F  F72  1  0.40169631  0.33103845  0.79622124  1
  F  F73  1  0.92934213  0.59830369  0.79622124  1
  F  F74  1  0.40971987  0.27694826  0.92477755  1
  F  F75  1  0.72305174  0.13277161  0.92477755  1
  F  F76  1  0.86722839  0.59028013  0.92477755  1
  F  F77  1  0.72305174  0.59028013  0.07522245  1
  F  F78  1  0.86722839  0.27694826  0.07522245  1
  F  F79  1  0.40971987  0.13277161  0.07522245  1
  F  F80  1  0.00000000  0.00000000  0.58504802  1
  F  F81  1  0.00000000  0.00000000  0.41495198  1
  F  F82  1  0.05653909  0.56209318  0.02079327  1
  F  F83  1  0.43790682  0.49444591  0.02079327  1
  F  F84  1  0.50555409  0.94346091  0.02079327  1
  F  F85  1  0.43790682  0.94346091  0.97920673  1
  F  F86  1  0.50555409  0.56209318  0.97920673  1
  F  F87  1  0.05653909  0.49444591  0.97920673  1
  Li  Li88  1  0.13546282  0.01432632  0.05570033  1
  Li  Li89  1  0.98567368  0.12113650  0.05570033  1
  Li  Li90  1  0.87886350  0.86453718  0.05570033  1
  Li  Li91  1  0.98567368  0.86453718  0.94429967  1
  Li  Li92  1  0.87886350  0.01432632  0.94429967  1
  Li  Li93  1  0.13546282  0.12113650  0.94429967  1
  Li  Li94  1  0.66666667  0.33333333  0.64824861  1
  Li  Li95  1  0.66666667  0.33333333  0.35175139  1
  Li  Li96  1  0.04013046  0.63681155  0.49100110  1
  Li  Li97  1  0.36318845  0.40331891  0.49100110  1
  Li  Li98  1  0.59668109  0.95986954  0.49100110  1
  Li  Li99  1  0.36318845  0.95986954  0.50899890  1
  Li  Li100  1  0.59668109  0.63681155  0.50899890  1
  Li  Li101  1  0.04013046  0.40331891  0.50899890  1
  Li  Li102  1  0.00000000  0.00000000  0.27395535  1
  Li  Li103  1  0.00000000  0.00000000  0.72604465  1
