# generated using pymatgen
data_Li3ZrSO
_symmetry_space_group_name_H-M   'P 1'
_cell_length_a   3.83057280
_cell_length_b   3.66597759
_cell_length_c   6.29940785
_cell_angle_alpha   116.07898162
_cell_angle_beta   96.92278271
_cell_angle_gamma   112.42817038
_symmetry_Int_Tables_number   1
_chemical_formula_structural   Li3ZrSO
_chemical_formula_sum   'Li3 Zr1 S1 O1'
_cell_volume   68.87622093
_cell_formula_units_Z   1
loop_
 _symmetry_equiv_pos_site_id
 _symmetry_equiv_pos_as_xyz
  1  'x, y, z'
loop_
 _atom_site_type_symbol
 _atom_site_label
 _atom_site_symmetry_multiplicity
 _atom_site_fract_x
 _atom_site_fract_y
 _atom_site_fract_z
 _atom_site_occupancy
  S  S0  1  0.00000000  0.00000000  0.00000000  1
  Zr  Zr1  1  0.33300000  0.66700000  0.25000000  1
  Li  Li2  1  0.66700000  0.33300000  0.50000000  1
  Li  Li3  1  0.00000000  0.00000000  0.75000000  1
  Li  Li4  1  0.98124051  0.55517283  0.95059839  1
  O  O5  1  0.38791062  0.99386349  0.00097008  1
