# generated using pymatgen
data_LiF
_symmetry_space_group_name_H-M   'P 1'
_cell_length_a   10.24714380
_cell_length_b   10.24714380
_cell_length_c   7.03329967
_cell_angle_alpha   90.00000000
_cell_angle_beta   90.00000000
_cell_angle_gamma   120.00000000
_symmetry_Int_Tables_number   1
_chemical_formula_structural   LiF
_chemical_formula_sum   'Li30 F30'
_cell_volume   639.58079516
_cell_formula_units_Z   30
loop_
 _symmetry_equiv_pos_site_id
 _symmetry_equiv_pos_as_xyz
  1  'x, y, z'
loop_
 _atom_site_type_symbol
 _atom_site_label
 _atom_site_symmetry_multiplicity
 _atom_site_fract_x
 _atom_site_fract_y
 _atom_site_fract_z
 _atom_site_occupancy
  F  F0  1  0.33333333  0.66666667  0.25000000  1
  F  F1  1  0.66666667  0.33333333  0.75000000  1
  F  F2  1  0.66666667  0.33333333  0.25000000  1
  F  F3  1  0.33333333  0.66666667  0.75000000  1
  F  F4  1  0.41284770  0.19861512  0.25000000  1
  F  F5  1  0.80138488  0.21423259  0.25000000  1
  F  F6  1  0.78576741  0.58715230  0.25000000  1
  F  F7  1  0.58715230  0.80138488  0.75000000  1
  F  F8  1  0.19861512  0.78576741  0.75000000  1
  F  F9  1  0.21423259  0.41284770  0.75000000  1
  F  F10  1  0.42838608  0.75147813  0.52004676  1
  F  F11  1  -0.75147813  -0.32309205  0.52004676  1
  F  F12  1  0.32309205  -0.42838608  0.52004676  1
  F  F13  1  -0.42838608  -0.75147813  1.02004676  1
  F  F14  1  0.75147813  0.32309205  1.02004676  1
  F  F15  1  -0.32309205  0.42838608  1.02004676  1
  F  F16  1  -0.42838608  -0.75147813  -0.52004676  1
  F  F17  1  0.75147813  0.32309205  -0.52004676  1
  F  F18  1  -0.32309205  0.42838608  -0.52004676  1
  F  F19  1  0.42838608  0.75147813  -0.02004676  1
  F  F20  1  -0.75147813  -0.32309205  -0.02004676  1
  F  F21  1  0.32309205  -0.42838608  -0.02004676  1
  F  F22  1  0.42456464  0.40535397  0.25000000  1
  F  F23  1  0.59464603  0.01921067  0.25000000  1
  F  F24  1  0.98078933  0.57543536  0.25000000  1
  F  F25  1  0.57543536  0.59464603  0.75000000  1
  F  F26  1  0.40535397  0.98078933  0.75000000  1
  F  F27  1  0.01921067  0.42456464  0.75000000  1
  F  F28  1  0.00000000  0.00000000  0.00000000  1
  F  F29  1  0.00000000  0.00000000  0.50000000  1
  Li  Li30  1  0.50000000  0.00000000  0.00000000  1
  Li  Li31  1  0.00000000  0.50000000  0.00000000  1
  Li  Li32  1  0.50000000  0.50000000  0.00000000  1
  Li  Li33  1  0.50000000  0.00000000  0.50000000  1
  Li  Li34  1  0.00000000  0.50000000  0.50000000  1
  Li  Li35  1  0.50000000  0.50000000  0.50000000  1
  Li  Li36  1  0.56037209  0.41394578  0.87016108  1
  Li  Li37  1  0.58605422  0.14642630  0.87016108  1
  Li  Li38  1  0.85357370  0.43962791  0.87016108  1
  Li  Li39  1  0.43962791  0.58605422  0.37016108  1
  Li  Li40  1  0.41394578  0.85357370  0.37016108  1
  Li  Li41  1  0.14642630  0.56037209  0.37016108  1
  Li  Li42  1  0.43962791  0.58605422  0.12983892  1
  Li  Li43  1  0.41394578  0.85357370  0.12983892  1
  Li  Li44  1  0.14642630  0.56037209  0.12983892  1
  Li  Li45  1  0.56037209  0.41394578  0.62983892  1
  Li  Li46  1  0.58605422  0.14642630  0.62983892  1
  Li  Li47  1  0.85357370  0.43962791  0.62983892  1
  Li  Li48  1  0.57891162  0.92144584  0.25000000  1
  Li  Li49  1  0.07855416  0.65746577  0.25000000  1
  Li  Li50  1  0.34253423  0.42108838  0.25000000  1
  Li  Li51  1  0.42108838  0.07855416  0.75000000  1
  Li  Li52  1  0.92144584  0.34253423  0.75000000  1
  Li  Li53  1  0.65746577  0.57891162  0.75000000  1
  Li  Li54  1  0.18620243  0.28319442  0.25000000  1
  Li  Li55  1  0.71680558  0.90300801  0.25000000  1
  Li  Li56  1  0.09699199  0.81379757  0.25000000  1
  Li  Li57  1  0.81379757  0.71680558  0.75000000  1
  Li  Li58  1  0.28319442  0.09699199  0.75000000  1
  Li  Li59  1  0.90300801  0.18620243  0.75000000  1
