# generated using pymatgen
data_LiF
_symmetry_space_group_name_H-M   'P 1'
_cell_length_a   16.94806678
_cell_length_b   16.94806678
_cell_length_c   9.71102060
_cell_angle_alpha   90.00000000
_cell_angle_beta   90.00000000
_cell_angle_gamma   120.00000000
_symmetry_Int_Tables_number   1
_chemical_formula_structural   LiF
_chemical_formula_sum   'Li108 F108'
_cell_volume   2415.66017772
_cell_formula_units_Z   108
loop_
 _symmetry_equiv_pos_site_id
 _symmetry_equiv_pos_as_xyz
  1  'x, y, z'
loop_
 _atom_site_type_symbol
 _atom_site_label
 _atom_site_symmetry_multiplicity
 _atom_site_fract_x
 _atom_site_fract_y
 _atom_site_fract_z
 _atom_site_occupancy
  F  F0  1  0.16441921  0.60562027  0.95035597  1
  F  F1  1  -0.60562027  -0.44120106  0.95035597  1
  F  F2  1  0.44120106  -0.16441921  0.95035597  1
  F  F3  1  0.60562027  0.16441921  -0.45035597  1
  F  F4  1  -0.44120106  -0.60562027  -0.45035597  1
  F  F5  1  -0.16441921  0.44120106  -0.45035597  1
  F  F6  1  -0.16441921  -0.60562027  -0.95035597  1
  F  F7  1  0.60562027  0.44120106  -0.95035597  1
  F  F8  1  -0.44120106  0.16441921  -0.95035597  1
  F  F9  1  -0.60562027  -0.16441921  1.45035597  1
  F  F10  1  0.44120106  0.60562027  1.45035597  1
  F  F11  1  0.16441921  -0.44120106  1.45035597  1
  F  F12  1  0.83108588  0.93895360  1.28368930  1
  F  F13  1  0.06104640  -0.10786773  1.28368930  1
  F  F14  1  1.10786773  0.16891412  1.28368930  1
  F  F15  1  1.27228694  0.49775254  -0.11702263  1
  F  F16  1  0.22546561  -0.27228694  -0.11702263  1
  F  F17  1  0.50224746  0.77453439  -0.11702263  1
  F  F18  1  0.50224746  -0.27228694  -0.61702263  1
  F  F19  1  1.27228694  0.77453439  -0.61702263  1
  F  F20  1  0.22546561  0.49775254  -0.61702263  1
  F  F21  1  0.06104640  0.16891412  1.78368930  1
  F  F22  1  1.10786773  0.93895360  1.78368930  1
  F  F23  1  0.83108588  -0.10786773  1.78368930  1
  F  F24  1  0.49775254  1.27228694  1.61702263  1
  F  F25  1  -0.27228694  0.22546561  1.61702263  1
  F  F26  1  0.77453439  0.50224746  1.61702263  1
  F  F27  1  0.93895360  0.83108588  0.21631070  1
  F  F28  1  -0.10786773  0.06104640  0.21631070  1
  F  F29  1  0.16891412  1.10786773  0.21631070  1
  F  F30  1  0.16891412  0.06104640  -0.28368930  1
  F  F31  1  0.93895360  1.10786773  -0.28368930  1
  F  F32  1  -0.10786773  0.83108588  -0.28368930  1
  F  F33  1  -0.27228694  0.50224746  2.11702263  1
  F  F34  1  0.77453439  1.27228694  2.11702263  1
  F  F35  1  0.49775254  0.22546561  2.11702263  1
  F  F36  1  0.00000000  0.00000000  0.00000000  1
  F  F37  1  0.00000000  0.00000000  0.50000000  1
  F  F38  1  0.66666667  0.33333333  0.33333333  1
  F  F39  1  0.66666667  0.33333333  0.83333333  1
  F  F40  1  0.33333333  0.66666667  0.66666667  1
  F  F41  1  0.33333333  0.66666667  0.16666667  1
  F  F42  1  0.76237592  0.86791199  0.57751816  1
  F  F43  1  0.13208801  0.89446393  0.57751816  1
  F  F44  1  0.10553607  0.23762408  0.57751816  1
  F  F45  1  0.86791199  0.76237592  0.92248184  1
  F  F46  1  0.89446393  0.13208801  0.92248184  1
  F  F47  1  0.23762408  0.10553607  0.92248184  1
  F  F48  1  0.23762408  0.13208801  0.42248184  1
  F  F49  1  0.86791199  0.10553607  0.42248184  1
  F  F50  1  0.89446393  0.76237592  0.42248184  1
  F  F51  1  0.13208801  0.23762408  0.07751816  1
  F  F52  1  0.10553607  0.86791199  0.07751816  1
  F  F53  1  0.76237592  0.89446393  0.07751816  1
  F  F54  1  0.42904259  0.20124532  0.91085149  1
  F  F55  1  0.79875468  0.22779726  0.91085149  1
  F  F56  1  0.77220274  0.57095741  0.91085149  1
  F  F57  1  0.53457866  0.09570925  0.25581518  1
  F  F58  1  0.56113059  0.46542134  0.25581518  1
  F  F59  1  0.90429075  0.43886941  0.25581518  1
  F  F60  1  0.90429075  0.46542134  0.75581518  1
  F  F61  1  0.53457866  0.43886941  0.75581518  1
  F  F62  1  0.56113059  0.09570925  0.75581518  1
  F  F63  1  0.79875468  0.57095741  0.41085149  1
  F  F64  1  0.77220274  0.20124532  0.41085149  1
  F  F65  1  0.42904259  0.22779726  0.41085149  1
  F  F66  1  0.09570925  0.53457866  0.24418482  1
  F  F67  1  0.46542134  0.56113059  0.24418482  1
  F  F68  1  0.43886941  0.90429075  0.24418482  1
  F  F69  1  0.20124532  0.42904259  0.58914851  1
  F  F70  1  0.22779726  0.79875468  0.58914851  1
  F  F71  1  0.57095741  0.77220274  0.58914851  1
  F  F72  1  0.57095741  0.79875468  0.08914851  1
  F  F73  1  0.20124532  0.77220274  0.08914851  1
  F  F74  1  0.22779726  0.42904259  0.08914851  1
  F  F75  1  0.46542134  0.90429075  0.74418482  1
  F  F76  1  0.43886941  0.53457866  0.74418482  1
  F  F77  1  0.09570925  0.56113059  0.74418482  1
  F  F78  1  0.51025254  0.00000000  0.25000000  1
  F  F79  1  0.00000000  0.51025254  0.25000000  1
  F  F80  1  0.48974746  0.48974746  0.25000000  1
  F  F81  1  0.48974746  -0.00000000  0.75000000  1
  F  F82  1  0.00000000  0.48974746  0.75000000  1
  F  F83  1  0.51025254  0.51025254  0.75000000  1
  F  F84  1  0.17691921  0.33333333  0.58333333  1
  F  F85  1  0.66666667  0.84358587  0.58333333  1
  F  F86  1  0.15641413  0.82308079  0.58333333  1
  F  F87  1  0.15641413  0.33333333  0.08333333  1
  F  F88  1  0.66666667  0.82308079  0.08333333  1
  F  F89  1  0.17691921  0.84358587  0.08333333  1
  F  F90  1  0.84358587  0.66666667  0.91666667  1
  F  F91  1  0.33333333  0.17691921  0.91666667  1
  F  F92  1  0.82308079  0.15641413  0.91666667  1
  F  F93  1  0.82308079  0.66666667  0.41666667  1
  F  F94  1  0.33333333  0.15641413  0.41666667  1
  F  F95  1  0.84358587  0.17691921  0.41666667  1
  F  F96  1  0.00000000  0.00000000  0.68215867  1
  F  F97  1  0.00000000  0.00000000  0.81784133  1
  F  F98  1  0.00000000  0.00000000  0.31784133  1
  F  F99  1  0.00000000  0.00000000  0.18215867  1
  F  F100  1  0.66666667  0.33333333  0.01549200  1
  F  F101  1  0.66666667  0.33333333  0.15117467  1
  F  F102  1  0.66666667  0.33333333  0.65117467  1
  F  F103  1  0.66666667  0.33333333  0.51549200  1
  F  F104  1  0.33333333  0.66666667  0.34882533  1
  F  F105  1  0.33333333  0.66666667  0.48450800  1
  F  F106  1  0.33333333  0.66666667  0.98450800  1
  F  F107  1  0.33333333  0.66666667  0.84882533  1
  Li  Li108  1  0.24627152  -0.00000000  0.25000000  1
  Li  Li109  1  0.00000000  0.24627152  0.25000000  1
  Li  Li110  1  0.75372848  0.75372848  0.25000000  1
  Li  Li111  1  0.75372848  0.00000000  0.75000000  1
  Li  Li112  1  0.00000000  0.75372848  0.75000000  1
  Li  Li113  1  0.24627152  0.24627152  0.75000000  1
  Li  Li114  1  0.91293819  0.33333333  0.58333333  1
  Li  Li115  1  0.66666667  0.57960486  0.58333333  1
  Li  Li116  1  0.42039514  0.08706181  0.58333333  1
  Li  Li117  1  0.42039514  0.33333333  0.08333333  1
  Li  Li118  1  0.66666667  0.08706181  0.08333333  1
  Li  Li119  1  0.91293819  0.57960486  0.08333333  1
  Li  Li120  1  0.57960486  0.66666667  0.91666667  1
  Li  Li121  1  0.33333333  0.91293819  0.91666667  1
  Li  Li122  1  0.08706181  0.42039514  0.91666667  1
  Li  Li123  1  0.08706181  0.66666667  0.41666667  1
  Li  Li124  1  0.33333333  0.42039514  0.41666667  1
  Li  Li125  1  0.57960486  0.91293819  0.41666667  1
  Li  Li126  1  0.92756994  -0.00000000  0.25000000  1
  Li  Li127  1  0.00000000  0.92756994  0.25000000  1
  Li  Li128  1  0.07243006  0.07243006  0.25000000  1
  Li  Li129  1  0.07243006  0.00000000  0.75000000  1
  Li  Li130  1  0.00000000  0.07243006  0.75000000  1
  Li  Li131  1  0.92756994  0.92756994  0.75000000  1
  Li  Li132  1  0.59423661  0.33333333  0.58333333  1
  Li  Li133  1  0.66666667  0.26090327  0.58333333  1
  Li  Li134  1  0.73909673  0.40576339  0.58333333  1
  Li  Li135  1  0.73909673  0.33333333  0.08333333  1
  Li  Li136  1  0.66666667  0.40576339  0.08333333  1
  Li  Li137  1  0.59423661  0.26090327  0.08333333  1
  Li  Li138  1  0.26090327  0.66666667  0.91666667  1
  Li  Li139  1  0.33333333  0.59423661  0.91666667  1
  Li  Li140  1  0.40576339  0.73909673  0.91666667  1
  Li  Li141  1  0.40576339  0.66666667  0.41666667  1
  Li  Li142  1  0.33333333  0.73909673  0.41666667  1
  Li  Li143  1  0.26090327  0.59423661  0.41666667  1
  Li  Li144  1  0.15517273  0.07621138  0.55880488  1
  Li  Li145  1  0.92378862  0.07896136  0.55880488  1
  Li  Li146  1  0.92103864  0.84482727  0.55880488  1
  Li  Li147  1  0.07621138  0.15517273  0.94119512  1
  Li  Li148  1  0.07896136  0.92378862  0.94119512  1
  Li  Li149  1  0.84482727  0.92103864  0.94119512  1
  Li  Li150  1  0.84482727  0.92378862  0.44119512  1
  Li  Li151  1  0.07621138  0.92103864  0.44119512  1
  Li  Li152  1  0.07896136  0.15517273  0.44119512  1
  Li  Li153  1  0.92378862  0.84482727  0.05880488  1
  Li  Li154  1  0.92103864  0.07621138  0.05880488  1
  Li  Li155  1  0.15517273  0.07896136  0.05880488  1
  Li  Li156  1  0.82183940  0.40954471  0.89213822  1
  Li  Li157  1  0.59045529  0.41229469  0.89213822  1
  Li  Li158  1  0.58770531  0.17816060  0.89213822  1
  Li  Li159  1  0.74287804  0.48850607  0.27452845  1
  Li  Li160  1  0.74562802  0.25712196  0.27452845  1
  Li  Li161  1  0.51149393  0.25437198  0.27452845  1
  Li  Li162  1  0.51149393  0.25712196  0.77452845  1
  Li  Li163  1  0.74287804  0.25437198  0.77452845  1
  Li  Li164  1  0.74562802  0.48850607  0.77452845  1
  Li  Li165  1  0.59045529  0.17816060  0.39213822  1
  Li  Li166  1  0.58770531  0.40954471  0.39213822  1
  Li  Li167  1  0.82183940  0.41229469  0.39213822  1
  Li  Li168  1  0.48850607  0.74287804  0.22547155  1
  Li  Li169  1  0.25712196  0.74562802  0.22547155  1
  Li  Li170  1  0.25437198  0.51149393  0.22547155  1
  Li  Li171  1  0.40954471  0.82183940  0.60786178  1
  Li  Li172  1  0.41229469  0.59045529  0.60786178  1
  Li  Li173  1  0.17816060  0.58770531  0.60786178  1
  Li  Li174  1  0.17816060  0.59045529  0.10786178  1
  Li  Li175  1  0.40954471  0.58770531  0.10786178  1
  Li  Li176  1  0.41229469  0.82183940  0.10786178  1
  Li  Li177  1  0.25712196  0.51149393  0.72547155  1
  Li  Li178  1  0.25437198  0.74287804  0.72547155  1
  Li  Li179  1  0.48850607  0.74562802  0.72547155  1
  Li  Li180  1  0.50000000  0.00000000  0.00000000  1
  Li  Li181  1  0.00000000  0.50000000  -0.00000000  1
  Li  Li182  1  0.50000000  0.50000000  0.00000000  1
  Li  Li183  1  0.00000000  0.50000000  0.50000000  1
  Li  Li184  1  0.50000000  0.00000000  0.50000000  1
  Li  Li185  1  0.50000000  0.50000000  0.50000000  1
  Li  Li186  1  0.16666667  0.33333333  0.33333333  1
  Li  Li187  1  0.66666667  0.83333333  0.33333333  1
  Li  Li188  1  0.16666667  0.83333333  0.33333333  1
  Li  Li189  1  0.66666667  0.83333333  0.83333333  1
  Li  Li190  1  0.16666667  0.33333333  0.83333333  1
  Li  Li191  1  0.16666667  0.83333333  0.83333333  1
  Li  Li192  1  0.83333333  0.66666667  0.66666667  1
  Li  Li193  1  0.33333333  0.16666667  0.66666667  1
  Li  Li194  1  0.83333333  0.16666667  0.66666667  1
  Li  Li195  1  0.33333333  0.16666667  0.16666667  1
  Li  Li196  1  0.83333333  0.66666667  0.16666667  1
  Li  Li197  1  0.83333333  0.16666667  0.16666667  1
  Li  Li198  1  0.63301744  0.00000000  0.25000000  1
  Li  Li199  1  0.00000000  0.63301744  0.25000000  1
  Li  Li200  1  0.36698256  0.36698256  0.25000000  1
  Li  Li201  1  0.36698256  0.00000000  0.75000000  1
  Li  Li202  1  0.00000000  0.36698256  0.75000000  1
  Li  Li203  1  0.63301744  0.63301744  0.75000000  1
  Li  Li204  1  0.29968411  0.33333333  0.58333333  1
  Li  Li205  1  0.66666667  0.96635078  0.58333333  1
  Li  Li206  1  0.03364922  0.70031589  0.58333333  1
  Li  Li207  1  0.03364922  0.33333333  0.08333333  1
  Li  Li208  1  0.66666667  0.70031589  0.08333333  1
  Li  Li209  1  0.29968411  0.96635078  0.08333333  1
  Li  Li210  1  0.96635078  0.66666667  0.91666667  1
  Li  Li211  1  0.33333333  0.29968411  0.91666667  1
  Li  Li212  1  0.70031589  0.03364922  0.91666667  1
  Li  Li213  1  0.70031589  0.66666667  0.41666667  1
  Li  Li214  1  0.33333333  0.03364922  0.41666667  1
  Li  Li215  1  0.96635078  0.29968411  0.41666667  1
