# generated using pymatgen
data_LiF
_symmetry_space_group_name_H-M   'P 1'
_cell_length_a   11.40952810
_cell_length_b   8.22667856
_cell_length_c   8.87725579
_cell_angle_alpha   90.00000000
_cell_angle_beta   90.00000000
_cell_angle_gamma   90.00000000
_symmetry_Int_Tables_number   1
_chemical_formula_structural   LiF
_chemical_formula_sum   'Li28 F28'
_cell_volume   833.24160070
_cell_formula_units_Z   28
loop_
 _symmetry_equiv_pos_site_id
 _symmetry_equiv_pos_as_xyz
  1  'x, y, z'
loop_
 _atom_site_type_symbol
 _atom_site_label
 _atom_site_symmetry_multiplicity
 _atom_site_fract_x
 _atom_site_fract_y
 _atom_site_fract_z
 _atom_site_occupancy
  F  F0  1  0.19175790  0.62263693  0.76923003  1
  F  F1  1  -0.19175790  -0.62263693  0.76923003  1
  F  F2  1  0.30824210  1.12263693  -0.76923003  1
  F  F3  1  0.69175790  -0.12263693  -0.76923003  1
  F  F4  1  -0.19175790  -0.62263693  -0.76923003  1
  F  F5  1  0.19175790  0.62263693  -0.76923003  1
  F  F6  1  0.69175790  -0.12263693  0.76923003  1
  F  F7  1  0.30824210  1.12263693  0.76923003  1
  F  F8  1  0.44094327  0.86976762  0.58152374  1
  F  F9  1  0.55905673  0.13023238  0.58152374  1
  F  F10  1  0.05905673  0.36976762  0.41847626  1
  F  F11  1  0.94094327  0.63023238  0.41847626  1
  F  F12  1  0.55905673  0.13023238  0.41847626  1
  F  F13  1  0.44094327  0.86976762  0.41847626  1
  F  F14  1  0.94094327  0.63023238  0.58152374  1
  F  F15  1  0.05905673  0.36976762  0.58152374  1
  F  F16  1  0.00000000  0.50000000  0.34080191  1
  F  F17  1  0.50000000  0.00000000  0.65919809  1
  F  F18  1  0.00000000  0.50000000  0.65919809  1
  F  F19  1  0.50000000  0.00000000  0.34080191  1
  F  F20  1  0.30281184  0.16502642  0.38080526  1
  F  F21  1  0.69718816  0.83497358  0.38080526  1
  F  F22  1  0.19718816  0.66502642  0.61919474  1
  F  F23  1  0.80281184  0.33497358  0.61919474  1
  F  F24  1  0.69718816  0.83497358  0.61919474  1
  F  F25  1  0.30281184  0.16502642  0.61919474  1
  F  F26  1  0.80281184  0.33497358  0.38080526  1
  F  F27  1  0.19718816  0.66502642  0.38080526  1
  Li  Li28  1  0.00000000  0.50000000  0.00000000  1
  Li  Li29  1  0.50000000  0.00000000  0.00000000  1
  Li  Li30  1  0.00000000  0.00000000  0.63008951  1
  Li  Li31  1  0.50000000  0.50000000  0.36991049  1
  Li  Li32  1  0.00000000  0.00000000  0.36991049  1
  Li  Li33  1  0.50000000  0.50000000  0.63008951  1
  Li  Li34  1  0.70556779  0.41756387  0.67323367  1
  Li  Li35  1  0.29443221  0.58243613  0.67323367  1
  Li  Li36  1  0.79443221  0.91756387  0.32676633  1
  Li  Li37  1  0.20556779  0.08243613  0.32676633  1
  Li  Li38  1  0.29443221  0.58243613  0.32676633  1
  Li  Li39  1  0.70556779  0.41756387  0.32676633  1
  Li  Li40  1  0.20556779  0.08243613  0.67323367  1
  Li  Li41  1  0.79443221  0.91756387  0.67323367  1
  Li  Li42  1  0.92557389  0.45536632  0.16973823  1
  Li  Li43  1  0.07442611  0.54463368  0.16973823  1
  Li  Li44  1  0.57442611  0.95536632  0.83026177  1
  Li  Li45  1  0.42557389  0.04463368  0.83026177  1
  Li  Li46  1  0.07442611  0.54463368  0.83026177  1
  Li  Li47  1  0.92557389  0.45536632  0.83026177  1
  Li  Li48  1  0.42557389  0.04463368  0.16973823  1
  Li  Li49  1  0.57442611  0.95536632  0.16973823  1
  Li  Li50  1  0.00000000  0.00000000  0.00000000  1
  Li  Li51  1  0.50000000  0.50000000  0.00000000  1
  Li  Li52  1  0.96528111  0.16912370  0.50000000  1
  Li  Li53  1  0.03471889  0.83087630  0.50000000  1
  Li  Li54  1  0.53471889  0.66912370  0.50000000  1
  Li  Li55  1  0.46528111  0.33087630  0.50000000  1
