# generated using pymatgen
data_LiF
_symmetry_space_group_name_H-M   'P 1'
_cell_length_a   3.85955957
_cell_length_b   8.23561277
_cell_length_c   7.69202577
_cell_angle_alpha   90.00000000
_cell_angle_beta   90.00000000
_cell_angle_gamma   90.00000000
_symmetry_Int_Tables_number   1
_chemical_formula_structural   LiF
_chemical_formula_sum   'Li8 F8'
_cell_volume   244.49748554
_cell_formula_units_Z   8
loop_
 _symmetry_equiv_pos_site_id
 _symmetry_equiv_pos_as_xyz
  1  'x, y, z'
loop_
 _atom_site_type_symbol
 _atom_site_label
 _atom_site_symmetry_multiplicity
 _atom_site_fract_x
 _atom_site_fract_y
 _atom_site_fract_z
 _atom_site_occupancy
  F  F0  1  0.88511091  0.58752867  0.78184299  1
  F  F1  1  -0.88511091  -0.58752867  0.78184299  1
  F  F2  1  -0.38511091  1.08752867  -0.28184299  1
  F  F3  1  1.38511091  -0.08752867  -0.28184299  1
  F  F4  1  -0.88511091  -0.58752867  -0.78184299  1
  F  F5  1  0.88511091  0.58752867  -0.78184299  1
  F  F6  1  1.38511091  -0.08752867  1.28184299  1
  F  F7  1  -0.38511091  1.08752867  1.28184299  1
  Li  Li8  1  0.29697369  0.56453795  0.00000000  1
  Li  Li9  1  0.70302631  0.43546205  0.00000000  1
  Li  Li10  1  0.20302631  0.06453795  0.50000000  1
  Li  Li11  1  0.79697369  0.93546205  0.50000000  1
  Li  Li12  1  0.00000000  0.50000000  0.68664655  1
  Li  Li13  1  0.50000000  0.00000000  0.81335345  1
  Li  Li14  1  0.00000000  0.50000000  0.31335345  1
  Li  Li15  1  0.50000000  0.00000000  0.18664655  1
