# generated using pymatgen
data_Li2Y(AsP)2
_symmetry_space_group_name_H-M   'P 1'
_cell_length_a   5.26278150
_cell_length_b   5.37009163
_cell_length_c   7.06359877
_cell_angle_alpha   94.80353869
_cell_angle_beta   99.67925490
_cell_angle_gamma   106.89921784
_symmetry_Int_Tables_number   1
_chemical_formula_structural   Li2Y(AsP)2
_chemical_formula_sum   'Li2 Y1 As2 P2'
_cell_volume   186.41878358
_cell_formula_units_Z   1
loop_
 _symmetry_equiv_pos_site_id
 _symmetry_equiv_pos_as_xyz
  1  'x, y, z'
loop_
 _atom_site_type_symbol
 _atom_site_label
 _atom_site_symmetry_multiplicity
 _atom_site_fract_x
 _atom_site_fract_y
 _atom_site_fract_z
 _atom_site_occupancy
  P  P0  1  0.12500000  0.12500000  0.12500000  1
  P  P1  1  0.50000000  0.50000000  0.50000000  1
  As  As2  1  0.25000000  0.25000000  0.25000000  1
  As  As3  1  0.75000000  0.75000000  0.75000000  1
  Li  Li4  1  0.73341226  0.31383639  0.40543469  1
  Li  Li5  1  0.74612782  0.34483212  0.03292489  1
  Y  Y6  1  0.03018395  0.20071839  0.25357868  1
