# generated using pymatgen
data_LiF
_symmetry_space_group_name_H-M   'P 1'
_cell_length_a   8.18681599
_cell_length_b   8.18681599
_cell_length_c   3.99517305
_cell_angle_alpha   90.00000000
_cell_angle_beta   90.00000000
_cell_angle_gamma   120.00000000
_symmetry_Int_Tables_number   1
_chemical_formula_structural   LiF
_chemical_formula_sum   'Li18 F18'
_cell_volume   231.89761687
_cell_formula_units_Z   18
loop_
 _symmetry_equiv_pos_site_id
 _symmetry_equiv_pos_as_xyz
  1  'x, y, z'
loop_
 _atom_site_type_symbol
 _atom_site_label
 _atom_site_symmetry_multiplicity
 _atom_site_fract_x
 _atom_site_fract_y
 _atom_site_fract_z
 _atom_site_occupancy
  F  F0  1  0.01759993  0.60884463  0.90351060  1
  F  F1  1  0.39115537  0.40875530  0.90351060  1
  F  F2  1  0.59124470  0.98240007  0.90351060  1
  F  F3  1  0.39115537  0.98240007  0.09648940  1
  F  F4  1  0.59124470  0.60884463  0.09648940  1
  F  F5  1  0.01759993  0.40875530  0.09648940  1
  F  F6  1  0.66666667  0.33333333  0.00000000  1
  F  F7  1  0.20589897  0.00201889  0.79855927  1
  F  F8  1  0.99798111  0.20388008  0.79855927  1
  F  F9  1  0.79611992  0.79410103  0.79855927  1
  F  F10  1  0.99798111  0.79410103  0.20144073  1
  F  F11  1  0.79611992  0.00201889  0.20144073  1
  F  F12  1  0.20589897  0.20388008  0.20144073  1
  F  F13  1  0.59705356  0.40294644  0.00000000  1
  F  F14  1  0.59705356  0.19410713  0.00000000  1
  F  F15  1  0.80589287  0.40294644  0.00000000  1
  F  F16  1  0.00000000  0.00000000  0.38239989  1
  F  F17  1  0.00000000  0.00000000  0.61760011  1
  Li  Li18  1  0.33333333  0.66666667  0.00000000  1
  Li  Li19  1  0.10568680  0.42070701  0.75655181  1
  Li  Li20  1  -0.42070701  -0.31502021  0.75655181  1
  Li  Li21  1  0.31502021  -0.10568680  0.75655181  1
  Li  Li22  1  -0.42070701  -0.10568680  -0.75655181  1
  Li  Li23  1  0.31502021  0.42070701  -0.75655181  1
  Li  Li24  1  0.10568680  -0.31502021  -0.75655181  1
  Li  Li25  1  0.50472212  0.99266133  0.66157708  1
  Li  Li26  1  0.00733867  0.51206079  0.66157708  1
  Li  Li27  1  0.48793921  0.49527788  0.66157708  1
  Li  Li28  1  0.00733867  0.49527788  0.33842292  1
  Li  Li29  1  0.48793921  0.99266133  0.33842292  1
  Li  Li30  1  0.50472212  0.51206079  0.33842292  1
  Li  Li31  1  0.06030439  0.93969561  0.50000000  1
  Li  Li32  1  0.06030439  0.12060877  0.50000000  1
  Li  Li33  1  0.87939123  0.93969561  0.50000000  1
  Li  Li34  1  0.33333333  0.66666667  0.50000000  1
  Li  Li35  1  0.66666667  0.33333333  0.50000000  1
