# generated using pymatgen
data_Li2Y2MoP3Se2
_symmetry_space_group_name_H-M   'P 1'
_cell_length_a   5.23663199
_cell_length_b   5.56173615
_cell_length_c   7.24853871
_cell_angle_alpha   94.36887970
_cell_angle_beta   99.51451171
_cell_angle_gamma   107.54805337
_symmetry_Int_Tables_number   1
_chemical_formula_structural   Li2Y2MoP3Se2
_chemical_formula_sum   'Li2 Y2 Mo1 P3 Se2'
_cell_volume   196.72818007
_cell_formula_units_Z   1
loop_
 _symmetry_equiv_pos_site_id
 _symmetry_equiv_pos_as_xyz
  1  'x, y, z'
loop_
 _atom_site_type_symbol
 _atom_site_label
 _atom_site_symmetry_multiplicity
 _atom_site_fract_x
 _atom_site_fract_y
 _atom_site_fract_z
 _atom_site_occupancy
  Se  Se0  1  0.12500000  0.00000000  0.25000000  1
  Se  Se1  1  0.00000000  0.00000000  0.00000000  1
  P  P2  1  0.37500000  0.00000000  0.25000000  1
  P  P3  1  0.25000000  0.25000000  0.25000000  1
  P  P4  1  0.00000000  0.25000000  0.12500000  1
  Mo  Mo5  1  0.51041348  0.75841643  0.58158249  1
  Li  Li6  1  0.54805814  0.91100857  0.67374964  1
  Li  Li7  1  0.89063782  0.02368969  0.68819530  1
  Y  Y8  1  0.10244833  0.98983882  0.92136907  1
  Y  Y9  1  0.95832527  0.97375232  0.52566356  1
