# generated using pymatgen
data_LiF
_symmetry_space_group_name_H-M   'P 1'
_cell_length_a   18.57278588
_cell_length_b   18.57278588
_cell_length_c   6.46016555
_cell_angle_alpha   90.00000000
_cell_angle_beta   90.00000000
_cell_angle_gamma   90.00000000
_symmetry_Int_Tables_number   1
_chemical_formula_structural   LiF
_chemical_formula_sum   'Li80 F80'
_cell_volume   2228.42361265
_cell_formula_units_Z   80
loop_
 _symmetry_equiv_pos_site_id
 _symmetry_equiv_pos_as_xyz
  1  'x, y, z'
loop_
 _atom_site_type_symbol
 _atom_site_label
 _atom_site_symmetry_multiplicity
 _atom_site_fract_x
 _atom_site_fract_y
 _atom_site_fract_z
 _atom_site_occupancy
  F  F0  1  0.44934301  0.78554434  0.70577999  1
  F  F1  1  0.05065699  0.21445566  0.20577999  1
  F  F2  1  0.46445566  0.19934301  0.95577999  1
  F  F3  1  0.03554434  0.80065699  0.45577999  1
  F  F4  1  0.05065699  0.78554434  0.29422001  1
  F  F5  1  0.44934301  0.21445566  0.79422001  1
  F  F6  1  0.03554434  0.19934301  0.04422001  1
  F  F7  1  0.46445566  0.80065699  0.54422001  1
  F  F8  1  0.55065699  0.21445566  0.29422001  1
  F  F9  1  0.94934301  0.78554434  0.79422001  1
  F  F10  1  0.53554434  0.80065699  0.04422001  1
  F  F11  1  0.96445566  0.19934301  0.54422001  1
  F  F12  1  0.94934301  0.21445566  0.70577999  1
  F  F13  1  0.55065699  0.78554434  0.20577999  1
  F  F14  1  0.96445566  0.80065699  0.95577999  1
  F  F15  1  0.53554434  0.19934301  0.45577999  1
  F  F16  1  0.94934301  0.28554434  0.20577999  1
  F  F17  1  0.55065699  0.71445566  0.70577999  1
  F  F18  1  0.96445566  0.69934301  0.45577999  1
  F  F19  1  0.53554434  0.30065699  0.95577999  1
  F  F20  1  0.55065699  0.28554434  0.79422001  1
  F  F21  1  0.94934301  0.71445566  0.29422001  1
  F  F22  1  0.53554434  0.69934301  0.54422001  1
  F  F23  1  0.96445566  0.30065699  0.04422001  1
  F  F24  1  0.05065699  0.71445566  0.79422001  1
  F  F25  1  0.44934301  0.28554434  0.29422001  1
  F  F26  1  0.03554434  0.30065699  0.54422001  1
  F  F27  1  0.46445566  0.69934301  0.04422001  1
  F  F28  1  0.44934301  0.71445566  0.20577999  1
  F  F29  1  0.05065699  0.28554434  0.70577999  1
  F  F30  1  0.46445566  0.30065699  0.45577999  1
  F  F31  1  0.03554434  0.69934301  0.95577999  1
  F  F32  1  0.00000000  0.00000000  0.00000000  1
  F  F33  1  0.50000000  0.00000000  0.50000000  1
  F  F34  1  0.25000000  0.75000000  0.25000000  1
  F  F35  1  0.25000000  0.25000000  0.75000000  1
  F  F36  1  0.50000000  0.00000000  0.00000000  1
  F  F37  1  0.00000000  0.00000000  0.50000000  1
  F  F38  1  0.25000000  0.75000000  0.75000000  1
  F  F39  1  0.25000000  0.25000000  0.25000000  1
  F  F40  1  0.50000000  0.50000000  0.50000000  1
  F  F41  1  0.00000000  0.50000000  0.00000000  1
  F  F42  1  0.75000000  0.25000000  0.75000000  1
  F  F43  1  0.75000000  0.75000000  0.25000000  1
  F  F44  1  0.00000000  0.50000000  0.50000000  1
  F  F45  1  0.50000000  0.50000000  0.00000000  1
  F  F46  1  0.75000000  0.25000000  0.25000000  1
  F  F47  1  0.75000000  0.75000000  0.75000000  1
  F  F48  1  0.35216040  0.60216040  0.12500000  1
  F  F49  1  0.14783960  0.39783960  0.62500000  1
  F  F50  1  0.64783960  0.10216040  0.37500000  1
  F  F51  1  0.85216040  0.89783960  0.87500000  1
  F  F52  1  0.64783960  0.39783960  0.87500000  1
  F  F53  1  0.85216040  0.60216040  0.37500000  1
  F  F54  1  0.35216040  0.89783960  0.62500000  1
  F  F55  1  0.14783960  0.10216040  0.12500000  1
  F  F56  1  0.85216040  0.10216040  0.62500000  1
  F  F57  1  0.64783960  0.89783960  0.12500000  1
  F  F58  1  0.14783960  0.60216040  0.87500000  1
  F  F59  1  0.35216040  0.39783960  0.37500000  1
  F  F60  1  0.14783960  0.89783960  0.37500000  1
  F  F61  1  0.35216040  0.10216040  0.87500000  1
  F  F62  1  0.85216040  0.39783960  0.12500000  1
  F  F63  1  0.64783960  0.60216040  0.62500000  1
  F  F64  1  0.21824625  0.46824625  0.12500000  1
  F  F65  1  0.28175375  0.53175375  0.62500000  1
  F  F66  1  0.78175375  0.96824625  0.37500000  1
  F  F67  1  0.71824625  0.03175375  0.87500000  1
  F  F68  1  0.78175375  0.53175375  0.87500000  1
  F  F69  1  0.71824625  0.46824625  0.37500000  1
  F  F70  1  0.21824625  0.03175375  0.62500000  1
  F  F71  1  0.28175375  0.96824625  0.12500000  1
  F  F72  1  0.71824625  0.96824625  0.62500000  1
  F  F73  1  0.78175375  0.03175375  0.12500000  1
  F  F74  1  0.28175375  0.46824625  0.87500000  1
  F  F75  1  0.21824625  0.53175375  0.37500000  1
  F  F76  1  0.28175375  0.03175375  0.37500000  1
  F  F77  1  0.21824625  0.96824625  0.87500000  1
  F  F78  1  0.71824625  0.53175375  0.12500000  1
  F  F79  1  0.78175375  0.46824625  0.62500000  1
  Li  Li80  1  0.14494038  0.83560887  0.30165986  1
  Li  Li81  1  0.35505962  -0.83560887  0.80165986  1
  Li  Li82  1  -0.58560887  0.89494038  0.55165986  1
  Li  Li83  1  1.08560887  0.10505962  1.05165986  1
  Li  Li84  1  0.35505962  0.83560887  -0.30165986  1
  Li  Li85  1  0.14494038  -0.83560887  0.19834014  1
  Li  Li86  1  1.08560887  0.89494038  0.44834014  1
  Li  Li87  1  -0.58560887  0.10505962  -0.05165986  1
  Li  Li88  1  -0.14494038  -0.83560887  -0.30165986  1
  Li  Li89  1  0.64494038  0.83560887  0.19834014  1
  Li  Li90  1  1.58560887  0.10505962  0.44834014  1
  Li  Li91  1  -0.08560887  0.89494038  -0.05165986  1
  Li  Li92  1  0.64494038  -0.83560887  0.30165986  1
  Li  Li93  1  -0.14494038  0.83560887  0.80165986  1
  Li  Li94  1  -0.08560887  0.10505962  0.55165986  1
  Li  Li95  1  1.58560887  0.89494038  1.05165986  1
  Li  Li96  1  0.64494038  1.33560887  0.80165986  1
  Li  Li97  1  0.85505962  -0.33560887  1.30165986  1
  Li  Li98  1  -0.08560887  1.39494038  1.05165986  1
  Li  Li99  1  1.58560887  0.60505962  1.55165986  1
  Li  Li100  1  0.85505962  1.33560887  0.19834014  1
  Li  Li101  1  0.64494038  -0.33560887  0.69834014  1
  Li  Li102  1  1.58560887  1.39494038  0.94834014  1
  Li  Li103  1  -0.08560887  0.60505962  0.44834014  1
  Li  Li104  1  0.35505962  -0.33560887  0.19834014  1
  Li  Li105  1  1.14494038  1.33560887  0.69834014  1
  Li  Li106  1  2.08560887  0.60505962  0.94834014  1
  Li  Li107  1  0.41439113  1.39494038  0.44834014  1
  Li  Li108  1  1.14494038  -0.33560887  0.80165986  1
  Li  Li109  1  0.35505962  1.33560887  1.30165986  1
  Li  Li110  1  0.41439113  0.60505962  1.05165986  1
  Li  Li111  1  2.08560887  1.39494038  1.55165986  1
  Li  Li112  1  0.00000000  0.25000000  0.12500000  1
  Li  Li113  1  0.00000000  0.75000000  0.37500000  1
  Li  Li114  1  0.00000000  0.75000000  0.87500000  1
  Li  Li115  1  0.00000000  0.25000000  0.62500000  1
  Li  Li116  1  0.50000000  0.75000000  0.62500000  1
  Li  Li117  1  0.50000000  0.25000000  0.87500000  1
  Li  Li118  1  0.50000000  0.25000000  0.37500000  1
  Li  Li119  1  0.50000000  0.75000000  0.12500000  1
  Li  Li120  1  0.59772250  0.02023577  0.62124549  1
  Li  Li121  1  0.90227750  0.97976423  0.12124549  1
  Li  Li122  1  0.22976423  0.34772250  0.87124549  1
  Li  Li123  1  0.27023577  0.65227750  0.37124549  1
  Li  Li124  1  0.90227750  0.02023577  0.37875451  1
  Li  Li125  1  0.59772250  0.97976423  0.87875451  1
  Li  Li126  1  0.27023577  0.34772250  0.12875451  1
  Li  Li127  1  0.22976423  0.65227750  0.62875451  1
  Li  Li128  1  0.40227750  0.97976423  0.37875451  1
  Li  Li129  1  0.09772250  0.02023577  0.87875451  1
  Li  Li130  1  0.77023577  0.65227750  0.12875451  1
  Li  Li131  1  0.72976423  0.34772250  0.62875451  1
  Li  Li132  1  0.09772250  0.97976423  0.62124549  1
  Li  Li133  1  0.40227750  0.02023577  0.12124549  1
  Li  Li134  1  0.72976423  0.65227750  0.87124549  1
  Li  Li135  1  0.77023577  0.34772250  0.37124549  1
  Li  Li136  1  0.09772250  0.52023577  0.12124549  1
  Li  Li137  1  0.40227750  0.47976423  0.62124549  1
  Li  Li138  1  0.72976423  0.84772250  0.37124549  1
  Li  Li139  1  0.77023577  0.15227750  0.87124549  1
  Li  Li140  1  0.40227750  0.52023577  0.87875451  1
  Li  Li141  1  0.09772250  0.47976423  0.37875451  1
  Li  Li142  1  0.77023577  0.84772250  0.62875451  1
  Li  Li143  1  0.72976423  0.15227750  0.12875451  1
  Li  Li144  1  0.90227750  0.47976423  0.87875451  1
  Li  Li145  1  0.59772250  0.52023577  0.37875451  1
  Li  Li146  1  0.27023577  0.15227750  0.62875451  1
  Li  Li147  1  0.22976423  0.84772250  0.12875451  1
  Li  Li148  1  0.59772250  0.47976423  0.12124549  1
  Li  Li149  1  0.90227750  0.52023577  0.62124549  1
  Li  Li150  1  0.22976423  0.15227750  0.37124549  1
  Li  Li151  1  0.27023577  0.84772250  0.87124549  1
  Li  Li152  1  0.00000000  0.25000000  0.37500000  1
  Li  Li153  1  0.00000000  0.75000000  0.62500000  1
  Li  Li154  1  0.50000000  0.25000000  0.62500000  1
  Li  Li155  1  0.50000000  0.75000000  0.37500000  1
  Li  Li156  1  0.50000000  0.75000000  0.87500000  1
  Li  Li157  1  0.50000000  0.25000000  0.12500000  1
  Li  Li158  1  0.00000000  0.75000000  0.12500000  1
  Li  Li159  1  0.00000000  0.25000000  0.87500000  1
