# generated using pymatgen
data_LiF
_symmetry_space_group_name_H-M   'P 1'
_cell_length_a   13.34497150
_cell_length_b   13.34497150
_cell_length_c   6.38675980
_cell_angle_alpha   90.00000000
_cell_angle_beta   90.00000000
_cell_angle_gamma   120.00000000
_symmetry_Int_Tables_number   1
_chemical_formula_structural   LiF
_chemical_formula_sum   'Li42 F42'
_cell_volume   985.02332897
_cell_formula_units_Z   42
loop_
 _symmetry_equiv_pos_site_id
 _symmetry_equiv_pos_as_xyz
  1  'x, y, z'
loop_
 _atom_site_type_symbol
 _atom_site_label
 _atom_site_symmetry_multiplicity
 _atom_site_fract_x
 _atom_site_fract_y
 _atom_site_fract_z
 _atom_site_occupancy
  F  F0  1  0.45776464  0.54315129  0.81097345  1
  F  F1  1  0.45684871  0.91461335  0.81097345  1
  F  F2  1  0.08538665  0.54223536  0.81097345  1
  F  F3  1  0.54315129  0.45776464  0.68902655  1
  F  F4  1  0.91461335  0.45684871  0.68902655  1
  F  F5  1  0.54223536  0.08538665  0.68902655  1
  F  F6  1  0.54223536  0.45684871  0.18902655  1
  F  F7  1  0.54315129  0.08538665  0.18902655  1
  F  F8  1  0.91461335  0.45776464  0.18902655  1
  F  F9  1  0.45684871  0.54223536  0.31097345  1
  F  F10  1  0.08538665  0.54315129  0.31097345  1
  F  F11  1  0.45776464  0.91461335  0.31097345  1
  F  F12  1  0.12443131  0.87648462  0.14430679  1
  F  F13  1  0.12351538  0.24794668  0.14430679  1
  F  F14  1  0.75205332  0.87556869  0.14430679  1
  F  F15  1  0.20981796  0.79109797  0.02235988  1
  F  F16  1  0.58128002  0.79018204  0.02235988  1
  F  F17  1  0.20890203  0.41871998  0.02235988  1
  F  F18  1  0.20890203  0.79018204  0.52235988  1
  F  F19  1  0.20981796  0.41871998  0.52235988  1
  F  F20  1  0.58128002  0.79109797  0.52235988  1
  F  F21  1  0.12351538  0.87556869  0.64430679  1
  F  F22  1  0.75205332  0.87648462  0.64430679  1
  F  F23  1  0.12443131  0.24794668  0.64430679  1
  F  F24  1  0.79109797  0.20981796  0.47764012  1
  F  F25  1  0.79018204  0.58128002  0.47764012  1
  F  F26  1  0.41871998  0.20890203  0.47764012  1
  F  F27  1  0.87648462  0.12443131  0.35569321  1
  F  F28  1  0.24794668  0.12351538  0.35569321  1
  F  F29  1  0.87556869  0.75205332  0.35569321  1
  F  F30  1  0.87556869  0.12351538  0.85569321  1
  F  F31  1  0.87648462  0.75205332  0.85569321  1
  F  F32  1  0.24794668  0.12443131  0.85569321  1
  F  F33  1  0.79018204  0.20890203  0.97764012  1
  F  F34  1  0.41871998  0.20981796  0.97764012  1
  F  F35  1  0.79109797  0.58128002  0.97764012  1
  F  F36  1  0.00000000  0.00000000  0.25000000  1
  F  F37  1  0.00000000  0.00000000  0.75000000  1
  F  F38  1  0.66666667  0.33333333  0.58333333  1
  F  F39  1  0.66666667  0.33333333  0.08333333  1
  F  F40  1  0.33333333  0.66666667  0.91666667  1
  F  F41  1  0.33333333  0.66666667  0.41666667  1
  Li  Li42  1  0.19810759  0.52823515  0.58051346  1
  Li  Li43  1  -0.52823515  -0.33012756  0.58051346  1
  Li  Li44  1  0.33012756  -0.19810759  0.58051346  1
  Li  Li45  1  0.52823515  0.19810759  -0.08051346  1
  Li  Li46  1  -0.33012756  -0.52823515  -0.08051346  1
  Li  Li47  1  -0.19810759  0.33012756  -0.08051346  1
  Li  Li48  1  -0.19810759  -0.52823515  -0.58051346  1
  Li  Li49  1  0.52823515  0.33012756  -0.58051346  1
  Li  Li50  1  -0.33012756  0.19810759  -0.58051346  1
  Li  Li51  1  -0.52823515  -0.19810759  1.08051346  1
  Li  Li52  1  0.33012756  0.52823515  1.08051346  1
  Li  Li53  1  0.19810759  -0.33012756  1.08051346  1
  Li  Li54  1  0.86477425  0.86156848  0.91384679  1
  Li  Li55  1  0.13843152  0.00320577  0.91384679  1
  Li  Li56  1  0.99679423  0.13522575  0.91384679  1
  Li  Li57  1  1.19490182  0.53144092  0.25281988  1
  Li  Li58  1  0.33653910  -0.19490182  0.25281988  1
  Li  Li59  1  0.46855908  0.66346090  0.25281988  1
  Li  Li60  1  0.46855908  -0.19490182  -0.24718012  1
  Li  Li61  1  1.19490182  0.66346090  -0.24718012  1
  Li  Li62  1  0.33653910  0.53144092  -0.24718012  1
  Li  Li63  1  0.13843152  0.13522575  1.41384679  1
  Li  Li64  1  0.99679423  0.86156848  1.41384679  1
  Li  Li65  1  0.86477425  0.00320577  1.41384679  1
  Li  Li66  1  0.53144092  1.19490182  1.24718012  1
  Li  Li67  1  -0.19490182  0.33653910  1.24718012  1
  Li  Li68  1  0.66346090  0.46855908  1.24718012  1
  Li  Li69  1  0.86156848  0.86477425  0.58615321  1
  Li  Li70  1  0.00320577  0.13843152  0.58615321  1
  Li  Li71  1  0.13522575  0.99679423  0.58615321  1
  Li  Li72  1  0.13522575  0.13843152  0.08615321  1
  Li  Li73  1  0.86156848  0.99679423  0.08615321  1
  Li  Li74  1  0.00320577  0.86477425  0.08615321  1
  Li  Li75  1  -0.19490182  0.46855908  1.74718012  1
  Li  Li76  1  0.66346090  1.19490182  1.74718012  1
  Li  Li77  1  0.53144092  0.33653910  1.74718012  1
  Li  Li78  1  0.00000000  0.00000000  0.00000000  1
  Li  Li79  1  0.00000000  0.00000000  0.50000000  1
  Li  Li80  1  0.66666667  0.33333333  0.33333333  1
  Li  Li81  1  0.66666667  0.33333333  0.83333333  1
  Li  Li82  1  0.33333333  0.66666667  0.66666667  1
  Li  Li83  1  0.33333333  0.66666667  0.16666667  1
