# generated using pymatgen
data_LiF
_symmetry_space_group_name_H-M   'P 1'
_cell_length_a   4.62486700
_cell_length_b   12.37392558
_cell_length_c   8.62650393
_cell_angle_alpha   90.00000000
_cell_angle_beta   90.00000000
_cell_angle_gamma   90.00000000
_symmetry_Int_Tables_number   1
_chemical_formula_structural   LiF
_chemical_formula_sum   'Li14 F14'
_cell_volume   493.67549704
_cell_formula_units_Z   14
loop_
 _symmetry_equiv_pos_site_id
 _symmetry_equiv_pos_as_xyz
  1  'x, y, z'
loop_
 _atom_site_type_symbol
 _atom_site_label
 _atom_site_symmetry_multiplicity
 _atom_site_fract_x
 _atom_site_fract_y
 _atom_site_fract_z
 _atom_site_occupancy
  F  F0  1  0.16456075  0.28488771  0.05457780  1
  F  F1  1  -0.16456075  -0.28488771  0.05457780  1
  F  F2  1  0.33543925  0.78488771  0.44542220  1
  F  F3  1  0.66456075  0.21511229  0.44542220  1
  F  F4  1  -0.16456075  -0.28488771  -0.05457780  1
  F  F5  1  0.16456075  0.28488771  -0.05457780  1
  F  F6  1  0.66456075  0.21511229  0.55457780  1
  F  F7  1  0.33543925  0.78488771  0.55457780  1
  F  F8  1  0.00000000  0.00000000  0.44438234  1
  F  F9  1  0.50000000  0.50000000  0.05561766  1
  F  F10  1  0.00000000  0.00000000  0.55561766  1
  F  F11  1  0.50000000  0.50000000  0.94438234  1
  F  F12  1  0.00000000  0.50000000  0.50000000  1
  F  F13  1  0.50000000  0.00000000  0.00000000  1
  Li  Li14  1  0.00000000  0.50000000  0.35229238  1
  Li  Li15  1  0.50000000  0.00000000  0.14770762  1
  Li  Li16  1  0.00000000  0.50000000  0.64770762  1
  Li  Li17  1  0.50000000  0.00000000  0.85229238  1
  Li  Li18  1  0.85669475  0.10644886  0.76828917  1
  Li  Li19  1  0.14330525  0.89355114  0.76828917  1
  Li  Li20  1  0.64330525  0.60644886  0.73171083  1
  Li  Li21  1  0.35669475  0.39355114  0.73171083  1
  Li  Li22  1  0.14330525  0.89355114  0.23171083  1
  Li  Li23  1  0.85669475  0.10644886  0.23171083  1
  Li  Li24  1  0.35669475  0.39355114  0.26828917  1
  Li  Li25  1  0.64330525  0.60644886  0.26828917  1
  Li  Li26  1  0.00000000  0.00000000  0.00000000  1
  Li  Li27  1  0.50000000  0.50000000  0.50000000  1
