# generated using pymatgen
data_Li2Si4Te3F12
_symmetry_space_group_name_H-M   'P 1'
_cell_length_a   9.47971691
_cell_length_b   10.68078206
_cell_length_c   11.90639711
_cell_angle_alpha   90.00000000
_cell_angle_beta   90.00000000
_cell_angle_gamma   90.00000000
_symmetry_Int_Tables_number   1
_chemical_formula_structural   Li2Si4Te3F12
_chemical_formula_sum   'Li8 Si16 Te12 F48'
_cell_volume   1205.53211715
_cell_formula_units_Z   4
loop_
 _symmetry_equiv_pos_site_id
 _symmetry_equiv_pos_as_xyz
  1  'x, y, z'
loop_
 _atom_site_type_symbol
 _atom_site_label
 _atom_site_symmetry_multiplicity
 _atom_site_fract_x
 _atom_site_fract_y
 _atom_site_fract_z
 _atom_site_occupancy
  F  F0  1  0.20838566  0.90901702  0.50000000  1
  F  F1  1  0.79161434  0.09098298  0.50000000  1
  F  F2  1  0.29161434  0.40901702  0.50000000  1
  F  F3  1  0.70838566  0.59098298  0.50000000  1
  F  F4  1  0.61483504  0.80400002  -0.00000000  1
  F  F5  1  0.38516496  0.19599998  0.00000000  1
  F  F6  1  0.88516496  0.30400002  0.00000000  1
  F  F7  1  0.11483504  0.69599998  -0.00000000  1
  F  F8  1  0.00000000  0.50000000  0.07116713  1
  F  F9  1  0.50000000  0.00000000  0.92883287  1
  F  F10  1  0.00000000  0.50000000  0.92883287  1
  F  F11  1  0.50000000  0.00000000  0.07116713  1
  F  F12  1  0.40454378  0.48064514  0.13061795  1
  F  F13  1  0.59545622  0.51935486  0.13061795  1
  F  F14  1  0.09545622  0.98064514  0.86938205  1
  F  F15  1  0.90454378  0.01935486  0.86938205  1
  F  F16  1  0.59545622  0.51935486  0.86938205  1
  F  F17  1  0.40454378  0.48064514  0.86938205  1
  F  F18  1  0.90454378  0.01935486  0.13061795  1
  F  F19  1  0.09545622  0.98064514  0.13061795  1
  F  F20  1  0.12001485  0.30982851  0.16526238  1
  F  F21  1  0.87998515  0.69017149  0.16526238  1
  F  F22  1  0.37998515  0.80982851  0.83473762  1
  F  F23  1  0.62001485  0.19017149  0.83473762  1
  F  F24  1  0.87998515  0.69017149  0.83473762  1
  F  F25  1  0.12001485  0.30982851  0.83473762  1
  F  F26  1  0.62001485  0.19017149  0.16526238  1
  F  F27  1  0.37998515  0.80982851  0.16526238  1
  F  F28  1  0.07699899  0.96957570  0.28402581  1
  F  F29  1  0.92300101  0.03042430  0.28402581  1
  F  F30  1  0.42300101  0.46957570  0.71597419  1
  F  F31  1  0.57699899  0.53042430  0.71597419  1
  F  F32  1  0.92300101  0.03042430  0.71597419  1
  F  F33  1  0.07699899  0.96957570  0.71597419  1
  F  F34  1  0.57699899  0.53042430  0.28402581  1
  F  F35  1  0.42300101  0.46957570  0.28402581  1
  F  F36  1  0.57740471  0.28275845  0.33103226  1
  F  F37  1  0.42259529  0.71724155  0.33103226  1
  F  F38  1  0.92259529  0.78275845  0.66896774  1
  F  F39  1  0.07740471  0.21724155  0.66896774  1
  F  F40  1  0.42259529  0.71724155  0.66896774  1
  F  F41  1  0.57740471  0.28275845  0.66896774  1
  F  F42  1  0.07740471  0.21724155  0.33103226  1
  F  F43  1  0.92259529  0.78275845  0.33103226  1
  F  F44  1  0.00000000  0.00000000  0.74599758  1
  F  F45  1  0.50000000  0.50000000  0.25400242  1
  F  F46  1  0.00000000  0.00000000  0.25400242  1
  F  F47  1  0.50000000  0.50000000  0.74599758  1
  Li  Li48  1  0.00000000  0.50000000  0.50000000  1
  Li  Li49  1  0.50000000  0.00000000  0.50000000  1
  Li  Li50  1  0.00000000  0.50000000  0.36493974  1
  Li  Li51  1  0.50000000  0.00000000  0.63506026  1
  Li  Li52  1  0.00000000  0.50000000  0.63506026  1
  Li  Li53  1  0.50000000  0.00000000  0.36493974  1
  Li  Li54  1  0.00000000  0.00000000  0.00000000  1
  Li  Li55  1  0.50000000  0.50000000  0.00000000  1
  Si  Si56  1  0.85518262  0.18500582  0.10633181  1
  Si  Si57  1  -0.85518262  -0.18500582  0.10633181  1
  Si  Si58  1  -0.35518262  0.68500582  -0.10633181  1
  Si  Si59  1  1.35518262  0.31499418  -0.10633181  1
  Si  Si60  1  -0.85518262  -0.18500582  -0.10633181  1
  Si  Si61  1  0.85518262  0.18500582  -0.10633181  1
  Si  Si62  1  1.35518262  0.31499418  0.10633181  1
  Si  Si63  1  -0.35518262  0.68500582  0.10633181  1
  Si  Si64  1  0.02968700  0.05972040  0.43168368  1
  Si  Si65  1  0.97031300  0.94027960  0.43168368  1
  Si  Si66  1  0.47031300  0.55972040  0.56831632  1
  Si  Si67  1  0.52968700  0.44027960  0.56831632  1
  Si  Si68  1  0.97031300  0.94027960  0.56831632  1
  Si  Si69  1  0.02968700  0.05972040  0.56831632  1
  Si  Si70  1  0.52968700  0.44027960  0.43168368  1
  Si  Si71  1  0.47031300  0.55972040  0.43168368  1
  Te  Te72  1  0.83965444  0.88858350  0.31060182  1
  Te  Te73  1  0.16034556  0.11141650  0.31060182  1
  Te  Te74  1  0.66034556  0.38858350  0.68939818  1
  Te  Te75  1  0.33965444  0.61141650  0.68939818  1
  Te  Te76  1  0.16034556  0.11141650  0.68939818  1
  Te  Te77  1  0.83965444  0.88858350  0.68939818  1
  Te  Te78  1  0.33965444  0.61141650  0.31060182  1
  Te  Te79  1  0.66034556  0.38858350  0.31060182  1
  Te  Te80  1  0.96508775  0.63562007  0.50000000  1
  Te  Te81  1  0.03491225  0.36437993  0.50000000  1
  Te  Te82  1  0.53491225  0.13562007  0.50000000  1
  Te  Te83  1  0.46508775  0.86437993  0.50000000  1
