# generated using pymatgen
data_LiF
_symmetry_space_group_name_H-M   'P 1'
_cell_length_a   10.50163282
_cell_length_b   10.50163282
_cell_length_c   7.31000689
_cell_angle_alpha   90.00000000
_cell_angle_beta   90.00000000
_cell_angle_gamma   120.00000000
_symmetry_Int_Tables_number   1
_chemical_formula_structural   LiF
_chemical_formula_sum   'Li23 F23'
_cell_volume   698.17143584
_cell_formula_units_Z   23
loop_
 _symmetry_equiv_pos_site_id
 _symmetry_equiv_pos_as_xyz
  1  'x, y, z'
loop_
 _atom_site_type_symbol
 _atom_site_label
 _atom_site_symmetry_multiplicity
 _atom_site_fract_x
 _atom_site_fract_y
 _atom_site_fract_z
 _atom_site_occupancy
  F  F0  1  0.49571502  0.68768306  0.03374886  1
  F  F1  1  0.31231694  0.80803196  0.03374886  1
  F  F2  1  0.19196804  0.50428498  0.03374886  1
  F  F3  1  0.31231694  0.50428498  0.96625114  1
  F  F4  1  0.19196804  0.68768306  0.96625114  1
  F  F5  1  0.49571502  0.80803196  0.96625114  1
  F  F6  1  0.13643170  0.75479814  0.16144305  1
  F  F7  1  0.24520186  0.38163356  0.16144305  1
  F  F8  1  0.61836644  0.86356830  0.16144305  1
  F  F9  1  0.24520186  0.86356830  0.83855695  1
  F  F10  1  0.61836644  0.75479814  0.83855695  1
  F  F11  1  0.13643170  0.38163356  0.83855695  1
  F  F12  1  0.90512682  0.84599468  0.69603510  1
  F  F13  1  0.15400532  0.05913214  0.69603510  1
  F  F14  1  0.94086786  0.09487318  0.69603510  1
  F  F15  1  0.15400532  0.09487318  0.30396490  1
  F  F16  1  0.94086786  0.84599468  0.30396490  1
  F  F17  1  0.90512682  0.05913214  0.30396490  1
  F  F18  1  0.72610911  0.27389089  0.50000000  1
  F  F19  1  0.72610911  0.45221822  0.50000000  1
  F  F20  1  0.54778178  0.27389089  0.50000000  1
  F  F21  1  0.66666667  0.33333333  0.50000000  1
  F  F22  1  0.00000000  0.00000000  0.00000000  1
  Li  Li23  1  0.08658177  0.78822229  0.99739412  1
  Li  Li24  1  -0.78822229  -0.70164052  0.99739412  1
  Li  Li25  1  0.70164052  -0.08658177  0.99739412  1
  Li  Li26  1  -0.78822229  -0.08658177  -0.99739412  1
  Li  Li27  1  0.70164052  0.78822229  -0.99739412  1
  Li  Li28  1  0.08658177  -0.70164052  -0.99739412  1
  Li  Li29  1  0.33333333  0.66666667  0.50000000  1
  Li  Li30  1  0.66666667  0.33333333  0.29524915  1
  Li  Li31  1  0.66666667  0.33333333  0.70475085  1
  Li  Li32  1  0.66666667  0.33333333  0.00000000  1
  Li  Li33  1  0.95433485  0.45441897  0.24987303  1
  Li  Li34  1  0.54558103  0.49991588  0.24987303  1
  Li  Li35  1  0.50008412  0.04566515  0.24987303  1
  Li  Li36  1  0.54558103  0.04566515  0.75012697  1
  Li  Li37  1  0.50008412  0.45441897  0.75012697  1
  Li  Li38  1  0.95433485  0.49991588  0.75012697  1
  Li  Li39  1  0.35623129  0.85969121  0.33427545  1
  Li  Li40  1  0.14030879  0.49654008  0.33427545  1
  Li  Li41  1  0.50345992  0.64376871  0.33427545  1
  Li  Li42  1  0.14030879  0.64376871  0.66572455  1
  Li  Li43  1  0.50345992  0.85969121  0.66572455  1
  Li  Li44  1  0.35623129  0.49654008  0.66572455  1
  Li  Li45  1  0.00000000  0.00000000  0.50000000  1
