# generated using pymatgen
data_LiYP
_symmetry_space_group_name_H-M   'P 1'
_cell_length_a   4.10293680
_cell_length_b   4.27362006
_cell_length_c   6.71031550
_cell_angle_alpha   96.31609928
_cell_angle_beta   103.75515114
_cell_angle_gamma   115.36926053
_symmetry_Int_Tables_number   1
_chemical_formula_structural   LiYP
_chemical_formula_sum   'Li2 Y2 P2'
_cell_volume   100.21097572
_cell_formula_units_Z   2
loop_
 _symmetry_equiv_pos_site_id
 _symmetry_equiv_pos_as_xyz
  1  'x, y, z'
loop_
 _atom_site_type_symbol
 _atom_site_label
 _atom_site_symmetry_multiplicity
 _atom_site_fract_x
 _atom_site_fract_y
 _atom_site_fract_z
 _atom_site_occupancy
  P  P0  1  0.00000000  0.00000000  0.00000000  1
  P  P1  1  0.33300000  0.66700000  0.25000000  1
  Li  Li2  1  0.66700000  0.33300000  0.50000000  1
  Li  Li3  1  0.00000000  0.00000000  0.75000000  1
  Y  Y4  1  0.66786064  0.32705939  0.21327439  1
  Y  Y5  1  0.13018453  0.79512240  0.30245471  1
