# generated using pymatgen
data_LiF
_symmetry_space_group_name_H-M   'P 1'
_cell_length_a   13.87925726
_cell_length_b   6.31679483
_cell_length_c   9.17152151
_cell_angle_alpha   90.00000000
_cell_angle_beta   90.00000000
_cell_angle_gamma   90.00000000
_symmetry_Int_Tables_number   1
_chemical_formula_structural   LiF
_chemical_formula_sum   'Li22 F22'
_cell_volume   804.08949077
_cell_formula_units_Z   22
loop_
 _symmetry_equiv_pos_site_id
 _symmetry_equiv_pos_as_xyz
  1  'x, y, z'
loop_
 _atom_site_type_symbol
 _atom_site_label
 _atom_site_symmetry_multiplicity
 _atom_site_fract_x
 _atom_site_fract_y
 _atom_site_fract_z
 _atom_site_occupancy
  F  F0  1  0.00000000  0.00000000  0.39035282  1
  F  F1  1  0.50000000  0.50000000  0.10964718  1
  F  F2  1  0.00000000  0.00000000  0.60964718  1
  F  F3  1  0.50000000  0.50000000  0.89035282  1
  F  F4  1  0.00000000  0.00000000  0.50000000  1
  F  F5  1  0.50000000  0.50000000  0.00000000  1
  F  F6  1  0.85638699  0.90826465  0.15277902  1
  F  F7  1  -0.85638699  -0.90826465  0.15277902  1
  F  F8  1  -0.35638699  1.40826465  0.34722098  1
  F  F9  1  1.35638699  -0.40826465  0.34722098  1
  F  F10  1  -0.85638699  -0.90826465  -0.15277902  1
  F  F11  1  0.85638699  0.90826465  -0.15277902  1
  F  F12  1  1.35638699  -0.40826465  0.65277902  1
  F  F13  1  -0.35638699  1.40826465  0.65277902  1
  F  F14  1  0.75579758  0.58021710  0.91349903  1
  F  F15  1  0.24420242  0.41978290  0.91349903  1
  F  F16  1  0.74420242  0.08021710  0.58650097  1
  F  F17  1  0.25579758  0.91978290  0.58650097  1
  F  F18  1  0.24420242  0.41978290  0.08650097  1
  F  F19  1  0.75579758  0.58021710  0.08650097  1
  F  F20  1  0.25579758  0.91978290  0.41349903  1
  F  F21  1  0.74420242  0.08021710  0.41349903  1
  Li  Li22  1  0.35446955  0.95280789  0.12890549  1
  Li  Li23  1  0.64553045  0.04719211  0.12890549  1
  Li  Li24  1  0.14553045  0.45280789  0.37109451  1
  Li  Li25  1  0.85446955  0.54719211  0.37109451  1
  Li  Li26  1  0.64553045  0.04719211  0.87109451  1
  Li  Li27  1  0.35446955  0.95280789  0.87109451  1
  Li  Li28  1  0.85446955  0.54719211  0.62890549  1
  Li  Li29  1  0.14553045  0.45280789  0.62890549  1
  Li  Li30  1  0.00000000  0.50000000  0.00000000  1
  Li  Li31  1  0.50000000  0.00000000  0.50000000  1
  Li  Li32  1  0.76703301  0.62810577  0.74880540  1
  Li  Li33  1  0.23296699  0.37189423  0.74880540  1
  Li  Li34  1  0.73296699  0.12810577  0.75119460  1
  Li  Li35  1  0.26703301  0.87189423  0.75119460  1
  Li  Li36  1  0.23296699  0.37189423  0.25119460  1
  Li  Li37  1  0.76703301  0.62810577  0.25119460  1
  Li  Li38  1  0.26703301  0.87189423  0.24880540  1
  Li  Li39  1  0.73296699  0.12810577  0.24880540  1
  Li  Li40  1  0.00000000  0.00000000  0.75659193  1
  Li  Li41  1  0.50000000  0.50000000  0.74340807  1
  Li  Li42  1  0.00000000  0.00000000  0.24340807  1
  Li  Li43  1  0.50000000  0.50000000  0.25659193  1
