# generated using pymatgen
data_Li3SbS3
_symmetry_space_group_name_H-M   'P 1'
_cell_length_a   16.28989620
_cell_length_b   16.28989620
_cell_length_c   5.71542414
_cell_angle_alpha   90.00000000
_cell_angle_beta   90.00000000
_cell_angle_gamma   90.00000000
_symmetry_Int_Tables_number   1
_chemical_formula_structural   Li3SbS3
_chemical_formula_sum   'Li48 Sb16 S48'
_cell_volume   1516.64905454
_cell_formula_units_Z   16
loop_
 _symmetry_equiv_pos_site_id
 _symmetry_equiv_pos_as_xyz
  1  'x, y, z'
loop_
 _atom_site_type_symbol
 _atom_site_label
 _atom_site_symmetry_multiplicity
 _atom_site_fract_x
 _atom_site_fract_y
 _atom_site_fract_z
 _atom_site_occupancy
  Li  Li0  1  0.54005779  0.13875068  0.59146306  1
  Li  Li1  1  0.95994221  0.86124932  0.09146306  1
  Li  Li2  1  0.11124932  0.29005779  0.84146306  1
  Li  Li3  1  0.38875068  0.70994221  0.34146306  1
  Li  Li4  1  0.95994221  0.13875068  0.90853694  1
  Li  Li5  1  0.54005779  0.86124932  0.40853694  1
  Li  Li6  1  0.38875068  0.29005779  0.65853694  1
  Li  Li7  1  0.11124932  0.70994221  0.15853694  1
  Li  Li8  1  0.45994221  0.86124932  0.40853694  1
  Li  Li9  1  0.04005779  0.13875068  0.90853694  1
  Li  Li10  1  0.88875068  0.70994221  0.15853694  1
  Li  Li11  1  0.61124932  0.29005779  0.65853694  1
  Li  Li12  1  0.04005779  0.86124932  0.09146306  1
  Li  Li13  1  0.45994221  0.13875068  0.59146306  1
  Li  Li14  1  0.61124932  0.70994221  0.34146306  1
  Li  Li15  1  0.88875068  0.29005779  0.84146306  1
  Li  Li16  1  0.04005779  0.63875068  0.09146306  1
  Li  Li17  1  0.45994221  0.36124932  0.59146306  1
  Li  Li18  1  0.61124932  0.79005779  0.34146306  1
  Li  Li19  1  0.88875068  0.20994221  0.84146306  1
  Li  Li20  1  0.45994221  0.63875068  0.40853694  1
  Li  Li21  1  0.04005779  0.36124932  0.90853694  1
  Li  Li22  1  0.88875068  0.79005779  0.15853694  1
  Li  Li23  1  0.61124932  0.20994221  0.65853694  1
  Li  Li24  1  0.95994221  0.36124932  0.90853694  1
  Li  Li25  1  0.54005779  0.63875068  0.40853694  1
  Li  Li26  1  0.38875068  0.20994221  0.65853694  1
  Li  Li27  1  0.11124932  0.79005779  0.15853694  1
  Li  Li28  1  0.54005779  0.36124932  0.59146306  1
  Li  Li29  1  0.95994221  0.63875068  0.09146306  1
  Li  Li30  1  0.11124932  0.20994221  0.84146306  1
  Li  Li31  1  0.38875068  0.79005779  0.34146306  1
  Li  Li32  1  0.56298203  0.81298203  0.87500000  1
  Li  Li33  1  0.93701797  0.18701797  0.37500000  1
  Li  Li34  1  0.43701797  0.31298203  0.12500000  1
  Li  Li35  1  0.06298203  0.68701797  0.62500000  1
  Li  Li36  1  0.43701797  0.18701797  0.12500000  1
  Li  Li37  1  0.06298203  0.81298203  0.62500000  1
  Li  Li38  1  0.56298203  0.68701797  0.87500000  1
  Li  Li39  1  0.93701797  0.31298203  0.37500000  1
  Li  Li40  1  0.06298203  0.31298203  0.37500000  1
  Li  Li41  1  0.43701797  0.68701797  0.87500000  1
  Li  Li42  1  0.93701797  0.81298203  0.62500000  1
  Li  Li43  1  0.56298203  0.18701797  0.12500000  1
  Li  Li44  1  0.93701797  0.68701797  0.62500000  1
  Li  Li45  1  0.56298203  0.31298203  0.12500000  1
  Li  Li46  1  0.06298203  0.18701797  0.37500000  1
  Li  Li47  1  0.43701797  0.81298203  0.87500000  1
  S  S48  1  0.17005151  0.83956498  0.88941979  1
  S  S49  1  0.32994849  -0.83956498  1.38941979  1
  S  S50  1  -0.58956498  0.92005151  1.13941979  1
  S  S51  1  1.08956498  0.07994849  1.63941979  1
  S  S52  1  0.32994849  0.83956498  -0.38941979  1
  S  S53  1  0.17005151  -0.83956498  -0.88941979  1
  S  S54  1  1.08956498  0.92005151  -0.63941979  1
  S  S55  1  -0.58956498  0.07994849  -0.13941979  1
  S  S56  1  -0.17005151  -0.83956498  -0.88941979  1
  S  S57  1  0.67005151  0.83956498  -0.38941979  1
  S  S58  1  1.58956498  0.07994849  -0.13941979  1
  S  S59  1  -0.08956498  0.92005151  -0.63941979  1
  S  S60  1  0.67005151  -0.83956498  1.38941979  1
  S  S61  1  -0.17005151  0.83956498  0.88941979  1
  S  S62  1  -0.08956498  0.07994849  1.63941979  1
  S  S63  1  1.58956498  0.92005151  1.13941979  1
  S  S64  1  0.67005151  1.33956498  1.38941979  1
  S  S65  1  0.82994849  -0.33956498  1.88941979  1
  S  S66  1  -0.08956498  1.42005151  1.63941979  1
  S  S67  1  1.58956498  0.57994849  2.13941979  1
  S  S68  1  0.82994849  1.33956498  0.11058021  1
  S  S69  1  0.67005151  -0.33956498  -0.38941979  1
  S  S70  1  1.58956498  1.42005151  -0.13941979  1
  S  S71  1  -0.08956498  0.57994849  0.36058021  1
  S  S72  1  0.32994849  -0.33956498  -0.38941979  1
  S  S73  1  1.17005151  1.33956498  0.11058021  1
  S  S74  1  2.08956498  0.57994849  0.36058021  1
  S  S75  1  0.41043502  1.42005151  -0.13941979  1
  S  S76  1  1.17005151  -0.33956498  1.88941979  1
  S  S77  1  0.32994849  1.33956498  1.38941979  1
  S  S78  1  0.41043502  0.57994849  2.13941979  1
  S  S79  1  2.08956498  1.42005151  1.63941979  1
  S  S80  1  0.00000000  0.25000000  0.37500000  1
  S  S81  1  0.00000000  0.75000000  0.62500000  1
  S  S82  1  0.50000000  0.75000000  0.87500000  1
  S  S83  1  0.50000000  0.25000000  0.12500000  1
  S  S84  1  0.00000000  0.75000000  0.12500000  1
  S  S85  1  0.50000000  0.75000000  0.37500000  1
  S  S86  1  0.50000000  0.25000000  0.62500000  1
  S  S87  1  0.00000000  0.25000000  0.87500000  1
  S  S88  1  0.00000000  0.00000000  0.50000000  1
  S  S89  1  0.50000000  0.00000000  0.00000000  1
  S  S90  1  0.25000000  0.75000000  0.75000000  1
  S  S91  1  0.25000000  0.25000000  0.25000000  1
  S  S92  1  0.50000000  0.50000000  0.00000000  1
  S  S93  1  0.00000000  0.50000000  0.50000000  1
  S  S94  1  0.75000000  0.25000000  0.25000000  1
  S  S95  1  0.75000000  0.75000000  0.75000000  1
  Sb  Sb96  1  0.72734220  0.97734220  0.87500000  1
  Sb  Sb97  1  0.77265780  0.02265780  0.37500000  1
  Sb  Sb98  1  0.27265780  0.47734220  0.12500000  1
  Sb  Sb99  1  0.22734220  0.52265780  0.62500000  1
  Sb  Sb100  1  0.27265780  0.02265780  0.12500000  1
  Sb  Sb101  1  0.22734220  0.97734220  0.62500000  1
  Sb  Sb102  1  0.72734220  0.52265780  0.87500000  1
  Sb  Sb103  1  0.77265780  0.47734220  0.37500000  1
  Sb  Sb104  1  0.22734220  0.47734220  0.37500000  1
  Sb  Sb105  1  0.27265780  0.52265780  0.87500000  1
  Sb  Sb106  1  0.77265780  0.97734220  0.62500000  1
  Sb  Sb107  1  0.72734220  0.02265780  0.12500000  1
  Sb  Sb108  1  0.77265780  0.52265780  0.62500000  1
  Sb  Sb109  1  0.72734220  0.47734220  0.12500000  1
  Sb  Sb110  1  0.22734220  0.02265780  0.37500000  1
  Sb  Sb111  1  0.27265780  0.97734220  0.87500000  1
