# generated using pymatgen
data_LiCl
_symmetry_space_group_name_H-M   'P 1'
_cell_length_a   4.89304805
_cell_length_b   5.65610807
_cell_length_c   9.58485422
_cell_angle_alpha   90.00000000
_cell_angle_beta   90.00000000
_cell_angle_gamma   90.00000000
_symmetry_Int_Tables_number   1
_chemical_formula_structural   LiCl
_chemical_formula_sum   'Li6 Cl6'
_cell_volume   265.26667378
_cell_formula_units_Z   6
loop_
 _symmetry_equiv_pos_site_id
 _symmetry_equiv_pos_as_xyz
  1  'x, y, z'
loop_
 _atom_site_type_symbol
 _atom_site_label
 _atom_site_symmetry_multiplicity
 _atom_site_fract_x
 _atom_site_fract_y
 _atom_site_fract_z
 _atom_site_occupancy
  Cl  Cl0  1  0.46311628  0.71224012  -0.00000000  1
  Cl  Cl1  1  -0.46311628  -0.71224012  0.00000000  1
  Cl  Cl2  1  0.03688372  1.21224012  0.50000000  1
  Cl  Cl3  1  0.96311628  -0.21224012  0.50000000  1
  Cl  Cl4  1  0.00000000  0.50000000  0.00000000  1
  Cl  Cl5  1  0.50000000  -0.00000000  0.50000000  1
  Li  Li6  1  0.00000000  0.00000000  0.75985877  1
  Li  Li7  1  0.50000000  0.50000000  0.74014123  1
  Li  Li8  1  0.00000000  0.00000000  0.24014123  1
  Li  Li9  1  0.50000000  0.50000000  0.25985877  1
  Li  Li10  1  0.00000000  0.50000000  0.50000000  1
  Li  Li11  1  0.50000000  -0.00000000  0.00000000  1
