# generated using pymatgen
data_Li2Y2Mo2P3
_symmetry_space_group_name_H-M   'P 1'
_cell_length_a   4.58240880
_cell_length_b   4.88184835
_cell_length_c   6.33471475
_cell_angle_alpha   93.24447132
_cell_angle_beta   98.30144515
_cell_angle_gamma   104.52374196
_symmetry_Int_Tables_number   1
_chemical_formula_structural   Li2Y2Mo2P3
_chemical_formula_sum   'Li2 Y2 Mo2 P3'
_cell_volume   135.10700264
_cell_formula_units_Z   1
loop_
 _symmetry_equiv_pos_site_id
 _symmetry_equiv_pos_as_xyz
  1  'x, y, z'
loop_
 _atom_site_type_symbol
 _atom_site_label
 _atom_site_symmetry_multiplicity
 _atom_site_fract_x
 _atom_site_fract_y
 _atom_site_fract_z
 _atom_site_occupancy
  P  P0  1  0.00000000  0.00000000  0.00000000  1
  P  P1  1  0.33300000  0.66700000  0.25000000  1
  P  P2  1  0.66700000  0.33300000  0.50000000  1
  Mo  Mo3  1  0.00000000  0.00000000  0.75000000  1
  Mo  Mo4  1  0.80873633  0.08051316  0.82996430  1
  Li  Li5  1  0.84449499  0.24234713  0.73035851  1
  Li  Li6  1  0.65492089  0.04524997  0.89909881  1
  Y  Y7  1  0.18826665  0.81624547  0.17695436  1
  Y  Y8  1  0.30442762  0.21203270  0.41829012  1
