# generated using pymatgen
data_LiF
_symmetry_space_group_name_H-M   'P 1'
_cell_length_a   8.36907717
_cell_length_b   6.01293193
_cell_length_c   9.01026548
_cell_angle_alpha   90.00000000
_cell_angle_beta   90.00000000
_cell_angle_gamma   90.00000000
_symmetry_Int_Tables_number   1
_chemical_formula_structural   LiF
_chemical_formula_sum   'Li18 F18'
_cell_volume   453.42080840
_cell_formula_units_Z   18
loop_
 _symmetry_equiv_pos_site_id
 _symmetry_equiv_pos_as_xyz
  1  'x, y, z'
loop_
 _atom_site_type_symbol
 _atom_site_label
 _atom_site_symmetry_multiplicity
 _atom_site_fract_x
 _atom_site_fract_y
 _atom_site_fract_z
 _atom_site_occupancy
  F  F0  1  0.46372961  0.48497796  0.50000000  1
  F  F1  1  0.53627039  0.51502204  0.50000000  1
  F  F2  1  0.03627039  0.98497796  0.50000000  1
  F  F3  1  0.96372961  0.01502204  0.50000000  1
  F  F4  1  0.76095292  0.29841302  0.31112559  1
  F  F5  1  -0.76095292  -0.29841302  0.31112559  1
  F  F6  1  -0.26095292  0.79841302  -0.31112559  1
  F  F7  1  1.26095292  0.20158698  -0.31112559  1
  F  F8  1  -0.76095292  -0.29841302  -0.31112559  1
  F  F9  1  0.76095292  0.29841302  -0.31112559  1
  F  F10  1  1.26095292  0.20158698  0.31112559  1
  F  F11  1  -0.26095292  0.79841302  0.31112559  1
  F  F12  1  0.13442573  0.85665101  0.50000000  1
  F  F13  1  0.86557427  0.14334899  0.50000000  1
  F  F14  1  0.36557427  0.35665101  0.50000000  1
  F  F15  1  0.63442573  0.64334899  0.50000000  1
  F  F16  1  0.00000000  0.00000000  0.00000000  1
  F  F17  1  0.50000000  0.50000000  -0.00000000  1
  Li  Li18  1  0.00000000  0.50000000  0.00000000  1
  Li  Li19  1  0.50000000  0.00000000  0.00000000  1
  Li  Li20  1  0.20927430  0.89412353  0.13318131  1
  Li  Li21  1  0.79072570  0.10587647  0.13318131  1
  Li  Li22  1  0.29072570  0.39412353  0.86681869  1
  Li  Li23  1  0.70927430  0.60587647  0.86681869  1
  Li  Li24  1  0.79072570  0.10587647  0.86681869  1
  Li  Li25  1  0.20927430  0.89412353  0.86681869  1
  Li  Li26  1  0.70927430  0.60587647  0.13318131  1
  Li  Li27  1  0.29072570  0.39412353  0.13318131  1
  Li  Li28  1  0.00000000  0.00000000  0.72359665  1
  Li  Li29  1  0.50000000  0.50000000  0.27640335  1
  Li  Li30  1  0.00000000  0.00000000  0.27640335  1
  Li  Li31  1  0.50000000  0.50000000  0.72359665  1
  Li  Li32  1  0.58096972  0.31876968  0.50000000  1
  Li  Li33  1  0.41903028  0.68123032  0.50000000  1
  Li  Li34  1  0.91903028  0.81876968  0.50000000  1
  Li  Li35  1  0.08096972  0.18123032  0.50000000  1
