# generated using pymatgen
data_LiYAs2P
_symmetry_space_group_name_H-M   'P 1'
_cell_length_a   4.71003424
_cell_length_b   4.87848952
_cell_length_c   6.78353385
_cell_angle_alpha   95.10334943
_cell_angle_beta   100.61168274
_cell_angle_gamma   109.71030650
_symmetry_Int_Tables_number   1
_chemical_formula_structural   LiYAs2P
_chemical_formula_sum   'Li2 Y2 As4 P2'
_cell_volume   142.29402872
_cell_formula_units_Z   2
loop_
 _symmetry_equiv_pos_site_id
 _symmetry_equiv_pos_as_xyz
  1  'x, y, z'
loop_
 _atom_site_type_symbol
 _atom_site_label
 _atom_site_symmetry_multiplicity
 _atom_site_fract_x
 _atom_site_fract_y
 _atom_site_fract_z
 _atom_site_occupancy
  Y  Y0  1  0.00000000  0.00000000  0.00000000  1
  Y  Y1  1  0.33300000  0.66700000  0.25000000  1
  P  P2  1  0.66700000  0.33300000  0.50000000  1
  P  P3  1  0.00000000  0.00000000  0.75000000  1
  As  As4  1  0.00358491  0.29669967  0.51028015  1
  As  As5  1  0.16791627  0.56201197  0.09560993  1
  As  As6  1  0.10422700  0.09165224  0.27321007  1
  As  As7  1  0.57757869  0.23444689  0.13844099  1
  Li  Li8  1  0.78238491  0.73934471  0.30339013  1
  Li  Li9  1  0.98289857  0.21022738  0.25788949  1
