# generated using pymatgen
data_LiF
_symmetry_space_group_name_H-M   'P 1'
_cell_length_a   6.04965319
_cell_length_b   6.04965319
_cell_length_c   35.50119101
_cell_angle_alpha   90.00000000
_cell_angle_beta   90.00000000
_cell_angle_gamma   120.00000000
_symmetry_Int_Tables_number   1
_chemical_formula_structural   LiF
_chemical_formula_sum   'Li39 F39'
_cell_volume   1125.21240495
_cell_formula_units_Z   39
loop_
 _symmetry_equiv_pos_site_id
 _symmetry_equiv_pos_as_xyz
  1  'x, y, z'
loop_
 _atom_site_type_symbol
 _atom_site_label
 _atom_site_symmetry_multiplicity
 _atom_site_fract_x
 _atom_site_fract_y
 _atom_site_fract_z
 _atom_site_occupancy
  F  F0  1  0.99800778  0.74387840  0.11997040  1
  F  F1  1  0.25612160  0.25412939  0.11997040  1
  F  F2  1  0.74587061  0.00199222  0.11997040  1
  F  F3  1  0.25612160  0.00199222  0.88002960  1
  F  F4  1  0.74587061  0.74387840  0.88002960  1
  F  F5  1  0.99800778  0.25412939  0.88002960  1
  F  F6  1  0.33333333  0.66666667  0.50000000  1
  F  F7  1  0.36419404  0.88728756  0.27564396  1
  F  F8  1  0.11271244  0.47690648  0.27564396  1
  F  F9  1  0.52309352  0.63580596  0.27564396  1
  F  F10  1  0.11271244  0.63580596  0.72435604  1
  F  F11  1  0.52309352  0.88728756  0.72435604  1
  F  F12  1  0.36419404  0.47690648  0.72435604  1
  F  F13  1  0.13923982  0.88246259  0.99024849  1
  F  F14  1  0.11753741  0.25677722  0.99024849  1
  F  F15  1  0.74322278  0.86076018  0.99024849  1
  F  F16  1  0.11753741  0.86076018  0.00975151  1
  F  F17  1  0.74322278  0.88246259  0.00975151  1
  F  F18  1  0.13923982  0.25677722  0.00975151  1
  F  F19  1  0.73106417  0.17976755  0.61952422  1
  F  F20  1  0.82023245  0.55129661  0.61952422  1
  F  F21  1  0.44870339  0.26893583  0.61952422  1
  F  F22  1  0.82023245  0.26893583  0.38047578  1
  F  F23  1  0.44870339  0.17976755  0.38047578  1
  F  F24  1  0.73106417  0.55129661  0.38047578  1
  F  F25  1  0.07513839  0.80156215  0.92208257  1
  F  F26  1  0.19843785  0.27357624  0.92208257  1
  F  F27  1  0.72642376  0.92486161  0.92208257  1
  F  F28  1  0.19843785  0.92486161  0.07791743  1
  F  F29  1  0.72642376  0.80156215  0.07791743  1
  F  F30  1  0.07513839  0.27357624  0.07791743  1
  F  F31  1  0.37250767  0.49102234  0.46817067  1
  F  F32  1  0.50897766  0.88148534  0.46817067  1
  F  F33  1  0.11851466  0.62749233  0.46817067  1
  F  F34  1  0.50897766  0.62749233  0.53182933  1
  F  F35  1  0.11851466  0.49102234  0.53182933  1
  F  F36  1  0.37250767  0.88148534  0.53182933  1
  F  F37  1  0.00000000  0.00000000  0.75454215  1
  F  F38  1  0.00000000  0.00000000  0.24545785  1
  Li  Li39  1  0.48466060  0.34673390  0.05003787  1
  Li  Li40  1  -0.34673390  0.13792670  0.05003787  1
  Li  Li41  1  -0.13792670  -0.48466060  0.05003787  1
  Li  Li42  1  -0.34673390  -0.48466060  -0.05003787  1
  Li  Li43  1  -0.13792670  0.34673390  -0.05003787  1
  Li  Li44  1  0.48466060  0.13792670  -0.05003787  1
  Li  Li45  1  0.92494762  0.56297079  0.15808817  1
  Li  Li46  1  0.43702921  0.36197684  0.15808817  1
  Li  Li47  1  0.63802316  0.07505238  0.15808817  1
  Li  Li48  1  0.43702921  0.07505238  0.84191183  1
  Li  Li49  1  0.63802316  0.56297079  0.84191183  1
  Li  Li50  1  0.92494762  0.36197684  0.84191183  1
  Li  Li51  1  0.69028706  0.59414153  0.32056866  1
  Li  Li52  1  0.40585847  0.09614554  0.32056866  1
  Li  Li53  1  0.90385446  0.30971294  0.32056866  1
  Li  Li54  1  0.40585847  0.30971294  0.67943134  1
  Li  Li55  1  0.90385446  0.59414153  0.67943134  1
  Li  Li56  1  0.69028706  0.09614554  0.67943134  1
  Li  Li57  1  0.00000000  0.00000000  0.50000000  1
  Li  Li58  1  0.00000000  0.00000000  0.68362617  1
  Li  Li59  1  0.00000000  0.00000000  0.31637383  1
  Li  Li60  1  0.12565400  0.69873336  0.01702944  1
  Li  Li61  1  0.30126664  0.42692063  0.01702944  1
  Li  Li62  1  0.57307937  0.87434600  0.01702944  1
  Li  Li63  1  0.30126664  0.87434600  0.98297056  1
  Li  Li64  1  0.57307937  0.69873336  0.98297056  1
  Li  Li65  1  0.12565400  0.42692063  0.98297056  1
  Li  Li66  1  0.33333333  0.66666667  0.00000000  1
  Li  Li67  1  0.21297808  0.16373580  0.38325903  1
  Li  Li68  1  0.83626420  0.04924228  0.38325903  1
  Li  Li69  1  0.95075772  0.78702192  0.38325903  1
  Li  Li70  1  0.83626420  0.78702192  0.61674097  1
  Li  Li71  1  0.95075772  0.16373580  0.61674097  1
  Li  Li72  1  0.21297808  0.04924228  0.61674097  1
  Li  Li73  1  0.22703785  0.77296215  0.50000000  1
  Li  Li74  1  0.22703785  0.45407571  0.50000000  1
  Li  Li75  1  0.54592429  0.77296215  0.50000000  1
  Li  Li76  1  0.33333333  0.66666667  0.25487651  1
  Li  Li77  1  0.33333333  0.66666667  0.74512349  1
