# generated using pymatgen
data_LiF
_symmetry_space_group_name_H-M   'P 1'
_cell_length_a   6.79463921
_cell_length_b   15.25214475
_cell_length_c   5.34915045
_cell_angle_alpha   90.00000000
_cell_angle_beta   90.00000000
_cell_angle_gamma   90.00000000
_symmetry_Int_Tables_number   1
_chemical_formula_structural   LiF
_chemical_formula_sum   'Li20 F20'
_cell_volume   554.34754994
_cell_formula_units_Z   20
loop_
 _symmetry_equiv_pos_site_id
 _symmetry_equiv_pos_as_xyz
  1  'x, y, z'
loop_
 _atom_site_type_symbol
 _atom_site_label
 _atom_site_symmetry_multiplicity
 _atom_site_fract_x
 _atom_site_fract_y
 _atom_site_fract_z
 _atom_site_occupancy
  F  F0  1  0.99530989  0.14530889  -0.00000000  1
  F  F1  1  0.00469011  0.85469111  0.00000000  1
  F  F2  1  0.50469011  0.64530889  -0.00000000  1
  F  F3  1  0.49530989  0.35469111  0.00000000  1
  F  F4  1  0.00000000  0.50000000  -0.00000000  1
  F  F5  1  0.50000000  0.00000000  0.00000000  1
  F  F6  1  0.00000000  0.00000000  0.50000000  1
  F  F7  1  0.50000000  0.50000000  0.50000000  1
  F  F8  1  0.46041079  0.79840501  0.50000000  1
  F  F9  1  0.53958921  0.20159499  0.50000000  1
  F  F10  1  0.03958921  0.29840501  0.50000000  1
  F  F11  1  0.96041079  0.70159499  0.50000000  1
  F  F12  1  0.18782947  0.58923728  0.67329043  1
  F  F13  1  -0.18782947  -0.58923728  0.67329043  1
  F  F14  1  0.31217053  1.08923728  -0.67329043  1
  F  F15  1  0.68782947  -0.08923728  -0.67329043  1
  F  F16  1  -0.18782947  -0.58923728  -0.67329043  1
  F  F17  1  0.18782947  0.58923728  -0.67329043  1
  F  F18  1  0.68782947  -0.08923728  0.67329043  1
  F  F19  1  0.31217053  1.08923728  0.67329043  1
  Li  Li20  1  0.28395321  0.67796841  0.78870284  1
  Li  Li21  1  0.71604679  0.32203159  0.78870284  1
  Li  Li22  1  0.21604679  0.17796841  0.21129716  1
  Li  Li23  1  0.78395321  0.82203159  0.21129716  1
  Li  Li24  1  0.71604679  0.32203159  0.21129716  1
  Li  Li25  1  0.28395321  0.67796841  0.21129716  1
  Li  Li26  1  0.78395321  0.82203159  0.78870284  1
  Li  Li27  1  0.21604679  0.17796841  0.78870284  1
  Li  Li28  1  0.00000000  0.50000000  0.77067943  1
  Li  Li29  1  0.50000000  0.00000000  0.22932057  1
  Li  Li30  1  0.00000000  0.50000000  0.22932057  1
  Li  Li31  1  0.50000000  0.00000000  0.77067943  1
  Li  Li32  1  0.67364320  0.03163643  0.00000000  1
  Li  Li33  1  0.32635680  0.96836357  -0.00000000  1
  Li  Li34  1  0.82635680  0.53163643  0.00000000  1
  Li  Li35  1  0.17364320  0.46836357  -0.00000000  1
  Li  Li36  1  0.73396032  0.42946020  0.50000000  1
  Li  Li37  1  0.26603968  0.57053980  0.50000000  1
  Li  Li38  1  0.76603968  0.92946020  0.50000000  1
  Li  Li39  1  0.23396032  0.07053980  0.50000000  1
