# generated using pymatgen
data_NaLi2F3
_symmetry_space_group_name_H-M   'P 1'
_cell_length_a   7.71681540
_cell_length_b   7.71681540
_cell_length_c   29.65833417
_cell_angle_alpha   90.00000000
_cell_angle_beta   90.00000000
_cell_angle_gamma   120.00000000
_symmetry_Int_Tables_number   1
_chemical_formula_structural   NaLi2F3
_chemical_formula_sum   'Na12 Li24 F36'
_cell_volume   1529.51453487
_cell_formula_units_Z   12
loop_
 _symmetry_equiv_pos_site_id
 _symmetry_equiv_pos_as_xyz
  1  'x, y, z'
loop_
 _atom_site_type_symbol
 _atom_site_label
 _atom_site_symmetry_multiplicity
 _atom_site_fract_x
 _atom_site_fract_y
 _atom_site_fract_z
 _atom_site_occupancy
  F  F0  1  0.10630000  0.21260000  0.51192906  1
  F  F1  1  0.78740000  0.89370000  0.51192906  1
  F  F2  1  0.10630000  0.89370000  0.51192906  1
  F  F3  1  0.89370000  0.78740000  0.01192906  1
  F  F4  1  0.21260000  0.10630000  0.01192906  1
  F  F5  1  0.89370000  0.10630000  0.01192906  1
  F  F6  1  0.21260000  0.10630000  0.48807094  1
  F  F7  1  0.89370000  0.78740000  0.48807094  1
  F  F8  1  0.89370000  0.10630000  0.48807094  1
  F  F9  1  0.78740000  0.89370000  0.98807094  1
  F  F10  1  0.10630000  0.21260000  0.98807094  1
  F  F11  1  0.10630000  0.89370000  0.98807094  1
  F  F12  1  0.00000000  0.00000000  0.33377813  1
  F  F13  1  0.00000000  0.00000000  0.83377813  1
  F  F14  1  0.00000000  0.00000000  0.66622187  1
  F  F15  1  0.00000000  0.00000000  0.16622187  1
  F  F16  1  0.54222378  0.00000000  0.00000000  1
  F  F17  1  0.00000000  0.54222378  0.00000000  1
  F  F18  1  0.45777622  0.45777622  0.00000000  1
  F  F19  1  0.45777622  0.00000000  0.50000000  1
  F  F20  1  0.00000000  0.45777622  0.50000000  1
  F  F21  1  0.54222378  0.54222378  0.50000000  1
  F  F22  1  0.45777622  0.00000000  0.00000000  1
  F  F23  1  0.00000000  0.45777622  0.00000000  1
  F  F24  1  0.54222378  0.54222378  0.00000000  1
  F  F25  1  0.54222378  0.00000000  0.50000000  1
  F  F26  1  0.00000000  0.54222378  0.50000000  1
  F  F27  1  0.45777622  0.45777622  0.50000000  1
  F  F28  1  0.82328111  0.64656223  0.25000000  1
  F  F29  1  0.35343777  0.17671889  0.25000000  1
  F  F30  1  0.82328111  0.17671889  0.25000000  1
  F  F31  1  0.17671889  0.35343777  0.75000000  1
  F  F32  1  0.64656223  0.82328111  0.75000000  1
  F  F33  1  0.17671889  0.82328111  0.75000000  1
  F  F34  1  0.00000000  0.00000000  0.25000000  1
  F  F35  1  0.00000000  0.00000000  0.75000000  1
  Li  Li36  1  0.33732184  0.43861576  0.89285687  1
  Li  Li37  1  -0.43861576  -0.10129391  0.89285687  1
  Li  Li38  1  0.10129391  -0.33732184  0.89285687  1
  Li  Li39  1  -0.33732184  -0.43861576  1.39285687  1
  Li  Li40  1  0.43861576  0.10129391  1.39285687  1
  Li  Li41  1  -0.10129391  0.33732184  1.39285687  1
  Li  Li42  1  0.43861576  0.33732184  -0.89285687  1
  Li  Li43  1  -0.10129391  -0.43861576  -0.89285687  1
  Li  Li44  1  -0.33732184  0.10129391  -0.89285687  1
  Li  Li45  1  -0.43861576  -0.33732184  -0.39285687  1
  Li  Li46  1  0.10129391  0.43861576  -0.39285687  1
  Li  Li47  1  0.33732184  -0.10129391  -0.39285687  1
  Li  Li48  1  -0.33732184  -0.43861576  -0.89285687  1
  Li  Li49  1  0.43861576  0.10129391  -0.89285687  1
  Li  Li50  1  -0.10129391  0.33732184  -0.89285687  1
  Li  Li51  1  0.33732184  0.43861576  -0.39285687  1
  Li  Li52  1  -0.43861576  -0.10129391  -0.39285687  1
  Li  Li53  1  0.10129391  -0.33732184  -0.39285687  1
  Li  Li54  1  -0.43861576  -0.33732184  0.89285687  1
  Li  Li55  1  0.10129391  0.43861576  0.89285687  1
  Li  Li56  1  0.33732184  -0.10129391  0.89285687  1
  Li  Li57  1  0.43861576  0.33732184  1.39285687  1
  Li  Li58  1  -0.10129391  -0.43861576  1.39285687  1
  Li  Li59  1  -0.33732184  0.10129391  1.39285687  1
  Na  Na60  1  0.33333333  0.66666667  0.75000000  1
  Na  Na61  1  0.66666667  0.33333333  0.25000000  1
  Na  Na62  1  0.33333333  0.66666667  0.05934554  1
  Na  Na63  1  0.66666667  0.33333333  0.55934554  1
  Na  Na64  1  0.66666667  0.33333333  0.94065446  1
  Na  Na65  1  0.33333333  0.66666667  0.44065446  1
  Na  Na66  1  0.00000000  0.00000000  0.88708172  1
  Na  Na67  1  0.00000000  0.00000000  0.38708172  1
  Na  Na68  1  0.00000000  0.00000000  0.11291828  1
  Na  Na69  1  0.00000000  0.00000000  0.61291828  1
  Na  Na70  1  0.00000000  0.00000000  0.00000000  1
  Na  Na71  1  0.00000000  0.00000000  0.50000000  1
