# generated using pymatgen
data_LiF
_symmetry_space_group_name_H-M   'P 1'
_cell_length_a   6.31523766
_cell_length_b   7.76405661
_cell_length_c   6.42329322
_cell_angle_alpha   90.00000000
_cell_angle_beta   90.00000000
_cell_angle_gamma   90.00000000
_symmetry_Int_Tables_number   1
_chemical_formula_structural   LiF
_chemical_formula_sum   'Li14 F14'
_cell_volume   314.94603151
_cell_formula_units_Z   14
loop_
 _symmetry_equiv_pos_site_id
 _symmetry_equiv_pos_as_xyz
  1  'x, y, z'
loop_
 _atom_site_type_symbol
 _atom_site_label
 _atom_site_symmetry_multiplicity
 _atom_site_fract_x
 _atom_site_fract_y
 _atom_site_fract_z
 _atom_site_occupancy
  F  F0  1  0.42390911  0.43169681  0.50000000  1
  F  F1  1  0.57609089  0.56830319  0.50000000  1
  F  F2  1  0.07609089  0.93169681  0.50000000  1
  F  F3  1  0.92390911  0.06830319  0.50000000  1
  F  F4  1  0.43619379  0.99993257  0.68402161  1
  F  F5  1  -0.43619379  -0.99993257  0.68402161  1
  F  F6  1  0.06380621  1.49993257  -0.68402161  1
  F  F7  1  0.93619379  -0.49993257  -0.68402161  1
  F  F8  1  -0.43619379  -0.99993257  -0.68402161  1
  F  F9  1  0.43619379  0.99993257  -0.68402161  1
  F  F10  1  0.93619379  -0.49993257  0.68402161  1
  F  F11  1  0.06380621  1.49993257  0.68402161  1
  F  F12  1  0.00000000  0.00000000  0.50000000  1
  F  F13  1  0.50000000  0.50000000  0.50000000  1
  Li  Li14  1  0.38048491  0.09800488  0.00000000  1
  Li  Li15  1  0.61951509  0.90199512  0.00000000  1
  Li  Li16  1  0.11951509  0.59800488  -0.00000000  1
  Li  Li17  1  0.88048491  0.40199512  -0.00000000  1
  Li  Li18  1  0.23245746  0.41105588  0.35618343  1
  Li  Li19  1  0.76754254  0.58894412  0.35618343  1
  Li  Li20  1  0.26754254  0.91105588  0.64381657  1
  Li  Li21  1  0.73245746  0.08894412  0.64381657  1
  Li  Li22  1  0.76754254  0.58894412  0.64381657  1
  Li  Li23  1  0.23245746  0.41105588  0.64381657  1
  Li  Li24  1  0.73245746  0.08894412  0.35618343  1
  Li  Li25  1  0.26754254  0.91105588  0.35618343  1
  Li  Li26  1  0.00000000  0.50000000  0.50000000  1
  Li  Li27  1  0.50000000  0.00000000  0.50000000  1
