# generated using pymatgen
data_Li2Hf4(Se2S)3
_symmetry_space_group_name_H-M   'P 1'
_cell_length_a   20.16080380
_cell_length_b   20.16080380
_cell_length_c   20.16080380
_cell_angle_alpha   90.00000000
_cell_angle_beta   90.00000000
_cell_angle_gamma   90.00000000
_symmetry_Int_Tables_number   1
_chemical_formula_structural   Li2Hf4(Se2S)3
_chemical_formula_sum   'Li48 Hf96 Se144 S72'
_cell_volume   8194.52018622
_cell_formula_units_Z   24
loop_
 _symmetry_equiv_pos_site_id
 _symmetry_equiv_pos_as_xyz
  1  'x, y, z'
loop_
 _atom_site_type_symbol
 _atom_site_label
 _atom_site_symmetry_multiplicity
 _atom_site_fract_x
 _atom_site_fract_y
 _atom_site_fract_z
 _atom_site_occupancy
  Hf  Hf0  1  0.50315365  0.50315365  0.50315365  1
  Hf  Hf1  1  0.99684635  0.49684635  0.00315365  1
  Hf  Hf2  1  0.49684635  0.00315365  0.99684635  1
  Hf  Hf3  1  0.00315365  0.99684635  0.49684635  1
  Hf  Hf4  1  0.25315365  0.75315365  0.74684635  1
  Hf  Hf5  1  0.24684635  0.24684635  0.24684635  1
  Hf  Hf6  1  0.75315365  0.74684635  0.25315365  1
  Hf  Hf7  1  0.74684635  0.25315365  0.75315365  1
  Hf  Hf8  1  0.00315365  0.00315365  0.00315365  1
  Hf  Hf9  1  0.49684635  0.99684635  0.50315365  1
  Hf  Hf10  1  0.99684635  0.50315365  0.49684635  1
  Hf  Hf11  1  0.50315365  0.49684635  0.99684635  1
  Hf  Hf12  1  0.75315365  0.25315365  0.24684635  1
  Hf  Hf13  1  0.74684635  0.74684635  0.74684635  1
  Hf  Hf14  1  0.25315365  0.24684635  0.75315365  1
  Hf  Hf15  1  0.24684635  0.75315365  0.25315365  1
  Hf  Hf16  1  0.62500000  0.00000000  0.25000000  1
  Hf  Hf17  1  0.87500000  0.00000000  0.75000000  1
  Hf  Hf18  1  0.25000000  0.62500000  0.00000000  1
  Hf  Hf19  1  0.75000000  0.87500000  -0.00000000  1
  Hf  Hf20  1  0.00000000  0.25000000  0.62500000  1
  Hf  Hf21  1  0.00000000  0.75000000  0.87500000  1
  Hf  Hf22  1  0.12500000  0.50000000  0.75000000  1
  Hf  Hf23  1  0.37500000  0.50000000  0.25000000  1
  Hf  Hf24  1  0.75000000  0.12500000  0.50000000  1
  Hf  Hf25  1  0.25000000  0.37500000  0.50000000  1
  Hf  Hf26  1  0.50000000  0.75000000  0.12500000  1
  Hf  Hf27  1  0.50000000  0.25000000  0.37500000  1
  Hf  Hf28  1  0.12500000  0.25023109  0.99976891  1
  Hf  Hf29  1  0.37500000  0.74976891  0.49976891  1
  Hf  Hf30  1  0.87500000  0.75023109  0.50023109  1
  Hf  Hf31  1  0.62500000  0.24976891  0.00023109  1
  Hf  Hf32  1  0.99976891  0.12500000  0.25023109  1
  Hf  Hf33  1  0.49976891  0.37500000  0.74976891  1
  Hf  Hf34  1  0.50023109  0.87500000  0.75023109  1
  Hf  Hf35  1  0.00023109  0.62500000  0.24976891  1
  Hf  Hf36  1  0.25023109  0.99976891  0.12500000  1
  Hf  Hf37  1  0.74976891  0.49976891  0.37500000  1
  Hf  Hf38  1  0.75023109  0.50023109  0.87500000  1
  Hf  Hf39  1  0.24976891  0.00023109  0.62500000  1
  Hf  Hf40  1  0.62500000  0.75023109  0.49976891  1
  Hf  Hf41  1  0.87500000  0.24976891  0.99976891  1
  Hf  Hf42  1  0.37500000  0.25023109  0.00023109  1
  Hf  Hf43  1  0.12500000  0.74976891  0.50023109  1
  Hf  Hf44  1  0.49976891  0.62500000  0.75023109  1
  Hf  Hf45  1  0.99976891  0.87500000  0.24976891  1
  Hf  Hf46  1  0.00023109  0.37500000  0.25023109  1
  Hf  Hf47  1  0.50023109  0.12500000  0.74976891  1
  Hf  Hf48  1  0.75023109  0.49976891  0.62500000  1
  Hf  Hf49  1  0.24976891  0.99976891  0.87500000  1
  Hf  Hf50  1  0.25023109  0.00023109  0.37500000  1
  Hf  Hf51  1  0.74976891  0.50023109  0.12500000  1
  Hf  Hf52  1  0.84161492  0.00000000  0.25000000  1
  Hf  Hf53  1  0.65838508  0.00000000  0.75000000  1
  Hf  Hf54  1  0.25000000  0.84161492  0.00000000  1
  Hf  Hf55  1  0.75000000  0.65838508  0.00000000  1
  Hf  Hf56  1  0.00000000  0.25000000  0.84161492  1
  Hf  Hf57  1  0.00000000  0.75000000  0.65838508  1
  Hf  Hf58  1  0.75000000  0.09161492  0.00000000  1
  Hf  Hf59  1  0.75000000  0.90838508  0.50000000  1
  Hf  Hf60  1  0.59161492  0.50000000  0.25000000  1
  Hf  Hf61  1  0.40838508  0.00000000  0.25000000  1
  Hf  Hf62  1  0.00000000  0.25000000  0.40838508  1
  Hf  Hf63  1  0.50000000  0.25000000  0.59161492  1
  Hf  Hf64  1  0.34161492  0.50000000  0.75000000  1
  Hf  Hf65  1  0.15838508  0.50000000  0.25000000  1
  Hf  Hf66  1  0.75000000  0.34161492  0.50000000  1
  Hf  Hf67  1  0.25000000  0.15838508  0.50000000  1
  Hf  Hf68  1  0.50000000  0.75000000  0.34161492  1
  Hf  Hf69  1  0.50000000  0.25000000  0.15838508  1
  Hf  Hf70  1  0.25000000  0.59161492  0.50000000  1
  Hf  Hf71  1  0.25000000  0.40838508  0.00000000  1
  Hf  Hf72  1  0.09161492  0.00000000  0.75000000  1
  Hf  Hf73  1  0.90838508  0.50000000  0.75000000  1
  Hf  Hf74  1  0.50000000  0.75000000  0.90838508  1
  Hf  Hf75  1  0.00000000  0.75000000  0.09161492  1
  Hf  Hf76  1  0.12500000  0.00000000  0.25000000  1
  Hf  Hf77  1  0.37500000  0.00000000  0.75000000  1
  Hf  Hf78  1  0.25000000  0.12500000  -0.00000000  1
  Hf  Hf79  1  0.75000000  0.37500000  0.00000000  1
  Hf  Hf80  1  0.00000000  0.25000000  0.12500000  1
  Hf  Hf81  1  0.00000000  0.75000000  0.37500000  1
  Hf  Hf82  1  0.62500000  0.50000000  0.75000000  1
  Hf  Hf83  1  0.87500000  0.50000000  0.25000000  1
  Hf  Hf84  1  0.75000000  0.62500000  0.50000000  1
  Hf  Hf85  1  0.25000000  0.87500000  0.50000000  1
  Hf  Hf86  1  0.50000000  0.75000000  0.62500000  1
  Hf  Hf87  1  0.50000000  0.25000000  0.87500000  1
  Hf  Hf88  1  0.12500000  0.12500000  0.12500000  1
  Hf  Hf89  1  0.37500000  0.87500000  0.62500000  1
  Hf  Hf90  1  0.87500000  0.62500000  0.37500000  1
  Hf  Hf91  1  0.62500000  0.37500000  0.87500000  1
  Hf  Hf92  1  0.62500000  0.62500000  0.62500000  1
  Hf  Hf93  1  0.87500000  0.37500000  0.12500000  1
  Hf  Hf94  1  0.37500000  0.12500000  0.87500000  1
  Hf  Hf95  1  0.12500000  0.87500000  0.37500000  1
  Li  Li96  1  0.12500000  0.32854717  0.57854717  1
  Li  Li97  1  0.37500000  0.67145283  0.07854717  1
  Li  Li98  1  0.87500000  0.82854717  0.92145283  1
  Li  Li99  1  0.62500000  0.17145283  0.42145283  1
  Li  Li100  1  0.57854717  0.12500000  0.32854717  1
  Li  Li101  1  0.07854717  0.37500000  0.67145283  1
  Li  Li102  1  0.92145283  0.87500000  0.82854717  1
  Li  Li103  1  0.42145283  0.62500000  0.17145283  1
  Li  Li104  1  0.32854717  0.57854717  0.12500000  1
  Li  Li105  1  0.67145283  0.07854717  0.37500000  1
  Li  Li106  1  0.82854717  0.92145283  0.87500000  1
  Li  Li107  1  0.17145283  0.42145283  0.62500000  1
  Li  Li108  1  0.62500000  0.82854717  0.07854717  1
  Li  Li109  1  0.87500000  0.17145283  0.57854717  1
  Li  Li110  1  0.37500000  0.32854717  0.42145283  1
  Li  Li111  1  0.12500000  0.67145283  0.92145283  1
  Li  Li112  1  0.07854717  0.62500000  0.82854717  1
  Li  Li113  1  0.57854717  0.87500000  0.17145283  1
  Li  Li114  1  0.42145283  0.37500000  0.32854717  1
  Li  Li115  1  0.92145283  0.12500000  0.67145283  1
  Li  Li116  1  0.82854717  0.07854717  0.62500000  1
  Li  Li117  1  0.17145283  0.57854717  0.87500000  1
  Li  Li118  1  0.32854717  0.42145283  0.37500000  1
  Li  Li119  1  0.67145283  0.92145283  0.12500000  1
  Li  Li120  1  0.12500000  0.72111301  0.97111301  1
  Li  Li121  1  0.37500000  0.27888699  0.47111301  1
  Li  Li122  1  0.87500000  0.22111301  0.52888699  1
  Li  Li123  1  0.62500000  0.77888699  0.02888699  1
  Li  Li124  1  0.97111301  0.12500000  0.72111301  1
  Li  Li125  1  0.47111301  0.37500000  0.27888699  1
  Li  Li126  1  0.52888699  0.87500000  0.22111301  1
  Li  Li127  1  0.02888699  0.62500000  0.77888699  1
  Li  Li128  1  0.72111301  0.97111301  0.12500000  1
  Li  Li129  1  0.27888699  0.47111301  0.37500000  1
  Li  Li130  1  0.22111301  0.52888699  0.87500000  1
  Li  Li131  1  0.77888699  0.02888699  0.62500000  1
  Li  Li132  1  0.62500000  0.22111301  0.47111301  1
  Li  Li133  1  0.87500000  0.77888699  0.97111301  1
  Li  Li134  1  0.37500000  0.72111301  0.02888699  1
  Li  Li135  1  0.12500000  0.27888699  0.52888699  1
  Li  Li136  1  0.47111301  0.62500000  0.22111301  1
  Li  Li137  1  0.97111301  0.87500000  0.77888699  1
  Li  Li138  1  0.02888699  0.37500000  0.72111301  1
  Li  Li139  1  0.52888699  0.12500000  0.27888699  1
  Li  Li140  1  0.22111301  0.47111301  0.62500000  1
  Li  Li141  1  0.77888699  0.97111301  0.87500000  1
  Li  Li142  1  0.72111301  0.02888699  0.37500000  1
  Li  Li143  1  0.27888699  0.52888699  0.12500000  1
  S  S144  1  0.69469955  0.78468807  0.54652487  1
  S  S145  1  0.80530045  0.21531193  0.04652487  1
  S  S146  1  0.30530045  0.28468807  0.95347513  1
  S  S147  1  0.19469955  0.71531193  0.45347513  1
  S  S148  1  0.54652487  0.69469955  0.78468807  1
  S  S149  1  0.04652487  0.80530045  0.21531193  1
  S  S150  1  0.95347513  0.30530045  0.28468807  1
  S  S151  1  0.45347513  0.19469955  0.71531193  1
  S  S152  1  0.78468807  0.54652487  0.69469955  1
  S  S153  1  0.21531193  0.04652487  0.80530045  1
  S  S154  1  0.28468807  0.95347513  0.30530045  1
  S  S155  1  0.71531193  0.45347513  0.19469955  1
  S  S156  1  0.53468807  0.94469955  0.70347513  1
  S  S157  1  0.96531193  0.05530045  0.20347513  1
  S  S158  1  0.03468807  0.55530045  0.29652487  1
  S  S159  1  0.46531193  0.44469955  0.79652487  1
  S  S160  1  0.44469955  0.79652487  0.46531193  1
  S  S161  1  0.55530045  0.29652487  0.03468807  1
  S  S162  1  0.05530045  0.20347513  0.96531193  1
  S  S163  1  0.94469955  0.70347513  0.53468807  1
  S  S164  1  0.29652487  0.03468807  0.55530045  1
  S  S165  1  0.79652487  0.46531193  0.44469955  1
  S  S166  1  0.70347513  0.53468807  0.94469955  1
  S  S167  1  0.20347513  0.96531193  0.05530045  1
  S  S168  1  0.19469955  0.28468807  0.04652487  1
  S  S169  1  0.30530045  0.71531193  0.54652487  1
  S  S170  1  0.80530045  0.78468807  0.45347513  1
  S  S171  1  0.69469955  0.21531193  0.95347513  1
  S  S172  1  0.04652487  0.19469955  0.28468807  1
  S  S173  1  0.54652487  0.30530045  0.71531193  1
  S  S174  1  0.45347513  0.80530045  0.78468807  1
  S  S175  1  0.95347513  0.69469955  0.21531193  1
  S  S176  1  0.28468807  0.04652487  0.19469955  1
  S  S177  1  0.71531193  0.54652487  0.30530045  1
  S  S178  1  0.78468807  0.45347513  0.80530045  1
  S  S179  1  0.21531193  0.95347513  0.69469955  1
  S  S180  1  0.03468807  0.44469955  0.20347513  1
  S  S181  1  0.46531193  0.55530045  0.70347513  1
  S  S182  1  0.53468807  0.05530045  0.79652487  1
  S  S183  1  0.96531193  0.94469955  0.29652487  1
  S  S184  1  0.94469955  0.29652487  0.96531193  1
  S  S185  1  0.05530045  0.79652487  0.53468807  1
  S  S186  1  0.55530045  0.70347513  0.46531193  1
  S  S187  1  0.44469955  0.20347513  0.03468807  1
  S  S188  1  0.79652487  0.53468807  0.05530045  1
  S  S189  1  0.29652487  0.96531193  0.94469955  1
  S  S190  1  0.20347513  0.03468807  0.44469955  1
  S  S191  1  0.70347513  0.46531193  0.55530045  1
  S  S192  1  0.12500000  0.56595083  0.81595083  1
  S  S193  1  0.37500000  0.43404917  0.31595083  1
  S  S194  1  0.87500000  0.06595083  0.68404917  1
  S  S195  1  0.62500000  0.93404917  0.18404917  1
  S  S196  1  0.81595083  0.12500000  0.56595083  1
  S  S197  1  0.31595083  0.37500000  0.43404917  1
  S  S198  1  0.68404917  0.87500000  0.06595083  1
  S  S199  1  0.18404917  0.62500000  0.93404917  1
  S  S200  1  0.56595083  0.81595083  0.12500000  1
  S  S201  1  0.43404917  0.31595083  0.37500000  1
  S  S202  1  0.06595083  0.68404917  0.87500000  1
  S  S203  1  0.93404917  0.18404917  0.62500000  1
  S  S204  1  0.62500000  0.06595083  0.31595083  1
  S  S205  1  0.87500000  0.93404917  0.81595083  1
  S  S206  1  0.37500000  0.56595083  0.18404917  1
  S  S207  1  0.12500000  0.43404917  0.68404917  1
  S  S208  1  0.31595083  0.62500000  0.06595083  1
  S  S209  1  0.81595083  0.87500000  0.93404917  1
  S  S210  1  0.18404917  0.37500000  0.56595083  1
  S  S211  1  0.68404917  0.12500000  0.43404917  1
  S  S212  1  0.06595083  0.31595083  0.62500000  1
  S  S213  1  0.93404917  0.81595083  0.87500000  1
  S  S214  1  0.56595083  0.18404917  0.37500000  1
  S  S215  1  0.43404917  0.68404917  0.12500000  1
  Se  Se216  1  0.12500000  0.60233993  0.64766007  1
  Se  Se217  1  0.37500000  0.39766007  0.14766007  1
  Se  Se218  1  0.87500000  0.10233993  0.85233993  1
  Se  Se219  1  0.62500000  0.89766007  0.35233993  1
  Se  Se220  1  0.64766007  0.12500000  0.60233993  1
  Se  Se221  1  0.14766007  0.37500000  0.39766007  1
  Se  Se222  1  0.85233993  0.87500000  0.10233993  1
  Se  Se223  1  0.35233993  0.62500000  0.89766007  1
  Se  Se224  1  0.60233993  0.64766007  0.12500000  1
  Se  Se225  1  0.39766007  0.14766007  0.37500000  1
  Se  Se226  1  0.10233993  0.85233993  0.87500000  1
  Se  Se227  1  0.89766007  0.35233993  0.62500000  1
  Se  Se228  1  0.62500000  0.10233993  0.14766007  1
  Se  Se229  1  0.87500000  0.89766007  0.64766007  1
  Se  Se230  1  0.37500000  0.60233993  0.35233993  1
  Se  Se231  1  0.12500000  0.39766007  0.85233993  1
  Se  Se232  1  0.14766007  0.62500000  0.10233993  1
  Se  Se233  1  0.64766007  0.87500000  0.89766007  1
  Se  Se234  1  0.35233993  0.37500000  0.60233993  1
  Se  Se235  1  0.85233993  0.12500000  0.39766007  1
  Se  Se236  1  0.10233993  0.14766007  0.62500000  1
  Se  Se237  1  0.89766007  0.64766007  0.87500000  1
  Se  Se238  1  0.60233993  0.35233993  0.37500000  1
  Se  Se239  1  0.39766007  0.85233993  0.12500000  1
  Se  Se240  1  0.07665326  0.43456295  0.28216452  1
  Se  Se241  1  0.42334674  -0.43456295  0.78216452  1
  Se  Se242  1  -0.07665326  0.93456295  0.21783548  1
  Se  Se243  1  0.57665326  0.06543705  -0.28216452  1
  Se  Se244  1  0.28216452  0.07665326  0.43456295  1
  Se  Se245  1  0.78216452  0.42334674  -0.43456295  1
  Se  Se246  1  0.21783548  -0.07665326  0.93456295  1
  Se  Se247  1  -0.28216452  0.57665326  0.06543705  1
  Se  Se248  1  0.43456295  0.28216452  0.07665326  1
  Se  Se249  1  -0.43456295  0.78216452  0.42334674  1
  Se  Se250  1  0.93456295  0.21783548  -0.07665326  1
  Se  Se251  1  0.06543705  -0.28216452  0.57665326  1
  Se  Se252  1  1.18456295  0.32665326  -0.03216452  1
  Se  Se253  1  0.31543705  0.67334674  0.46783548  1
  Se  Se254  1  0.68456295  0.17334674  1.03216452  1
  Se  Se255  1  -0.18456295  0.82665326  0.53216452  1
  Se  Se256  1  0.82665326  0.53216452  -0.18456295  1
  Se  Se257  1  0.17334674  1.03216452  0.68456295  1
  Se  Se258  1  0.67334674  0.46783548  0.31543705  1
  Se  Se259  1  0.32665326  -0.03216452  1.18456295  1
  Se  Se260  1  1.03216452  0.68456295  0.17334674  1
  Se  Se261  1  0.53216452  -0.18456295  0.82665326  1
  Se  Se262  1  -0.03216452  1.18456295  0.32665326  1
  Se  Se263  1  0.46783548  0.31543705  0.67334674  1
  Se  Se264  1  0.57665326  0.93456295  0.78216452  1
  Se  Se265  1  0.92334674  0.06543705  1.28216452  1
  Se  Se266  1  0.42334674  1.43456295  0.71783548  1
  Se  Se267  1  1.07665326  0.56543705  0.21783548  1
  Se  Se268  1  0.78216452  0.57665326  0.93456295  1
  Se  Se269  1  1.28216452  0.92334674  0.06543705  1
  Se  Se270  1  0.71783548  0.42334674  1.43456295  1
  Se  Se271  1  0.21783548  1.07665326  0.56543705  1
  Se  Se272  1  0.93456295  0.78216452  0.57665326  1
  Se  Se273  1  0.06543705  1.28216452  0.92334674  1
  Se  Se274  1  1.43456295  0.71783548  0.42334674  1
  Se  Se275  1  0.56543705  0.21783548  1.07665326  1
  Se  Se276  1  1.68456295  0.82665326  0.46783548  1
  Se  Se277  1  0.81543705  1.17334674  0.96783548  1
  Se  Se278  1  1.18456295  0.67334674  1.53216452  1
  Se  Se279  1  0.31543705  1.32665326  1.03216452  1
  Se  Se280  1  1.32665326  1.03216452  0.31543705  1
  Se  Se281  1  0.67334674  1.53216452  1.18456295  1
  Se  Se282  1  1.17334674  0.96783548  0.81543705  1
  Se  Se283  1  0.82665326  0.46783548  1.68456295  1
  Se  Se284  1  1.53216452  1.18456295  0.67334674  1
  Se  Se285  1  1.03216452  0.31543705  1.32665326  1
  Se  Se286  1  0.46783548  1.68456295  0.82665326  1
  Se  Se287  1  0.96783548  0.81543705  1.17334674  1
  Se  Se288  1  0.87500000  0.87500000  0.87500000  1
  Se  Se289  1  0.62500000  0.12500000  0.37500000  1
  Se  Se290  1  0.12500000  0.37500000  0.62500000  1
  Se  Se291  1  0.37500000  0.62500000  0.12500000  1
  Se  Se292  1  0.37500000  0.37500000  0.37500000  1
  Se  Se293  1  0.12500000  0.62500000  0.87500000  1
  Se  Se294  1  0.62500000  0.87500000  0.12500000  1
  Se  Se295  1  0.87500000  0.12500000  0.62500000  1
  Se  Se296  1  0.14648080  0.71931798  0.64955446  1
  Se  Se297  1  0.35351920  0.28068202  0.14955446  1
  Se  Se298  1  0.85351920  0.21931798  0.85044554  1
  Se  Se299  1  0.64648080  0.78068202  0.35044554  1
  Se  Se300  1  0.64955446  0.14648080  0.71931798  1
  Se  Se301  1  0.14955446  0.35351920  0.28068202  1
  Se  Se302  1  0.85044554  0.85351920  0.21931798  1
  Se  Se303  1  0.35044554  0.64648080  0.78068202  1
  Se  Se304  1  0.71931798  0.64955446  0.14648080  1
  Se  Se305  1  0.28068202  0.14955446  0.35351920  1
  Se  Se306  1  0.21931798  0.85044554  0.85351920  1
  Se  Se307  1  0.78068202  0.35044554  0.64648080  1
  Se  Se308  1  0.46931798  0.39648080  0.60044554  1
  Se  Se309  1  0.03068202  0.60351920  0.10044554  1
  Se  Se310  1  0.96931798  0.10351920  0.39955446  1
  Se  Se311  1  0.53068202  0.89648080  0.89955446  1
  Se  Se312  1  0.89648080  0.89955446  0.53068202  1
  Se  Se313  1  0.10351920  0.39955446  0.96931798  1
  Se  Se314  1  0.60351920  0.10044554  0.03068202  1
  Se  Se315  1  0.39648080  0.60044554  0.46931798  1
  Se  Se316  1  0.39955446  0.96931798  0.10351920  1
  Se  Se317  1  0.89955446  0.53068202  0.89648080  1
  Se  Se318  1  0.60044554  0.46931798  0.39648080  1
  Se  Se319  1  0.10044554  0.03068202  0.60351920  1
  Se  Se320  1  0.64648080  0.21931798  0.14955446  1
  Se  Se321  1  0.85351920  0.78068202  0.64955446  1
  Se  Se322  1  0.35351920  0.71931798  0.35044554  1
  Se  Se323  1  0.14648080  0.28068202  0.85044554  1
  Se  Se324  1  0.14955446  0.64648080  0.21931798  1
  Se  Se325  1  0.64955446  0.85351920  0.78068202  1
  Se  Se326  1  0.35044554  0.35351920  0.71931798  1
  Se  Se327  1  0.85044554  0.14648080  0.28068202  1
  Se  Se328  1  0.21931798  0.14955446  0.64648080  1
  Se  Se329  1  0.78068202  0.64955446  0.85351920  1
  Se  Se330  1  0.71931798  0.35044554  0.35351920  1
  Se  Se331  1  0.28068202  0.85044554  0.14648080  1
  Se  Se332  1  0.96931798  0.89648080  0.10044554  1
  Se  Se333  1  0.53068202  0.10351920  0.60044554  1
  Se  Se334  1  0.46931798  0.60351920  0.89955446  1
  Se  Se335  1  0.03068202  0.39648080  0.39955446  1
  Se  Se336  1  0.39648080  0.39955446  0.03068202  1
  Se  Se337  1  0.60351920  0.89955446  0.46931798  1
  Se  Se338  1  0.10351920  0.60044554  0.53068202  1
  Se  Se339  1  0.89648080  0.10044554  0.96931798  1
  Se  Se340  1  0.89955446  0.46931798  0.60351920  1
  Se  Se341  1  0.39955446  0.03068202  0.39648080  1
  Se  Se342  1  0.10044554  0.96931798  0.89648080  1
  Se  Se343  1  0.60044554  0.53068202  0.10351920  1
  Se  Se344  1  0.06793151  0.06793151  0.06793151  1
  Se  Se345  1  0.43206849  0.93206849  0.56793151  1
  Se  Se346  1  0.93206849  0.56793151  0.43206849  1
  Se  Se347  1  0.56793151  0.43206849  0.93206849  1
  Se  Se348  1  0.81793151  0.31793151  0.18206849  1
  Se  Se349  1  0.68206849  0.68206849  0.68206849  1
  Se  Se350  1  0.31793151  0.18206849  0.81793151  1
  Se  Se351  1  0.18206849  0.81793151  0.31793151  1
  Se  Se352  1  0.56793151  0.56793151  0.56793151  1
  Se  Se353  1  0.93206849  0.43206849  0.06793151  1
  Se  Se354  1  0.43206849  0.06793151  0.93206849  1
  Se  Se355  1  0.06793151  0.93206849  0.43206849  1
  Se  Se356  1  0.31793151  0.81793151  0.68206849  1
  Se  Se357  1  0.18206849  0.18206849  0.18206849  1
  Se  Se358  1  0.81793151  0.68206849  0.31793151  1
  Se  Se359  1  0.68206849  0.31793151  0.81793151  1
