# generated using pymatgen
data_LiF
_symmetry_space_group_name_H-M   'P 1'
_cell_length_a   5.69549063
_cell_length_b   7.25489963
_cell_length_c   4.97996153
_cell_angle_alpha   90.00000000
_cell_angle_beta   90.00000000
_cell_angle_gamma   90.00000000
_symmetry_Int_Tables_number   1
_chemical_formula_structural   LiF
_chemical_formula_sum   'Li10 F10'
_cell_volume   205.77307041
_cell_formula_units_Z   10
loop_
 _symmetry_equiv_pos_site_id
 _symmetry_equiv_pos_as_xyz
  1  'x, y, z'
loop_
 _atom_site_type_symbol
 _atom_site_label
 _atom_site_symmetry_multiplicity
 _atom_site_fract_x
 _atom_site_fract_y
 _atom_site_fract_z
 _atom_site_occupancy
  F  F0  1  0.49675920  0.39544127  0.50000000  1
  F  F1  1  0.50324080  0.60455873  0.50000000  1
  F  F2  1  0.00324080  0.89544127  0.50000000  1
  F  F3  1  0.99675920  0.10455873  0.50000000  1
  F  F4  1  0.00000000  0.50000000  0.00000000  1
  F  F5  1  0.50000000  -0.00000000  0.00000000  1
  F  F6  1  0.74862620  0.47015200  0.00000000  1
  F  F7  1  0.25137380  0.52984800  0.00000000  1
  F  F8  1  0.75137380  0.97015200  0.00000000  1
  F  F9  1  0.24862620  0.02984800  -0.00000000  1
  Li  Li10  1  0.28757941  0.83828646  0.65242233  1
  Li  Li11  1  -0.28757941  -0.83828646  0.65242233  1
  Li  Li12  1  0.21242059  1.33828646  -0.65242233  1
  Li  Li13  1  0.78757941  -0.33828646  -0.65242233  1
  Li  Li14  1  -0.28757941  -0.83828646  -0.65242233  1
  Li  Li15  1  0.28757941  0.83828646  -0.65242233  1
  Li  Li16  1  0.78757941  -0.33828646  0.65242233  1
  Li  Li17  1  0.21242059  1.33828646  0.65242233  1
  Li  Li18  1  0.00000000  0.50000000  0.50000000  1
  Li  Li19  1  0.50000000  -0.00000000  0.50000000  1
