# generated using pymatgen
data_Li6SF4
_symmetry_space_group_name_H-M   'P 1'
_cell_length_a   22.74243129
_cell_length_b   22.74243129
_cell_length_c   9.09171076
_cell_angle_alpha   90.00000000
_cell_angle_beta   90.00000000
_cell_angle_gamma   120.00000000
_symmetry_Int_Tables_number   1
_chemical_formula_structural   Li6SF4
_chemical_formula_sum   'Li108 S18 F72'
_cell_volume   4072.39621298
_cell_formula_units_Z   18
loop_
 _symmetry_equiv_pos_site_id
 _symmetry_equiv_pos_as_xyz
  1  'x, y, z'
loop_
 _atom_site_type_symbol
 _atom_site_label
 _atom_site_symmetry_multiplicity
 _atom_site_fract_x
 _atom_site_fract_y
 _atom_site_fract_z
 _atom_site_occupancy
  F  F0  1  0.36501553  0.92187155  0.10546653  1
  F  F1  1  0.07812845  0.44314398  0.10546653  1
  F  F2  1  0.55685602  0.63498447  0.10546653  1
  F  F3  1  0.92187155  0.36501553  0.39453347  1
  F  F4  1  0.44314398  0.07812845  0.39453347  1
  F  F5  1  0.63498447  0.55685602  0.39453347  1
  F  F6  1  0.63498447  0.07812845  0.89453347  1
  F  F7  1  0.92187155  0.55685602  0.89453347  1
  F  F8  1  0.44314398  0.36501553  0.89453347  1
  F  F9  1  0.07812845  0.63498447  0.60546653  1
  F  F10  1  0.55685602  0.92187155  0.60546653  1
  F  F11  1  0.36501553  0.44314398  0.60546653  1
  F  F12  1  0.03168220  0.25520488  0.43879986  1
  F  F13  1  0.74479512  0.77647732  0.43879986  1
  F  F14  1  0.22352268  0.96831780  0.43879986  1
  F  F15  1  0.58853822  0.69834887  0.72786680  1
  F  F16  1  0.10981065  0.41146178  0.72786680  1
  F  F17  1  0.30165113  0.89018935  0.72786680  1
  F  F18  1  0.30165113  0.41146178  0.22786680  1
  F  F19  1  0.58853822  0.89018935  0.22786680  1
  F  F20  1  0.10981065  0.69834887  0.22786680  1
  F  F21  1  0.74479512  0.96831780  0.93879986  1
  F  F22  1  0.22352268  0.25520488  0.93879986  1
  F  F23  1  0.03168220  0.77647732  0.93879986  1
  F  F24  1  0.69834887  0.58853822  0.77213320  1
  F  F25  1  0.41146178  0.10981065  0.77213320  1
  F  F26  1  0.89018935  0.30165113  0.77213320  1
  F  F27  1  0.25520488  0.03168220  0.06120014  1
  F  F28  1  0.77647732  0.74479512  0.06120014  1
  F  F29  1  0.96831780  0.22352268  0.06120014  1
  F  F30  1  0.96831780  0.74479512  0.56120014  1
  F  F31  1  0.25520488  0.22352268  0.56120014  1
  F  F32  1  0.77647732  0.03168220  0.56120014  1
  F  F33  1  0.41146178  0.30165113  0.27213320  1
  F  F34  1  0.89018935  0.58853822  0.27213320  1
  F  F35  1  0.69834887  0.10981065  0.27213320  1
  F  F36  1  0.00000000  0.00000000  0.25000000  1
  F  F37  1  0.00000000  0.00000000  0.75000000  1
  F  F38  1  0.66666667  0.33333333  0.58333333  1
  F  F39  1  0.66666667  0.33333333  0.08333333  1
  F  F40  1  0.33333333  0.66666667  0.91666667  1
  F  F41  1  0.33333333  0.66666667  0.41666667  1
  F  F42  1  0.91261167  -0.00000000  0.25000000  1
  F  F43  1  0.00000000  0.91261167  0.25000000  1
  F  F44  1  0.08738833  0.08738833  0.25000000  1
  F  F45  1  0.08738833  0.00000000  0.75000000  1
  F  F46  1  0.00000000  0.08738833  0.75000000  1
  F  F47  1  0.91261167  0.91261167  0.75000000  1
  F  F48  1  0.57927834  0.33333333  0.58333333  1
  F  F49  1  0.66666667  0.24594501  0.58333333  1
  F  F50  1  0.75405499  0.42072166  0.58333333  1
  F  F51  1  0.75405499  0.33333333  0.08333333  1
  F  F52  1  0.66666667  0.42072166  0.08333333  1
  F  F53  1  0.57927834  0.24594501  0.08333333  1
  F  F54  1  0.24594501  0.66666667  0.91666667  1
  F  F55  1  0.33333333  0.57927834  0.91666667  1
  F  F56  1  0.42072166  0.75405499  0.91666667  1
  F  F57  1  0.42072166  0.66666667  0.41666667  1
  F  F58  1  0.33333333  0.75405499  0.41666667  1
  F  F59  1  0.24594501  0.57927834  0.41666667  1
  F  F60  1  0.00000000  0.00000000  0.44818249  1
  F  F61  1  0.00000000  0.00000000  0.05181751  1
  F  F62  1  0.00000000  0.00000000  0.55181751  1
  F  F63  1  0.00000000  0.00000000  0.94818249  1
  F  F64  1  0.66666667  0.33333333  0.78151582  1
  F  F65  1  0.66666667  0.33333333  0.38515085  1
  F  F66  1  0.66666667  0.33333333  0.88515085  1
  F  F67  1  0.66666667  0.33333333  0.28151582  1
  F  F68  1  0.33333333  0.66666667  0.11484915  1
  F  F69  1  0.33333333  0.66666667  0.71848418  1
  F  F70  1  0.33333333  0.66666667  0.21848418  1
  F  F71  1  0.33333333  0.66666667  0.61484915  1
  Li  Li72  1  0.27515930  0.88158216  0.43432715  1
  Li  Li73  1  -0.88158216  -0.60642286  0.43432715  1
  Li  Li74  1  0.60642286  -0.27515930  0.43432715  1
  Li  Li75  1  0.88158216  0.27515930  0.06567285  1
  Li  Li76  1  -0.60642286  -0.88158216  0.06567285  1
  Li  Li77  1  -0.27515930  0.60642286  0.06567285  1
  Li  Li78  1  -0.27515930  -0.88158216  -0.43432715  1
  Li  Li79  1  0.88158216  0.60642286  -0.43432715  1
  Li  Li80  1  -0.60642286  0.27515930  -0.43432715  1
  Li  Li81  1  -0.88158216  -0.27515930  0.93432715  1
  Li  Li82  1  0.60642286  0.88158216  0.93432715  1
  Li  Li83  1  0.27515930  -0.60642286  0.93432715  1
  Li  Li84  1  0.94182597  1.21491550  0.76766048  1
  Li  Li85  1  -0.21491550  -0.27308953  0.76766048  1
  Li  Li86  1  1.27308953  0.05817403  0.76766048  1
  Li  Li87  1  1.54824883  0.60849263  0.39900619  1
  Li  Li88  1  0.06024380  -0.54824883  0.39900619  1
  Li  Li89  1  0.39150737  0.93975620  0.39900619  1
  Li  Li90  1  0.39150737  -0.54824883  -0.10099381  1
  Li  Li91  1  1.54824883  0.93975620  -0.10099381  1
  Li  Li92  1  0.06024380  0.60849263  -0.10099381  1
  Li  Li93  1  -0.21491550  0.05817403  1.26766048  1
  Li  Li94  1  1.27308953  1.21491550  1.26766048  1
  Li  Li95  1  0.94182597  -0.27308953  1.26766048  1
  Li  Li96  1  0.60849263  1.54824883  1.10099381  1
  Li  Li97  1  -0.54824883  0.06024380  1.10099381  1
  Li  Li98  1  0.93975620  0.39150737  1.10099381  1
  Li  Li99  1  1.21491550  0.94182597  0.73233952  1
  Li  Li100  1  -0.27308953  -0.21491550  0.73233952  1
  Li  Li101  1  0.05817403  1.27308953  0.73233952  1
  Li  Li102  1  0.05817403  -0.21491550  0.23233952  1
  Li  Li103  1  1.21491550  1.27308953  0.23233952  1
  Li  Li104  1  -0.27308953  0.94182597  0.23233952  1
  Li  Li105  1  -0.54824883  0.39150737  1.60099381  1
  Li  Li106  1  0.93975620  1.54824883  1.60099381  1
  Li  Li107  1  0.60849263  0.06024380  1.60099381  1
  Li  Li108  1  0.19814330  -0.00000000  0.25000000  1
  Li  Li109  1  0.00000000  0.19814330  0.25000000  1
  Li  Li110  1  0.80185670  0.80185670  0.25000000  1
  Li  Li111  1  0.80185670  -0.00000000  0.75000000  1
  Li  Li112  1  0.00000000  0.80185670  0.75000000  1
  Li  Li113  1  0.19814330  0.19814330  0.75000000  1
  Li  Li114  1  0.86480997  0.33333333  0.58333333  1
  Li  Li115  1  0.66666667  0.53147664  0.58333333  1
  Li  Li116  1  0.46852336  0.13519003  0.58333333  1
  Li  Li117  1  0.46852336  0.33333333  0.08333333  1
  Li  Li118  1  0.66666667  0.13519003  0.08333333  1
  Li  Li119  1  0.86480997  0.53147664  0.08333333  1
  Li  Li120  1  0.53147664  0.66666667  0.91666667  1
  Li  Li121  1  0.33333333  0.86480997  0.91666667  1
  Li  Li122  1  0.13519003  0.46852336  0.91666667  1
  Li  Li123  1  0.13519003  0.66666667  0.41666667  1
  Li  Li124  1  0.33333333  0.46852336  0.41666667  1
  Li  Li125  1  0.53147664  0.86480997  0.41666667  1
  Li  Li126  1  0.20148617  0.49050880  0.70845302  1
  Li  Li127  1  0.50949120  0.71097738  0.70845302  1
  Li  Li128  1  0.28902262  0.79851383  0.70845302  1
  Li  Li129  1  0.49050880  0.20148617  0.79154698  1
  Li  Li130  1  0.71097738  0.50949120  0.79154698  1
  Li  Li131  1  0.79851383  0.28902262  0.79154698  1
  Li  Li132  1  0.79851383  0.50949120  0.29154698  1
  Li  Li133  1  0.49050880  0.28902262  0.29154698  1
  Li  Li134  1  0.71097738  0.20148617  0.29154698  1
  Li  Li135  1  0.50949120  0.79851383  0.20845302  1
  Li  Li136  1  0.28902262  0.49050880  0.20845302  1
  Li  Li137  1  0.20148617  0.71097738  0.20845302  1
  Li  Li138  1  0.86815284  0.82384213  0.04178635  1
  Li  Li139  1  0.17615787  0.04431071  0.04178635  1
  Li  Li140  1  0.95568929  0.13184716  0.04178635  1
  Li  Li141  1  0.15717546  0.53481951  0.12488032  1
  Li  Li142  1  0.37764405  0.84282454  0.12488032  1
  Li  Li143  1  0.46518049  0.62235595  0.12488032  1
  Li  Li144  1  0.46518049  0.84282454  0.62488032  1
  Li  Li145  1  0.15717546  0.62235595  0.62488032  1
  Li  Li146  1  0.37764405  0.53481951  0.62488032  1
  Li  Li147  1  0.17615787  0.13184716  0.54178635  1
  Li  Li148  1  0.95568929  0.82384213  0.54178635  1
  Li  Li149  1  0.86815284  0.04431071  0.54178635  1
  Li  Li150  1  0.53481951  0.15717546  0.37511968  1
  Li  Li151  1  0.84282454  0.37764405  0.37511968  1
  Li  Li152  1  0.62235595  0.46518049  0.37511968  1
  Li  Li153  1  0.82384213  0.86815284  0.45821365  1
  Li  Li154  1  0.04431071  0.17615787  0.45821365  1
  Li  Li155  1  0.13184716  0.95568929  0.45821365  1
  Li  Li156  1  0.13184716  0.17615787  0.95821365  1
  Li  Li157  1  0.82384213  0.95568929  0.95821365  1
  Li  Li158  1  0.04431071  0.86815284  0.95821365  1
  Li  Li159  1  0.84282454  0.46518049  0.87511968  1
  Li  Li160  1  0.62235595  0.15717546  0.87511968  1
  Li  Li161  1  0.53481951  0.37764405  0.87511968  1
  Li  Li162  1  0.50000000  0.00000000  0.00000000  1
  Li  Li163  1  0.00000000  0.50000000  -0.00000000  1
  Li  Li164  1  0.50000000  0.50000000  0.00000000  1
  Li  Li165  1  0.00000000  0.50000000  0.50000000  1
  Li  Li166  1  0.50000000  0.00000000  0.50000000  1
  Li  Li167  1  0.50000000  0.50000000  0.50000000  1
  Li  Li168  1  0.16666667  0.33333333  0.33333333  1
  Li  Li169  1  0.66666667  0.83333333  0.33333333  1
  Li  Li170  1  0.16666667  0.83333333  0.33333333  1
  Li  Li171  1  0.66666667  0.83333333  0.83333333  1
  Li  Li172  1  0.16666667  0.33333333  0.83333333  1
  Li  Li173  1  0.16666667  0.83333333  0.83333333  1
  Li  Li174  1  0.83333333  0.66666667  0.66666667  1
  Li  Li175  1  0.33333333  0.16666667  0.66666667  1
  Li  Li176  1  0.83333333  0.16666667  0.66666667  1
  Li  Li177  1  0.33333333  0.16666667  0.16666667  1
  Li  Li178  1  0.83333333  0.66666667  0.16666667  1
  Li  Li179  1  0.83333333  0.16666667  0.16666667  1
  S  S180  1  0.84634216  -0.00000000  0.25000000  1
  S  S181  1  0.00000000  0.84634216  0.25000000  1
  S  S182  1  0.15365784  0.15365784  0.25000000  1
  S  S183  1  0.15365784  -0.00000000  0.75000000  1
  S  S184  1  0.00000000  0.15365784  0.75000000  1
  S  S185  1  0.84634216  0.84634216  0.75000000  1
  S  S186  1  0.51300882  0.33333333  0.58333333  1
  S  S187  1  0.66666667  0.17967549  0.58333333  1
  S  S188  1  0.82032451  0.48699118  0.58333333  1
  S  S189  1  0.82032451  0.33333333  0.08333333  1
  S  S190  1  0.66666667  0.48699118  0.08333333  1
  S  S191  1  0.51300882  0.17967549  0.08333333  1
  S  S192  1  0.17967549  0.66666667  0.91666667  1
  S  S193  1  0.33333333  0.51300882  0.91666667  1
  S  S194  1  0.48699118  0.82032451  0.91666667  1
  S  S195  1  0.48699118  0.66666667  0.41666667  1
  S  S196  1  0.33333333  0.82032451  0.41666667  1
  S  S197  1  0.17967549  0.51300882  0.41666667  1
