# generated using pymatgen
data_LiF
_symmetry_space_group_name_H-M   'P 1'
_cell_length_a   6.66364998
_cell_length_b   8.75486292
_cell_length_c   9.28143853
_cell_angle_alpha   90.00000000
_cell_angle_beta   90.00000000
_cell_angle_gamma   90.00000000
_symmetry_Int_Tables_number   1
_chemical_formula_structural   LiF
_chemical_formula_sum   'Li18 F18'
_cell_volume   541.47301761
_cell_formula_units_Z   18
loop_
 _symmetry_equiv_pos_site_id
 _symmetry_equiv_pos_as_xyz
  1  'x, y, z'
loop_
 _atom_site_type_symbol
 _atom_site_label
 _atom_site_symmetry_multiplicity
 _atom_site_fract_x
 _atom_site_fract_y
 _atom_site_fract_z
 _atom_site_occupancy
  F  F0  1  0.04641158  0.05142834  0.73348815  1
  F  F1  1  -0.04641158  -0.05142834  0.73348815  1
  F  F2  1  0.45358842  0.55142834  -0.73348815  1
  F  F3  1  0.54641158  0.44857166  -0.73348815  1
  F  F4  1  -0.04641158  -0.05142834  -0.73348815  1
  F  F5  1  0.04641158  0.05142834  -0.73348815  1
  F  F6  1  0.54641158  0.44857166  0.73348815  1
  F  F7  1  0.45358842  0.55142834  0.73348815  1
  F  F8  1  0.81385638  0.47112641  0.33618537  1
  F  F9  1  0.18614362  0.52887359  0.33618537  1
  F  F10  1  0.68614362  0.97112641  0.66381463  1
  F  F11  1  0.31385638  0.02887359  0.66381463  1
  F  F12  1  0.18614362  0.52887359  0.66381463  1
  F  F13  1  0.81385638  0.47112641  0.66381463  1
  F  F14  1  0.31385638  0.02887359  0.33618537  1
  F  F15  1  0.68614362  0.97112641  0.33618537  1
  F  F16  1  0.00000000  0.50000000  0.50000000  1
  F  F17  1  0.50000000  0.00000000  0.50000000  1
  Li  Li18  1  0.00000000  0.50000000  0.00000000  1
  Li  Li19  1  0.50000000  0.00000000  0.00000000  1
  Li  Li20  1  0.08483451  0.13493901  0.00000000  1
  Li  Li21  1  0.91516549  0.86506099  0.00000000  1
  Li  Li22  1  0.41516549  0.63493901  0.00000000  1
  Li  Li23  1  0.58483451  0.36506099  -0.00000000  1
  Li  Li24  1  0.39693146  0.65876204  0.13727849  1
  Li  Li25  1  0.60306854  0.34123796  0.13727849  1
  Li  Li26  1  0.10306854  0.15876204  0.86272151  1
  Li  Li27  1  0.89693146  0.84123796  0.86272151  1
  Li  Li28  1  0.60306854  0.34123796  0.86272151  1
  Li  Li29  1  0.39693146  0.65876204  0.86272151  1
  Li  Li30  1  0.89693146  0.84123796  0.13727849  1
  Li  Li31  1  0.10306854  0.15876204  0.13727849  1
  Li  Li32  1  0.73282198  0.21780834  0.50000000  1
  Li  Li33  1  0.26717802  0.78219166  0.50000000  1
  Li  Li34  1  0.76717802  0.71780834  0.50000000  1
  Li  Li35  1  0.23282198  0.28219166  0.50000000  1
