# generated using pymatgen
data_LiTe2P
_symmetry_space_group_name_H-M   'P 1'
_cell_length_a   4.98967130
_cell_length_b   5.22879542
_cell_length_c   7.03140487
_cell_angle_alpha   94.53147706
_cell_angle_beta   100.02663005
_cell_angle_gamma   108.39193654
_symmetry_Int_Tables_number   1
_chemical_formula_structural   LiTe2P
_chemical_formula_sum   'Li2 Te4 P2'
_cell_volume   169.64978542
_cell_formula_units_Z   2
loop_
 _symmetry_equiv_pos_site_id
 _symmetry_equiv_pos_as_xyz
  1  'x, y, z'
loop_
 _atom_site_type_symbol
 _atom_site_label
 _atom_site_symmetry_multiplicity
 _atom_site_fract_x
 _atom_site_fract_y
 _atom_site_fract_z
 _atom_site_occupancy
  Te  Te0  1  0.12500000  0.00000000  0.25000000  1
  Te  Te1  1  0.00000000  0.00000000  0.00000000  1
  Te  Te2  1  0.37500000  0.00000000  0.25000000  1
  Te  Te3  1  0.25000000  0.25000000  0.25000000  1
  P  P4  1  0.00000000  0.25000000  0.12500000  1
  P  P5  1  0.38422610  0.87541239  0.33441067  1
  Li  Li6  1  0.75246950  0.07028218  0.32626343  1
  Li  Li7  1  0.84583035  0.33047305  0.35870229  1
