# generated using pymatgen
data_LiF
_symmetry_space_group_name_H-M   'P 1'
_cell_length_a   11.49877744
_cell_length_b   16.03335809
_cell_length_c   14.85941019
_cell_angle_alpha   90.00000000
_cell_angle_beta   90.00000000
_cell_angle_gamma   90.00000000
_symmetry_Int_Tables_number   1
_chemical_formula_structural   LiF
_chemical_formula_sum   'Li72 F72'
_cell_volume   2739.54054279
_cell_formula_units_Z   72
loop_
 _symmetry_equiv_pos_site_id
 _symmetry_equiv_pos_as_xyz
  1  'x, y, z'
loop_
 _atom_site_type_symbol
 _atom_site_label
 _atom_site_symmetry_multiplicity
 _atom_site_fract_x
 _atom_site_fract_y
 _atom_site_fract_z
 _atom_site_occupancy
  F  F0  1  0.23244097  0.44820081  0.31835207  1
  F  F1  1  0.26755903  0.55179919  0.81835207  1
  F  F2  1  0.76755903  0.94820081  0.68164793  1
  F  F3  1  0.73244097  0.05179919  0.18164793  1
  F  F4  1  0.76755903  0.55179919  0.68164793  1
  F  F5  1  0.73244097  0.44820081  0.18164793  1
  F  F6  1  0.23244097  0.05179919  0.31835207  1
  F  F7  1  0.26755903  0.94820081  0.81835207  1
  F  F8  1  0.62363218  0.10199226  0.71490361  1
  F  F9  1  0.87636782  0.89800774  0.21490361  1
  F  F10  1  0.37636782  0.60199226  0.28509639  1
  F  F11  1  0.12363218  0.39800774  0.78509639  1
  F  F12  1  0.37636782  0.89800774  0.28509639  1
  F  F13  1  0.12363218  0.10199226  0.78509639  1
  F  F14  1  0.62363218  0.39800774  0.71490361  1
  F  F15  1  0.87636782  0.60199226  0.21490361  1
  F  F16  1  0.04650527  0.16431605  0.69641407  1
  F  F17  1  0.45349473  0.83568395  0.19641407  1
  F  F18  1  0.95349473  0.66431605  0.30358593  1
  F  F19  1  0.54650527  0.33568395  0.80358593  1
  F  F20  1  0.95349473  0.83568395  0.30358593  1
  F  F21  1  0.54650527  0.16431605  0.80358593  1
  F  F22  1  0.04650527  0.33568395  0.69641407  1
  F  F23  1  0.45349473  0.66431605  0.19641407  1
  F  F24  1  0.58043228  0.09320025  0.93292537  1
  F  F25  1  0.91956772  0.90679975  0.43292537  1
  F  F26  1  0.41956772  0.59320025  0.06707463  1
  F  F27  1  0.08043228  0.40679975  0.56707463  1
  F  F28  1  0.41956772  0.90679975  0.06707463  1
  F  F29  1  0.08043228  0.09320025  0.56707463  1
  F  F30  1  0.58043228  0.40679975  0.93292537  1
  F  F31  1  0.91956772  0.59320025  0.43292537  1
  F  F32  1  0.30625292  0.18896405  0.99257682  1
  F  F33  1  0.19374708  0.81103595  0.49257682  1
  F  F34  1  0.69374708  0.68896405  0.00742318  1
  F  F35  1  0.80625292  0.31103595  0.50742318  1
  F  F36  1  0.69374708  0.81103595  0.00742318  1
  F  F37  1  0.80625292  0.18896405  0.50742318  1
  F  F38  1  0.30625292  0.31103595  0.99257682  1
  F  F39  1  0.19374708  0.68896405  0.49257682  1
  F  F40  1  0.88459914  0.83009682  0.41481934  1
  F  F41  1  0.61540086  0.16990318  0.91481934  1
  F  F42  1  0.11540086  0.33009682  0.58518066  1
  F  F43  1  0.38459914  0.66990318  0.08518066  1
  F  F44  1  0.11540086  0.16990318  0.58518066  1
  F  F45  1  0.38459914  0.83009682  0.08518066  1
  F  F46  1  0.88459914  0.66990318  0.41481934  1
  F  F47  1  0.61540086  0.33009682  0.91481934  1
  F  F48  1  0.03885548  0.25000000  0.30383792  1
  F  F49  1  0.46114452  0.75000000  0.80383792  1
  F  F50  1  0.96114452  0.75000000  0.69616208  1
  F  F51  1  0.53885548  0.25000000  0.19616208  1
  F  F52  1  0.13674729  0.25000000  0.79071753  1
  F  F53  1  0.36325271  0.75000000  0.29071753  1
  F  F54  1  0.86325271  0.75000000  0.20928247  1
  F  F55  1  0.63674729  0.25000000  0.70928247  1
  F  F56  1  0.01963641  0.81341017  0.77137091  1
  F  F57  1  0.48036359  0.18658983  0.27137091  1
  F  F58  1  0.98036359  0.31341017  0.22862909  1
  F  F59  1  0.51963641  0.68658983  0.72862909  1
  F  F60  1  0.98036359  0.18658983  0.22862909  1
  F  F61  1  0.51963641  0.81341017  0.72862909  1
  F  F62  1  0.01963641  0.68658983  0.77137091  1
  F  F63  1  0.48036359  0.31341017  0.27137091  1
  F  F64  1  0.31183639  0.25000000  0.00131792  1
  F  F65  1  0.18816361  0.75000000  0.50131792  1
  F  F66  1  0.68816361  0.75000000  0.99868208  1
  F  F67  1  0.81183639  0.25000000  0.49868208  1
  F  F68  1  0.70081594  0.25000000  0.33575093  1
  F  F69  1  0.79918406  0.75000000  0.83575093  1
  F  F70  1  0.29918406  0.75000000  0.66424907  1
  F  F71  1  0.20081594  0.25000000  0.16424907  1
  Li  Li72  1  0.45143440  0.25000000  0.49732000  1
  Li  Li73  1  0.04856560  0.75000000  0.99732000  1
  Li  Li74  1  0.54856560  0.75000000  0.50268000  1
  Li  Li75  1  0.95143440  0.25000000  0.00268000  1
  Li  Li76  1  0.73748082  0.97578834  0.20764164  1
  Li  Li77  1  -0.23748082  -0.97578834  0.70764164  1
  Li  Li78  1  -0.73748082  1.47578834  -0.20764164  1
  Li  Li79  1  1.23748082  -0.47578834  0.29235836  1
  Li  Li80  1  -0.73748082  -0.97578834  -0.20764164  1
  Li  Li81  1  1.23748082  0.97578834  0.29235836  1
  Li  Li82  1  0.73748082  -0.47578834  0.20764164  1
  Li  Li83  1  -0.23748082  1.47578834  0.70764164  1
  Li  Li84  1  0.00000000  0.00000000  0.50000000  1
  Li  Li85  1  0.50000000  0.00000000  -0.00000000  1
  Li  Li86  1  0.00000000  0.50000000  0.50000000  1
  Li  Li87  1  0.50000000  0.50000000  0.00000000  1
  Li  Li88  1  0.99358706  0.91004429  0.23451286  1
  Li  Li89  1  0.50641294  0.08995571  0.73451286  1
  Li  Li90  1  0.00641294  0.41004429  0.76548714  1
  Li  Li91  1  0.49358706  0.58995571  0.26548714  1
  Li  Li92  1  0.00641294  0.08995571  0.76548714  1
  Li  Li93  1  0.49358706  0.91004429  0.26548714  1
  Li  Li94  1  0.99358706  0.58995571  0.23451286  1
  Li  Li95  1  0.50641294  0.41004429  0.73451286  1
  Li  Li96  1  0.90419733  0.25000000  0.36386258  1
  Li  Li97  1  0.59580267  0.75000000  0.86386258  1
  Li  Li98  1  0.09580267  0.75000000  0.63613742  1
  Li  Li99  1  0.40419733  0.25000000  0.13613742  1
  Li  Li100  1  0.54084317  0.42269974  0.55683120  1
  Li  Li101  1  0.95915683  0.57730026  0.05683120  1
  Li  Li102  1  0.45915683  0.92269974  0.44316880  1
  Li  Li103  1  0.04084317  0.07730026  0.94316880  1
  Li  Li104  1  0.45915683  0.57730026  0.44316880  1
  Li  Li105  1  0.04084317  0.42269974  0.94316880  1
  Li  Li106  1  0.54084317  0.07730026  0.55683120  1
  Li  Li107  1  0.95915683  0.92269974  0.05683120  1
  Li  Li108  1  0.20152270  0.25000000  0.99415619  1
  Li  Li109  1  0.29847730  0.75000000  0.49415619  1
  Li  Li110  1  0.79847730  0.75000000  0.00584381  1
  Li  Li111  1  0.70152270  0.25000000  0.50584381  1
  Li  Li112  1  0.51663117  0.25000000  0.81523907  1
  Li  Li113  1  0.98336883  0.75000000  0.31523907  1
  Li  Li114  1  0.48336883  0.75000000  0.18476093  1
  Li  Li115  1  0.01663117  0.25000000  0.68476093  1
  Li  Li116  1  0.14341373  0.13289572  0.12873833  1
  Li  Li117  1  0.35658627  0.86710428  0.62873833  1
  Li  Li118  1  0.85658627  0.63289572  0.87126167  1
  Li  Li119  1  0.64341373  0.36710428  0.37126167  1
  Li  Li120  1  0.85658627  0.86710428  0.87126167  1
  Li  Li121  1  0.64341373  0.13289572  0.37126167  1
  Li  Li122  1  0.14341373  0.36710428  0.12873833  1
  Li  Li123  1  0.35658627  0.63289572  0.62873833  1
  Li  Li124  1  0.00000000  0.00000000  0.00000000  1
  Li  Li125  1  0.50000000  0.00000000  0.50000000  1
  Li  Li126  1  0.00000000  0.50000000  0.00000000  1
  Li  Li127  1  0.50000000  0.50000000  0.50000000  1
  Li  Li128  1  0.62919275  0.82956351  0.73784017  1
  Li  Li129  1  0.87080725  0.17043649  0.23784017  1
  Li  Li130  1  0.37080725  0.32956351  0.26215983  1
  Li  Li131  1  0.12919275  0.67043649  0.76215983  1
  Li  Li132  1  0.37080725  0.17043649  0.26215983  1
  Li  Li133  1  0.12919275  0.82956351  0.76215983  1
  Li  Li134  1  0.62919275  0.67043649  0.73784017  1
  Li  Li135  1  0.87080725  0.32956351  0.23784017  1
  Li  Li136  1  0.70344587  0.57835900  0.54882421  1
  Li  Li137  1  0.79655413  0.42164100  0.04882421  1
  Li  Li138  1  0.29655413  0.07835900  0.45117579  1
  Li  Li139  1  0.20344587  0.92164100  0.95117579  1
  Li  Li140  1  0.29655413  0.42164100  0.45117579  1
  Li  Li141  1  0.20344587  0.57835900  0.95117579  1
  Li  Li142  1  0.70344587  0.92164100  0.54882421  1
  Li  Li143  1  0.79655413  0.07835900  0.04882421  1
