# generated using pymatgen
data_Li4TiSe4
_symmetry_space_group_name_H-M   'P 1'
_cell_length_a   8.97396736
_cell_length_b   8.97396736
_cell_length_c   9.53174862
_cell_angle_alpha   90.00000000
_cell_angle_beta   90.00000000
_cell_angle_gamma   120.00000000
_symmetry_Int_Tables_number   1
_chemical_formula_structural   Li4TiSe4
_chemical_formula_sum   'Li12 Ti3 Se12'
_cell_volume   664.77118037
_cell_formula_units_Z   3
loop_
 _symmetry_equiv_pos_site_id
 _symmetry_equiv_pos_as_xyz
  1  'x, y, z'
loop_
 _atom_site_type_symbol
 _atom_site_label
 _atom_site_symmetry_multiplicity
 _atom_site_fract_x
 _atom_site_fract_y
 _atom_site_fract_z
 _atom_site_occupancy
  Li  Li0  1  0.46765090  0.53234910  -0.00000000  1
  Li  Li1  1  0.46765090  0.93530179  -0.00000000  1
  Li  Li2  1  0.06469821  0.53234910  0.00000000  1
  Li  Li3  1  0.33333333  0.66666667  0.11334040  1
  Li  Li4  1  0.33333333  0.66666667  0.88665960  1
  Li  Li5  1  0.75390517  0.24609483  0.00000000  1
  Li  Li6  1  0.75390517  0.50781033  0.00000000  1
  Li  Li7  1  0.49218967  0.24609483  -0.00000000  1
  Li  Li8  1  0.00000000  0.00000000  0.00000000  1
  Li  Li9  1  0.22941087  0.77058913  0.00000000  1
  Li  Li10  1  0.22941087  0.45882174  0.00000000  1
  Li  Li11  1  0.54117826  0.77058913  0.00000000  1
  Se  Se12  1  0.66666667  0.33333333  0.21068269  1
  Se  Se13  1  0.66666667  0.33333333  0.78931731  1
  Se  Se14  1  0.85442557  0.25500905  0.76736909  1
  Se  Se15  1  -0.25500905  0.59941652  0.76736909  1
  Se  Se16  1  -0.59941652  -0.85442557  0.76736909  1
  Se  Se17  1  -0.25500905  -0.85442557  -0.76736909  1
  Se  Se18  1  -0.59941652  0.25500905  -0.76736909  1
  Se  Se19  1  0.85442557  0.59941652  -0.76736909  1
  Se  Se20  1  0.00000000  0.00000000  0.50000000  1
  Se  Se21  1  0.81375802  0.18624198  0.50000000  1
  Se  Se22  1  0.81375802  0.62751605  0.50000000  1
  Se  Se23  1  0.37248395  0.18624198  0.50000000  1
  Ti  Ti24  1  0.66666667  0.33333333  0.50000000  1
  Ti  Ti25  1  0.00000000  0.00000000  0.67305629  1
  Ti  Ti26  1  0.00000000  0.00000000  0.32694371  1
