# generated using pymatgen
data_Li(SbP)2
_symmetry_space_group_name_H-M   'P 1'
_cell_length_a   3.89551778
_cell_length_b   4.09366340
_cell_length_c   6.21409789
_cell_angle_alpha   96.24751094
_cell_angle_beta   101.78739374
_cell_angle_gamma   112.24205752
_symmetry_Int_Tables_number   1
_chemical_formula_structural   Li(SbP)2
_chemical_formula_sum   'Li1 Sb2 P2'
_cell_volume   87.87290806
_cell_formula_units_Z   1
loop_
 _symmetry_equiv_pos_site_id
 _symmetry_equiv_pos_as_xyz
  1  'x, y, z'
loop_
 _atom_site_type_symbol
 _atom_site_label
 _atom_site_symmetry_multiplicity
 _atom_site_fract_x
 _atom_site_fract_y
 _atom_site_fract_z
 _atom_site_occupancy
  P  P0  1  0.00000000  0.00000000  0.00000000  1
  P  P1  1  0.50000000  0.50000000  0.50000000  1
  Li  Li2  1  0.50000000  0.50000000  0.00000000  1
  Sb  Sb3  1  0.50000000  0.00000000  0.50000000  1
  Sb  Sb4  1  0.00000000  0.50000000  0.50000000  1
