# generated using pymatgen
data_LiYAs2P
_symmetry_space_group_name_H-M   'P 1'
_cell_length_a   4.30683297
_cell_length_b   4.49961805
_cell_length_c   6.69317165
_cell_angle_alpha   95.84742777
_cell_angle_beta   102.26086422
_cell_angle_gamma   112.74403528
_symmetry_Int_Tables_number   1
_chemical_formula_structural   LiYAs2P
_chemical_formula_sum   'Li2 Y2 As4 P2'
_cell_volume   114.43143239
_cell_formula_units_Z   2
loop_
 _symmetry_equiv_pos_site_id
 _symmetry_equiv_pos_as_xyz
  1  'x, y, z'
loop_
 _atom_site_type_symbol
 _atom_site_label
 _atom_site_symmetry_multiplicity
 _atom_site_fract_x
 _atom_site_fract_y
 _atom_site_fract_z
 _atom_site_occupancy
  P  P0  1  0.12500000  0.12500000  0.12500000  1
  P  P1  1  0.50000000  0.50000000  0.50000000  1
  As  As2  1  0.25000000  0.25000000  0.25000000  1
  As  As3  1  0.75000000  0.75000000  0.75000000  1
  As  As4  1  0.39532122  0.68835081  0.36439911  1
  As  As5  1  0.90175570  0.59598958  0.02265640  1
  Li  Li6  1  0.83759388  0.23343621  0.89698486  1
  Li  Li7  1  0.87985146  0.28214935  0.35278152  1
  Y  Y8  1  0.84879637  0.88188328  0.91271313  1
  Y  Y9  1  0.11273733  0.27025169  0.75525590  1
