# generated using pymatgen
data_Li2Ca3F8
_symmetry_space_group_name_H-M   'P 1'
_cell_length_a   13.98480432
_cell_length_b   13.98480432
_cell_length_c   10.08809569
_cell_angle_alpha   90.00000000
_cell_angle_beta   90.00000000
_cell_angle_gamma   120.00000000
_symmetry_Int_Tables_number   1
_chemical_formula_structural   Li2Ca3F8
_chemical_formula_sum   'Li16 Ca24 F64'
_cell_volume   1708.64803952
_cell_formula_units_Z   8
loop_
 _symmetry_equiv_pos_site_id
 _symmetry_equiv_pos_as_xyz
  1  'x, y, z'
loop_
 _atom_site_type_symbol
 _atom_site_label
 _atom_site_symmetry_multiplicity
 _atom_site_fract_x
 _atom_site_fract_y
 _atom_site_fract_z
 _atom_site_occupancy
  Ca  Ca0  1  0.37043147  0.46172969  0.92498473  1
  Ca  Ca1  1  0.53827031  0.90870178  0.92498473  1
  Ca  Ca2  1  0.09129822  0.62956853  0.92498473  1
  Ca  Ca3  1  0.53827031  0.62956853  0.07501527  1
  Ca  Ca4  1  0.09129822  0.46172969  0.07501527  1
  Ca  Ca5  1  0.37043147  0.90870178  0.07501527  1
  Ca  Ca6  1  0.40842104  0.16737769  0.66962546  1
  Ca  Ca7  1  0.83262231  0.24104335  0.66962546  1
  Ca  Ca8  1  0.75895665  0.59157896  0.66962546  1
  Ca  Ca9  1  0.83262231  0.59157896  0.33037454  1
  Ca  Ca10  1  0.75895665  0.16737769  0.33037454  1
  Ca  Ca11  1  0.40842104  0.24104335  0.33037454  1
  Ca  Ca12  1  0.80071900  0.19928100  0.50000000  1
  Ca  Ca13  1  0.80071900  0.60143800  0.50000000  1
  Ca  Ca14  1  0.39856200  0.19928100  0.50000000  1
  Ca  Ca15  1  0.77650680  0.22349320  -0.00000000  1
  Ca  Ca16  1  0.77650680  0.55301361  0.00000000  1
  Ca  Ca17  1  0.44698639  0.22349320  -0.00000000  1
  Ca  Ca18  1  0.45338673  0.41521260  0.19651152  1
  Ca  Ca19  1  0.58478740  0.03817413  0.19651152  1
  Ca  Ca20  1  0.96182587  0.54661327  0.19651152  1
  Ca  Ca21  1  0.58478740  0.54661327  0.80348848  1
  Ca  Ca22  1  0.96182587  0.41521260  0.80348848  1
  Ca  Ca23  1  0.45338673  0.03817413  0.80348848  1
  F  F24  1  0.40076656  0.59923344  0.00000000  1
  F  F25  1  0.40076656  0.80153312  -0.00000000  1
  F  F26  1  0.19846688  0.59923344  0.00000000  1
  F  F27  1  0.03218071  0.01412349  0.30373463  1
  F  F28  1  -0.01412349  0.01805722  0.30373463  1
  F  F29  1  -0.01805722  -0.03218071  0.30373463  1
  F  F30  1  -0.01412349  -0.03218071  -0.30373463  1
  F  F31  1  -0.01805722  0.01412349  -0.30373463  1
  F  F32  1  0.03218071  0.01805722  -0.30373463  1
  F  F33  1  0.66666667  0.33333333  0.00000000  1
  F  F34  1  0.33333333  0.66666667  0.50000000  1
  F  F35  1  0.48859977  0.81339960  0.40582629  1
  F  F36  1  0.18660040  0.67520017  0.40582629  1
  F  F37  1  0.32479983  0.51140023  0.40582629  1
  F  F38  1  0.18660040  0.51140023  0.59417371  1
  F  F39  1  0.32479983  0.81339960  0.59417371  1
  F  F40  1  0.48859977  0.67520017  0.59417371  1
  F  F41  1  0.20835517  0.20946578  0.76147632  1
  F  F42  1  0.79053422  0.99888939  0.76147632  1
  F  F43  1  0.00111061  0.79164483  0.76147632  1
  F  F44  1  0.79053422  0.79164483  0.23852368  1
  F  F45  1  0.00111061  0.20946578  0.23852368  1
  F  F46  1  0.20835517  0.99888939  0.23852368  1
  F  F47  1  0.08149287  0.28789489  0.73163716  1
  F  F48  1  0.71210511  0.79359798  0.73163716  1
  F  F49  1  0.20640202  0.91850713  0.73163716  1
  F  F50  1  0.71210511  0.91850713  0.26836284  1
  F  F51  1  0.20640202  0.28789489  0.26836284  1
  F  F52  1  0.08149287  0.79359798  0.26836284  1
  F  F53  1  0.94698346  0.84081591  0.25303816  1
  F  F54  1  0.15918409  0.10616755  0.25303816  1
  F  F55  1  0.89383245  0.05301654  0.25303816  1
  F  F56  1  0.15918409  0.05301654  0.74696184  1
  F  F57  1  0.89383245  0.84081591  0.74696184  1
  F  F58  1  0.94698346  0.10616755  0.74696184  1
  F  F59  1  0.16557758  0.38256614  0.94162178  1
  F  F60  1  0.61743386  0.78301144  0.94162178  1
  F  F61  1  0.21698856  0.83442242  0.94162178  1
  F  F62  1  0.61743386  0.83442242  0.05837822  1
  F  F63  1  0.21698856  0.38256614  0.05837822  1
  F  F64  1  0.16557758  0.78301144  0.05837822  1
  F  F65  1  0.00000000  0.00000000  0.00000000  1
  F  F66  1  0.33333333  0.66666667  0.20360462  1
  F  F67  1  0.33333333  0.66666667  0.79639538  1
  F  F68  1  0.44928505  0.39702570  0.60124075  1
  F  F69  1  0.60297430  0.05225935  0.60124075  1
  F  F70  1  0.94774065  0.55071495  0.60124075  1
  F  F71  1  0.60297430  0.55071495  0.39875925  1
  F  F72  1  0.94774065  0.39702570  0.39875925  1
  F  F73  1  0.44928505  0.05225935  0.39875925  1
  F  F74  1  0.23285956  0.69574023  0.03779182  1
  F  F75  1  0.30425977  0.53711933  0.03779182  1
  F  F76  1  0.46288067  0.76714044  0.03779182  1
  F  F77  1  0.30425977  0.76714044  0.96220818  1
  F  F78  1  0.46288067  0.69574023  0.96220818  1
  F  F79  1  0.23285956  0.53711933  0.96220818  1
  F  F80  1  0.29814610  0.59084811  0.31504115  1
  F  F81  1  0.40915189  0.70729799  0.31504115  1
  F  F82  1  0.29270201  0.70185390  0.31504115  1
  F  F83  1  0.40915189  0.70185390  0.68495885  1
  F  F84  1  0.29270201  0.59084811  0.68495885  1
  F  F85  1  0.29814610  0.70729799  0.68495885  1
  F  F86  1  0.00000000  0.00000000  0.50000000  1
  F  F87  1  0.33333333  0.66666667  0.00000000  1
  Li  Li88  1  0.18510633  0.34204862  0.22447874  1
  Li  Li89  1  0.65795138  0.84305771  0.22447874  1
  Li  Li90  1  0.15694229  0.81489367  0.22447874  1
  Li  Li91  1  0.65795138  0.81489367  0.77552126  1
  Li  Li92  1  0.15694229  0.34204862  0.77552126  1
  Li  Li93  1  0.18510633  0.84305771  0.77552126  1
  Li  Li94  1  0.01146609  0.30912856  0.93890956  1
  Li  Li95  1  0.69087144  0.70233753  0.93890956  1
  Li  Li96  1  0.29766247  0.98853391  0.93890956  1
  Li  Li97  1  0.69087144  0.98853391  0.06109044  1
  Li  Li98  1  0.29766247  0.30912856  0.06109044  1
  Li  Li99  1  0.01146609  0.70233753  0.06109044  1
  Li  Li100  1  0.58875436  0.41124564  -0.00000000  1
  Li  Li101  1  0.58875436  0.17750871  -0.00000000  1
  Li  Li102  1  0.82249129  0.41124564  -0.00000000  1
  Li  Li103  1  0.66666667  0.33333333  0.50000000  1
