# generated using pymatgen
data_LiF
_symmetry_space_group_name_H-M   'P 1'
_cell_length_a   8.74038078
_cell_length_b   9.93251724
_cell_length_c   9.02479629
_cell_angle_alpha   90.00000000
_cell_angle_beta   90.00000000
_cell_angle_gamma   90.00000000
_symmetry_Int_Tables_number   1
_chemical_formula_structural   LiF
_chemical_formula_sum   'Li36 F36'
_cell_volume   783.47851052
_cell_formula_units_Z   36
loop_
 _symmetry_equiv_pos_site_id
 _symmetry_equiv_pos_as_xyz
  1  'x, y, z'
loop_
 _atom_site_type_symbol
 _atom_site_label
 _atom_site_symmetry_multiplicity
 _atom_site_fract_x
 _atom_site_fract_y
 _atom_site_fract_z
 _atom_site_occupancy
  F  F0  1  0.41384547  0.88893167  -0.00000000  1
  F  F1  1  0.58615453  0.11106833  0.00000000  1
  F  F2  1  0.08615453  0.38893167  0.50000000  1
  F  F3  1  0.91384547  0.61106833  0.50000000  1
  F  F4  1  0.41755927  0.61809419  0.76005979  1
  F  F5  1  -0.41755927  -0.61809419  0.76005979  1
  F  F6  1  0.08244073  1.11809419  -0.26005979  1
  F  F7  1  0.91755927  -0.11809419  -0.26005979  1
  F  F8  1  -0.41755927  -0.61809419  -0.76005979  1
  F  F9  1  0.41755927  0.61809419  -0.76005979  1
  F  F10  1  0.91755927  -0.11809419  1.26005979  1
  F  F11  1  0.08244073  1.11809419  1.26005979  1
  F  F12  1  0.59628077  0.06240948  0.89631329  1
  F  F13  1  0.40371923  0.93759052  0.89631329  1
  F  F14  1  0.90371923  0.56240948  0.60368671  1
  F  F15  1  0.09628077  0.43759052  0.60368671  1
  F  F16  1  0.40371923  0.93759052  0.10368671  1
  F  F17  1  0.59628077  0.06240948  0.10368671  1
  F  F18  1  0.09628077  0.43759052  0.39631329  1
  F  F19  1  0.90371923  0.56240948  0.39631329  1
  F  F20  1  0.00000000  0.50000000  0.92255518  1
  F  F21  1  0.50000000  0.00000000  0.57744482  1
  F  F22  1  0.00000000  0.50000000  0.07744482  1
  F  F23  1  0.50000000  0.00000000  0.42255518  1
  F  F24  1  0.59896363  0.33668779  0.36107585  1
  F  F25  1  0.40103637  0.66331221  0.36107585  1
  F  F26  1  0.90103637  0.83668779  0.13892415  1
  F  F27  1  0.09896363  0.16331221  0.13892415  1
  F  F28  1  0.40103637  0.66331221  0.63892415  1
  F  F29  1  0.59896363  0.33668779  0.63892415  1
  F  F30  1  0.09896363  0.16331221  0.86107585  1
  F  F31  1  0.90103637  0.83668779  0.86107585  1
  F  F32  1  0.00000000  0.50000000  0.69997167  1
  F  F33  1  0.50000000  0.00000000  0.80002833  1
  F  F34  1  0.00000000  0.50000000  0.30002833  1
  F  F35  1  0.50000000  0.00000000  0.19997167  1
  Li  Li36  1  0.00000000  0.00000000  0.50000000  1
  Li  Li37  1  0.50000000  0.50000000  0.00000000  1
  Li  Li38  1  0.13166871  0.32997465  0.00000000  1
  Li  Li39  1  0.86833129  0.67002535  0.00000000  1
  Li  Li40  1  0.36833129  0.82997465  0.50000000  1
  Li  Li41  1  0.63166871  0.17002535  0.50000000  1
  Li  Li42  1  0.17590554  0.71669571  0.39312210  1
  Li  Li43  1  0.82409446  0.28330429  0.39312210  1
  Li  Li44  1  0.32409446  0.21669571  0.10687790  1
  Li  Li45  1  0.67590554  0.78330429  0.10687790  1
  Li  Li46  1  0.82409446  0.28330429  0.60687790  1
  Li  Li47  1  0.17590554  0.71669571  0.60687790  1
  Li  Li48  1  0.67590554  0.78330429  0.89312210  1
  Li  Li49  1  0.32409446  0.21669571  0.89312210  1
  Li  Li50  1  0.08584082  0.81203320  0.75409755  1
  Li  Li51  1  0.91415918  0.18796680  0.75409755  1
  Li  Li52  1  0.41415918  0.31203320  0.74590245  1
  Li  Li53  1  0.58584082  0.68796680  0.74590245  1
  Li  Li54  1  0.91415918  0.18796680  0.24590245  1
  Li  Li55  1  0.08584082  0.81203320  0.24590245  1
  Li  Li56  1  0.58584082  0.68796680  0.25409755  1
  Li  Li57  1  0.41415918  0.31203320  0.25409755  1
  Li  Li58  1  0.06578587  0.22975155  0.73032077  1
  Li  Li59  1  0.93421413  0.77024845  0.73032077  1
  Li  Li60  1  0.43421413  0.72975155  0.76967923  1
  Li  Li61  1  0.56578587  0.27024845  0.76967923  1
  Li  Li62  1  0.93421413  0.77024845  0.26967923  1
  Li  Li63  1  0.06578587  0.22975155  0.26967923  1
  Li  Li64  1  0.56578587  0.27024845  0.23032077  1
  Li  Li65  1  0.43421413  0.72975155  0.23032077  1
  Li  Li66  1  0.00000000  0.00000000  0.00000000  1
  Li  Li67  1  0.50000000  0.50000000  0.50000000  1
  Li  Li68  1  0.00000000  0.00000000  0.14909262  1
  Li  Li69  1  0.50000000  0.50000000  0.35090738  1
  Li  Li70  1  0.00000000  0.00000000  0.85090738  1
  Li  Li71  1  0.50000000  0.50000000  0.64909262  1
