# generated using pymatgen
data_LiF
_symmetry_space_group_name_H-M   'P 1'
_cell_length_a   14.24084949
_cell_length_b   9.93446422
_cell_length_c   7.98529009
_cell_angle_alpha   90.00000000
_cell_angle_beta   90.00000000
_cell_angle_gamma   90.00000000
_symmetry_Int_Tables_number   1
_chemical_formula_structural   LiF
_chemical_formula_sum   'Li40 F40'
_cell_volume   1129.72058956
_cell_formula_units_Z   40
loop_
 _symmetry_equiv_pos_site_id
 _symmetry_equiv_pos_as_xyz
  1  'x, y, z'
loop_
 _atom_site_type_symbol
 _atom_site_label
 _atom_site_symmetry_multiplicity
 _atom_site_fract_x
 _atom_site_fract_y
 _atom_site_fract_z
 _atom_site_occupancy
  F  F0  1  0.72808928  0.25000000  0.72632931  1
  F  F1  1  0.77191072  0.75000000  0.22632931  1
  F  F2  1  0.27191072  0.75000000  0.27367069  1
  F  F3  1  0.22808928  0.25000000  0.77367069  1
  F  F4  1  0.16593592  0.25000000  0.41176410  1
  F  F5  1  0.33406408  0.75000000  0.91176410  1
  F  F6  1  0.83406408  0.75000000  0.58823590  1
  F  F7  1  0.66593592  0.25000000  0.08823590  1
  F  F8  1  0.84268731  0.60323254  0.48957139  1
  F  F9  1  0.65731269  0.39676746  0.98957139  1
  F  F10  1  0.15731269  0.10323254  0.51042861  1
  F  F11  1  0.34268731  0.89676746  0.01042861  1
  F  F12  1  0.15731269  0.39676746  0.51042861  1
  F  F13  1  0.34268731  0.60323254  0.01042861  1
  F  F14  1  0.84268731  0.89676746  0.48957139  1
  F  F15  1  0.65731269  0.10323254  0.98957139  1
  F  F16  1  0.13262681  0.15885990  0.32366255  1
  F  F17  1  0.36737319  0.84114010  0.82366255  1
  F  F18  1  0.86737319  0.65885990  0.67633745  1
  F  F19  1  0.63262681  0.34114010  0.17633745  1
  F  F20  1  0.86737319  0.84114010  0.67633745  1
  F  F21  1  0.63262681  0.15885990  0.17633745  1
  F  F22  1  0.13262681  0.34114010  0.32366255  1
  F  F23  1  0.36737319  0.65885990  0.82366255  1
  F  F24  1  0.83193933  0.42283690  0.76844368  1
  F  F25  1  0.66806067  0.57716310  0.26844368  1
  F  F26  1  0.16806067  0.92283690  0.23155632  1
  F  F27  1  0.33193933  0.07716310  0.73155632  1
  F  F28  1  0.16806067  0.57716310  0.23155632  1
  F  F29  1  0.33193933  0.42283690  0.73155632  1
  F  F30  1  0.83193933  0.07716310  0.76844368  1
  F  F31  1  0.66806067  0.92283690  0.26844368  1
  F  F32  1  0.50272668  0.61606951  0.41592478  1
  F  F33  1  0.99727332  0.38393049  0.91592478  1
  F  F34  1  0.49727332  0.11606951  0.58407522  1
  F  F35  1  0.00272668  0.88393049  0.08407522  1
  F  F36  1  0.49727332  0.38393049  0.58407522  1
  F  F37  1  0.00272668  0.61606951  0.08407522  1
  F  F38  1  0.50272668  0.88393049  0.41592478  1
  F  F39  1  0.99727332  0.11606951  0.91592478  1
  Li  Li40  1  0.12499961  0.89687479  0.79543526  1
  Li  Li41  1  0.37500039  -0.89687479  1.29543526  1
  Li  Li42  1  -0.12499961  1.39687479  -0.79543526  1
  Li  Li43  1  0.62499961  -0.39687479  -0.29543526  1
  Li  Li44  1  -0.12499961  -0.89687479  -0.79543526  1
  Li  Li45  1  0.62499961  0.89687479  -0.29543526  1
  Li  Li46  1  0.12499961  -0.39687479  0.79543526  1
  Li  Li47  1  0.37500039  1.39687479  1.29543526  1
  Li  Li48  1  0.00000000  0.00000000  0.50000000  1
  Li  Li49  1  0.50000000  0.00000000  0.00000000  1
  Li  Li50  1  0.00000000  0.50000000  0.50000000  1
  Li  Li51  1  0.50000000  0.50000000  0.00000000  1
  Li  Li52  1  0.51102089  0.25000000  0.60957615  1
  Li  Li53  1  0.98897911  0.75000000  0.10957615  1
  Li  Li54  1  0.48897911  0.75000000  0.39042385  1
  Li  Li55  1  0.01102089  0.25000000  0.89042385  1
  Li  Li56  1  0.23036701  0.25000000  0.03008759  1
  Li  Li57  1  0.26963299  0.75000000  0.53008759  1
  Li  Li58  1  0.76963299  0.75000000  0.96991241  1
  Li  Li59  1  0.73036701  0.25000000  0.46991241  1
  Li  Li60  1  0.58781031  0.25000000  0.29514452  1
  Li  Li61  1  0.91218969  0.75000000  0.79514452  1
  Li  Li62  1  0.41218969  0.75000000  0.70485548  1
  Li  Li63  1  0.08781031  0.25000000  0.20485548  1
  Li  Li64  1  0.08781252  0.40252519  0.28155009  1
  Li  Li65  1  0.41218748  0.59747481  0.78155009  1
  Li  Li66  1  0.91218748  0.90252519  0.71844991  1
  Li  Li67  1  0.58781252  0.09747481  0.21844991  1
  Li  Li68  1  0.91218748  0.59747481  0.71844991  1
  Li  Li69  1  0.58781252  0.40252519  0.21844991  1
  Li  Li70  1  0.08781252  0.09747481  0.28155009  1
  Li  Li71  1  0.41218748  0.90252519  0.78155009  1
  Li  Li72  1  0.01476986  0.85928581  0.41504318  1
  Li  Li73  1  0.48523014  0.14071419  0.91504318  1
  Li  Li74  1  0.98523014  0.35928581  0.58495682  1
  Li  Li75  1  0.51476986  0.64071419  0.08495682  1
  Li  Li76  1  0.98523014  0.14071419  0.58495682  1
  Li  Li77  1  0.51476986  0.85928581  0.08495682  1
  Li  Li78  1  0.01476986  0.64071419  0.41504318  1
  Li  Li79  1  0.48523014  0.35928581  0.91504318  1
