# generated using pymatgen
data_LiF
_symmetry_space_group_name_H-M   'P 1'
_cell_length_a   8.65020001
_cell_length_b   11.84609507
_cell_length_c   2.65269977
_cell_angle_alpha   90.00000000
_cell_angle_beta   90.00000000
_cell_angle_gamma   90.00000000
_symmetry_Int_Tables_number   1
_chemical_formula_structural   LiF
_chemical_formula_sum   'Li20 F20'
_cell_volume   271.82504166
_cell_formula_units_Z   20
loop_
 _symmetry_equiv_pos_site_id
 _symmetry_equiv_pos_as_xyz
  1  'x, y, z'
loop_
 _atom_site_type_symbol
 _atom_site_label
 _atom_site_symmetry_multiplicity
 _atom_site_fract_x
 _atom_site_fract_y
 _atom_site_fract_z
 _atom_site_occupancy
  F  F0  1  0.66457789  0.25000000  0.05615145  1
  F  F1  1  0.83542211  0.75000000  0.55615145  1
  F  F2  1  0.33542211  0.75000000  0.94384855  1
  F  F3  1  0.16457789  0.25000000  0.44384855  1
  F  F4  1  0.98942293  0.25000000  0.23336649  1
  F  F5  1  0.51057707  0.75000000  0.73336649  1
  F  F6  1  0.01057707  0.75000000  0.76663351  1
  F  F7  1  0.48942293  0.25000000  0.26663351  1
  F  F8  1  0.47072120  0.89121081  0.72011915  1
  F  F9  1  0.02927880  0.10878919  0.22011915  1
  F  F10  1  0.52927880  0.39121081  0.27988085  1
  F  F11  1  0.97072120  0.60878919  0.77988085  1
  F  F12  1  0.52927880  0.10878919  0.27988085  1
  F  F13  1  0.97072120  0.89121081  0.77988085  1
  F  F14  1  0.47072120  0.60878919  0.72011915  1
  F  F15  1  0.02927880  0.39121081  0.22011915  1
  F  F16  1  0.28903821  0.25000000  0.15011491  1
  F  F17  1  0.21096179  0.75000000  0.65011491  1
  F  F18  1  0.71096179  0.75000000  0.84988509  1
  F  F19  1  0.78903821  0.25000000  0.34988509  1
  Li  Li20  1  0.26036876  0.25000000  0.61855231  1
  Li  Li21  1  0.23963124  0.75000000  0.11855231  1
  Li  Li22  1  0.73963124  0.75000000  0.38144769  1
  Li  Li23  1  0.76036876  0.25000000  0.88144769  1
  Li  Li24  1  0.76771627  0.48762934  0.95580770  1
  Li  Li25  1  -0.26771627  -0.48762934  1.45580770  1
  Li  Li26  1  -0.76771627  0.98762934  -0.95580770  1
  Li  Li27  1  1.26771627  0.01237066  -0.45580770  1
  Li  Li28  1  -0.76771627  -0.48762934  -0.95580770  1
  Li  Li29  1  1.26771627  0.48762934  -0.45580770  1
  Li  Li30  1  0.76771627  0.01237066  0.95580770  1
  Li  Li31  1  -0.26771627  0.98762934  1.45580770  1
  Li  Li32  1  0.00000000  0.00000000  0.00000000  1
  Li  Li33  1  0.50000000  0.00000000  0.50000000  1
  Li  Li34  1  0.00000000  0.50000000  0.00000000  1
  Li  Li35  1  0.50000000  0.50000000  0.50000000  1
  Li  Li36  1  0.00000000  0.00000000  0.50000000  1
  Li  Li37  1  0.50000000  0.00000000  0.00000000  1
  Li  Li38  1  0.00000000  0.50000000  0.50000000  1
  Li  Li39  1  0.50000000  0.50000000  0.00000000  1
