# generated using pymatgen
data_LiF
_symmetry_space_group_name_H-M   'P 1'
_cell_length_a   11.74131095
_cell_length_b   10.26977378
_cell_length_c   13.78524727
_cell_angle_alpha   90.00000000
_cell_angle_beta   90.00000000
_cell_angle_gamma   90.00000000
_symmetry_Int_Tables_number   1
_chemical_formula_structural   LiF
_chemical_formula_sum   'Li48 F48'
_cell_volume   1662.23348834
_cell_formula_units_Z   48
loop_
 _symmetry_equiv_pos_site_id
 _symmetry_equiv_pos_as_xyz
  1  'x, y, z'
loop_
 _atom_site_type_symbol
 _atom_site_label
 _atom_site_symmetry_multiplicity
 _atom_site_fract_x
 _atom_site_fract_y
 _atom_site_fract_z
 _atom_site_occupancy
  F  F0  1  0.56679318  0.75562698  0.50000000  1
  F  F1  1  0.43320682  0.24437302  0.50000000  1
  F  F2  1  0.93320682  0.25562698  0.50000000  1
  F  F3  1  0.06679318  0.74437302  0.50000000  1
  F  F4  1  0.00000000  0.00000000  0.00000000  1
  F  F5  1  0.50000000  0.50000000  0.00000000  1
  F  F6  1  0.31544699  0.03981140  0.31673745  1
  F  F7  1  -0.31544699  -0.03981140  0.31673745  1
  F  F8  1  0.18455301  0.53981140  -0.31673745  1
  F  F9  1  0.81544699  0.46018860  -0.31673745  1
  F  F10  1  -0.31544699  -0.03981140  -0.31673745  1
  F  F11  1  0.31544699  0.03981140  -0.31673745  1
  F  F12  1  0.81544699  0.46018860  0.31673745  1
  F  F13  1  0.18455301  0.53981140  0.31673745  1
  F  F14  1  0.50208389  0.20695650  0.72751070  1
  F  F15  1  0.49791611  0.79304350  0.72751070  1
  F  F16  1  0.99791611  0.70695650  0.27248930  1
  F  F17  1  0.00208389  0.29304350  0.27248930  1
  F  F18  1  0.49791611  0.79304350  0.27248930  1
  F  F19  1  0.50208389  0.20695650  0.27248930  1
  F  F20  1  0.00208389  0.29304350  0.72751070  1
  F  F21  1  0.99791611  0.70695650  0.72751070  1
  F  F22  1  0.00000000  0.50000000  0.00000000  1
  F  F23  1  0.50000000  0.00000000  0.00000000  1
  F  F24  1  0.03462077  0.20245096  0.00000000  1
  F  F25  1  0.96537923  0.79754904  0.00000000  1
  F  F26  1  0.46537923  0.70245096  0.00000000  1
  F  F27  1  0.53462077  0.29754904  0.00000000  1
  F  F28  1  0.37758805  0.62484840  0.17188751  1
  F  F29  1  0.62241195  0.37515160  0.17188751  1
  F  F30  1  0.12241195  0.12484840  0.82811249  1
  F  F31  1  0.87758805  0.87515160  0.82811249  1
  F  F32  1  0.62241195  0.37515160  0.82811249  1
  F  F33  1  0.37758805  0.62484840  0.82811249  1
  F  F34  1  0.87758805  0.87515160  0.17188751  1
  F  F35  1  0.12241195  0.12484840  0.17188751  1
  F  F36  1  0.88682455  0.74506725  0.95691354  1
  F  F37  1  0.11317545  0.25493275  0.95691354  1
  F  F38  1  0.61317545  0.24506725  0.04308646  1
  F  F39  1  0.38682455  0.75493275  0.04308646  1
  F  F40  1  0.11317545  0.25493275  0.04308646  1
  F  F41  1  0.88682455  0.74506725  0.04308646  1
  F  F42  1  0.38682455  0.75493275  0.95691354  1
  F  F43  1  0.61317545  0.24506725  0.95691354  1
  F  F44  1  0.00000000  0.50000000  0.60530743  1
  F  F45  1  0.50000000  0.00000000  0.39469257  1
  F  F46  1  0.00000000  0.50000000  0.39469257  1
  F  F47  1  0.50000000  0.00000000  0.60530743  1
  Li  Li48  1  0.98406814  0.62823708  0.60695836  1
  Li  Li49  1  0.01593186  0.37176292  0.60695836  1
  Li  Li50  1  0.51593186  0.12823708  0.39304164  1
  Li  Li51  1  0.48406814  0.87176292  0.39304164  1
  Li  Li52  1  0.01593186  0.37176292  0.39304164  1
  Li  Li53  1  0.98406814  0.62823708  0.39304164  1
  Li  Li54  1  0.48406814  0.87176292  0.60695836  1
  Li  Li55  1  0.51593186  0.12823708  0.60695836  1
  Li  Li56  1  0.83015721  0.23687647  0.64955017  1
  Li  Li57  1  0.16984279  0.76312353  0.64955017  1
  Li  Li58  1  0.66984279  0.73687647  0.35044983  1
  Li  Li59  1  0.33015721  0.26312353  0.35044983  1
  Li  Li60  1  0.16984279  0.76312353  0.35044983  1
  Li  Li61  1  0.83015721  0.23687647  0.35044983  1
  Li  Li62  1  0.33015721  0.26312353  0.64955017  1
  Li  Li63  1  0.66984279  0.73687647  0.64955017  1
  Li  Li64  1  0.09478649  0.81512857  0.77417113  1
  Li  Li65  1  0.90521351  0.18487143  0.77417113  1
  Li  Li66  1  0.40521351  0.31512857  0.22582887  1
  Li  Li67  1  0.59478649  0.68487143  0.22582887  1
  Li  Li68  1  0.90521351  0.18487143  0.22582887  1
  Li  Li69  1  0.09478649  0.81512857  0.22582887  1
  Li  Li70  1  0.59478649  0.68487143  0.77417113  1
  Li  Li71  1  0.40521351  0.31512857  0.77417113  1
  Li  Li72  1  0.93795273  0.33007606  0.00000000  1
  Li  Li73  1  0.06204727  0.66992394  0.00000000  1
  Li  Li74  1  0.56204727  0.83007606  0.00000000  1
  Li  Li75  1  0.43795273  0.16992394  0.00000000  1
  Li  Li76  1  0.07116354  0.00266006  0.50000000  1
  Li  Li77  1  0.92883646  0.99733994  0.50000000  1
  Li  Li78  1  0.42883646  0.50266006  0.50000000  1
  Li  Li79  1  0.57116354  0.49733994  0.50000000  1
  Li  Li80  1  0.90153903  0.98718318  0.67027138  1
  Li  Li81  1  0.09846097  0.01281682  0.67027138  1
  Li  Li82  1  0.59846097  0.48718318  0.32972862  1
  Li  Li83  1  0.40153903  0.51281682  0.32972862  1
  Li  Li84  1  0.09846097  0.01281682  0.32972862  1
  Li  Li85  1  0.90153903  0.98718318  0.32972862  1
  Li  Li86  1  0.40153903  0.51281682  0.67027138  1
  Li  Li87  1  0.59846097  0.48718318  0.67027138  1
  Li  Li88  1  0.62060417  0.55719806  0.00000000  1
  Li  Li89  1  0.37939583  0.44280194  0.00000000  1
  Li  Li90  1  0.87939583  0.05719806  0.00000000  1
  Li  Li91  1  0.12060417  0.94280194  -0.00000000  1
  Li  Li92  1  0.04953741  0.63685894  0.50000000  1
  Li  Li93  1  0.95046259  0.36314106  0.50000000  1
  Li  Li94  1  0.45046259  0.13685894  0.50000000  1
  Li  Li95  1  0.54953741  0.86314106  0.50000000  1
