# generated using pymatgen
data_LiCu3P2Pb2Se
_symmetry_space_group_name_H-M   'P 1'
_cell_length_a   5.44981609
_cell_length_b   5.45033333
_cell_length_c   6.92754825
_cell_angle_alpha   94.97556662
_cell_angle_beta   98.12838347
_cell_angle_gamma   102.72240609
_symmetry_Int_Tables_number   1
_chemical_formula_structural   LiCu3P2Pb2Se
_chemical_formula_sum   'Li1 Cu3 P2 Pb2 Se1'
_cell_volume   197.21686432
_cell_formula_units_Z   1
loop_
 _symmetry_equiv_pos_site_id
 _symmetry_equiv_pos_as_xyz
  1  'x, y, z'
loop_
 _atom_site_type_symbol
 _atom_site_label
 _atom_site_symmetry_multiplicity
 _atom_site_fract_x
 _atom_site_fract_y
 _atom_site_fract_z
 _atom_site_occupancy
  Se  Se0  1  0.12500000  0.00000000  0.25000000  1
  Pb  Pb1  1  0.00000000  0.00000000  0.00000000  1
  Pb  Pb2  1  0.37500000  0.00000000  0.25000000  1
  Cu  Cu3  1  0.25000000  0.25000000  0.25000000  1
  Cu  Cu4  1  0.00000000  0.25000000  0.12500000  1
  Cu  Cu5  1  0.19791483  0.97739806  0.79180321  1
  P  P6  1  0.18036458  0.04177326  0.15474667  1
  P  P7  1  0.37914756  0.31005776  0.59556443  1
  Li  Li8  1  0.52292042  0.26783302  0.40141657  1
