# generated using pymatgen
data_LiY2Te4P2Se
_symmetry_space_group_name_H-M   'P 1'
_cell_length_a   4.95245802
_cell_length_b   5.13572604
_cell_length_c   6.72272629
_cell_angle_alpha   94.49577540
_cell_angle_beta   98.19450978
_cell_angle_gamma   105.55423681
_symmetry_Int_Tables_number   1
_chemical_formula_structural   LiY2Te4P2Se
_chemical_formula_sum   'Li1 Y2 Te4 P2 Se1'
_cell_volume   161.82126600
_cell_formula_units_Z   1
loop_
 _symmetry_equiv_pos_site_id
 _symmetry_equiv_pos_as_xyz
  1  'x, y, z'
loop_
 _atom_site_type_symbol
 _atom_site_label
 _atom_site_symmetry_multiplicity
 _atom_site_fract_x
 _atom_site_fract_y
 _atom_site_fract_z
 _atom_site_occupancy
  Se  Se0  1  0.00000000  0.00000000  0.00000000  1
  Te  Te1  1  0.50000000  0.50000000  0.50000000  1
  Te  Te2  1  0.50000000  0.50000000  0.00000000  1
  Te  Te3  1  0.50000000  0.00000000  0.50000000  1
  Te  Te4  1  0.00000000  0.50000000  0.50000000  1
  Y  Y5  1  0.46187116  0.73750798  0.35860005  1
  Y  Y6  1  0.40600023  0.16070795  0.24619377  1
  P  P7  1  0.32374291  0.82289853  0.60431702  1
  P  P8  1  0.08448567  0.49325367  0.62327945  1
  Li  Li9  1  0.99894640  0.53581607  0.40813013  1
