# generated using pymatgen
data_Li2TiIClF
_symmetry_space_group_name_H-M   'P 1'
_cell_length_a   3.62699628
_cell_length_b   3.13233955
_cell_length_c   5.22378234
_cell_angle_alpha   100.47483277
_cell_angle_beta   105.97531734
_cell_angle_gamma   99.64453731
_symmetry_Int_Tables_number   1
_chemical_formula_structural   Li2TiIClF
_chemical_formula_sum   'Li2 Ti1 I1 Cl1 F1'
_cell_volume   54.59842044
_cell_formula_units_Z   1
loop_
 _symmetry_equiv_pos_site_id
 _symmetry_equiv_pos_as_xyz
  1  'x, y, z'
loop_
 _atom_site_type_symbol
 _atom_site_label
 _atom_site_symmetry_multiplicity
 _atom_site_fract_x
 _atom_site_fract_y
 _atom_site_fract_z
 _atom_site_occupancy
  F  F0  1  0.00000000  0.00000000  0.00000000  1
  Ti  Ti1  1  0.50000000  0.50000000  0.50000000  1
  I  I2  1  0.50000000  0.50000000  0.00000000  1
  Cl  Cl3  1  0.50000000  0.00000000  0.50000000  1
  Li  Li4  1  0.00000000  0.50000000  0.50000000  1
  Li  Li5  1  0.69475697  0.19764266  0.87778420  1
