# generated using pymatgen
data_Li2Y2Cu3P2Se
_symmetry_space_group_name_H-M   'P 1'
_cell_length_a   4.77209576
_cell_length_b   5.01066189
_cell_length_c   6.74342680
_cell_angle_alpha   95.07649805
_cell_angle_beta   100.05218681
_cell_angle_gamma   107.97503505
_symmetry_Int_Tables_number   1
_chemical_formula_structural   Li2Y2Cu3P2Se
_chemical_formula_sum   'Li2 Y2 Cu3 P2 Se1'
_cell_volume   149.26539343
_cell_formula_units_Z   1
loop_
 _symmetry_equiv_pos_site_id
 _symmetry_equiv_pos_as_xyz
  1  'x, y, z'
loop_
 _atom_site_type_symbol
 _atom_site_label
 _atom_site_symmetry_multiplicity
 _atom_site_fract_x
 _atom_site_fract_y
 _atom_site_fract_z
 _atom_site_occupancy
  Se  Se0  1  0.00000000  0.00000000  0.00000000  1
  Cu  Cu1  1  0.50000000  0.50000000  0.50000000  1
  Cu  Cu2  1  0.50000000  0.50000000  0.00000000  1
  Cu  Cu3  1  0.50000000  0.00000000  0.50000000  1
  Y  Y4  1  0.00000000  0.50000000  0.50000000  1
  Y  Y5  1  0.91954491  0.22563507  0.99792928  1
  P  P6  1  0.76933830  0.97549196  0.54524711  1
  P  P7  1  0.45690675  0.36925671  0.96158979  1
  Li  Li8  1  0.51385663  0.16849409  0.38477498  1
  Li  Li9  1  0.67114152  0.29552508  0.48254579  1
