# generated using pymatgen
data_LiF
_symmetry_space_group_name_H-M   'P 1'
_cell_length_a   11.55838762
_cell_length_b   11.55838762
_cell_length_c   8.00337421
_cell_angle_alpha   90.00000000
_cell_angle_beta   90.00000000
_cell_angle_gamma   120.00000000
_symmetry_Int_Tables_number   1
_chemical_formula_structural   LiF
_chemical_formula_sum   'Li36 F36'
_cell_volume   925.97287532
_cell_formula_units_Z   36
loop_
 _symmetry_equiv_pos_site_id
 _symmetry_equiv_pos_as_xyz
  1  'x, y, z'
loop_
 _atom_site_type_symbol
 _atom_site_label
 _atom_site_symmetry_multiplicity
 _atom_site_fract_x
 _atom_site_fract_y
 _atom_site_fract_z
 _atom_site_occupancy
  F  F0  1  0.08179067  0.01286214  0.04970263  1
  F  F1  1  -0.01286214  0.06892853  0.04970263  1
  F  F2  1  -0.06892853  -0.08179067  0.04970263  1
  F  F3  1  0.01286214  0.08179067  -0.04970263  1
  F  F4  1  0.06892853  -0.01286214  -0.04970263  1
  F  F5  1  -0.08179067  -0.06892853  -0.04970263  1
  F  F6  1  -0.08179067  -0.01286214  -0.04970263  1
  F  F7  1  0.01286214  -0.06892853  -0.04970263  1
  F  F8  1  0.06892853  0.08179067  -0.04970263  1
  F  F9  1  -0.01286214  -0.08179067  0.04970263  1
  F  F10  1  -0.06892853  0.01286214  0.04970263  1
  F  F11  1  0.08179067  0.06892853  0.04970263  1
  F  F12  1  0.74845734  0.34619548  0.38303597  1
  F  F13  1  0.65380452  0.40226186  0.38303597  1
  F  F14  1  0.59773814  0.25154266  0.38303597  1
  F  F15  1  0.67952881  0.41512400  0.28363070  1
  F  F16  1  0.73559519  0.32047119  0.28363070  1
  F  F17  1  0.58487600  0.26440481  0.28363070  1
  F  F18  1  0.58487600  0.32047119  0.28363070  1
  F  F19  1  0.67952881  0.26440481  0.28363070  1
  F  F20  1  0.73559519  0.41512400  0.28363070  1
  F  F21  1  0.65380452  0.25154266  0.38303597  1
  F  F22  1  0.59773814  0.34619548  0.38303597  1
  F  F23  1  0.74845734  0.40226186  0.38303597  1
  F  F24  1  0.41512400  0.67952881  0.71636930  1
  F  F25  1  0.32047119  0.73559519  0.71636930  1
  F  F26  1  0.26440481  0.58487600  0.71636930  1
  F  F27  1  0.34619548  0.74845734  0.61696403  1
  F  F28  1  0.40226186  0.65380452  0.61696403  1
  F  F29  1  0.25154266  0.59773814  0.61696403  1
  F  F30  1  0.25154266  0.65380452  0.61696403  1
  F  F31  1  0.34619548  0.59773814  0.61696403  1
  F  F32  1  0.40226186  0.74845734  0.61696403  1
  F  F33  1  0.32047119  0.58487600  0.71636930  1
  F  F34  1  0.26440481  0.67952881  0.71636930  1
  F  F35  1  0.41512400  0.73559519  0.71636930  1
  Li  Li36  1  0.00000000  0.00000000  0.50000000  1
  Li  Li37  1  0.66666667  0.33333333  0.83333333  1
  Li  Li38  1  0.33333333  0.66666667  0.16666667  1
  Li  Li39  1  0.83477541  0.16522459  0.08258459  1
  Li  Li40  1  0.83477541  0.66955083  0.08258459  1
  Li  Li41  1  0.33044917  0.16522459  0.08258459  1
  Li  Li42  1  0.16522459  0.83477541  0.91741541  1
  Li  Li43  1  0.66955083  0.83477541  0.91741541  1
  Li  Li44  1  0.16522459  0.33044917  0.91741541  1
  Li  Li45  1  0.50144208  0.49855792  0.41591793  1
  Li  Li46  1  0.50144208  0.00288416  0.41591793  1
  Li  Li47  1  0.99711584  0.49855792  0.41591793  1
  Li  Li48  1  0.83189125  0.16810875  0.25074874  1
  Li  Li49  1  0.33621749  0.16810875  0.25074874  1
  Li  Li50  1  0.83189125  0.66378251  0.25074874  1
  Li  Li51  1  0.16810875  0.83189125  0.74925126  1
  Li  Li52  1  0.16810875  0.33621749  0.74925126  1
  Li  Li53  1  0.66378251  0.83189125  0.74925126  1
  Li  Li54  1  0.49855792  0.50144208  0.58408207  1
  Li  Li55  1  0.00288416  0.50144208  0.58408207  1
  Li  Li56  1  0.49855792  0.99711584  0.58408207  1
  Li  Li57  1  0.50000000  0.00000000  0.00000000  1
  Li  Li58  1  0.00000000  0.50000000  0.00000000  1
  Li  Li59  1  0.50000000  0.50000000  0.00000000  1
  Li  Li60  1  0.16666667  0.33333333  0.33333333  1
  Li  Li61  1  0.66666667  0.83333333  0.33333333  1
  Li  Li62  1  0.16666667  0.83333333  0.33333333  1
  Li  Li63  1  0.83333333  0.66666667  0.66666667  1
  Li  Li64  1  0.33333333  0.16666667  0.66666667  1
  Li  Li65  1  0.83333333  0.16666667  0.66666667  1
  Li  Li66  1  0.00000000  0.00000000  0.70142795  1
  Li  Li67  1  0.00000000  0.00000000  0.29857205  1
  Li  Li68  1  0.66666667  0.33333333  0.03476128  1
  Li  Li69  1  0.66666667  0.33333333  0.63190538  1
  Li  Li70  1  0.33333333  0.66666667  0.36809462  1
  Li  Li71  1  0.33333333  0.66666667  0.96523872  1
