# generated using pymatgen
data_LiF
_symmetry_space_group_name_H-M   'P 1'
_cell_length_a   11.88871033
_cell_length_b   11.88871033
_cell_length_c   8.54180234
_cell_angle_alpha   90.00000000
_cell_angle_beta   90.00000000
_cell_angle_gamma   120.00000000
_symmetry_Int_Tables_number   1
_chemical_formula_structural   LiF
_chemical_formula_sum   'Li58 F58'
_cell_volume   1045.56163840
_cell_formula_units_Z   58
loop_
 _symmetry_equiv_pos_site_id
 _symmetry_equiv_pos_as_xyz
  1  'x, y, z'
loop_
 _atom_site_type_symbol
 _atom_site_label
 _atom_site_symmetry_multiplicity
 _atom_site_fract_x
 _atom_site_fract_y
 _atom_site_fract_z
 _atom_site_occupancy
  F  F0  1  0.90789564  0.24214755  0.87848229  1
  F  F1  1  0.75785245  0.66574809  0.87848229  1
  F  F2  1  0.33425191  0.09210436  0.87848229  1
  F  F3  1  0.75785245  0.09210436  0.12151771  1
  F  F4  1  0.33425191  0.24214755  0.12151771  1
  F  F5  1  0.90789564  0.66574809  0.12151771  1
  F  F6  1  0.76856360  0.23143640  0.50000000  1
  F  F7  1  0.76856360  0.53712721  0.50000000  1
  F  F8  1  0.46287279  0.23143640  0.50000000  1
  F  F9  1  0.52576874  0.47405924  0.80342849  1
  F  F10  1  0.52594076  0.05170951  0.80342849  1
  F  F11  1  0.94829049  0.47423126  0.80342849  1
  F  F12  1  0.52594076  0.47423126  0.19657151  1
  F  F13  1  0.94829049  0.47405924  0.19657151  1
  F  F14  1  0.52576874  0.05170951  0.19657151  1
  F  F15  1  0.54501709  0.46510314  0.90728444  1
  F  F16  1  0.53489686  0.07991395  0.90728444  1
  F  F17  1  0.92008605  0.45498291  0.90728444  1
  F  F18  1  0.53489686  0.45498291  0.09271556  1
  F  F19  1  0.92008605  0.46510314  0.09271556  1
  F  F20  1  0.54501709  0.07991395  0.09271556  1
  F  F21  1  0.51729481  0.51948175  0.44674093  1
  F  F22  1  0.48051825  0.99781306  0.44674093  1
  F  F23  1  0.00218694  0.48270519  0.44674093  1
  F  F24  1  0.48051825  0.48270519  0.55325907  1
  F  F25  1  0.00218694  0.51948175  0.55325907  1
  F  F26  1  0.51729481  0.99781306  0.55325907  1
  F  F27  1  0.84053160  0.80044588  0.54918371  1
  F  F28  1  0.19955412  0.04008572  0.54918371  1
  F  F29  1  0.95991428  0.15946840  0.54918371  1
  F  F30  1  0.19955412  0.15946840  0.45081629  1
  F  F31  1  0.95991428  0.80044588  0.45081629  1
  F  F32  1  0.84053160  0.04008572  0.45081629  1
  F  F33  1  0.33818023  0.19794291  0.31907688  1
  F  F34  1  0.80205709  0.14023731  0.31907688  1
  F  F35  1  0.85976269  0.66181977  0.31907688  1
  F  F36  1  0.80205709  0.66181977  0.68092312  1
  F  F37  1  0.85976269  0.19794291  0.68092312  1
  F  F38  1  0.33818023  0.14023731  0.68092312  1
  F  F39  1  0.19620180  0.88469507  0.21833693  1
  F  F40  1  0.11530493  0.31150673  0.21833693  1
  F  F41  1  0.68849327  0.80379820  0.21833693  1
  F  F42  1  0.11530493  0.80379820  0.78166307  1
  F  F43  1  0.68849327  0.88469507  0.78166307  1
  F  F44  1  0.19620180  0.31150673  0.78166307  1
  F  F45  1  0.63545121  0.55104791  0.02555729  1
  F  F46  1  0.44895209  0.08440330  0.02555729  1
  F  F47  1  0.91559670  0.36454879  0.02555729  1
  F  F48  1  0.44895209  0.36454879  0.97444271  1
  F  F49  1  0.91559670  0.55104791  0.97444271  1
  F  F50  1  0.63545121  0.08440330  0.97444271  1
  F  F51  1  0.90134130  0.54530365  0.73049605  1
  F  F52  1  0.45469635  0.35603765  0.73049605  1
  F  F53  1  0.64396235  0.09865870  0.73049605  1
  F  F54  1  0.45469635  0.09865870  0.26950395  1
  F  F55  1  0.64396235  0.54530365  0.26950395  1
  F  F56  1  0.90134130  0.35603765  0.26950395  1
  F  F57  1  0.66666667  0.33333333  0.50000000  1
  Li  Li58  1  0.71720080  0.28279920  0.50000000  1
  Li  Li59  1  0.71720080  0.43440161  0.50000000  1
  Li  Li60  1  0.56559839  0.28279920  0.50000000  1
  Li  Li61  1  0.00000000  0.00000000  0.00000000  1
  Li  Li62  1  0.33333333  0.66666667  0.11686400  1
  Li  Li63  1  0.33333333  0.66666667  0.88313600  1
  Li  Li64  1  0.33333333  0.66666667  0.50000000  1
  Li  Li65  1  0.03288265  0.59858883  0.38953388  1
  Li  Li66  1  -0.59858883  -0.56570618  0.38953388  1
  Li  Li67  1  0.56570618  -0.03288265  0.38953388  1
  Li  Li68  1  -0.59858883  -0.03288265  -0.38953388  1
  Li  Li69  1  0.56570618  0.59858883  -0.38953388  1
  Li  Li70  1  0.03288265  -0.56570618  -0.38953388  1
  Li  Li71  1  0.66666667  0.33333333  0.72267922  1
  Li  Li72  1  0.66666667  0.33333333  0.27732078  1
  Li  Li73  1  0.95329929  0.86436598  0.72406508  1
  Li  Li74  1  0.13563402  0.08893331  0.72406508  1
  Li  Li75  1  0.91106669  0.04670071  0.72406508  1
  Li  Li76  1  0.13563402  0.04670071  0.27593492  1
  Li  Li77  1  0.91106669  0.86436598  0.27593492  1
  Li  Li78  1  0.95329929  0.08893331  0.27593492  1
  Li  Li79  1  0.98837760  0.60633291  0.91023588  1
  Li  Li80  1  0.39366709  0.38204469  0.91023588  1
  Li  Li81  1  0.61795531  0.01162240  0.91023588  1
  Li  Li82  1  0.39366709  0.01162240  0.08976412  1
  Li  Li83  1  0.61795531  0.60633291  0.08976412  1
  Li  Li84  1  0.98837760  0.38204469  0.08976412  1
  Li  Li85  1  0.76192754  0.58453278  0.79442088  1
  Li  Li86  1  0.41546722  0.17739476  0.79442088  1
  Li  Li87  1  0.82260524  0.23807246  0.79442088  1
  Li  Li88  1  0.41546722  0.23807246  0.20557912  1
  Li  Li89  1  0.82260524  0.58453278  0.20557912  1
  Li  Li90  1  0.76192754  0.17739476  0.20557912  1
  Li  Li91  1  0.33327188  0.28899371  0.22078642  1
  Li  Li92  1  0.71100629  0.04427816  0.22078642  1
  Li  Li93  1  0.95572184  0.66672812  0.22078642  1
  Li  Li94  1  0.71100629  0.66672812  0.77921358  1
  Li  Li95  1  0.95572184  0.28899371  0.77921358  1
  Li  Li96  1  0.33327188  0.04427816  0.77921358  1
  Li  Li97  1  0.48967681  0.68639799  0.45118803  1
  Li  Li98  1  0.31360201  0.80327882  0.45118803  1
  Li  Li99  1  0.19672118  0.51032319  0.45118803  1
  Li  Li100  1  0.31360201  0.51032319  0.54881197  1
  Li  Li101  1  0.19672118  0.68639799  0.54881197  1
  Li  Li102  1  0.48967681  0.80327882  0.54881197  1
  Li  Li103  1  0.88231598  0.57419391  0.42711201  1
  Li  Li104  1  0.42580609  0.30812207  0.42711201  1
  Li  Li105  1  0.69187793  0.11768402  0.42711201  1
  Li  Li106  1  0.42580609  0.11768402  0.57288799  1
  Li  Li107  1  0.69187793  0.57419391  0.57288799  1
  Li  Li108  1  0.88231598  0.30812207  0.57288799  1
  Li  Li109  1  0.08548961  0.87502283  0.38470234  1
  Li  Li110  1  0.12497717  0.21046679  0.38470234  1
  Li  Li111  1  0.78953321  0.91451039  0.38470234  1
  Li  Li112  1  0.12497717  0.91451039  0.61529766  1
  Li  Li113  1  0.78953321  0.87502283  0.61529766  1
  Li  Li114  1  0.08548961  0.21046679  0.61529766  1
  Li  Li115  1  0.66666667  0.33333333  -0.00000000  1
