# generated using pymatgen
data_LiF
_symmetry_space_group_name_H-M   'P 1'
_cell_length_a   3.27882493
_cell_length_b   5.98053026
_cell_length_c   12.95993116
_cell_angle_alpha   90.00000000
_cell_angle_beta   90.00000000
_cell_angle_gamma   90.00000000
_symmetry_Int_Tables_number   1
_chemical_formula_structural   LiF
_chemical_formula_sum   'Li14 F14'
_cell_volume   254.13273762
_cell_formula_units_Z   14
loop_
 _symmetry_equiv_pos_site_id
 _symmetry_equiv_pos_as_xyz
  1  'x, y, z'
loop_
 _atom_site_type_symbol
 _atom_site_label
 _atom_site_symmetry_multiplicity
 _atom_site_fract_x
 _atom_site_fract_y
 _atom_site_fract_z
 _atom_site_occupancy
  F  F0  1  0.50864244  0.55737698  0.69203381  1
  F  F1  1  -0.50864244  -0.55737698  0.69203381  1
  F  F2  1  -0.00864244  1.05737698  -0.19203381  1
  F  F3  1  1.00864244  -0.05737698  -0.19203381  1
  F  F4  1  -0.50864244  -0.55737698  -0.69203381  1
  F  F5  1  0.50864244  0.55737698  -0.69203381  1
  F  F6  1  1.00864244  -0.05737698  1.19203381  1
  F  F7  1  -0.00864244  1.05737698  1.19203381  1
  F  F8  1  0.00000000  0.00000000  0.28295688  1
  F  F9  1  0.50000000  0.50000000  0.21704312  1
  F  F10  1  0.00000000  0.00000000  0.71704312  1
  F  F11  1  0.50000000  0.50000000  0.78295688  1
  F  F12  1  0.00000000  0.00000000  0.00000000  1
  F  F13  1  0.50000000  0.50000000  0.50000000  1
  Li  Li14  1  0.74184143  0.42822017  0.80303025  1
  Li  Li15  1  0.25815857  0.57177983  0.80303025  1
  Li  Li16  1  0.75815857  0.92822017  0.69696975  1
  Li  Li17  1  0.24184143  0.07177983  0.69696975  1
  Li  Li18  1  0.25815857  0.57177983  0.19696975  1
  Li  Li19  1  0.74184143  0.42822017  0.19696975  1
  Li  Li20  1  0.24184143  0.07177983  0.30303025  1
  Li  Li21  1  0.75815857  0.92822017  0.30303025  1
  Li  Li22  1  0.64978500  0.57015847  0.00000000  1
  Li  Li23  1  0.35021500  0.42984153  -0.00000000  1
  Li  Li24  1  0.85021500  0.07015847  0.50000000  1
  Li  Li25  1  0.14978500  0.92984153  0.50000000  1
  Li  Li26  1  0.00000000  0.50000000  0.50000000  1
  Li  Li27  1  0.50000000  0.00000000  0.00000000  1
