# generated using pymatgen
data_LiF
_symmetry_space_group_name_H-M   'P 1'
_cell_length_a   5.07423193
_cell_length_b   6.74748453
_cell_length_c   9.39993693
_cell_angle_alpha   90.00000000
_cell_angle_beta   90.00000000
_cell_angle_gamma   90.00000000
_symmetry_Int_Tables_number   1
_chemical_formula_structural   LiF
_chemical_formula_sum   'Li12 F12'
_cell_volume   321.83787367
_cell_formula_units_Z   12
loop_
 _symmetry_equiv_pos_site_id
 _symmetry_equiv_pos_as_xyz
  1  'x, y, z'
loop_
 _atom_site_type_symbol
 _atom_site_label
 _atom_site_symmetry_multiplicity
 _atom_site_fract_x
 _atom_site_fract_y
 _atom_site_fract_z
 _atom_site_occupancy
  F  F0  1  0.97988271  0.13789384  0.86335487  1
  F  F1  1  -0.97988271  -0.13789384  0.86335487  1
  F  F2  1  -0.47988271  0.63789384  -0.86335487  1
  F  F3  1  1.47988271  0.36210616  -0.86335487  1
  F  F4  1  -0.97988271  -0.13789384  -0.86335487  1
  F  F5  1  0.97988271  0.13789384  -0.86335487  1
  F  F6  1  1.47988271  0.36210616  0.86335487  1
  F  F7  1  -0.47988271  0.63789384  0.86335487  1
  F  F8  1  0.54071804  0.15214218  0.00000000  1
  F  F9  1  0.45928196  0.84785782  -0.00000000  1
  F  F10  1  0.95928196  0.65214218  0.00000000  1
  F  F11  1  0.04071804  0.34785782  -0.00000000  1
  Li  Li12  1  0.73436736  0.90191861  0.26046067  1
  Li  Li13  1  0.26563264  0.09808139  0.26046067  1
  Li  Li14  1  0.76563264  0.40191861  0.73953933  1
  Li  Li15  1  0.23436736  0.59808139  0.73953933  1
  Li  Li16  1  0.26563264  0.09808139  0.73953933  1
  Li  Li17  1  0.73436736  0.90191861  0.73953933  1
  Li  Li18  1  0.23436736  0.59808139  0.26046067  1
  Li  Li19  1  0.76563264  0.40191861  0.26046067  1
  Li  Li20  1  0.00000000  0.50000000  0.36021640  1
  Li  Li21  1  0.50000000  0.00000000  0.63978360  1
  Li  Li22  1  0.00000000  0.50000000  0.63978360  1
  Li  Li23  1  0.50000000  0.00000000  0.36021640  1
