# generated using pymatgen
data_LiF
_symmetry_space_group_name_H-M   'P 1'
_cell_length_a   5.02723535
_cell_length_b   5.02723535
_cell_length_c   14.34213102
_cell_angle_alpha   90.00000000
_cell_angle_beta   90.00000000
_cell_angle_gamma   90.00000000
_symmetry_Int_Tables_number   1
_chemical_formula_structural   LiF
_chemical_formula_sum   'Li29 F29'
_cell_volume   362.47004415
_cell_formula_units_Z   29
loop_
 _symmetry_equiv_pos_site_id
 _symmetry_equiv_pos_as_xyz
  1  'x, y, z'
loop_
 _atom_site_type_symbol
 _atom_site_label
 _atom_site_symmetry_multiplicity
 _atom_site_fract_x
 _atom_site_fract_y
 _atom_site_fract_z
 _atom_site_occupancy
  F  F0  1  0.50000000  0.50000000  0.56538574  1
  F  F1  1  0.50000000  0.50000000  0.43461426  1
  F  F2  1  0.29463544  0.29463544  0.68377287  1
  F  F3  1  0.70536456  0.70536456  0.68377287  1
  F  F4  1  0.70536456  0.29463544  0.68377287  1
  F  F5  1  0.29463544  0.70536456  0.68377287  1
  F  F6  1  0.70536456  0.29463544  0.31622713  1
  F  F7  1  0.29463544  0.70536456  0.31622713  1
  F  F8  1  0.29463544  0.29463544  0.31622713  1
  F  F9  1  0.70536456  0.70536456  0.31622713  1
  F  F10  1  0.26930291  0.38885400  0.25925464  1
  F  F11  1  -0.26930291  -0.38885400  0.25925464  1
  F  F12  1  -0.38885400  0.26930291  0.25925464  1
  F  F13  1  0.38885400  -0.26930291  0.25925464  1
  F  F14  1  -0.26930291  0.38885400  -0.25925464  1
  F  F15  1  0.26930291  -0.38885400  -0.25925464  1
  F  F16  1  0.38885400  0.26930291  -0.25925464  1
  F  F17  1  -0.38885400  -0.26930291  -0.25925464  1
  F  F18  1  -0.26930291  -0.38885400  -0.25925464  1
  F  F19  1  0.26930291  0.38885400  -0.25925464  1
  F  F20  1  0.38885400  -0.26930291  -0.25925464  1
  F  F21  1  -0.38885400  0.26930291  -0.25925464  1
  F  F22  1  0.26930291  -0.38885400  0.25925464  1
  F  F23  1  -0.26930291  0.38885400  0.25925464  1
  F  F24  1  -0.38885400  -0.26930291  0.25925464  1
  F  F25  1  0.38885400  0.26930291  0.25925464  1
  F  F26  1  0.50000000  0.50000000  0.13678903  1
  F  F27  1  0.50000000  0.50000000  0.86321097  1
  F  F28  1  0.00000000  0.00000000  0.50000000  1
  Li  Li29  1  0.50000000  0.50000000  0.50000000  1
  Li  Li30  1  0.32330186  0.00000000  0.00000000  1
  Li  Li31  1  0.67669814  0.00000000  0.00000000  1
  Li  Li32  1  0.00000000  0.32330186  0.00000000  1
  Li  Li33  1  0.00000000  0.67669814  0.00000000  1
  Li  Li34  1  0.71981805  0.71981805  0.57001257  1
  Li  Li35  1  0.28018195  0.28018195  0.57001257  1
  Li  Li36  1  0.28018195  0.71981805  0.57001257  1
  Li  Li37  1  0.71981805  0.28018195  0.57001257  1
  Li  Li38  1  0.28018195  0.71981805  0.42998743  1
  Li  Li39  1  0.71981805  0.28018195  0.42998743  1
  Li  Li40  1  0.71981805  0.71981805  0.42998743  1
  Li  Li41  1  0.28018195  0.28018195  0.42998743  1
  Li  Li42  1  0.22954571  0.00000000  0.50000000  1
  Li  Li43  1  0.77045429  0.00000000  0.50000000  1
  Li  Li44  1  0.00000000  0.22954571  0.50000000  1
  Li  Li45  1  0.00000000  0.77045429  0.50000000  1
  Li  Li46  1  0.80558465  0.80558465  0.81199218  1
  Li  Li47  1  0.19441535  0.19441535  0.81199218  1
  Li  Li48  1  0.19441535  0.80558465  0.81199218  1
  Li  Li49  1  0.80558465  0.19441535  0.81199218  1
  Li  Li50  1  0.19441535  0.80558465  0.18800782  1
  Li  Li51  1  0.80558465  0.19441535  0.18800782  1
  Li  Li52  1  0.80558465  0.80558465  0.18800782  1
  Li  Li53  1  0.19441535  0.19441535  0.18800782  1
  Li  Li54  1  0.00000000  0.50000000  0.50000000  1
  Li  Li55  1  0.50000000  0.00000000  0.50000000  1
  Li  Li56  1  0.50000000  0.50000000  0.94754287  1
  Li  Li57  1  0.50000000  0.50000000  0.05245713  1
