# generated using pymatgen
data_Li2Y2Te4MoP2
_symmetry_space_group_name_H-M   'P 1'
_cell_length_a   5.36761569
_cell_length_b   5.61510120
_cell_length_c   7.15031932
_cell_angle_alpha   94.28641816
_cell_angle_beta   99.33492762
_cell_angle_gamma   107.21683813
_symmetry_Int_Tables_number   1
_chemical_formula_structural   Li2Y2Te4MoP2
_chemical_formula_sum   'Li2 Y2 Te4 Mo1 P2'
_cell_volume   201.39576320
_cell_formula_units_Z   1
loop_
 _symmetry_equiv_pos_site_id
 _symmetry_equiv_pos_as_xyz
  1  'x, y, z'
loop_
 _atom_site_type_symbol
 _atom_site_label
 _atom_site_symmetry_multiplicity
 _atom_site_fract_x
 _atom_site_fract_y
 _atom_site_fract_z
 _atom_site_occupancy
  Te  Te0  1  0.00000000  0.00000000  0.00000000  1
  Te  Te1  1  0.50000000  0.50000000  0.50000000  1
  Te  Te2  1  0.25000000  0.25000000  0.25000000  1
  Te  Te3  1  0.75000000  0.25000000  0.00000000  1
  P  P4  1  0.25000000  0.75000000  0.50000000  1
  P  P5  1  0.77419036  0.48948168  0.60635855  1
  Mo  Mo6  1  0.35963858  0.16728919  0.89987853  1
  Li  Li7  1  0.04459398  0.55555985  0.86053895  1
  Li  Li8  1  0.28715384  0.12055191  0.92695676  1
  Y  Y9  1  0.04038261  0.09140582  0.75727095  1
  Y  Y10  1  0.14742796  0.86777799  0.43705661  1
