# generated using pymatgen
data_Li2Si4Te3F12
_symmetry_space_group_name_H-M   'P 1'
_cell_length_a   11.09482629
_cell_length_b   11.09482629
_cell_length_c   10.24999988
_cell_angle_alpha   90.00000000
_cell_angle_beta   90.00000000
_cell_angle_gamma   120.00000000
_symmetry_Int_Tables_number   1
_chemical_formula_structural   Li2Si4Te3F12
_chemical_formula_sum   'Li8 Si16 Te12 F48'
_cell_volume   1092.68631959
_cell_formula_units_Z   4
loop_
 _symmetry_equiv_pos_site_id
 _symmetry_equiv_pos_as_xyz
  1  'x, y, z'
loop_
 _atom_site_type_symbol
 _atom_site_label
 _atom_site_symmetry_multiplicity
 _atom_site_fract_x
 _atom_site_fract_y
 _atom_site_fract_z
 _atom_site_occupancy
  F  F0  1  0.66626583  0.90524338  0.19923374  1
  F  F1  1  0.09475662  0.76102245  0.19923374  1
  F  F2  1  0.23897755  0.33373417  0.19923374  1
  F  F3  1  0.33373417  0.09475662  0.69923374  1
  F  F4  1  0.90524338  0.23897755  0.69923374  1
  F  F5  1  0.76102245  0.66626583  0.69923374  1
  F  F6  1  0.33373417  0.09475662  0.80076626  1
  F  F7  1  0.90524338  0.23897755  0.80076626  1
  F  F8  1  0.76102245  0.66626583  0.80076626  1
  F  F9  1  0.66626583  0.90524338  0.30076626  1
  F  F10  1  0.09475662  0.76102245  0.30076626  1
  F  F11  1  0.23897755  0.33373417  0.30076626  1
  F  F12  1  0.11881771  0.91324974  0.43277326  1
  F  F13  1  0.08675026  0.20556797  0.43277326  1
  F  F14  1  0.79443203  0.88118229  0.43277326  1
  F  F15  1  0.88118229  0.08675026  0.93277326  1
  F  F16  1  0.91324974  0.79443203  0.93277326  1
  F  F17  1  0.20556797  0.11881771  0.93277326  1
  F  F18  1  0.88118229  0.08675026  0.56722674  1
  F  F19  1  0.91324974  0.79443203  0.56722674  1
  F  F20  1  0.20556797  0.11881771  0.56722674  1
  F  F21  1  0.11881771  0.91324974  0.06722674  1
  F  F22  1  0.08675026  0.20556797  0.06722674  1
  F  F23  1  0.79443203  0.88118229  0.06722674  1
  F  F24  1  0.74526218  0.77186633  0.09810910  1
  F  F25  1  0.22813367  0.97339585  0.09810910  1
  F  F26  1  0.02660415  0.25473782  0.09810910  1
  F  F27  1  0.25473782  0.22813367  0.59810910  1
  F  F28  1  0.77186633  0.02660415  0.59810910  1
  F  F29  1  0.97339585  0.74526218  0.59810910  1
  F  F30  1  0.25473782  0.22813367  0.90189090  1
  F  F31  1  0.77186633  0.02660415  0.90189090  1
  F  F32  1  0.97339585  0.74526218  0.90189090  1
  F  F33  1  0.74526218  0.77186633  0.40189090  1
  F  F34  1  0.22813367  0.97339585  0.40189090  1
  F  F35  1  0.02660415  0.25473782  0.40189090  1
  F  F36  1  0.09939755  0.19739090  0.55499992  1
  F  F37  1  0.80260910  0.90200666  0.55499992  1
  F  F38  1  0.09799334  0.90060245  0.55499992  1
  F  F39  1  0.90060245  0.80260910  0.05499992  1
  F  F40  1  0.19739090  0.09799334  0.05499992  1
  F  F41  1  0.90200666  0.09939755  0.05499992  1
  F  F42  1  0.90060245  0.80260910  0.44500008  1
  F  F43  1  0.19739090  0.09799334  0.44500008  1
  F  F44  1  0.90200666  0.09939755  0.44500008  1
  F  F45  1  0.09939755  0.19739090  0.94500008  1
  F  F46  1  0.80260910  0.90200666  0.94500008  1
  F  F47  1  0.09799334  0.90060245  0.94500008  1
  Li  Li48  1  0.50000000  0.00000000  0.00000000  1
  Li  Li49  1  0.00000000  0.50000000  0.00000000  1
  Li  Li50  1  0.50000000  0.50000000  0.00000000  1
  Li  Li51  1  0.50000000  0.00000000  0.50000000  1
  Li  Li52  1  0.00000000  0.50000000  0.50000000  1
  Li  Li53  1  0.50000000  0.50000000  0.50000000  1
  Li  Li54  1  0.66666667  0.33333333  0.25000000  1
  Li  Li55  1  0.33333333  0.66666667  0.75000000  1
  Si  Si56  1  0.18901407  0.83446743  0.84898165  1
  Si  Si57  1  -0.83446743  -0.64545337  0.84898165  1
  Si  Si58  1  0.64545337  -0.18901407  0.84898165  1
  Si  Si59  1  -0.18901407  -0.83446743  1.34898165  1
  Si  Si60  1  0.83446743  0.64545337  1.34898165  1
  Si  Si61  1  -0.64545337  0.18901407  1.34898165  1
  Si  Si62  1  -0.18901407  -0.83446743  -0.84898165  1
  Si  Si63  1  0.83446743  0.64545337  -0.84898165  1
  Si  Si64  1  -0.64545337  0.18901407  -0.84898165  1
  Si  Si65  1  0.18901407  0.83446743  -0.34898165  1
  Si  Si66  1  -0.83446743  -0.64545337  -0.34898165  1
  Si  Si67  1  0.64545337  -0.18901407  -0.34898165  1
  Si  Si68  1  0.00000000  0.00000000  0.25000000  1
  Si  Si69  1  0.00000000  0.00000000  0.75000000  1
  Si  Si70  1  0.00000000  0.00000000  0.00000000  1
  Si  Si71  1  0.00000000  0.00000000  0.50000000  1
  Te  Te72  1  0.33333333  0.66666667  0.25000000  1
  Te  Te73  1  0.66666667  0.33333333  0.75000000  1
  Te  Te74  1  0.44761338  0.31837274  0.25000000  1
  Te  Te75  1  0.68162726  0.12924063  0.25000000  1
  Te  Te76  1  0.87075937  0.55238662  0.25000000  1
  Te  Te77  1  0.55238662  0.68162726  0.75000000  1
  Te  Te78  1  0.31837274  0.87075937  0.75000000  1
  Te  Te79  1  0.12924063  0.44761338  0.75000000  1
  Te  Te80  1  0.33333333  0.66666667  0.44250358  1
  Te  Te81  1  0.66666667  0.33333333  0.94250358  1
  Te  Te82  1  0.66666667  0.33333333  0.55749642  1
  Te  Te83  1  0.33333333  0.66666667  0.05749642  1
