# generated using pymatgen
data_LiF
_symmetry_space_group_name_H-M   'P 1'
_cell_length_a   8.28743376
_cell_length_b   8.28743376
_cell_length_c   8.28743376
_cell_angle_alpha   90.00000000
_cell_angle_beta   90.00000000
_cell_angle_gamma   90.00000000
_symmetry_Int_Tables_number   1
_chemical_formula_structural   LiF
_chemical_formula_sum   'Li16 F16'
_cell_volume   569.19386449
_cell_formula_units_Z   16
loop_
 _symmetry_equiv_pos_site_id
 _symmetry_equiv_pos_as_xyz
  1  'x, y, z'
loop_
 _atom_site_type_symbol
 _atom_site_label
 _atom_site_symmetry_multiplicity
 _atom_site_fract_x
 _atom_site_fract_y
 _atom_site_fract_z
 _atom_site_occupancy
  F  F0  1  0.41986994  0.41986994  0.41986994  1
  F  F1  1  0.08013006  0.58013006  0.91986994  1
  F  F2  1  0.58013006  0.91986994  0.08013006  1
  F  F3  1  0.91986994  0.08013006  0.58013006  1
  F  F4  1  0.16986994  0.66986994  0.83013006  1
  F  F5  1  0.33013006  0.33013006  0.33013006  1
  F  F6  1  0.66986994  0.83013006  0.16986994  1
  F  F7  1  0.83013006  0.16986994  0.66986994  1
  F  F8  1  0.91986994  0.91986994  0.91986994  1
  F  F9  1  0.58013006  0.08013006  0.41986994  1
  F  F10  1  0.08013006  0.41986994  0.58013006  1
  F  F11  1  0.41986994  0.58013006  0.08013006  1
  F  F12  1  0.66986994  0.16986994  0.33013006  1
  F  F13  1  0.83013006  0.83013006  0.83013006  1
  F  F14  1  0.16986994  0.33013006  0.66986994  1
  F  F15  1  0.33013006  0.66986994  0.16986994  1
  Li  Li16  1  0.04914079  0.04914079  0.04914079  1
  Li  Li17  1  0.45085921  -0.04914079  0.54914079  1
  Li  Li18  1  -0.04914079  0.54914079  0.45085921  1
  Li  Li19  1  0.54914079  0.45085921  -0.04914079  1
  Li  Li20  1  0.79914079  0.29914079  0.20085921  1
  Li  Li21  1  0.70085921  0.70085921  0.70085921  1
  Li  Li22  1  0.29914079  0.20085921  0.79914079  1
  Li  Li23  1  0.20085921  0.79914079  0.29914079  1
  Li  Li24  1  0.54914079  0.54914079  0.54914079  1
  Li  Li25  1  0.95085921  0.45085921  1.04914079  1
  Li  Li26  1  0.45085921  1.04914079  0.95085921  1
  Li  Li27  1  1.04914079  0.95085921  0.45085921  1
  Li  Li28  1  1.29914079  0.79914079  0.70085921  1
  Li  Li29  1  1.20085921  1.20085921  1.20085921  1
  Li  Li30  1  0.79914079  0.70085921  1.29914079  1
  Li  Li31  1  0.70085921  1.29914079  0.79914079  1
