# generated using pymatgen
data_LiCu3P2Se
_symmetry_space_group_name_H-M   'P 1'
_cell_length_a   4.99345499
_cell_length_b   5.06608090
_cell_length_c   6.99163318
_cell_angle_alpha   95.95300467
_cell_angle_beta   101.35635890
_cell_angle_gamma   110.04007942
_symmetry_Int_Tables_number   1
_chemical_formula_structural   LiCu3P2Se
_chemical_formula_sum   'Li1 Cu3 P2 Se1'
_cell_volume   160.06853008
_cell_formula_units_Z   1
loop_
 _symmetry_equiv_pos_site_id
 _symmetry_equiv_pos_as_xyz
  1  'x, y, z'
loop_
 _atom_site_type_symbol
 _atom_site_label
 _atom_site_symmetry_multiplicity
 _atom_site_fract_x
 _atom_site_fract_y
 _atom_site_fract_z
 _atom_site_occupancy
  P  P0  1  0.12500000  0.12500000  0.12500000  1
  P  P1  1  0.50000000  0.50000000  0.50000000  1
  Se  Se2  1  0.25000000  0.25000000  0.25000000  1
  Li  Li3  1  0.75000000  0.75000000  0.75000000  1
  Cu  Cu4  1  0.37971363  0.62983061  0.78428359  1
  Cu  Cu5  1  0.19273643  0.62182187  0.32976188  1
  Cu  Cu6  1  0.87615321  0.70467928  0.33345813  1
