# generated using pymatgen
data_LiF
_symmetry_space_group_name_H-M   'P 1'
_cell_length_a   11.62023511
_cell_length_b   5.67066850
_cell_length_c   7.99859489
_cell_angle_alpha   90.00000000
_cell_angle_beta   90.00000000
_cell_angle_gamma   90.00000000
_symmetry_Int_Tables_number   1
_chemical_formula_structural   LiF
_chemical_formula_sum   'Li24 F24'
_cell_volume   527.06342052
_cell_formula_units_Z   24
loop_
 _symmetry_equiv_pos_site_id
 _symmetry_equiv_pos_as_xyz
  1  'x, y, z'
loop_
 _atom_site_type_symbol
 _atom_site_label
 _atom_site_symmetry_multiplicity
 _atom_site_fract_x
 _atom_site_fract_y
 _atom_site_fract_z
 _atom_site_occupancy
  F  F0  1  0.51993229  0.30708821  0.98119578  1
  F  F1  1  0.98006771  0.69291179  0.48119578  1
  F  F2  1  0.48006771  0.80708821  0.01880422  1
  F  F3  1  0.01993229  0.19291179  0.51880422  1
  F  F4  1  0.48006771  0.69291179  0.01880422  1
  F  F5  1  0.01993229  0.30708821  0.51880422  1
  F  F6  1  0.51993229  0.19291179  0.98119578  1
  F  F7  1  0.98006771  0.80708821  0.48119578  1
  F  F8  1  0.74717042  0.25000000  0.67537040  1
  F  F9  1  0.75282958  0.75000000  0.17537040  1
  F  F10  1  0.25282958  0.75000000  0.32462960  1
  F  F11  1  0.24717042  0.25000000  0.82462960  1
  F  F12  1  0.69921628  0.98048962  0.29878607  1
  F  F13  1  0.80078372  0.01951038  0.79878607  1
  F  F14  1  0.30078372  0.48048962  0.70121393  1
  F  F15  1  0.19921628  0.51951038  0.20121393  1
  F  F16  1  0.30078372  0.01951038  0.70121393  1
  F  F17  1  0.19921628  0.98048962  0.20121393  1
  F  F18  1  0.69921628  0.51951038  0.29878607  1
  F  F19  1  0.80078372  0.48048962  0.79878607  1
  F  F20  1  0.37559305  0.25000000  0.29361367  1
  F  F21  1  0.12440695  0.75000000  0.79361367  1
  F  F22  1  0.62440695  0.75000000  0.70638633  1
  F  F23  1  0.87559305  0.25000000  0.20638633  1
  Li  Li24  1  0.62424612  0.25000000  0.08200856  1
  Li  Li25  1  0.87575388  0.75000000  0.58200856  1
  Li  Li26  1  0.37575388  0.75000000  0.91799144  1
  Li  Li27  1  0.12424612  0.25000000  0.41799144  1
  Li  Li28  1  0.00000000  0.00000000  0.50000000  1
  Li  Li29  1  0.50000000  0.00000000  0.00000000  1
  Li  Li30  1  0.00000000  0.50000000  0.50000000  1
  Li  Li31  1  0.50000000  0.50000000  0.00000000  1
  Li  Li32  1  0.00000000  0.00000000  0.00000000  1
  Li  Li33  1  0.50000000  0.00000000  0.50000000  1
  Li  Li34  1  0.00000000  0.50000000  0.00000000  1
  Li  Li35  1  0.50000000  0.50000000  0.50000000  1
  Li  Li36  1  0.72353824  0.25000000  0.51013206  1
  Li  Li37  1  0.77646176  0.75000000  0.01013206  1
  Li  Li38  1  0.27646176  0.75000000  0.48986794  1
  Li  Li39  1  0.22353824  0.25000000  0.98986794  1
  Li  Li40  1  0.57265464  0.99493197  0.37835291  1
  Li  Li41  1  -0.07265464  -0.99493197  0.87835291  1
  Li  Li42  1  -0.57265464  1.49493197  -0.37835291  1
  Li  Li43  1  1.07265464  -0.49493197  0.12164709  1
  Li  Li44  1  -0.57265464  -0.99493197  -0.37835291  1
  Li  Li45  1  1.07265464  0.99493197  0.12164709  1
  Li  Li46  1  0.57265464  -0.49493197  0.37835291  1
  Li  Li47  1  -0.07265464  1.49493197  0.87835291  1
