# generated using pymatgen
data_LiF
_symmetry_space_group_name_H-M   'P 1'
_cell_length_a   7.37837541
_cell_length_b   7.37837541
_cell_length_c   10.01247686
_cell_angle_alpha   90.00000000
_cell_angle_beta   90.00000000
_cell_angle_gamma   120.00000000
_symmetry_Int_Tables_number   1
_chemical_formula_structural   LiF
_chemical_formula_sum   'Li19 F19'
_cell_volume   472.05614347
_cell_formula_units_Z   19
loop_
 _symmetry_equiv_pos_site_id
 _symmetry_equiv_pos_as_xyz
  1  'x, y, z'
loop_
 _atom_site_type_symbol
 _atom_site_label
 _atom_site_symmetry_multiplicity
 _atom_site_fract_x
 _atom_site_fract_y
 _atom_site_fract_z
 _atom_site_occupancy
  F  F0  1  0.33333333  0.66666667  0.39980804  1
  F  F1  1  0.33333333  0.66666667  0.60019196  1
  F  F2  1  0.25485827  0.21427471  0.96455119  1
  F  F3  1  0.78572529  0.04058355  0.96455119  1
  F  F4  1  0.95941645  0.74514173  0.96455119  1
  F  F5  1  0.78572529  0.74514173  0.03544881  1
  F  F6  1  0.95941645  0.21427471  0.03544881  1
  F  F7  1  0.25485827  0.04058355  0.03544881  1
  F  F8  1  0.46854090  0.13042437  0.83570950  1
  F  F9  1  0.86957563  0.33811652  0.83570950  1
  F  F10  1  0.66188348  0.53145910  0.83570950  1
  F  F11  1  0.86957563  0.53145910  0.16429050  1
  F  F12  1  0.66188348  0.13042437  0.16429050  1
  F  F13  1  0.46854090  0.33811652  0.16429050  1
  F  F14  1  0.18330951  0.81669049  0.50000000  1
  F  F15  1  0.18330951  0.36661903  0.50000000  1
  F  F16  1  0.63338097  0.81669049  0.50000000  1
  F  F17  1  0.66666667  0.33333333  0.59615499  1
  F  F18  1  0.66666667  0.33333333  0.40384501  1
  Li  Li19  1  0.66666667  0.33333333  0.50000000  1
  Li  Li20  1  0.66666667  0.33333333  0.00000000  1
  Li  Li21  1  0.33333333  0.66666667  0.24276546  1
  Li  Li22  1  0.33333333  0.66666667  0.75723454  1
  Li  Li23  1  0.33333333  0.66666667  0.00000000  1
  Li  Li24  1  0.97613203  0.87634732  0.88433497  1
  Li  Li25  1  -0.87634732  0.09978471  0.88433497  1
  Li  Li26  1  -0.09978471  -0.97613203  0.88433497  1
  Li  Li27  1  -0.87634732  -0.97613203  -0.88433497  1
  Li  Li28  1  -0.09978471  0.87634732  -0.88433497  1
  Li  Li29  1  0.97613203  0.09978471  -0.88433497  1
  Li  Li30  1  0.15524465  0.47190871  0.07457926  1
  Li  Li31  1  0.52809129  0.68333593  0.07457926  1
  Li  Li32  1  0.31666407  0.84475535  0.07457926  1
  Li  Li33  1  0.52809129  0.84475535  0.92542074  1
  Li  Li34  1  0.31666407  0.47190871  0.92542074  1
  Li  Li35  1  0.15524465  0.68333593  0.92542074  1
  Li  Li36  1  0.00000000  0.00000000  0.50000000  1
  Li  Li37  1  0.00000000  0.00000000  0.00000000  1
