# generated using pymatgen
data_Sr3Li4Se3O2
_symmetry_space_group_name_H-M   'P 1'
_cell_length_a   12.42175545
_cell_length_b   12.42175545
_cell_length_c   15.40998410
_cell_angle_alpha   90.00000000
_cell_angle_beta   90.00000000
_cell_angle_gamma   120.00000000
_symmetry_Int_Tables_number   1
_chemical_formula_structural   Sr3Li4Se3O2
_chemical_formula_sum   'Sr18 Li24 Se18 O12'
_cell_volume   2059.20114949
_cell_formula_units_Z   6
loop_
 _symmetry_equiv_pos_site_id
 _symmetry_equiv_pos_as_xyz
  1  'x, y, z'
loop_
 _atom_site_type_symbol
 _atom_site_label
 _atom_site_symmetry_multiplicity
 _atom_site_fract_x
 _atom_site_fract_y
 _atom_site_fract_z
 _atom_site_occupancy
  Li  Li0  1  0.33333333  0.66666667  0.02133827  1
  Li  Li1  1  0.66666667  0.33333333  0.52133827  1
  Li  Li2  1  0.66666667  0.33333333  0.97866173  1
  Li  Li3  1  0.33333333  0.66666667  0.47866173  1
  Li  Li4  1  0.79922899  0.59845798  0.25000000  1
  Li  Li5  1  0.40154202  0.20077101  0.25000000  1
  Li  Li6  1  0.79922899  0.20077101  0.25000000  1
  Li  Li7  1  0.20077101  0.40154202  0.75000000  1
  Li  Li8  1  0.59845798  0.79922899  0.75000000  1
  Li  Li9  1  0.20077101  0.79922899  0.75000000  1
  Li  Li10  1  0.00000000  0.00000000  0.25000000  1
  Li  Li11  1  0.00000000  0.00000000  0.75000000  1
  Li  Li12  1  0.41118285  0.82236570  0.25000000  1
  Li  Li13  1  0.17763430  0.58881715  0.25000000  1
  Li  Li14  1  0.41118285  0.58881715  0.25000000  1
  Li  Li15  1  0.58881715  0.17763430  0.75000000  1
  Li  Li16  1  0.82236570  0.41118285  0.75000000  1
  Li  Li17  1  0.58881715  0.41118285  0.75000000  1
  Li  Li18  1  0.33333333  0.66666667  0.25000000  1
  Li  Li19  1  0.66666667  0.33333333  0.75000000  1
  Li  Li20  1  0.33333333  0.66666667  0.93464053  1
  Li  Li21  1  0.66666667  0.33333333  0.43464053  1
  Li  Li22  1  0.66666667  0.33333333  0.06535947  1
  Li  Li23  1  0.33333333  0.66666667  0.56535947  1
  O  O24  1  0.12808716  0.25617432  0.50570509  1
  O  O25  1  0.74382568  0.87191284  0.50570509  1
  O  O26  1  0.12808716  0.87191284  0.50570509  1
  O  O27  1  0.87191284  0.74382568  0.00570509  1
  O  O28  1  0.25617432  0.12808716  0.00570509  1
  O  O29  1  0.87191284  0.12808716  0.00570509  1
  O  O30  1  0.25617432  0.12808716  0.49429491  1
  O  O31  1  0.87191284  0.74382568  0.49429491  1
  O  O32  1  0.87191284  0.12808716  0.49429491  1
  O  O33  1  0.74382568  0.87191284  0.99429491  1
  O  O34  1  0.12808716  0.25617432  0.99429491  1
  O  O35  1  0.12808716  0.87191284  0.99429491  1
  Se  Se36  1  0.99002071  0.78356603  0.25000000  1
  Se  Se37  1  -0.78356603  0.20645468  0.25000000  1
  Se  Se38  1  -0.20645468  -0.99002071  0.25000000  1
  Se  Se39  1  -0.99002071  -0.78356603  0.75000000  1
  Se  Se40  1  0.78356603  -0.20645468  0.75000000  1
  Se  Se41  1  0.20645468  0.99002071  0.75000000  1
  Se  Se42  1  0.78356603  0.99002071  0.75000000  1
  Se  Se43  1  0.20645468  -0.78356603  0.75000000  1
  Se  Se44  1  -0.99002071  -0.20645468  0.75000000  1
  Se  Se45  1  -0.78356603  -0.99002071  0.25000000  1
  Se  Se46  1  -0.20645468  0.78356603  0.25000000  1
  Se  Se47  1  0.99002071  0.20645468  0.25000000  1
  Se  Se48  1  0.56007068  0.12014135  0.25000000  1
  Se  Se49  1  0.87985865  0.43992932  0.25000000  1
  Se  Se50  1  0.56007068  0.43992932  0.25000000  1
  Se  Se51  1  0.43992932  0.87985865  0.75000000  1
  Se  Se52  1  0.12014135  0.56007068  0.75000000  1
  Se  Se53  1  0.43992932  0.56007068  0.75000000  1
  Sr  Sr54  1  0.33333333  0.66666667  0.75000000  1
  Sr  Sr55  1  0.66666667  0.33333333  0.25000000  1
  Sr  Sr56  1  0.00000000  0.00000000  0.61772925  1
  Sr  Sr57  1  0.00000000  0.00000000  0.11772925  1
  Sr  Sr58  1  0.00000000  0.00000000  0.38227075  1
  Sr  Sr59  1  0.00000000  0.00000000  0.88227075  1
  Sr  Sr60  1  0.57927243  -0.00000000  0.00000000  1
  Sr  Sr61  1  0.00000000  0.57927243  0.00000000  1
  Sr  Sr62  1  0.42072757  0.42072757  0.00000000  1
  Sr  Sr63  1  0.42072757  0.00000000  0.50000000  1
  Sr  Sr64  1  0.00000000  0.42072757  0.50000000  1
  Sr  Sr65  1  0.57927243  0.57927243  0.50000000  1
  Sr  Sr66  1  0.42072757  0.00000000  0.00000000  1
  Sr  Sr67  1  0.00000000  0.42072757  0.00000000  1
  Sr  Sr68  1  0.57927243  0.57927243  0.00000000  1
  Sr  Sr69  1  0.57927243  -0.00000000  0.50000000  1
  Sr  Sr70  1  0.00000000  0.57927243  0.50000000  1
  Sr  Sr71  1  0.42072757  0.42072757  0.50000000  1
