# generated using pymatgen
data_LiYP2
_symmetry_space_group_name_H-M   'P 1'
_cell_length_a   3.88952873
_cell_length_b   4.16892650
_cell_length_c   6.74943832
_cell_angle_alpha   96.70406891
_cell_angle_beta   104.60006833
_cell_angle_gamma   116.92758031
_symmetry_Int_Tables_number   1
_chemical_formula_structural   LiYP2
_chemical_formula_sum   'Li2 Y2 P4'
_cell_volume   90.98236007
_cell_formula_units_Z   2
loop_
 _symmetry_equiv_pos_site_id
 _symmetry_equiv_pos_as_xyz
  1  'x, y, z'
loop_
 _atom_site_type_symbol
 _atom_site_label
 _atom_site_symmetry_multiplicity
 _atom_site_fract_x
 _atom_site_fract_y
 _atom_site_fract_z
 _atom_site_occupancy
  P  P0  1  0.00000000  0.00000000  0.00000000  1
  P  P1  1  0.33300000  0.66700000  0.25000000  1
  P  P2  1  0.66700000  0.33300000  0.50000000  1
  P  P3  1  0.00000000  0.00000000  0.75000000  1
  Li  Li4  1  0.18722882  0.97552966  0.24530954  1
  Li  Li5  1  0.34259830  0.62114306  0.28976283  1
  Y  Y6  1  0.38944376  0.66691813  0.78171368  1
  Y  Y7  1  0.73844287  0.53683916  0.48953849  1
