# generated using pymatgen
data_LiF
_symmetry_space_group_name_H-M   'P 1'
_cell_length_a   9.05094066
_cell_length_b   9.05094066
_cell_length_c   5.28087310
_cell_angle_alpha   90.00000000
_cell_angle_beta   90.00000000
_cell_angle_gamma   120.00000000
_symmetry_Int_Tables_number   1
_chemical_formula_structural   LiF
_chemical_formula_sum   'Li14 F14'
_cell_volume   374.64832709
_cell_formula_units_Z   14
loop_
 _symmetry_equiv_pos_site_id
 _symmetry_equiv_pos_as_xyz
  1  'x, y, z'
loop_
 _atom_site_type_symbol
 _atom_site_label
 _atom_site_symmetry_multiplicity
 _atom_site_fract_x
 _atom_site_fract_y
 _atom_site_fract_z
 _atom_site_occupancy
  F  F0  1  0.68828287  0.31171713  0.50000000  1
  F  F1  1  0.68828287  0.37656574  0.50000000  1
  F  F2  1  0.62343426  0.31171713  0.50000000  1
  F  F3  1  0.87569677  0.12430323  0.00000000  1
  F  F4  1  0.87569677  0.75139354  0.00000000  1
  F  F5  1  0.24860646  0.12430323  -0.00000000  1
  F  F6  1  0.39774491  0.50065991  0.63672686  1
  F  F7  1  0.49934009  0.89708500  0.63672686  1
  F  F8  1  0.10291500  0.60225509  0.63672686  1
  F  F9  1  0.49934009  0.60225509  0.36327314  1
  F  F10  1  0.10291500  0.50065991  0.36327314  1
  F  F11  1  0.39774491  0.89708500  0.36327314  1
  F  F12  1  0.33333333  0.66666667  0.71996117  1
  F  F13  1  0.33333333  0.66666667  0.28003883  1
  Li  Li14  1  0.33333333  0.66666667  0.00000000  1
  Li  Li15  1  0.00000000  0.00000000  0.18723625  1
  Li  Li16  1  0.00000000  0.00000000  0.81276375  1
  Li  Li17  1  0.00000000  0.00000000  0.50000000  1
  Li  Li18  1  0.51849688  0.78586478  0.82610200  1
  Li  Li19  1  -0.78586478  -0.26736790  0.82610200  1
  Li  Li20  1  0.26736790  -0.51849688  0.82610200  1
  Li  Li21  1  -0.78586478  -0.51849688  -0.82610200  1
  Li  Li22  1  0.26736790  0.78586478  -0.82610200  1
  Li  Li23  1  0.51849688  -0.26736790  -0.82610200  1
  Li  Li24  1  0.52872696  0.47127304  0.00000000  1
  Li  Li25  1  0.52872696  0.05745391  -0.00000000  1
  Li  Li26  1  0.94254609  0.47127304  0.00000000  1
  Li  Li27  1  0.33333333  0.66666667  0.50000000  1
