# generated using pymatgen
data_LiF
_symmetry_space_group_name_H-M   'P 1'
_cell_length_a   14.16736617
_cell_length_b   14.16736617
_cell_length_c   7.65656564
_cell_angle_alpha   90.00000000
_cell_angle_beta   90.00000000
_cell_angle_gamma   90.00000000
_symmetry_Int_Tables_number   1
_chemical_formula_structural   LiF
_chemical_formula_sum   'Li41 F41'
_cell_volume   1536.78193853
_cell_formula_units_Z   41
loop_
 _symmetry_equiv_pos_site_id
 _symmetry_equiv_pos_as_xyz
  1  'x, y, z'
loop_
 _atom_site_type_symbol
 _atom_site_label
 _atom_site_symmetry_multiplicity
 _atom_site_fract_x
 _atom_site_fract_y
 _atom_site_fract_z
 _atom_site_occupancy
  F  F0  1  0.89998325  0.00000000  -0.00000000  1
  F  F1  1  0.10001675  0.00000000  0.00000000  1
  F  F2  1  0.00000000  0.89998325  -0.00000000  1
  F  F3  1  0.00000000  0.10001675  0.00000000  1
  F  F4  1  0.68992379  0.68992379  0.60629302  1
  F  F5  1  0.31007621  0.31007621  0.60629302  1
  F  F6  1  0.31007621  0.68992379  0.60629302  1
  F  F7  1  0.68992379  0.31007621  0.60629302  1
  F  F8  1  0.31007621  0.68992379  0.39370698  1
  F  F9  1  0.68992379  0.31007621  0.39370698  1
  F  F10  1  0.68992379  0.68992379  0.39370698  1
  F  F11  1  0.31007621  0.31007621  0.39370698  1
  F  F12  1  0.58232952  0.58232952  0.50000000  1
  F  F13  1  0.41767048  0.41767048  0.50000000  1
  F  F14  1  0.41767048  0.58232952  0.50000000  1
  F  F15  1  0.58232952  0.41767048  0.50000000  1
  F  F16  1  0.72439442  0.50000000  0.50000000  1
  F  F17  1  0.27560558  0.50000000  0.50000000  1
  F  F18  1  0.50000000  0.72439442  0.50000000  1
  F  F19  1  0.50000000  0.27560558  0.50000000  1
  F  F20  1  0.93004001  0.40378250  0.94658219  1
  F  F21  1  0.06995999  0.59621750  0.94658219  1
  F  F22  1  0.59621750  0.93004001  0.94658219  1
  F  F23  1  0.40378250  0.06995999  0.94658219  1
  F  F24  1  0.06995999  0.40378250  0.05341781  1
  F  F25  1  0.93004001  0.59621750  0.05341781  1
  F  F26  1  0.40378250  0.93004001  0.05341781  1
  F  F27  1  0.59621750  0.06995999  0.05341781  1
  F  F28  1  0.06995999  0.59621750  0.05341781  1
  F  F29  1  0.93004001  0.40378250  0.05341781  1
  F  F30  1  0.40378250  0.06995999  0.05341781  1
  F  F31  1  0.59621750  0.93004001  0.05341781  1
  F  F32  1  0.93004001  0.59621750  0.94658219  1
  F  F33  1  0.06995999  0.40378250  0.94658219  1
  F  F34  1  0.59621750  0.06995999  0.94658219  1
  F  F35  1  0.40378250  0.93004001  0.94658219  1
  F  F36  1  0.62975802  0.62975802  -0.00000000  1
  F  F37  1  0.37024198  0.37024198  -0.00000000  1
  F  F38  1  0.37024198  0.62975802  0.00000000  1
  F  F39  1  0.62975802  0.37024198  0.00000000  1
  F  F40  1  0.00000000  0.00000000  0.50000000  1
  Li  Li41  1  0.75922307  0.41674642  0.00000000  1
  Li  Li42  1  0.24077693  0.58325358  0.00000000  1
  Li  Li43  1  0.58325358  0.75922307  -0.00000000  1
  Li  Li44  1  0.41674642  0.24077693  -0.00000000  1
  Li  Li45  1  0.24077693  0.41674642  -0.00000000  1
  Li  Li46  1  0.75922307  0.58325358  -0.00000000  1
  Li  Li47  1  0.41674642  0.75922307  0.00000000  1
  Li  Li48  1  0.58325358  0.24077693  -0.00000000  1
  Li  Li49  1  0.00000000  0.50000000  0.50000000  1
  Li  Li50  1  0.50000000  0.00000000  0.50000000  1
  Li  Li51  1  0.23383288  0.95431293  0.60894093  1
  Li  Li52  1  -0.23383288  -0.95431293  0.60894093  1
  Li  Li53  1  -0.95431293  0.23383288  0.60894093  1
  Li  Li54  1  0.95431293  -0.23383288  0.60894093  1
  Li  Li55  1  -0.23383288  0.95431293  -0.60894093  1
  Li  Li56  1  0.23383288  -0.95431293  -0.60894093  1
  Li  Li57  1  0.95431293  0.23383288  -0.60894093  1
  Li  Li58  1  -0.95431293  -0.23383288  -0.60894093  1
  Li  Li59  1  -0.23383288  -0.95431293  -0.60894093  1
  Li  Li60  1  0.23383288  0.95431293  -0.60894093  1
  Li  Li61  1  0.95431293  -0.23383288  -0.60894093  1
  Li  Li62  1  -0.95431293  0.23383288  -0.60894093  1
  Li  Li63  1  0.23383288  -0.95431293  0.60894093  1
  Li  Li64  1  -0.23383288  0.95431293  0.60894093  1
  Li  Li65  1  -0.95431293  -0.23383288  0.60894093  1
  Li  Li66  1  0.95431293  0.23383288  0.60894093  1
  Li  Li67  1  0.30452529  0.06222004  0.50000000  1
  Li  Li68  1  0.69547471  0.93777996  0.50000000  1
  Li  Li69  1  0.93777996  0.30452529  0.50000000  1
  Li  Li70  1  0.06222004  0.69547471  0.50000000  1
  Li  Li71  1  0.69547471  0.06222004  0.50000000  1
  Li  Li72  1  0.30452529  0.93777996  0.50000000  1
  Li  Li73  1  0.06222004  0.30452529  0.50000000  1
  Li  Li74  1  0.93777996  0.69547471  0.50000000  1
  Li  Li75  1  0.76016679  0.76016679  -0.00000000  1
  Li  Li76  1  0.23983321  0.23983321  -0.00000000  1
  Li  Li77  1  0.23983321  0.76016679  0.00000000  1
  Li  Li78  1  0.76016679  0.23983321  0.00000000  1
  Li  Li79  1  0.00000000  0.50000000  0.00000000  1
  Li  Li80  1  0.50000000  0.00000000  0.00000000  1
  Li  Li81  1  0.00000000  0.00000000  0.00000000  1
