# generated using pymatgen
data_Na4Sr(LiSe2)2
_symmetry_space_group_name_H-M   'P 1'
_cell_length_a   16.19584343
_cell_length_b   16.19584343
_cell_length_c   20.65061532
_cell_angle_alpha   90.00000000
_cell_angle_beta   90.00000000
_cell_angle_gamma   120.00000000
_symmetry_Int_Tables_number   1
_chemical_formula_structural   Na4Sr(LiSe2)2
_chemical_formula_sum   'Na48 Sr12 Li24 Se48'
_cell_volume   4691.05762380
_cell_formula_units_Z   12
loop_
 _symmetry_equiv_pos_site_id
 _symmetry_equiv_pos_as_xyz
  1  'x, y, z'
loop_
 _atom_site_type_symbol
 _atom_site_label
 _atom_site_symmetry_multiplicity
 _atom_site_fract_x
 _atom_site_fract_y
 _atom_site_fract_z
 _atom_site_occupancy
  Li  Li0  1  0.57748594  0.63656062  0.31431793  1
  Li  Li1  1  0.36343938  0.94092532  0.31431793  1
  Li  Li2  1  0.05907468  0.42251406  0.31431793  1
  Li  Li3  1  0.42251406  0.36343938  0.81431793  1
  Li  Li4  1  0.63656062  0.05907468  0.81431793  1
  Li  Li5  1  0.94092532  0.57748594  0.81431793  1
  Li  Li6  1  0.63656062  0.57748594  0.68568207  1
  Li  Li7  1  0.94092532  0.36343938  0.68568207  1
  Li  Li8  1  0.42251406  0.05907468  0.68568207  1
  Li  Li9  1  0.36343938  0.42251406  0.18568207  1
  Li  Li10  1  0.05907468  0.63656062  0.18568207  1
  Li  Li11  1  0.57748594  0.94092532  0.18568207  1
  Li  Li12  1  0.42251406  0.36343938  0.68568207  1
  Li  Li13  1  0.63656062  0.05907468  0.68568207  1
  Li  Li14  1  0.94092532  0.57748594  0.68568207  1
  Li  Li15  1  0.57748594  0.63656062  0.18568207  1
  Li  Li16  1  0.36343938  0.94092532  0.18568207  1
  Li  Li17  1  0.05907468  0.42251406  0.18568207  1
  Li  Li18  1  0.36343938  0.42251406  0.31431793  1
  Li  Li19  1  0.05907468  0.63656062  0.31431793  1
  Li  Li20  1  0.57748594  0.94092532  0.31431793  1
  Li  Li21  1  0.63656062  0.57748594  0.81431793  1
  Li  Li22  1  0.94092532  0.36343938  0.81431793  1
  Li  Li23  1  0.42251406  0.05907468  0.81431793  1
  Na  Na24  1  0.57896367  0.15792735  0.25000000  1
  Na  Na25  1  0.84207265  0.42103633  0.25000000  1
  Na  Na26  1  0.57896367  0.42103633  0.25000000  1
  Na  Na27  1  0.42103633  0.84207265  0.75000000  1
  Na  Na28  1  0.15792735  0.57896367  0.75000000  1
  Na  Na29  1  0.42103633  0.57896367  0.75000000  1
  Na  Na30  1  0.33333333  0.66666667  0.16183572  1
  Na  Na31  1  0.66666667  0.33333333  0.66183572  1
  Na  Na32  1  0.66666667  0.33333333  0.83816428  1
  Na  Na33  1  0.33333333  0.66666667  0.33816428  1
  Na  Na34  1  0.38672663  0.77345327  0.67352260  1
  Na  Na35  1  0.22654673  0.61327337  0.67352260  1
  Na  Na36  1  0.38672663  0.61327337  0.67352260  1
  Na  Na37  1  0.61327337  0.22654673  0.17352260  1
  Na  Na38  1  0.77345327  0.38672663  0.17352260  1
  Na  Na39  1  0.61327337  0.38672663  0.17352260  1
  Na  Na40  1  0.77345327  0.38672663  0.32647740  1
  Na  Na41  1  0.61327337  0.22654673  0.32647740  1
  Na  Na42  1  0.61327337  0.38672663  0.32647740  1
  Na  Na43  1  0.22654673  0.61327337  0.82647740  1
  Na  Na44  1  0.38672663  0.77345327  0.82647740  1
  Na  Na45  1  0.38672663  0.61327337  0.82647740  1
  Na  Na46  1  0.94978169  0.89956338  0.89041649  1
  Na  Na47  1  0.10043662  0.05021831  0.89041649  1
  Na  Na48  1  0.94978169  0.05021831  0.89041649  1
  Na  Na49  1  0.05021831  0.10043662  0.39041649  1
  Na  Na50  1  0.89956338  0.94978169  0.39041649  1
  Na  Na51  1  0.05021831  0.94978169  0.39041649  1
  Na  Na52  1  0.89956338  0.94978169  0.10958351  1
  Na  Na53  1  0.05021831  0.10043662  0.10958351  1
  Na  Na54  1  0.05021831  0.94978169  0.10958351  1
  Na  Na55  1  0.10043662  0.05021831  0.60958351  1
  Na  Na56  1  0.94978169  0.89956338  0.60958351  1
  Na  Na57  1  0.94978169  0.05021831  0.60958351  1
  Na  Na58  1  0.73488917  0.46977834  0.95383589  1
  Na  Na59  1  0.53022166  0.26511083  0.95383589  1
  Na  Na60  1  0.73488917  0.26511083  0.95383589  1
  Na  Na61  1  0.26511083  0.53022166  0.45383589  1
  Na  Na62  1  0.46977834  0.73488917  0.45383589  1
  Na  Na63  1  0.26511083  0.73488917  0.45383589  1
  Na  Na64  1  0.46977834  0.73488917  0.04616411  1
  Na  Na65  1  0.26511083  0.53022166  0.04616411  1
  Na  Na66  1  0.26511083  0.73488917  0.04616411  1
  Na  Na67  1  0.53022166  0.26511083  0.54616411  1
  Na  Na68  1  0.73488917  0.46977834  0.54616411  1
  Na  Na69  1  0.73488917  0.26511083  0.54616411  1
  Na  Na70  1  0.33333333  0.66666667  0.25000000  1
  Na  Na71  1  0.66666667  0.33333333  0.75000000  1
  Se  Se72  1  0.71620740  -0.00000000  0.00000000  1
  Se  Se73  1  0.00000000  0.71620740  -0.00000000  1
  Se  Se74  1  0.28379260  0.28379260  0.00000000  1
  Se  Se75  1  0.28379260  0.00000000  0.50000000  1
  Se  Se76  1  0.00000000  0.28379260  0.50000000  1
  Se  Se77  1  0.71620740  0.71620740  0.50000000  1
  Se  Se78  1  0.28379260  0.00000000  0.00000000  1
  Se  Se79  1  0.00000000  0.28379260  0.00000000  1
  Se  Se80  1  0.71620740  0.71620740  0.00000000  1
  Se  Se81  1  0.71620740  -0.00000000  0.50000000  1
  Se  Se82  1  0.00000000  0.71620740  0.50000000  1
  Se  Se83  1  0.28379260  0.28379260  0.50000000  1
  Se  Se84  1  0.36320445  0.43934899  0.79442228  1
  Se  Se85  1  -0.43934899  -0.07614454  0.79442228  1
  Se  Se86  1  0.07614454  -0.36320445  0.79442228  1
  Se  Se87  1  -0.36320445  -0.43934899  1.29442228  1
  Se  Se88  1  0.43934899  0.07614454  1.29442228  1
  Se  Se89  1  -0.07614454  0.36320445  1.29442228  1
  Se  Se90  1  0.43934899  0.36320445  -0.79442228  1
  Se  Se91  1  -0.07614454  -0.43934899  -0.79442228  1
  Se  Se92  1  -0.36320445  0.07614454  -0.79442228  1
  Se  Se93  1  -0.43934899  -0.36320445  -0.29442228  1
  Se  Se94  1  0.07614454  0.43934899  -0.29442228  1
  Se  Se95  1  0.36320445  -0.07614454  -0.29442228  1
  Se  Se96  1  -0.36320445  -0.43934899  -0.79442228  1
  Se  Se97  1  0.43934899  0.07614454  -0.79442228  1
  Se  Se98  1  -0.07614454  0.36320445  -0.79442228  1
  Se  Se99  1  0.36320445  0.43934899  -0.29442228  1
  Se  Se100  1  -0.43934899  -0.07614454  -0.29442228  1
  Se  Se101  1  0.07614454  -0.36320445  -0.29442228  1
  Se  Se102  1  -0.43934899  -0.36320445  0.79442228  1
  Se  Se103  1  0.07614454  0.43934899  0.79442228  1
  Se  Se104  1  0.36320445  -0.07614454  0.79442228  1
  Se  Se105  1  0.43934899  0.36320445  1.29442228  1
  Se  Se106  1  -0.07614454  -0.43934899  1.29442228  1
  Se  Se107  1  -0.36320445  0.07614454  1.29442228  1
  Se  Se108  1  0.87270233  0.00000000  -0.00000000  1
  Se  Se109  1  0.00000000  0.87270233  -0.00000000  1
  Se  Se110  1  0.12729767  0.12729767  0.00000000  1
  Se  Se111  1  0.12729767  0.00000000  0.50000000  1
  Se  Se112  1  0.00000000  0.12729767  0.50000000  1
  Se  Se113  1  0.87270233  0.87270233  0.50000000  1
  Se  Se114  1  0.12729767  0.00000000  0.00000000  1
  Se  Se115  1  0.00000000  0.12729767  0.00000000  1
  Se  Se116  1  0.87270233  0.87270233  -0.00000000  1
  Se  Se117  1  0.87270233  0.00000000  0.50000000  1
  Se  Se118  1  0.00000000  0.87270233  0.50000000  1
  Se  Se119  1  0.12729767  0.12729767  0.50000000  1
  Sr  Sr120  1  0.33333333  0.66666667  0.42763150  1
  Sr  Sr121  1  0.66666667  0.33333333  0.92763150  1
  Sr  Sr122  1  0.66666667  0.33333333  0.57236850  1
  Sr  Sr123  1  0.33333333  0.66666667  0.07236850  1
  Sr  Sr124  1  0.50000000  0.00000000  -0.00000000  1
  Sr  Sr125  1  0.00000000  0.50000000  -0.00000000  1
  Sr  Sr126  1  0.50000000  0.50000000  -0.00000000  1
  Sr  Sr127  1  0.50000000  0.00000000  0.50000000  1
  Sr  Sr128  1  0.00000000  0.50000000  0.50000000  1
  Sr  Sr129  1  0.50000000  0.50000000  0.50000000  1
  Sr  Sr130  1  0.00000000  0.00000000  0.00000000  1
  Sr  Sr131  1  0.00000000  0.00000000  0.50000000  1
