# generated using pymatgen
data_LiF
_symmetry_space_group_name_H-M   'P 1'
_cell_length_a   4.39890643
_cell_length_b   13.87742260
_cell_length_c   6.58333713
_cell_angle_alpha   90.00000000
_cell_angle_beta   90.00000000
_cell_angle_gamma   90.00000000
_symmetry_Int_Tables_number   1
_chemical_formula_structural   LiF
_chemical_formula_sum   'Li24 F24'
_cell_volume   401.88299803
_cell_formula_units_Z   24
loop_
 _symmetry_equiv_pos_site_id
 _symmetry_equiv_pos_as_xyz
  1  'x, y, z'
loop_
 _atom_site_type_symbol
 _atom_site_label
 _atom_site_symmetry_multiplicity
 _atom_site_fract_x
 _atom_site_fract_y
 _atom_site_fract_z
 _atom_site_occupancy
  F  F0  1  0.70000778  0.35922374  0.08932632  1
  F  F1  1  0.79999222  0.64077626  0.58932632  1
  F  F2  1  0.29999222  0.85922374  0.91067368  1
  F  F3  1  0.20000778  0.14077626  0.41067368  1
  F  F4  1  0.29999222  0.64077626  0.91067368  1
  F  F5  1  0.20000778  0.35922374  0.41067368  1
  F  F6  1  0.70000778  0.14077626  0.08932632  1
  F  F7  1  0.79999222  0.85922374  0.58932632  1
  F  F8  1  0.37903838  0.25000000  0.89047409  1
  F  F9  1  0.12096162  0.75000000  0.39047409  1
  F  F10  1  0.62096162  0.75000000  0.10952591  1
  F  F11  1  0.87903838  0.25000000  0.60952591  1
  F  F12  1  0.64670578  0.08051177  0.64430914  1
  F  F13  1  0.85329422  0.91948823  0.14430914  1
  F  F14  1  0.35329422  0.58051177  0.35569086  1
  F  F15  1  0.14670578  0.41948823  0.85569086  1
  F  F16  1  0.35329422  0.91948823  0.35569086  1
  F  F17  1  0.14670578  0.08051177  0.85569086  1
  F  F18  1  0.64670578  0.41948823  0.64430914  1
  F  F19  1  0.85329422  0.58051177  0.14430914  1
  F  F20  1  0.00000000  0.00000000  0.00000000  1
  F  F21  1  0.50000000  0.00000000  0.50000000  1
  F  F22  1  0.00000000  0.50000000  0.00000000  1
  F  F23  1  0.50000000  0.50000000  0.50000000  1
  Li  Li24  1  0.81352205  0.31476354  0.67539884  1
  Li  Li25  1  -0.31352205  -0.31476354  1.17539884  1
  Li  Li26  1  -0.81352205  0.81476354  -0.67539884  1
  Li  Li27  1  1.31352205  0.18523646  -0.17539884  1
  Li  Li28  1  -0.81352205  -0.31476354  -0.67539884  1
  Li  Li29  1  1.31352205  0.31476354  -0.17539884  1
  Li  Li30  1  0.81352205  0.18523646  0.67539884  1
  Li  Li31  1  -0.31352205  0.81476354  1.17539884  1
  Li  Li32  1  0.10657698  0.25000000  0.87096298  1
  Li  Li33  1  0.39342302  0.75000000  0.37096298  1
  Li  Li34  1  0.89342302  0.75000000  0.12903702  1
  Li  Li35  1  0.60657698  0.25000000  0.62903702  1
  Li  Li36  1  0.97974301  0.49262767  0.24837690  1
  Li  Li37  1  0.52025699  0.50737233  0.74837690  1
  Li  Li38  1  0.02025699  0.99262767  0.75162310  1
  Li  Li39  1  0.47974301  0.00737233  0.25162310  1
  Li  Li40  1  0.02025699  0.50737233  0.75162310  1
  Li  Li41  1  0.47974301  0.49262767  0.25162310  1
  Li  Li42  1  0.97974301  0.00737233  0.24837690  1
  Li  Li43  1  0.52025699  0.99262767  0.74837690  1
  Li  Li44  1  0.00000000  0.00000000  0.50000000  1
  Li  Li45  1  0.50000000  0.00000000  0.00000000  1
  Li  Li46  1  0.00000000  0.50000000  0.50000000  1
  Li  Li47  1  0.50000000  0.50000000  -0.00000000  1
