# generated using pymatgen
data_LiF
_symmetry_space_group_name_H-M   'P 1'
_cell_length_a   8.30009766
_cell_length_b   8.30009766
_cell_length_c   4.24454422
_cell_angle_alpha   90.00000000
_cell_angle_beta   90.00000000
_cell_angle_gamma   120.00000000
_symmetry_Int_Tables_number   1
_chemical_formula_structural   LiF
_chemical_formula_sum   'Li14 F14'
_cell_volume   253.23754748
_cell_formula_units_Z   14
loop_
 _symmetry_equiv_pos_site_id
 _symmetry_equiv_pos_as_xyz
  1  'x, y, z'
loop_
 _atom_site_type_symbol
 _atom_site_label
 _atom_site_symmetry_multiplicity
 _atom_site_fract_x
 _atom_site_fract_y
 _atom_site_fract_z
 _atom_site_occupancy
  F  F0  1  0.83442376  0.84693867  0.83697598  1
  F  F1  1  0.15306133  0.98748509  0.83697598  1
  F  F2  1  0.01251491  0.16557624  0.83697598  1
  F  F3  1  0.15306133  0.16557624  0.16302402  1
  F  F4  1  0.01251491  0.84693867  0.16302402  1
  F  F5  1  0.83442376  0.98748509  0.16302402  1
  F  F6  1  0.00231416  0.13914863  0.55608202  1
  F  F7  1  0.86085137  0.86316553  0.55608202  1
  F  F8  1  0.13683447  0.99768584  0.55608202  1
  F  F9  1  0.86085137  0.99768584  0.44391798  1
  F  F10  1  0.13683447  0.13914863  0.44391798  1
  F  F11  1  0.00231416  0.86316553  0.44391798  1
  F  F12  1  0.33333333  0.66666667  0.50000000  1
  F  F13  1  0.66666667  0.33333333  0.00000000  1
  Li  Li14  1  0.47369644  0.52630356  0.00000000  1
  Li  Li15  1  0.47369644  0.94739288  0.00000000  1
  Li  Li16  1  0.05260712  0.52630356  0.00000000  1
  Li  Li17  1  0.79110142  0.16430904  0.81383053  1
  Li  Li18  1  -0.16430904  0.62679239  0.81383053  1
  Li  Li19  1  -0.62679239  -0.79110142  0.81383053  1
  Li  Li20  1  -0.16430904  -0.79110142  -0.81383053  1
  Li  Li21  1  -0.62679239  0.16430904  -0.81383053  1
  Li  Li22  1  0.79110142  0.62679239  -0.81383053  1
  Li  Li23  1  0.00000000  0.00000000  0.50000000  1
  Li  Li24  1  0.21573123  0.78426877  0.00000000  1
  Li  Li25  1  0.21573123  0.43146245  0.00000000  1
  Li  Li26  1  0.56853755  0.78426877  0.00000000  1
  Li  Li27  1  0.33333333  0.66666667  0.00000000  1
