# generated using pymatgen
data_LiY2P3Se
_symmetry_space_group_name_H-M   'P 1'
_cell_length_a   5.56891620
_cell_length_b   5.77439246
_cell_length_c   7.19918330
_cell_angle_alpha   93.29301227
_cell_angle_beta   97.44007735
_cell_angle_gamma   103.55101799
_symmetry_Int_Tables_number   1
_chemical_formula_structural   LiY2P3Se
_chemical_formula_sum   'Li1 Y2 P3 Se1'
_cell_volume   222.23815102
_cell_formula_units_Z   1
loop_
 _symmetry_equiv_pos_site_id
 _symmetry_equiv_pos_as_xyz
  1  'x, y, z'
loop_
 _atom_site_type_symbol
 _atom_site_label
 _atom_site_symmetry_multiplicity
 _atom_site_fract_x
 _atom_site_fract_y
 _atom_site_fract_z
 _atom_site_occupancy
  Se  Se0  1  0.00000000  0.00000000  0.00000000  1
  Y  Y1  1  0.50000000  0.50000000  0.50000000  1
  Y  Y2  1  0.25000000  0.25000000  0.25000000  1
  P  P3  1  0.75000000  0.25000000  0.00000000  1
  P  P4  1  0.25000000  0.75000000  0.50000000  1
  P  P5  1  0.04028315  0.55718725  0.64681009  1
  Li  Li6  1  0.01977199  0.66939701  0.80015990  1
