# generated using pymatgen
data_Li3Ti3CuP3O
_symmetry_space_group_name_H-M   'P 1'
_cell_length_a   6.82637012
_cell_length_b   6.32861439
_cell_length_c   8.50661201
_cell_angle_alpha   98.52162843
_cell_angle_beta   98.98633145
_cell_angle_gamma   97.69064785
_symmetry_Int_Tables_number   1
_chemical_formula_structural   Li3Ti3CuP3O
_chemical_formula_sum   'Li3 Ti3 Cu1 P3 O1'
_cell_volume   354.31463599
_cell_formula_units_Z   1
loop_
 _symmetry_equiv_pos_site_id
 _symmetry_equiv_pos_as_xyz
  1  'x, y, z'
loop_
 _atom_site_type_symbol
 _atom_site_label
 _atom_site_symmetry_multiplicity
 _atom_site_fract_x
 _atom_site_fract_y
 _atom_site_fract_z
 _atom_site_occupancy
  Cu  Cu0  1  0.12500000  0.00000000  0.25000000  1
  P  P1  1  0.00000000  0.00000000  0.00000000  1
  P  P2  1  0.37500000  0.00000000  0.25000000  1
  P  P3  1  0.25000000  0.25000000  0.25000000  1
  Ti  Ti4  1  0.00000000  0.25000000  0.12500000  1
  Ti  Ti5  1  0.11774078  0.39049052  0.02365880  1
  Ti  Ti6  1  0.67915836  0.72719685  0.65342833  1
  O  O7  1  0.54545160  0.46674195  0.33229187  1
  Li  Li8  1  0.70411674  0.76422194  0.81375371  1
  Li  Li9  1  0.73384764  0.83504865  0.56717120  1
  Li  Li10  1  0.99420123  0.08061019  0.21664258  1
