# generated using pymatgen
data_Li4TeF2
_symmetry_space_group_name_H-M   'P 1'
_cell_length_a   13.88828687
_cell_length_b   13.88828687
_cell_length_c   13.88828687
_cell_angle_alpha   90.00000000
_cell_angle_beta   90.00000000
_cell_angle_gamma   90.00000000
_symmetry_Int_Tables_number   1
_chemical_formula_structural   Li4TeF2
_chemical_formula_sum   'Li96 Te24 F48'
_cell_volume   2678.83543518
_cell_formula_units_Z   24
loop_
 _symmetry_equiv_pos_site_id
 _symmetry_equiv_pos_as_xyz
  1  'x, y, z'
loop_
 _atom_site_type_symbol
 _atom_site_label
 _atom_site_symmetry_multiplicity
 _atom_site_fract_x
 _atom_site_fract_y
 _atom_site_fract_z
 _atom_site_occupancy
  F  F0  1  0.72162625  0.24154612  0.70281887  1
  F  F1  1  -0.22162625  -0.24154612  1.20281887  1
  F  F2  1  -0.72162625  0.74154612  -0.20281887  1
  F  F3  1  1.22162625  0.25845388  -0.70281887  1
  F  F4  1  0.70281887  0.72162625  0.24154612  1
  F  F5  1  1.20281887  -0.22162625  -0.24154612  1
  F  F6  1  -0.20281887  -0.72162625  0.74154612  1
  F  F7  1  -0.70281887  1.22162625  0.25845388  1
  F  F8  1  0.24154612  0.70281887  0.72162625  1
  F  F9  1  -0.24154612  1.20281887  -0.22162625  1
  F  F10  1  0.74154612  -0.20281887  -0.72162625  1
  F  F11  1  0.25845388  -0.70281887  1.22162625  1
  F  F12  1  0.99154612  0.97162625  -0.45281887  1
  F  F13  1  0.50845388  0.02837375  0.04718113  1
  F  F14  1  0.49154612  -0.47162625  1.45281887  1
  F  F15  1  0.00845388  1.47162625  0.95281887  1
  F  F16  1  1.47162625  0.95281887  0.00845388  1
  F  F17  1  -0.47162625  1.45281887  0.49154612  1
  F  F18  1  0.02837375  0.04718113  0.50845388  1
  F  F19  1  0.97162625  -0.45281887  0.99154612  1
  F  F20  1  1.45281887  0.49154612  -0.47162625  1
  F  F21  1  0.95281887  0.00845388  1.47162625  1
  F  F22  1  -0.45281887  0.99154612  0.97162625  1
  F  F23  1  0.04718113  0.50845388  0.02837375  1
  F  F24  1  1.22162625  0.74154612  1.20281887  1
  F  F25  1  0.27837375  0.25845388  1.70281887  1
  F  F26  1  -0.22162625  1.24154612  0.29718113  1
  F  F27  1  1.72162625  0.75845388  -0.20281887  1
  F  F28  1  1.20281887  1.22162625  0.74154612  1
  F  F29  1  1.70281887  0.27837375  0.25845388  1
  F  F30  1  0.29718113  -0.22162625  1.24154612  1
  F  F31  1  -0.20281887  1.72162625  0.75845388  1
  F  F32  1  0.74154612  1.20281887  1.22162625  1
  F  F33  1  0.25845388  1.70281887  0.27837375  1
  F  F34  1  1.24154612  0.29718113  -0.22162625  1
  F  F35  1  0.75845388  -0.20281887  1.72162625  1
  F  F36  1  1.49154612  1.47162625  0.04718113  1
  F  F37  1  1.00845388  0.52837375  0.54718113  1
  F  F38  1  0.99154612  0.02837375  1.95281887  1
  F  F39  1  0.50845388  1.97162625  1.45281887  1
  F  F40  1  1.97162625  1.45281887  0.50845388  1
  F  F41  1  0.02837375  1.95281887  0.99154612  1
  F  F42  1  0.52837375  0.54718113  1.00845388  1
  F  F43  1  1.47162625  0.04718113  1.49154612  1
  F  F44  1  1.95281887  0.99154612  0.02837375  1
  F  F45  1  1.45281887  0.50845388  1.97162625  1
  F  F46  1  0.04718113  1.49154612  1.47162625  1
  F  F47  1  0.54718113  1.00845388  0.52837375  1
  Li  Li48  1  0.06333605  0.15628950  0.56584174  1
  Li  Li49  1  0.43666395  0.84371050  0.06584174  1
  Li  Li50  1  0.93666395  0.65628950  0.93415826  1
  Li  Li51  1  0.56333605  0.34371050  0.43415826  1
  Li  Li52  1  0.56584174  0.06333605  0.15628950  1
  Li  Li53  1  0.06584174  0.43666395  0.84371050  1
  Li  Li54  1  0.93415826  0.93666395  0.65628950  1
  Li  Li55  1  0.43415826  0.56333605  0.34371050  1
  Li  Li56  1  0.15628950  0.56584174  0.06333605  1
  Li  Li57  1  0.84371050  0.06584174  0.43666395  1
  Li  Li58  1  0.65628950  0.93415826  0.93666395  1
  Li  Li59  1  0.34371050  0.43415826  0.56333605  1
  Li  Li60  1  0.90628950  0.31333605  0.68415826  1
  Li  Li61  1  0.59371050  0.68666395  0.18415826  1
  Li  Li62  1  0.40628950  0.18666395  0.31584174  1
  Li  Li63  1  0.09371050  0.81333605  0.81584174  1
  Li  Li64  1  0.81333605  0.81584174  0.09371050  1
  Li  Li65  1  0.18666395  0.31584174  0.40628950  1
  Li  Li66  1  0.68666395  0.18415826  0.59371050  1
  Li  Li67  1  0.31333605  0.68415826  0.90628950  1
  Li  Li68  1  0.31584174  0.40628950  0.18666395  1
  Li  Li69  1  0.81584174  0.09371050  0.81333605  1
  Li  Li70  1  0.68415826  0.90628950  0.31333605  1
  Li  Li71  1  0.18415826  0.59371050  0.68666395  1
  Li  Li72  1  0.56333605  0.65628950  0.06584174  1
  Li  Li73  1  0.93666395  0.34371050  0.56584174  1
  Li  Li74  1  0.43666395  0.15628950  0.43415826  1
  Li  Li75  1  0.06333605  0.84371050  0.93415826  1
  Li  Li76  1  0.06584174  0.56333605  0.65628950  1
  Li  Li77  1  0.56584174  0.93666395  0.34371050  1
  Li  Li78  1  0.43415826  0.43666395  0.15628950  1
  Li  Li79  1  0.93415826  0.06333605  0.84371050  1
  Li  Li80  1  0.65628950  0.06584174  0.56333605  1
  Li  Li81  1  0.34371050  0.56584174  0.93666395  1
  Li  Li82  1  0.15628950  0.43415826  0.43666395  1
  Li  Li83  1  0.84371050  0.93415826  0.06333605  1
  Li  Li84  1  0.40628950  0.81333605  0.18415826  1
  Li  Li85  1  0.09371050  0.18666395  0.68415826  1
  Li  Li86  1  0.90628950  0.68666395  0.81584174  1
  Li  Li87  1  0.59371050  0.31333605  0.31584174  1
  Li  Li88  1  0.31333605  0.31584174  0.59371050  1
  Li  Li89  1  0.68666395  0.81584174  0.90628950  1
  Li  Li90  1  0.18666395  0.68415826  0.09371050  1
  Li  Li91  1  0.81333605  0.18415826  0.40628950  1
  Li  Li92  1  0.81584174  0.90628950  0.68666395  1
  Li  Li93  1  0.31584174  0.59371050  0.31333605  1
  Li  Li94  1  0.18415826  0.40628950  0.81333605  1
  Li  Li95  1  0.68415826  0.09371050  0.18666395  1
  Li  Li96  1  0.92624620  0.92624620  0.92624620  1
  Li  Li97  1  0.57375380  0.07375380  0.42624620  1
  Li  Li98  1  0.07375380  0.42624620  0.57375380  1
  Li  Li99  1  0.42624620  0.57375380  0.07375380  1
  Li  Li100  1  0.67624620  0.17624620  0.32375380  1
  Li  Li101  1  0.82375380  0.82375380  0.82375380  1
  Li  Li102  1  0.17624620  0.32375380  0.67624620  1
  Li  Li103  1  0.32375380  0.67624620  0.17624620  1
  Li  Li104  1  0.42624620  0.42624620  0.42624620  1
  Li  Li105  1  0.07375380  0.57375380  0.92624620  1
  Li  Li106  1  0.57375380  0.92624620  0.07375380  1
  Li  Li107  1  0.92624620  0.07375380  0.57375380  1
  Li  Li108  1  0.17624620  0.67624620  0.82375380  1
  Li  Li109  1  0.32375380  0.32375380  0.32375380  1
  Li  Li110  1  0.67624620  0.82375380  0.17624620  1
  Li  Li111  1  0.82375380  0.17624620  0.67624620  1
  Li  Li112  1  0.12500000  -0.00000000  0.25000000  1
  Li  Li113  1  0.37500000  -0.00000000  0.75000000  1
  Li  Li114  1  0.25000000  0.12500000  -0.00000000  1
  Li  Li115  1  0.75000000  0.37500000  0.00000000  1
  Li  Li116  1  0.00000000  0.25000000  0.12500000  1
  Li  Li117  1  0.00000000  0.75000000  0.37500000  1
  Li  Li118  1  0.62500000  0.50000000  0.75000000  1
  Li  Li119  1  0.87500000  0.50000000  0.25000000  1
  Li  Li120  1  0.75000000  0.62500000  0.50000000  1
  Li  Li121  1  0.25000000  0.87500000  0.50000000  1
  Li  Li122  1  0.50000000  0.75000000  0.62500000  1
  Li  Li123  1  0.50000000  0.25000000  0.87500000  1
  Li  Li124  1  0.12500000  0.12500000  0.12500000  1
  Li  Li125  1  0.37500000  0.87500000  0.62500000  1
  Li  Li126  1  0.87500000  0.62500000  0.37500000  1
  Li  Li127  1  0.62500000  0.37500000  0.87500000  1
  Li  Li128  1  0.62500000  0.62500000  0.62500000  1
  Li  Li129  1  0.87500000  0.37500000  0.12500000  1
  Li  Li130  1  0.37500000  0.12500000  0.87500000  1
  Li  Li131  1  0.12500000  0.87500000  0.37500000  1
  Li  Li132  1  0.62500000  0.00000000  0.25000000  1
  Li  Li133  1  0.87500000  -0.00000000  0.75000000  1
  Li  Li134  1  0.25000000  0.62500000  0.00000000  1
  Li  Li135  1  0.75000000  0.87500000  -0.00000000  1
  Li  Li136  1  0.00000000  0.25000000  0.62500000  1
  Li  Li137  1  0.00000000  0.75000000  0.87500000  1
  Li  Li138  1  0.12500000  0.50000000  0.75000000  1
  Li  Li139  1  0.37500000  0.50000000  0.25000000  1
  Li  Li140  1  0.75000000  0.12500000  0.50000000  1
  Li  Li141  1  0.25000000  0.37500000  0.50000000  1
  Li  Li142  1  0.50000000  0.75000000  0.12500000  1
  Li  Li143  1  0.50000000  0.25000000  0.37500000  1
  Te  Te144  1  0.43097983  0.00000000  0.25000000  1
  Te  Te145  1  0.06902017  0.00000000  0.75000000  1
  Te  Te146  1  0.25000000  0.43097983  -0.00000000  1
  Te  Te147  1  0.75000000  0.06902017  -0.00000000  1
  Te  Te148  1  0.00000000  0.25000000  0.43097983  1
  Te  Te149  1  0.00000000  0.75000000  0.06902017  1
  Te  Te150  1  0.75000000  0.68097983  -0.00000000  1
  Te  Te151  1  0.75000000  0.31902017  0.50000000  1
  Te  Te152  1  0.18097983  0.50000000  0.25000000  1
  Te  Te153  1  0.81902017  0.00000000  0.25000000  1
  Te  Te154  1  0.00000000  0.25000000  0.81902017  1
  Te  Te155  1  0.50000000  0.25000000  0.18097983  1
  Te  Te156  1  0.93097983  0.50000000  0.75000000  1
  Te  Te157  1  0.56902017  0.50000000  0.25000000  1
  Te  Te158  1  0.75000000  0.93097983  0.50000000  1
  Te  Te159  1  0.25000000  0.56902017  0.50000000  1
  Te  Te160  1  0.50000000  0.75000000  0.93097983  1
  Te  Te161  1  0.50000000  0.25000000  0.56902017  1
  Te  Te162  1  0.25000000  0.18097983  0.50000000  1
  Te  Te163  1  0.25000000  0.81902017  0.00000000  1
  Te  Te164  1  0.68097983  -0.00000000  0.75000000  1
  Te  Te165  1  0.31902017  0.50000000  0.75000000  1
  Te  Te166  1  0.50000000  0.75000000  0.31902017  1
  Te  Te167  1  0.00000000  0.75000000  0.68097983  1
