# generated using pymatgen
data_LiF
_symmetry_space_group_name_H-M   'P 1'
_cell_length_a   4.99718306
_cell_length_b   7.75733566
_cell_length_c   8.31160663
_cell_angle_alpha   90.00000000
_cell_angle_beta   90.00000000
_cell_angle_gamma   90.00000000
_symmetry_Int_Tables_number   1
_chemical_formula_structural   LiF
_chemical_formula_sum   'Li24 F24'
_cell_volume   322.19798769
_cell_formula_units_Z   24
loop_
 _symmetry_equiv_pos_site_id
 _symmetry_equiv_pos_as_xyz
  1  'x, y, z'
loop_
 _atom_site_type_symbol
 _atom_site_label
 _atom_site_symmetry_multiplicity
 _atom_site_fract_x
 _atom_site_fract_y
 _atom_site_fract_z
 _atom_site_occupancy
  F  F0  1  0.78145137  0.60377650  0.96616247  1
  F  F1  1  -0.28145137  -0.60377650  1.46616247  1
  F  F2  1  -0.78145137  1.10377650  -0.96616247  1
  F  F3  1  1.28145137  -0.10377650  -0.46616247  1
  F  F4  1  -0.78145137  -0.60377650  -0.96616247  1
  F  F5  1  1.28145137  0.60377650  -0.46616247  1
  F  F6  1  0.78145137  -0.10377650  0.96616247  1
  F  F7  1  -0.28145137  1.10377650  1.46616247  1
  F  F8  1  0.29270745  0.31459869  0.58042600  1
  F  F9  1  0.20729255  0.68540131  0.08042600  1
  F  F10  1  0.70729255  0.81459869  0.41957400  1
  F  F11  1  0.79270745  0.18540131  0.91957400  1
  F  F12  1  0.70729255  0.68540131  0.41957400  1
  F  F13  1  0.79270745  0.31459869  0.91957400  1
  F  F14  1  0.29270745  0.18540131  0.58042600  1
  F  F15  1  0.20729255  0.81459869  0.08042600  1
  F  F16  1  0.73611984  0.25000000  0.25532040  1
  F  F17  1  0.76388016  0.75000000  0.75532040  1
  F  F18  1  0.26388016  0.75000000  0.74467960  1
  F  F19  1  0.23611984  0.25000000  0.24467960  1
  F  F20  1  0.53776420  0.25000000  0.48864571  1
  F  F21  1  0.96223580  0.75000000  0.98864571  1
  F  F22  1  0.46223580  0.75000000  0.51135429  1
  F  F23  1  0.03776420  0.25000000  0.01135429  1
  Li  Li24  1  0.00000000  0.00000000  0.00000000  1
  Li  Li25  1  0.50000000  0.00000000  0.50000000  1
  Li  Li26  1  0.00000000  0.50000000  -0.00000000  1
  Li  Li27  1  0.50000000  0.50000000  0.50000000  1
  Li  Li28  1  0.94755856  0.25000000  0.20935000  1
  Li  Li29  1  0.55244144  0.75000000  0.70935000  1
  Li  Li30  1  0.05244144  0.75000000  0.79065000  1
  Li  Li31  1  0.44755856  0.25000000  0.29065000  1
  Li  Li32  1  0.87818432  0.25000000  0.79111531  1
  Li  Li33  1  0.62181568  0.75000000  0.29111531  1
  Li  Li34  1  0.12181568  0.75000000  0.20888469  1
  Li  Li35  1  0.37818432  0.25000000  0.70888469  1
  Li  Li36  1  0.86803923  0.25000000  0.05750778  1
  Li  Li37  1  0.63196077  0.75000000  0.55750778  1
  Li  Li38  1  0.13196077  0.75000000  0.94249222  1
  Li  Li39  1  0.36803923  0.25000000  0.44249222  1
  Li  Li40  1  0.00000000  0.00000000  0.50000000  1
  Li  Li41  1  0.50000000  0.00000000  -0.00000000  1
  Li  Li42  1  0.00000000  0.50000000  0.50000000  1
  Li  Li43  1  0.50000000  0.50000000  -0.00000000  1
  Li  Li44  1  0.52792967  0.25000000  0.00721637  1
  Li  Li45  1  0.97207033  0.75000000  0.50721637  1
  Li  Li46  1  0.47207033  0.75000000  0.99278363  1
  Li  Li47  1  0.02792967  0.25000000  0.49278363  1
