# generated using pymatgen
data_Li2Si4Te3F12
_symmetry_space_group_name_H-M   'P 1'
_cell_length_a   11.41855002
_cell_length_b   11.08777195
_cell_length_c   10.26430751
_cell_angle_alpha   90.00000000
_cell_angle_beta   90.00000000
_cell_angle_gamma   90.00000000
_symmetry_Int_Tables_number   1
_chemical_formula_structural   Li2Si4Te3F12
_chemical_formula_sum   'Li8 Si16 Te12 F48'
_cell_volume   1299.52577641
_cell_formula_units_Z   4
loop_
 _symmetry_equiv_pos_site_id
 _symmetry_equiv_pos_as_xyz
  1  'x, y, z'
loop_
 _atom_site_type_symbol
 _atom_site_label
 _atom_site_symmetry_multiplicity
 _atom_site_fract_x
 _atom_site_fract_y
 _atom_site_fract_z
 _atom_site_occupancy
  F  F0  1  0.25597990  0.08084850  0.00000000  1
  F  F1  1  0.74402010  0.91915150  0.00000000  1
  F  F2  1  0.24402010  0.58084850  0.00000000  1
  F  F3  1  0.75597990  0.41915150  -0.00000000  1
  F  F4  1  0.00000000  0.50000000  0.13232030  1
  F  F5  1  0.50000000  0.00000000  0.86767970  1
  F  F6  1  0.00000000  0.50000000  0.86767970  1
  F  F7  1  0.50000000  0.00000000  0.13232030  1
  F  F8  1  0.00000000  0.50000000  0.32719667  1
  F  F9  1  0.50000000  0.00000000  0.67280333  1
  F  F10  1  0.00000000  0.50000000  0.67280333  1
  F  F11  1  0.50000000  0.00000000  0.32719667  1
  F  F12  1  0.21275603  0.36062906  0.68144125  1
  F  F13  1  -0.21275603  -0.36062906  0.68144125  1
  F  F14  1  0.28724397  0.86062906  -0.68144125  1
  F  F15  1  0.71275603  0.13937094  -0.68144125  1
  F  F16  1  -0.21275603  -0.36062906  -0.68144125  1
  F  F17  1  0.21275603  0.36062906  -0.68144125  1
  F  F18  1  0.71275603  0.13937094  0.68144125  1
  F  F19  1  0.28724397  0.86062906  0.68144125  1
  F  F20  1  0.53816396  0.28410051  0.64400508  1
  F  F21  1  0.46183604  0.71589949  0.64400508  1
  F  F22  1  0.96183604  0.78410051  0.35599492  1
  F  F23  1  0.03816396  0.21589949  0.35599492  1
  F  F24  1  0.46183604  0.71589949  0.35599492  1
  F  F25  1  0.53816396  0.28410051  0.35599492  1
  F  F26  1  0.03816396  0.21589949  0.64400508  1
  F  F27  1  0.96183604  0.78410051  0.64400508  1
  F  F28  1  0.72759552  0.44434630  0.94040292  1
  F  F29  1  0.27240448  0.55565370  0.94040292  1
  F  F30  1  0.77240448  0.94434630  0.05959708  1
  F  F31  1  0.22759552  0.05565370  0.05959708  1
  F  F32  1  0.27240448  0.55565370  0.05959708  1
  F  F33  1  0.72759552  0.44434630  0.05959708  1
  F  F34  1  0.22759552  0.05565370  0.94040292  1
  F  F35  1  0.77240448  0.94434630  0.94040292  1
  F  F36  1  0.00000000  0.50000000  0.73757338  1
  F  F37  1  0.50000000  0.00000000  0.26242662  1
  F  F38  1  0.00000000  0.50000000  0.26242662  1
  F  F39  1  0.50000000  0.00000000  0.73757338  1
  F  F40  1  0.07007217  0.35358786  0.06502868  1
  F  F41  1  0.92992783  0.64641214  0.06502868  1
  F  F42  1  0.42992783  0.85358786  0.93497132  1
  F  F43  1  0.57007217  0.14641214  0.93497132  1
  F  F44  1  0.92992783  0.64641214  0.93497132  1
  F  F45  1  0.07007217  0.35358786  0.93497132  1
  F  F46  1  0.57007217  0.14641214  0.06502868  1
  F  F47  1  0.42992783  0.85358786  0.06502868  1
  Li  Li48  1  0.69486423  0.35362921  0.59511080  1
  Li  Li49  1  0.30513577  0.64637079  0.59511080  1
  Li  Li50  1  0.80513577  0.85362921  0.40488920  1
  Li  Li51  1  0.19486423  0.14637079  0.40488920  1
  Li  Li52  1  0.30513577  0.64637079  0.40488920  1
  Li  Li53  1  0.69486423  0.35362921  0.40488920  1
  Li  Li54  1  0.19486423  0.14637079  0.59511080  1
  Li  Li55  1  0.80513577  0.85362921  0.59511080  1
  Si  Si56  1  0.83673333  0.31895660  0.22909097  1
  Si  Si57  1  0.16326667  0.68104340  0.22909097  1
  Si  Si58  1  0.66326667  0.81895660  0.77090903  1
  Si  Si59  1  0.33673333  0.18104340  0.77090903  1
  Si  Si60  1  0.16326667  0.68104340  0.77090903  1
  Si  Si61  1  0.83673333  0.31895660  0.77090903  1
  Si  Si62  1  0.33673333  0.18104340  0.22909097  1
  Si  Si63  1  0.66326667  0.81895660  0.22909097  1
  Si  Si64  1  0.39497170  0.82721172  0.81762871  1
  Si  Si65  1  0.60502830  0.17278828  0.81762871  1
  Si  Si66  1  0.10502830  0.32721172  0.18237129  1
  Si  Si67  1  0.89497170  0.67278828  0.18237129  1
  Si  Si68  1  0.60502830  0.17278828  0.18237129  1
  Si  Si69  1  0.39497170  0.82721172  0.18237129  1
  Si  Si70  1  0.89497170  0.67278828  0.81762871  1
  Si  Si71  1  0.10502830  0.32721172  0.81762871  1
  Te  Te72  1  0.37456249  0.74878518  0.00000000  1
  Te  Te73  1  0.62543751  0.25121482  0.00000000  1
  Te  Te74  1  0.12543751  0.24878518  0.00000000  1
  Te  Te75  1  0.87456249  0.75121482  -0.00000000  1
  Te  Te76  1  0.00000000  0.50000000  0.50000000  1
  Te  Te77  1  0.50000000  0.00000000  0.50000000  1
  Te  Te78  1  0.00000000  0.00000000  0.92124750  1
  Te  Te79  1  0.50000000  0.50000000  0.07875250  1
  Te  Te80  1  0.00000000  0.00000000  0.07875250  1
  Te  Te81  1  0.50000000  0.50000000  0.92124750  1
  Te  Te82  1  0.00000000  0.00000000  0.50000000  1
  Te  Te83  1  0.50000000  0.50000000  0.50000000  1
