# generated using pymatgen
data_LiF
_symmetry_space_group_name_H-M   'P 1'
_cell_length_a   5.09817013
_cell_length_b   7.01181409
_cell_length_c   6.65684429
_cell_angle_alpha   90.00000000
_cell_angle_beta   90.00000000
_cell_angle_gamma   90.00000000
_symmetry_Int_Tables_number   1
_chemical_formula_structural   LiF
_chemical_formula_sum   'Li12 F12'
_cell_volume   237.96501634
_cell_formula_units_Z   12
loop_
 _symmetry_equiv_pos_site_id
 _symmetry_equiv_pos_as_xyz
  1  'x, y, z'
loop_
 _atom_site_type_symbol
 _atom_site_label
 _atom_site_symmetry_multiplicity
 _atom_site_fract_x
 _atom_site_fract_y
 _atom_site_fract_z
 _atom_site_occupancy
  F  F0  1  0.65800784  0.32989379  0.89124000  1
  F  F1  1  0.84199216  0.67010621  0.39124000  1
  F  F2  1  0.34199216  0.82989379  0.10876000  1
  F  F3  1  0.15800784  0.17010621  0.60876000  1
  F  F4  1  0.34199216  0.67010621  0.10876000  1
  F  F5  1  0.15800784  0.32989379  0.60876000  1
  F  F6  1  0.65800784  0.17010621  0.89124000  1
  F  F7  1  0.84199216  0.82989379  0.39124000  1
  F  F8  1  0.84960718  0.25000000  0.36424859  1
  F  F9  1  0.65039282  0.75000000  0.86424859  1
  F  F10  1  0.15039282  0.75000000  0.63575141  1
  F  F11  1  0.34960718  0.25000000  0.13575141  1
  Li  Li12  1  0.28158647  0.25000000  0.39863999  1
  Li  Li13  1  0.21841353  0.75000000  0.89863999  1
  Li  Li14  1  0.71841353  0.75000000  0.60136001  1
  Li  Li15  1  0.78158647  0.25000000  0.10136001  1
  Li  Li16  1  0.91177082  0.39443801  0.42561443  1
  Li  Li17  1  -0.41177082  -0.39443801  0.92561443  1
  Li  Li18  1  -0.91177082  0.89443801  -0.42561443  1
  Li  Li19  1  1.41177082  0.10556199  0.07438557  1
  Li  Li20  1  -0.91177082  -0.39443801  -0.42561443  1
  Li  Li21  1  1.41177082  0.39443801  0.07438557  1
  Li  Li22  1  0.91177082  0.10556199  0.42561443  1
  Li  Li23  1  -0.41177082  0.89443801  0.92561443  1
