# generated using pymatgen
data_LiF
_symmetry_space_group_name_H-M   'P 1'
_cell_length_a   13.89609444
_cell_length_b   13.89609444
_cell_length_c   7.84976445
_cell_angle_alpha   90.00000000
_cell_angle_beta   90.00000000
_cell_angle_gamma   120.00000000
_symmetry_Int_Tables_number   1
_chemical_formula_structural   LiF
_chemical_formula_sum   'Li48 F48'
_cell_volume   1312.72202189
_cell_formula_units_Z   48
loop_
 _symmetry_equiv_pos_site_id
 _symmetry_equiv_pos_as_xyz
  1  'x, y, z'
loop_
 _atom_site_type_symbol
 _atom_site_label
 _atom_site_symmetry_multiplicity
 _atom_site_fract_x
 _atom_site_fract_y
 _atom_site_fract_z
 _atom_site_occupancy
  F  F0  1  0.00000000  0.00000000  0.25000000  1
  F  F1  1  0.00000000  0.00000000  0.75000000  1
  F  F2  1  0.73374798  0.74017408  0.15353619  1
  F  F3  1  -0.74017408  -0.00642610  0.15353619  1
  F  F4  1  0.00642610  -0.73374798  0.15353619  1
  F  F5  1  -0.73374798  -0.74017408  0.65353619  1
  F  F6  1  0.74017408  0.00642610  0.65353619  1
  F  F7  1  -0.00642610  0.73374798  0.65353619  1
  F  F8  1  -0.73374798  -0.74017408  -0.15353619  1
  F  F9  1  0.74017408  0.00642610  -0.15353619  1
  F  F10  1  -0.00642610  0.73374798  -0.15353619  1
  F  F11  1  0.73374798  0.74017408  0.34646381  1
  F  F12  1  -0.74017408  -0.00642610  0.34646381  1
  F  F13  1  0.00642610  -0.73374798  0.34646381  1
  F  F14  1  0.55971330  0.58822227  0.32745539  1
  F  F15  1  0.41177773  0.97149103  0.32745539  1
  F  F16  1  0.02850897  0.44028670  0.32745539  1
  F  F17  1  0.44028670  0.41177773  0.82745539  1
  F  F18  1  0.58822227  0.02850897  0.82745539  1
  F  F19  1  0.97149103  0.55971330  0.82745539  1
  F  F20  1  0.44028670  0.41177773  0.67254461  1
  F  F21  1  0.58822227  0.02850897  0.67254461  1
  F  F22  1  0.97149103  0.55971330  0.67254461  1
  F  F23  1  0.55971330  0.58822227  0.17254461  1
  F  F24  1  0.41177773  0.97149103  0.17254461  1
  F  F25  1  0.02850897  0.44028670  0.17254461  1
  F  F26  1  0.00000000  0.00000000  0.00000000  1
  F  F27  1  0.00000000  0.00000000  0.50000000  1
  F  F28  1  0.33333333  0.66666667  0.21355958  1
  F  F29  1  0.66666667  0.33333333  0.71355958  1
  F  F30  1  0.66666667  0.33333333  0.78644042  1
  F  F31  1  0.33333333  0.66666667  0.28644042  1
  F  F32  1  0.10465988  0.27096735  0.68598346  1
  F  F33  1  0.72903265  0.83369253  0.68598346  1
  F  F34  1  0.16630747  0.89534012  0.68598346  1
  F  F35  1  0.89534012  0.72903265  0.18598346  1
  F  F36  1  0.27096735  0.16630747  0.18598346  1
  F  F37  1  0.83369253  0.10465988  0.18598346  1
  F  F38  1  0.89534012  0.72903265  0.31401654  1
  F  F39  1  0.27096735  0.16630747  0.31401654  1
  F  F40  1  0.83369253  0.10465988  0.31401654  1
  F  F41  1  0.10465988  0.27096735  0.81401654  1
  F  F42  1  0.72903265  0.83369253  0.81401654  1
  F  F43  1  0.16630747  0.89534012  0.81401654  1
  F  F44  1  0.33333333  0.66666667  0.60814522  1
  F  F45  1  0.66666667  0.33333333  0.10814522  1
  F  F46  1  0.66666667  0.33333333  0.39185478  1
  F  F47  1  0.33333333  0.66666667  0.89185478  1
  Li  Li48  1  0.60252841  0.61975414  0.46613599  1
  Li  Li49  1  0.38024586  0.98277427  0.46613599  1
  Li  Li50  1  0.01722573  0.39747159  0.46613599  1
  Li  Li51  1  0.39747159  0.38024586  0.96613599  1
  Li  Li52  1  0.61975414  0.01722573  0.96613599  1
  Li  Li53  1  0.98277427  0.60252841  0.96613599  1
  Li  Li54  1  0.39747159  0.38024586  0.53386401  1
  Li  Li55  1  0.61975414  0.01722573  0.53386401  1
  Li  Li56  1  0.98277427  0.60252841  0.53386401  1
  Li  Li57  1  0.60252841  0.61975414  0.03386401  1
  Li  Li58  1  0.38024586  0.98277427  0.03386401  1
  Li  Li59  1  0.01722573  0.39747159  0.03386401  1
  Li  Li60  1  0.64088713  0.72697946  0.42172957  1
  Li  Li61  1  0.27302054  0.91390767  0.42172957  1
  Li  Li62  1  0.08609233  0.35911287  0.42172957  1
  Li  Li63  1  0.35911287  0.27302054  0.92172957  1
  Li  Li64  1  0.72697946  0.08609233  0.92172957  1
  Li  Li65  1  0.91390767  0.64088713  0.92172957  1
  Li  Li66  1  0.35911287  0.27302054  0.57827043  1
  Li  Li67  1  0.72697946  0.08609233  0.57827043  1
  Li  Li68  1  0.91390767  0.64088713  0.57827043  1
  Li  Li69  1  0.64088713  0.72697946  0.07827043  1
  Li  Li70  1  0.27302054  0.91390767  0.07827043  1
  Li  Li71  1  0.08609233  0.35911287  0.07827043  1
  Li  Li72  1  0.66666667  0.33333333  0.25000000  1
  Li  Li73  1  0.33333333  0.66666667  0.75000000  1
  Li  Li74  1  0.50000000  0.00000000  0.00000000  1
  Li  Li75  1  0.00000000  0.50000000  -0.00000000  1
  Li  Li76  1  0.50000000  0.50000000  0.00000000  1
  Li  Li77  1  0.50000000  0.00000000  0.50000000  1
  Li  Li78  1  0.00000000  0.50000000  0.50000000  1
  Li  Li79  1  0.50000000  0.50000000  0.50000000  1
  Li  Li80  1  0.68285207  0.45377580  0.62746334  1
  Li  Li81  1  0.54622420  0.22907627  0.62746334  1
  Li  Li82  1  0.77092373  0.31714793  0.62746334  1
  Li  Li83  1  0.31714793  0.54622420  0.12746334  1
  Li  Li84  1  0.45377580  0.77092373  0.12746334  1
  Li  Li85  1  0.22907627  0.68285207  0.12746334  1
  Li  Li86  1  0.31714793  0.54622420  0.37253666  1
  Li  Li87  1  0.45377580  0.77092373  0.37253666  1
  Li  Li88  1  0.22907627  0.68285207  0.37253666  1
  Li  Li89  1  0.68285207  0.45377580  0.87253666  1
  Li  Li90  1  0.54622420  0.22907627  0.87253666  1
  Li  Li91  1  0.77092373  0.31714793  0.87253666  1
  Li  Li92  1  0.33333333  0.66666667  0.08742492  1
  Li  Li93  1  0.66666667  0.33333333  0.58742492  1
  Li  Li94  1  0.66666667  0.33333333  0.91257508  1
  Li  Li95  1  0.33333333  0.66666667  0.41257508  1
