# generated using pymatgen
data_LiYAs2P
_symmetry_space_group_name_H-M   'P 1'
_cell_length_a   5.28232644
_cell_length_b   5.37249813
_cell_length_c   6.87361537
_cell_angle_alpha   94.18058253
_cell_angle_beta   98.63231801
_cell_angle_gamma   106.05132684
_symmetry_Int_Tables_number   1
_chemical_formula_structural   LiYAs2P
_chemical_formula_sum   'Li2 Y2 As4 P2'
_cell_volume   183.99146277
_cell_formula_units_Z   2
loop_
 _symmetry_equiv_pos_site_id
 _symmetry_equiv_pos_as_xyz
  1  'x, y, z'
loop_
 _atom_site_type_symbol
 _atom_site_label
 _atom_site_symmetry_multiplicity
 _atom_site_fract_x
 _atom_site_fract_y
 _atom_site_fract_z
 _atom_site_occupancy
  Y  Y0  1  0.00000000  0.00000000  0.00000000  1
  Y  Y1  1  0.33300000  0.66700000  0.25000000  1
  P  P2  1  0.66700000  0.33300000  0.50000000  1
  P  P3  1  0.00000000  0.00000000  0.75000000  1
  As  As4  1  0.90302663  0.63033540  0.36980420  1
  As  As5  1  0.20419127  0.63186001  0.98376396  1
  As  As6  1  0.02545549  0.43187492  0.54649191  1
  As  As7  1  0.95521918  0.34490040  0.04670521  1
  Li  Li8  1  0.17304715  0.47007059  0.16318029  1
  Li  Li9  1  0.37862559  0.31396527  0.42333148  1
