# generated using pymatgen
data_LiF
_symmetry_space_group_name_H-M   'P 1'
_cell_length_a   4.65603150
_cell_length_b   6.79263429
_cell_length_c   7.33690727
_cell_angle_alpha   90.00000000
_cell_angle_beta   90.00000000
_cell_angle_gamma   90.00000000
_symmetry_Int_Tables_number   1
_chemical_formula_structural   LiF
_chemical_formula_sum   'Li10 F10'
_cell_volume   232.04230587
_cell_formula_units_Z   10
loop_
 _symmetry_equiv_pos_site_id
 _symmetry_equiv_pos_as_xyz
  1  'x, y, z'
loop_
 _atom_site_type_symbol
 _atom_site_label
 _atom_site_symmetry_multiplicity
 _atom_site_fract_x
 _atom_site_fract_y
 _atom_site_fract_z
 _atom_site_occupancy
  F  F0  1  0.05640207  0.71114848  0.55799033  1
  F  F1  1  -0.05640207  -0.71114848  0.55799033  1
  F  F2  1  0.44359793  1.21114848  -0.05799033  1
  F  F3  1  0.55640207  -0.21114848  -0.05799033  1
  F  F4  1  -0.05640207  -0.71114848  -0.55799033  1
  F  F5  1  0.05640207  0.71114848  -0.55799033  1
  F  F6  1  0.55640207  -0.21114848  1.05799033  1
  F  F7  1  0.44359793  1.21114848  1.05799033  1
  F  F8  1  0.00000000  0.50000000  0.00000000  1
  F  F9  1  0.50000000  0.00000000  0.50000000  1
  Li  Li10  1  0.82436473  0.02197440  0.00000000  1
  Li  Li11  1  0.17563527  0.97802560  0.00000000  1
  Li  Li12  1  0.67563527  0.52197440  0.50000000  1
  Li  Li13  1  0.32436473  0.47802560  0.50000000  1
  Li  Li14  1  0.99814892  0.24294840  -0.00000000  1
  Li  Li15  1  0.00185108  0.75705160  -0.00000000  1
  Li  Li16  1  0.50185108  0.74294840  0.50000000  1
  Li  Li17  1  0.49814892  0.25705160  0.50000000  1
  Li  Li18  1  0.00000000  0.00000000  0.50000000  1
  Li  Li19  1  0.50000000  0.50000000  0.00000000  1
