# generated using pymatgen
data_Li3Y2MoP3
_symmetry_space_group_name_H-M   'P 1'
_cell_length_a   4.96299369
_cell_length_b   5.27951651
_cell_length_c   7.15390200
_cell_angle_alpha   94.82830317
_cell_angle_beta   100.51504052
_cell_angle_gamma   109.39337487
_symmetry_Int_Tables_number   1
_chemical_formula_structural   Li3Y2MoP3
_chemical_formula_sum   'Li3 Y2 Mo1 P3'
_cell_volume   171.71220274
_cell_formula_units_Z   1
loop_
 _symmetry_equiv_pos_site_id
 _symmetry_equiv_pos_as_xyz
  1  'x, y, z'
loop_
 _atom_site_type_symbol
 _atom_site_label
 _atom_site_symmetry_multiplicity
 _atom_site_fract_x
 _atom_site_fract_y
 _atom_site_fract_z
 _atom_site_occupancy
  Y  Y0  1  0.12500000  0.12500000  0.12500000  1
  Y  Y1  1  0.50000000  0.50000000  0.50000000  1
  P  P2  1  0.25000000  0.25000000  0.25000000  1
  P  P3  1  0.75000000  0.75000000  0.75000000  1
  P  P4  1  0.62943462  0.78067228  0.93230023  1
  Mo  Mo5  1  0.79413071  0.56723286  0.65169146  1
  Li  Li6  1  0.68313274  0.24002517  0.49540044  1
  Li  Li7  1  0.61035706  0.33278145  0.87779236  1
  Li  Li8  1  0.59068456  0.40048639  0.40669537  1
