# generated using pymatgen
data_LiF
_symmetry_space_group_name_H-M   'P 1'
_cell_length_a   18.58249810
_cell_length_b   18.58249810
_cell_length_c   3.45657823
_cell_angle_alpha   90.00000000
_cell_angle_beta   90.00000000
_cell_angle_gamma   120.00000000
_symmetry_Int_Tables_number   1
_chemical_formula_structural   LiF
_chemical_formula_sum   'Li36 F36'
_cell_volume   1033.67786274
_cell_formula_units_Z   36
loop_
 _symmetry_equiv_pos_site_id
 _symmetry_equiv_pos_as_xyz
  1  'x, y, z'
loop_
 _atom_site_type_symbol
 _atom_site_label
 _atom_site_symmetry_multiplicity
 _atom_site_fract_x
 _atom_site_fract_y
 _atom_site_fract_z
 _atom_site_occupancy
  F  F0  1  0.21590281  0.02574340  0.15090663  1
  F  F1  1  -0.02574340  0.19015942  0.15090663  1
  F  F2  1  -0.19015942  -0.21590281  0.15090663  1
  F  F3  1  0.02574340  0.21590281  0.34909337  1
  F  F4  1  0.19015942  -0.02574340  0.34909337  1
  F  F5  1  -0.21590281  -0.19015942  0.34909337  1
  F  F6  1  -0.21590281  -0.02574340  -0.15090663  1
  F  F7  1  0.02574340  -0.19015942  -0.15090663  1
  F  F8  1  0.19015942  0.21590281  -0.15090663  1
  F  F9  1  -0.02574340  -0.21590281  0.65090663  1
  F  F10  1  -0.19015942  0.02574340  0.65090663  1
  F  F11  1  0.21590281  0.19015942  0.65090663  1
  F  F12  1  0.88256948  0.35907673  0.48423996  1
  F  F13  1  0.64092327  0.52349275  0.48423996  1
  F  F14  1  0.47650725  0.11743052  0.48423996  1
  F  F15  1  0.69241006  0.54923615  0.68242671  1
  F  F16  1  0.85682608  0.30758994  0.68242671  1
  F  F17  1  0.45076385  0.14317392  0.68242671  1
  F  F18  1  0.45076385  0.30758994  0.18242671  1
  F  F19  1  0.69241006  0.14317392  0.18242671  1
  F  F20  1  0.85682608  0.54923615  0.18242671  1
  F  F21  1  0.64092327  0.11743052  0.98423996  1
  F  F22  1  0.47650725  0.35907673  0.98423996  1
  F  F23  1  0.88256948  0.52349275  0.98423996  1
  F  F24  1  0.54923615  0.69241006  0.81757329  1
  F  F25  1  0.30758994  0.85682608  0.81757329  1
  F  F26  1  0.14317392  0.45076385  0.81757329  1
  F  F27  1  0.35907673  0.88256948  1.01576004  1
  F  F28  1  0.52349275  0.64092327  1.01576004  1
  F  F29  1  0.11743052  0.47650725  1.01576004  1
  F  F30  1  0.11743052  0.64092327  0.51576004  1
  F  F31  1  0.35907673  0.47650725  0.51576004  1
  F  F32  1  0.52349275  0.88256948  0.51576004  1
  F  F33  1  0.30758994  0.45076385  1.31757329  1
  F  F34  1  0.14317392  0.69241006  1.31757329  1
  F  F35  1  0.54923615  0.85682608  1.31757329  1
  Li  Li36  1  0.70161142  0.70775673  0.48790238  1
  Li  Li37  1  0.29224327  0.99385469  0.48790238  1
  Li  Li38  1  0.00614531  0.29838858  0.48790238  1
  Li  Li39  1  0.70775673  0.70161142  0.01209762  1
  Li  Li40  1  0.99385469  0.29224327  0.01209762  1
  Li  Li41  1  0.29838858  0.00614531  0.01209762  1
  Li  Li42  1  0.29838858  0.29224327  0.51209762  1
  Li  Li43  1  0.70775673  0.00614531  0.51209762  1
  Li  Li44  1  0.99385469  0.70161142  0.51209762  1
  Li  Li45  1  0.29224327  0.29838858  0.98790238  1
  Li  Li46  1  0.00614531  0.70775673  0.98790238  1
  Li  Li47  1  0.70161142  0.99385469  0.98790238  1
  Li  Li48  1  0.36827809  0.04109006  0.82123571  1
  Li  Li49  1  0.95890994  0.32718803  0.82123571  1
  Li  Li50  1  0.67281197  0.63172191  0.82123571  1
  Li  Li51  1  0.37442339  0.03494475  0.34543095  1
  Li  Li52  1  0.66052136  0.62557661  0.34543095  1
  Li  Li53  1  0.96505525  0.33947864  0.34543095  1
  Li  Li54  1  0.96505525  0.62557661  0.84543095  1
  Li  Li55  1  0.37442339  0.33947864  0.84543095  1
  Li  Li56  1  0.66052136  0.03494475  0.84543095  1
  Li  Li57  1  0.95890994  0.63172191  0.32123571  1
  Li  Li58  1  0.67281197  0.04109006  0.32123571  1
  Li  Li59  1  0.36827809  0.32718803  0.32123571  1
  Li  Li60  1  0.03494475  0.37442339  0.15456905  1
  Li  Li61  1  0.62557661  0.66052136  0.15456905  1
  Li  Li62  1  0.33947864  0.96505525  0.15456905  1
  Li  Li63  1  0.04109006  0.36827809  0.67876429  1
  Li  Li64  1  0.32718803  0.95890994  0.67876429  1
  Li  Li65  1  0.63172191  0.67281197  0.67876429  1
  Li  Li66  1  0.63172191  0.95890994  0.17876429  1
  Li  Li67  1  0.04109006  0.67281197  0.17876429  1
  Li  Li68  1  0.32718803  0.36827809  0.17876429  1
  Li  Li69  1  0.62557661  0.96505525  0.65456905  1
  Li  Li70  1  0.33947864  0.37442339  0.65456905  1
  Li  Li71  1  0.03494475  0.66052136  0.65456905  1
