# generated using pymatgen
data_Li2Si4Te3F12
_symmetry_space_group_name_H-M   'P 1'
_cell_length_a   7.67598699
_cell_length_b   7.67598699
_cell_length_c   15.89114752
_cell_angle_alpha   90.00000000
_cell_angle_beta   90.00000000
_cell_angle_gamma   90.00000000
_symmetry_Int_Tables_number   1
_chemical_formula_structural   Li2Si4Te3F12
_chemical_formula_sum   'Li8 Si16 Te12 F48'
_cell_volume   936.31874698
_cell_formula_units_Z   4
loop_
 _symmetry_equiv_pos_site_id
 _symmetry_equiv_pos_as_xyz
  1  'x, y, z'
loop_
 _atom_site_type_symbol
 _atom_site_label
 _atom_site_symmetry_multiplicity
 _atom_site_fract_x
 _atom_site_fract_y
 _atom_site_fract_z
 _atom_site_occupancy
  F  F0  1  0.69674007  0.05621279  0.23969391  1
  F  F1  1  -0.19674007  -0.05621279  0.73969391  1
  F  F2  1  0.19378721  1.44674007  0.48969391  1
  F  F3  1  0.30621279  -0.44674007  0.98969391  1
  F  F4  1  -0.19674007  0.05621279  0.26030609  1
  F  F5  1  0.69674007  -0.05621279  -0.23969391  1
  F  F6  1  0.30621279  1.44674007  0.01030609  1
  F  F7  1  0.19378721  -0.44674007  0.51030609  1
  F  F8  1  -0.69674007  -0.05621279  -0.23969391  1
  F  F9  1  1.19674007  0.05621279  0.26030609  1
  F  F10  1  0.80621279  -0.44674007  0.51030609  1
  F  F11  1  0.69378721  1.44674007  0.01030609  1
  F  F12  1  1.19674007  -0.05621279  0.73969391  1
  F  F13  1  -0.69674007  0.05621279  0.23969391  1
  F  F14  1  0.69378721  -0.44674007  0.98969391  1
  F  F15  1  0.80621279  1.44674007  0.48969391  1
  F  F16  1  1.19674007  0.55621279  0.73969391  1
  F  F17  1  0.30325993  0.44378721  1.23969391  1
  F  F18  1  0.69378721  1.94674007  0.98969391  1
  F  F19  1  0.80621279  0.05325993  1.48969391  1
  F  F20  1  0.30325993  0.55621279  0.76030609  1
  F  F21  1  1.19674007  0.44378721  0.26030609  1
  F  F22  1  0.80621279  1.94674007  0.51030609  1
  F  F23  1  0.69378721  0.05325993  1.01030609  1
  F  F24  1  -0.19674007  0.44378721  0.26030609  1
  F  F25  1  1.69674007  0.55621279  0.76030609  1
  F  F26  1  1.30621279  0.05325993  1.01030609  1
  F  F27  1  1.19378721  1.94674007  0.51030609  1
  F  F28  1  1.69674007  0.44378721  1.23969391  1
  F  F29  1  -0.19674007  0.55621279  0.73969391  1
  F  F30  1  1.19378721  0.05325993  1.48969391  1
  F  F31  1  1.30621279  1.94674007  0.98969391  1
  F  F32  1  0.00000000  0.00000000  0.50000000  1
  F  F33  1  0.50000000  0.00000000  0.00000000  1
  F  F34  1  0.25000000  0.75000000  0.75000000  1
  F  F35  1  0.25000000  0.25000000  0.25000000  1
  F  F36  1  0.50000000  0.50000000  0.00000000  1
  F  F37  1  0.00000000  0.50000000  0.50000000  1
  F  F38  1  0.75000000  0.25000000  0.25000000  1
  F  F39  1  0.75000000  0.75000000  0.75000000  1
  F  F40  1  0.00000000  0.25000000  0.63930028  1
  F  F41  1  0.00000000  0.75000000  0.88930028  1
  F  F42  1  0.50000000  0.25000000  0.86069972  1
  F  F43  1  0.50000000  0.75000000  0.61069972  1
  F  F44  1  0.50000000  0.75000000  0.13930028  1
  F  F45  1  0.50000000  0.25000000  0.38930028  1
  F  F46  1  0.00000000  0.75000000  0.36069972  1
  F  F47  1  0.00000000  0.25000000  0.11069972  1
  Li  Li48  1  0.00000000  0.25000000  0.02388513  1
  Li  Li49  1  0.00000000  0.75000000  0.27388513  1
  Li  Li50  1  0.50000000  0.25000000  0.47611487  1
  Li  Li51  1  0.50000000  0.75000000  0.22611487  1
  Li  Li52  1  0.50000000  0.75000000  0.52388513  1
  Li  Li53  1  0.50000000  0.25000000  0.77388513  1
  Li  Li54  1  0.00000000  0.75000000  0.97611487  1
  Li  Li55  1  0.00000000  0.25000000  0.72611487  1
  Si  Si56  1  0.00000000  0.51176748  0.28411281  1
  Si  Si57  1  0.50000000  0.48823252  0.78411281  1
  Si  Si58  1  0.73823252  0.75000000  0.53411281  1
  Si  Si59  1  0.76176748  0.25000000  0.03411281  1
  Si  Si60  1  0.50000000  0.51176748  0.21588719  1
  Si  Si61  1  0.00000000  0.48823252  0.71588719  1
  Si  Si62  1  0.76176748  0.75000000  0.96588719  1
  Si  Si63  1  0.73823252  0.25000000  0.46588719  1
  Si  Si64  1  0.50000000  0.01176748  0.78411281  1
  Si  Si65  1  0.00000000  0.98823252  0.28411281  1
  Si  Si66  1  0.23823252  0.25000000  0.03411281  1
  Si  Si67  1  0.26176748  0.75000000  0.53411281  1
  Si  Si68  1  0.00000000  0.01176748  0.71588719  1
  Si  Si69  1  0.50000000  0.98823252  0.21588719  1
  Si  Si70  1  0.26176748  0.25000000  0.46588719  1
  Si  Si71  1  0.23823252  0.75000000  0.96588719  1
  Te  Te72  1  0.00000000  0.00000000  0.00000000  1
  Te  Te73  1  0.50000000  0.00000000  0.50000000  1
  Te  Te74  1  0.25000000  0.75000000  0.25000000  1
  Te  Te75  1  0.25000000  0.25000000  0.75000000  1
  Te  Te76  1  0.50000000  0.50000000  0.50000000  1
  Te  Te77  1  0.00000000  0.50000000  0.00000000  1
  Te  Te78  1  0.75000000  0.25000000  0.75000000  1
  Te  Te79  1  0.75000000  0.75000000  0.25000000  1
  Te  Te80  1  0.00000000  0.75000000  0.12500000  1
  Te  Te81  1  0.50000000  0.75000000  0.37500000  1
  Te  Te82  1  0.50000000  0.25000000  0.62500000  1
  Te  Te83  1  0.00000000  0.25000000  0.87500000  1
