# generated using pymatgen
data_LiF
_symmetry_space_group_name_H-M   'P 1'
_cell_length_a   6.43513484
_cell_length_b   6.43513484
_cell_length_c   17.24208075
_cell_angle_alpha   90.00000000
_cell_angle_beta   90.00000000
_cell_angle_gamma   120.00000000
_symmetry_Int_Tables_number   1
_chemical_formula_structural   LiF
_chemical_formula_sum   'Li19 F19'
_cell_volume   618.35177117
_cell_formula_units_Z   19
loop_
 _symmetry_equiv_pos_site_id
 _symmetry_equiv_pos_as_xyz
  1  'x, y, z'
loop_
 _atom_site_type_symbol
 _atom_site_label
 _atom_site_symmetry_multiplicity
 _atom_site_fract_x
 _atom_site_fract_y
 _atom_site_fract_z
 _atom_site_occupancy
  F  F0  1  0.93408807  0.06591193  -0.00000000  1
  F  F1  1  0.93408807  0.86817614  -0.00000000  1
  F  F2  1  0.13182386  0.06591193  0.00000000  1
  F  F3  1  0.75279696  0.89099789  0.74425670  1
  F  F4  1  0.10900211  0.86179907  0.74425670  1
  F  F5  1  0.13820093  0.24720304  0.74425670  1
  F  F6  1  0.10900211  0.24720304  0.25574330  1
  F  F7  1  0.13820093  0.89099789  0.25574330  1
  F  F8  1  0.75279696  0.86179907  0.25574330  1
  F  F9  1  0.18702279  0.41340088  0.38757210  1
  F  F10  1  0.58659912  0.77362190  0.38757210  1
  F  F11  1  0.22637810  0.81297721  0.38757210  1
  F  F12  1  0.58659912  0.81297721  0.61242790  1
  F  F13  1  0.22637810  0.41340088  0.61242790  1
  F  F14  1  0.18702279  0.77362190  0.61242790  1
  F  F15  1  0.13959987  0.86040013  0.00000000  1
  F  F16  1  0.13959987  0.27919973  -0.00000000  1
  F  F17  1  0.72080027  0.86040013  0.00000000  1
  F  F18  1  0.33333333  0.66666667  0.50000000  1
  Li  Li19  1  0.66666667  0.33333333  0.34856001  1
  Li  Li20  1  0.66666667  0.33333333  0.65143999  1
  Li  Li21  1  0.76929307  0.23070693  0.00000000  1
  Li  Li22  1  0.76929307  0.53858613  -0.00000000  1
  Li  Li23  1  0.46141387  0.23070693  -0.00000000  1
  Li  Li24  1  0.33333333  0.66666667  0.00000000  1
  Li  Li25  1  0.97071346  0.19588988  0.47342135  1
  Li  Li26  1  -0.19588988  0.77482358  0.47342135  1
  Li  Li27  1  -0.77482358  -0.97071346  0.47342135  1
  Li  Li28  1  -0.19588988  -0.97071346  -0.47342135  1
  Li  Li29  1  -0.77482358  0.19588988  -0.47342135  1
  Li  Li30  1  0.97071346  0.77482358  -0.47342135  1
  Li  Li31  1  0.21832937  0.53001576  0.66989779  1
  Li  Li32  1  0.46998424  0.68831360  0.66989779  1
  Li  Li33  1  0.31168640  0.78167063  0.66989779  1
  Li  Li34  1  0.46998424  0.78167063  0.33010221  1
  Li  Li35  1  0.31168640  0.53001576  0.33010221  1
  Li  Li36  1  0.21832937  0.68831360  0.33010221  1
  Li  Li37  1  0.00000000  0.00000000  0.50000000  1
