# generated using pymatgen
data_Li2Si4Te3F12
_symmetry_space_group_name_H-M   'P 1'
_cell_length_a   10.08180094
_cell_length_b   10.08180094
_cell_length_c   9.61382805
_cell_angle_alpha   90.00000000
_cell_angle_beta   90.00000000
_cell_angle_gamma   90.00000000
_symmetry_Int_Tables_number   1
_chemical_formula_structural   Li2Si4Te3F12
_chemical_formula_sum   'Li8 Si16 Te12 F48'
_cell_volume   977.17553788
_cell_formula_units_Z   4
loop_
 _symmetry_equiv_pos_site_id
 _symmetry_equiv_pos_as_xyz
  1  'x, y, z'
loop_
 _atom_site_type_symbol
 _atom_site_label
 _atom_site_symmetry_multiplicity
 _atom_site_fract_x
 _atom_site_fract_y
 _atom_site_fract_z
 _atom_site_occupancy
  F  F0  1  0.00000000  0.00000000  0.00000000  1
  F  F1  1  0.50000000  0.00000000  0.50000000  1
  F  F2  1  0.25000000  0.75000000  0.25000000  1
  F  F3  1  0.25000000  0.25000000  0.75000000  1
  F  F4  1  0.50000000  0.50000000  0.50000000  1
  F  F5  1  0.00000000  0.50000000  0.00000000  1
  F  F6  1  0.75000000  0.25000000  0.75000000  1
  F  F7  1  0.75000000  0.75000000  0.25000000  1
  F  F8  1  0.00000000  0.00000000  0.50000000  1
  F  F9  1  0.50000000  0.00000000  0.00000000  1
  F  F10  1  0.25000000  0.75000000  0.75000000  1
  F  F11  1  0.25000000  0.25000000  0.25000000  1
  F  F12  1  0.50000000  0.50000000  0.00000000  1
  F  F13  1  0.00000000  0.50000000  0.50000000  1
  F  F14  1  0.75000000  0.25000000  0.25000000  1
  F  F15  1  0.75000000  0.75000000  0.75000000  1
  F  F16  1  0.29257150  0.14187329  0.13349163  1
  F  F17  1  0.20742850  -0.14187329  0.63349163  1
  F  F18  1  0.10812671  1.04257150  0.38349163  1
  F  F19  1  0.39187329  -0.04257150  0.88349163  1
  F  F20  1  0.20742850  0.14187329  0.36650837  1
  F  F21  1  0.29257150  -0.14187329  -0.13349163  1
  F  F22  1  0.39187329  1.04257150  0.11650837  1
  F  F23  1  0.10812671  -0.04257150  0.61650837  1
  F  F24  1  -0.29257150  -0.14187329  -0.13349163  1
  F  F25  1  0.79257150  0.14187329  0.36650837  1
  F  F26  1  0.89187329  -0.04257150  0.61650837  1
  F  F27  1  0.60812671  1.04257150  0.11650837  1
  F  F28  1  0.79257150  -0.14187329  0.63349163  1
  F  F29  1  -0.29257150  0.14187329  0.13349163  1
  F  F30  1  0.60812671  -0.04257150  0.88349163  1
  F  F31  1  0.89187329  1.04257150  0.38349163  1
  F  F32  1  0.79257150  0.64187329  0.63349163  1
  F  F33  1  0.70742850  0.35812671  1.13349163  1
  F  F34  1  0.60812671  1.54257150  0.88349163  1
  F  F35  1  0.89187329  0.45742850  1.38349163  1
  F  F36  1  0.70742850  0.64187329  0.86650837  1
  F  F37  1  0.79257150  0.35812671  0.36650837  1
  F  F38  1  0.89187329  1.54257150  0.61650837  1
  F  F39  1  0.60812671  0.45742850  1.11650837  1
  F  F40  1  0.20742850  0.35812671  0.36650837  1
  F  F41  1  1.29257150  0.64187329  0.86650837  1
  F  F42  1  1.39187329  0.45742850  1.11650837  1
  F  F43  1  1.10812671  1.54257150  0.61650837  1
  F  F44  1  1.29257150  0.35812671  1.13349163  1
  F  F45  1  0.20742850  0.64187329  0.63349163  1
  F  F46  1  1.10812671  0.45742850  1.38349163  1
  F  F47  1  1.39187329  1.54257150  0.88349163  1
  Li  Li48  1  0.00000000  0.25000000  0.13013378  1
  Li  Li49  1  0.00000000  0.75000000  0.38013378  1
  Li  Li50  1  0.50000000  0.25000000  0.36986622  1
  Li  Li51  1  0.50000000  0.75000000  0.11986622  1
  Li  Li52  1  0.50000000  0.75000000  0.63013378  1
  Li  Li53  1  0.50000000  0.25000000  0.88013378  1
  Li  Li54  1  0.00000000  0.75000000  0.86986622  1
  Li  Li55  1  0.00000000  0.25000000  0.61986622  1
  Si  Si56  1  0.00000000  0.89923915  0.64479309  1
  Si  Si57  1  0.50000000  0.10076085  0.14479309  1
  Si  Si58  1  0.35076085  0.75000000  0.89479309  1
  Si  Si59  1  0.14923915  0.25000000  0.39479309  1
  Si  Si60  1  0.50000000  0.89923915  0.85520691  1
  Si  Si61  1  0.00000000  0.10076085  0.35520691  1
  Si  Si62  1  0.14923915  0.75000000  0.60520691  1
  Si  Si63  1  0.35076085  0.25000000  0.10520691  1
  Si  Si64  1  0.50000000  0.39923915  0.14479309  1
  Si  Si65  1  0.00000000  0.60076085  0.64479309  1
  Si  Si66  1  0.85076085  0.25000000  0.39479309  1
  Si  Si67  1  0.64923915  0.75000000  0.89479309  1
  Si  Si68  1  0.00000000  0.39923915  0.35520691  1
  Si  Si69  1  0.50000000  0.60076085  0.85520691  1
  Si  Si70  1  0.64923915  0.25000000  0.10520691  1
  Si  Si71  1  0.85076085  0.75000000  0.60520691  1
  Te  Te72  1  0.00000000  0.25000000  0.28845772  1
  Te  Te73  1  0.00000000  0.75000000  0.53845772  1
  Te  Te74  1  0.50000000  0.25000000  0.21154228  1
  Te  Te75  1  0.50000000  0.75000000  0.96154228  1
  Te  Te76  1  0.50000000  0.75000000  0.78845772  1
  Te  Te77  1  0.50000000  0.25000000  0.03845772  1
  Te  Te78  1  0.00000000  0.75000000  0.71154228  1
  Te  Te79  1  0.00000000  0.25000000  0.46154228  1
  Te  Te80  1  0.00000000  0.75000000  0.12500000  1
  Te  Te81  1  0.50000000  0.75000000  0.37500000  1
  Te  Te82  1  0.50000000  0.25000000  0.62500000  1
  Te  Te83  1  0.00000000  0.25000000  0.87500000  1
