# generated using pymatgen
data_LiF
_symmetry_space_group_name_H-M   'P 1'
_cell_length_a   8.99355427
_cell_length_b   14.34585938
_cell_length_c   11.52453028
_cell_angle_alpha   90.00000000
_cell_angle_beta   90.00000000
_cell_angle_gamma   90.00000000
_symmetry_Int_Tables_number   1
_chemical_formula_structural   LiF
_chemical_formula_sum   'Li52 F52'
_cell_volume   1486.89794948
_cell_formula_units_Z   52
loop_
 _symmetry_equiv_pos_site_id
 _symmetry_equiv_pos_as_xyz
  1  'x, y, z'
loop_
 _atom_site_type_symbol
 _atom_site_label
 _atom_site_symmetry_multiplicity
 _atom_site_fract_x
 _atom_site_fract_y
 _atom_site_fract_z
 _atom_site_occupancy
  F  F0  1  0.86548514  0.31484034  0.19719913  1
  F  F1  1  0.63451486  0.68515966  0.69719913  1
  F  F2  1  0.13451486  0.81484034  0.80280087  1
  F  F3  1  0.36548514  0.18515966  0.30280087  1
  F  F4  1  0.13451486  0.68515966  0.80280087  1
  F  F5  1  0.36548514  0.31484034  0.30280087  1
  F  F6  1  0.86548514  0.18515966  0.19719913  1
  F  F7  1  0.63451486  0.81484034  0.69719913  1
  F  F8  1  0.81644867  0.50823599  0.09296889  1
  F  F9  1  0.68355133  0.49176401  0.59296889  1
  F  F10  1  0.18355133  0.00823599  0.90703111  1
  F  F11  1  0.31644867  0.99176401  0.40703111  1
  F  F12  1  0.18355133  0.49176401  0.90703111  1
  F  F13  1  0.31644867  0.50823599  0.40703111  1
  F  F14  1  0.81644867  0.99176401  0.09296889  1
  F  F15  1  0.68355133  0.00823599  0.59296889  1
  F  F16  1  0.22009981  0.25000000  0.81006059  1
  F  F17  1  0.27990019  0.75000000  0.31006059  1
  F  F18  1  0.77990019  0.75000000  0.18993941  1
  F  F19  1  0.72009981  0.25000000  0.68993941  1
  F  F20  1  0.90229978  0.54353603  0.84455543  1
  F  F21  1  0.59770022  0.45646397  0.34455543  1
  F  F22  1  0.09770022  0.04353603  0.15544457  1
  F  F23  1  0.40229978  0.95646397  0.65544457  1
  F  F24  1  0.09770022  0.45646397  0.15544457  1
  F  F25  1  0.40229978  0.54353603  0.65544457  1
  F  F26  1  0.90229978  0.95646397  0.84455543  1
  F  F27  1  0.59770022  0.04353603  0.34455543  1
  F  F28  1  0.95849447  0.55962269  0.74220714  1
  F  F29  1  0.54150553  0.44037731  0.24220714  1
  F  F30  1  0.04150553  0.05962269  0.25779286  1
  F  F31  1  0.45849447  0.94037731  0.75779286  1
  F  F32  1  0.04150553  0.44037731  0.25779286  1
  F  F33  1  0.45849447  0.55962269  0.75779286  1
  F  F34  1  0.95849447  0.94037731  0.74220714  1
  F  F35  1  0.54150553  0.05962269  0.24220714  1
  F  F36  1  0.59119896  0.91500861  0.93451225  1
  F  F37  1  0.90880104  0.08499139  0.43451225  1
  F  F38  1  0.40880104  0.41500861  0.06548775  1
  F  F39  1  0.09119896  0.58499139  0.56548775  1
  F  F40  1  0.40880104  0.08499139  0.06548775  1
  F  F41  1  0.09119896  0.91500861  0.56548775  1
  F  F42  1  0.59119896  0.58499139  0.93451225  1
  F  F43  1  0.90880104  0.41500861  0.43451225  1
  F  F44  1  0.54565183  0.27121708  0.41821277  1
  F  F45  1  0.95434817  0.72878292  0.91821277  1
  F  F46  1  0.45434817  0.77121708  0.58178723  1
  F  F47  1  0.04565183  0.22878292  0.08178723  1
  F  F48  1  0.45434817  0.72878292  0.58178723  1
  F  F49  1  0.04565183  0.27121708  0.08178723  1
  F  F50  1  0.54565183  0.22878292  0.41821277  1
  F  F51  1  0.95434817  0.77121708  0.91821277  1
  Li  Li52  1  0.17529081  0.58548100  0.47527641  1
  Li  Li53  1  0.32470919  -0.58548100  0.97527641  1
  Li  Li54  1  -0.17529081  1.08548100  -0.47527641  1
  Li  Li55  1  0.67529081  -0.08548100  0.02472359  1
  Li  Li56  1  -0.17529081  -0.58548100  -0.47527641  1
  Li  Li57  1  0.67529081  0.58548100  0.02472359  1
  Li  Li58  1  0.17529081  -0.08548100  0.47527641  1
  Li  Li59  1  0.32470919  1.08548100  0.97527641  1
  Li  Li60  1  0.00000000  0.00000000  0.00000000  1
  Li  Li61  1  0.50000000  0.00000000  0.50000000  1
  Li  Li62  1  0.00000000  0.50000000  0.00000000  1
  Li  Li63  1  0.50000000  0.50000000  0.50000000  1
  Li  Li64  1  0.10541840  0.25000000  0.49952765  1
  Li  Li65  1  0.39458160  0.75000000  0.99952765  1
  Li  Li66  1  0.89458160  0.75000000  0.50047235  1
  Li  Li67  1  0.60541840  0.25000000  0.00047235  1
  Li  Li68  1  0.62591899  0.54523590  0.86736270  1
  Li  Li69  1  0.87408101  0.45476410  0.36736270  1
  Li  Li70  1  0.37408101  0.04523590  0.13263730  1
  Li  Li71  1  0.12591899  0.95476410  0.63263730  1
  Li  Li72  1  0.37408101  0.45476410  0.13263730  1
  Li  Li73  1  0.12591899  0.54523590  0.63263730  1
  Li  Li74  1  0.62591899  0.95476410  0.86736270  1
  Li  Li75  1  0.87408101  0.04523590  0.36736270  1
  Li  Li76  1  0.79984601  0.25000000  0.28011653  1
  Li  Li77  1  0.70015399  0.75000000  0.78011653  1
  Li  Li78  1  0.20015399  0.75000000  0.71988347  1
  Li  Li79  1  0.29984601  0.25000000  0.21988347  1
  Li  Li80  1  0.70988092  0.93801307  0.52607929  1
  Li  Li81  1  0.79011908  0.06198693  0.02607929  1
  Li  Li82  1  0.29011908  0.43801307  0.47392071  1
  Li  Li83  1  0.20988092  0.56198693  0.97392071  1
  Li  Li84  1  0.29011908  0.06198693  0.47392071  1
  Li  Li85  1  0.20988092  0.93801307  0.97392071  1
  Li  Li86  1  0.70988092  0.56198693  0.52607929  1
  Li  Li87  1  0.79011908  0.43801307  0.02607929  1
  Li  Li88  1  0.97693964  0.25000000  0.62871055  1
  Li  Li89  1  0.52306036  0.75000000  0.12871055  1
  Li  Li90  1  0.02306036  0.75000000  0.37128945  1
  Li  Li91  1  0.47693964  0.25000000  0.87128945  1
  Li  Li92  1  0.16248526  0.35955764  0.55067603  1
  Li  Li93  1  0.33751474  0.64044236  0.05067603  1
  Li  Li94  1  0.83751474  0.85955764  0.44932397  1
  Li  Li95  1  0.66248526  0.14044236  0.94932397  1
  Li  Li96  1  0.83751474  0.64044236  0.44932397  1
  Li  Li97  1  0.66248526  0.35955764  0.94932397  1
  Li  Li98  1  0.16248526  0.14044236  0.55067603  1
  Li  Li99  1  0.33751474  0.85955764  0.05067603  1
  Li  Li100  1  0.00000000  0.00000000  0.50000000  1
  Li  Li101  1  0.50000000  0.00000000  0.00000000  1
  Li  Li102  1  0.00000000  0.50000000  0.50000000  1
  Li  Li103  1  0.50000000  0.50000000  0.00000000  1
