# generated using pymatgen
data_LiF
_symmetry_space_group_name_H-M   'P 1'
_cell_length_a   7.53300070
_cell_length_b   7.53300070
_cell_length_c   7.21442481
_cell_angle_alpha   90.00000000
_cell_angle_beta   90.00000000
_cell_angle_gamma   120.00000000
_symmetry_Int_Tables_number   1
_chemical_formula_structural   LiF
_chemical_formula_sum   'Li22 F22'
_cell_volume   354.54254581
_cell_formula_units_Z   22
loop_
 _symmetry_equiv_pos_site_id
 _symmetry_equiv_pos_as_xyz
  1  'x, y, z'
loop_
 _atom_site_type_symbol
 _atom_site_label
 _atom_site_symmetry_multiplicity
 _atom_site_fract_x
 _atom_site_fract_y
 _atom_site_fract_z
 _atom_site_occupancy
  F  F0  1  0.50000000  0.00000000  -0.00000000  1
  F  F1  1  0.00000000  0.50000000  0.00000000  1
  F  F2  1  0.50000000  0.50000000  0.00000000  1
  F  F3  1  0.50000000  0.00000000  0.50000000  1
  F  F4  1  0.00000000  0.50000000  0.50000000  1
  F  F5  1  0.50000000  0.50000000  0.50000000  1
  F  F6  1  0.69272549  0.78447666  0.58515220  1
  F  F7  1  -0.78447666  -0.09175118  0.58515220  1
  F  F8  1  0.09175118  -0.69272549  0.58515220  1
  F  F9  1  -0.69272549  -0.78447666  1.08515220  1
  F  F10  1  0.78447666  0.09175118  1.08515220  1
  F  F11  1  -0.09175118  0.69272549  1.08515220  1
  F  F12  1  -0.69272549  -0.78447666  -0.58515220  1
  F  F13  1  0.78447666  0.09175118  -0.58515220  1
  F  F14  1  -0.09175118  0.69272549  -0.58515220  1
  F  F15  1  0.69272549  0.78447666  -0.08515220  1
  F  F16  1  -0.78447666  -0.09175118  -0.08515220  1
  F  F17  1  0.09175118  -0.69272549  -0.08515220  1
  F  F18  1  0.00000000  0.00000000  0.39572732  1
  F  F19  1  0.00000000  0.00000000  0.89572732  1
  F  F20  1  0.00000000  0.00000000  0.60427268  1
  F  F21  1  0.00000000  0.00000000  0.10427268  1
  Li  Li22  1  0.00000000  0.00000000  0.25000000  1
  Li  Li23  1  0.00000000  0.00000000  0.75000000  1
  Li  Li24  1  0.35472275  0.45149935  0.37231596  1
  Li  Li25  1  0.54850065  0.90322340  0.37231596  1
  Li  Li26  1  0.09677660  0.64527725  0.37231596  1
  Li  Li27  1  0.64527725  0.54850065  0.87231596  1
  Li  Li28  1  0.45149935  0.09677660  0.87231596  1
  Li  Li29  1  0.90322340  0.35472275  0.87231596  1
  Li  Li30  1  0.64527725  0.54850065  0.62768404  1
  Li  Li31  1  0.45149935  0.09677660  0.62768404  1
  Li  Li32  1  0.90322340  0.35472275  0.62768404  1
  Li  Li33  1  0.35472275  0.45149935  0.12768404  1
  Li  Li34  1  0.54850065  0.90322340  0.12768404  1
  Li  Li35  1  0.09677660  0.64527725  0.12768404  1
  Li  Li36  1  0.26530522  0.88067920  0.25000000  1
  Li  Li37  1  0.11932080  0.38462602  0.25000000  1
  Li  Li38  1  0.61537398  0.73469478  0.25000000  1
  Li  Li39  1  0.73469478  0.11932080  0.75000000  1
  Li  Li40  1  0.88067920  0.61537398  0.75000000  1
  Li  Li41  1  0.38462602  0.26530522  0.75000000  1
  Li  Li42  1  0.66666667  0.33333333  0.25000000  1
  Li  Li43  1  0.33333333  0.66666667  0.75000000  1
