# generated using pymatgen
data_Li2Y2Sb2P2Se
_symmetry_space_group_name_H-M   'P 1'
_cell_length_a   5.71625396
_cell_length_b   5.98990676
_cell_length_c   6.92356653
_cell_angle_alpha   93.03264024
_cell_angle_beta   94.79476844
_cell_angle_gamma   99.34283528
_symmetry_Int_Tables_number   1
_chemical_formula_structural   Li2Y2Sb2P2Se
_chemical_formula_sum   'Li2 Y2 Sb2 P2 Se1'
_cell_volume   232.56513544
_cell_formula_units_Z   1
loop_
 _symmetry_equiv_pos_site_id
 _symmetry_equiv_pos_as_xyz
  1  'x, y, z'
loop_
 _atom_site_type_symbol
 _atom_site_label
 _atom_site_symmetry_multiplicity
 _atom_site_fract_x
 _atom_site_fract_y
 _atom_site_fract_z
 _atom_site_occupancy
  Se  Se0  1  0.00000000  0.00000000  0.00000000  1
  Y  Y1  1  0.50000000  0.50000000  0.50000000  1
  Y  Y2  1  0.50000000  0.50000000  0.00000000  1
  P  P3  1  0.50000000  0.00000000  0.50000000  1
  P  P4  1  0.00000000  0.50000000  0.50000000  1
  Li  Li5  1  0.19063728  0.92154020  0.89849436  1
  Li  Li6  1  0.07804840  0.28485184  0.61976004  1
  Sb  Sb7  1  0.67417004  0.53493733  0.35410682  1
  Sb  Sb8  1  0.76733692  0.20219678  0.29113507  1
