# generated using pymatgen
data_LiF
_symmetry_space_group_name_H-M   'P 1'
_cell_length_a   16.93563404
_cell_length_b   9.20827963
_cell_length_c   22.44422876
_cell_angle_alpha   90.00000000
_cell_angle_beta   90.00000000
_cell_angle_gamma   90.00000000
_symmetry_Int_Tables_number   1
_chemical_formula_structural   LiF
_chemical_formula_sum   'Li108 F108'
_cell_volume   3500.13379763
_cell_formula_units_Z   108
loop_
 _symmetry_equiv_pos_site_id
 _symmetry_equiv_pos_as_xyz
  1  'x, y, z'
loop_
 _atom_site_type_symbol
 _atom_site_label
 _atom_site_symmetry_multiplicity
 _atom_site_fract_x
 _atom_site_fract_y
 _atom_site_fract_z
 _atom_site_occupancy
  F  F0  1  0.32238549  0.52379462  0.50000000  1
  F  F1  1  0.67761451  0.47620538  0.50000000  1
  F  F2  1  0.17761451  0.02379462  0.50000000  1
  F  F3  1  0.82238549  0.97620538  0.50000000  1
  F  F4  1  0.00000000  0.50000000  0.08992332  1
  F  F5  1  0.50000000  0.00000000  0.91007668  1
  F  F6  1  0.00000000  0.50000000  0.91007668  1
  F  F7  1  0.50000000  0.00000000  0.08992332  1
  F  F8  1  0.85148526  0.75504492  0.93946319  1
  F  F9  1  0.14851474  0.24495508  0.93946319  1
  F  F10  1  0.64851474  0.25504492  0.06053681  1
  F  F11  1  0.35148526  0.74495508  0.06053681  1
  F  F12  1  0.14851474  0.24495508  0.06053681  1
  F  F13  1  0.85148526  0.75504492  0.06053681  1
  F  F14  1  0.35148526  0.74495508  0.93946319  1
  F  F15  1  0.64851474  0.25504492  0.93946319  1
  F  F16  1  0.00000000  0.00000000  0.41458776  1
  F  F17  1  0.50000000  0.50000000  0.58541224  1
  F  F18  1  0.00000000  0.00000000  0.58541224  1
  F  F19  1  0.50000000  0.50000000  0.41458776  1
  F  F20  1  0.90450843  0.09369029  0.40161586  1
  F  F21  1  0.09549157  0.90630971  0.40161586  1
  F  F22  1  0.59549157  0.59369029  0.59838414  1
  F  F23  1  0.40450843  0.40630971  0.59838414  1
  F  F24  1  0.09549157  0.90630971  0.59838414  1
  F  F25  1  0.90450843  0.09369029  0.59838414  1
  F  F26  1  0.40450843  0.40630971  0.40161586  1
  F  F27  1  0.59549157  0.59369029  0.40161586  1
  F  F28  1  0.45613442  0.11263454  0.09804064  1
  F  F29  1  0.54386558  0.88736546  0.09804064  1
  F  F30  1  0.04386558  0.61263454  0.90195936  1
  F  F31  1  0.95613442  0.38736546  0.90195936  1
  F  F32  1  0.54386558  0.88736546  0.90195936  1
  F  F33  1  0.45613442  0.11263454  0.90195936  1
  F  F34  1  0.95613442  0.38736546  0.09804064  1
  F  F35  1  0.04386558  0.61263454  0.09804064  1
  F  F36  1  0.19490517  0.61213300  0.15399418  1
  F  F37  1  0.80509483  0.38786700  0.15399418  1
  F  F38  1  0.30509483  0.11213300  0.84600582  1
  F  F39  1  0.69490517  0.88786700  0.84600582  1
  F  F40  1  0.80509483  0.38786700  0.84600582  1
  F  F41  1  0.19490517  0.61213300  0.84600582  1
  F  F42  1  0.69490517  0.88786700  0.15399418  1
  F  F43  1  0.30509483  0.11213300  0.15399418  1
  F  F44  1  0.96640318  0.86200119  0.45024430  1
  F  F45  1  0.03359682  0.13799881  0.45024430  1
  F  F46  1  0.53359682  0.36200119  0.54975570  1
  F  F47  1  0.46640318  0.63799881  0.54975570  1
  F  F48  1  0.03359682  0.13799881  0.54975570  1
  F  F49  1  0.96640318  0.86200119  0.54975570  1
  F  F50  1  0.46640318  0.63799881  0.45024430  1
  F  F51  1  0.53359682  0.36200119  0.45024430  1
  F  F52  1  0.60646816  0.35152056  0.51431795  1
  F  F53  1  0.39353184  0.64847944  0.51431795  1
  F  F54  1  0.89353184  0.85152056  0.48568205  1
  F  F55  1  0.10646816  0.14847944  0.48568205  1
  F  F56  1  0.39353184  0.64847944  0.48568205  1
  F  F57  1  0.60646816  0.35152056  0.48568205  1
  F  F58  1  0.10646816  0.14847944  0.51431795  1
  F  F59  1  0.89353184  0.85152056  0.51431795  1
  F  F60  1  0.98444770  0.32342456  0.42114684  1
  F  F61  1  0.01555230  0.67657544  0.42114684  1
  F  F62  1  0.51555230  0.82342456  0.57885316  1
  F  F63  1  0.48444770  0.17657544  0.57885316  1
  F  F64  1  0.01555230  0.67657544  0.57885316  1
  F  F65  1  0.98444770  0.32342456  0.57885316  1
  F  F66  1  0.48444770  0.17657544  0.42114684  1
  F  F67  1  0.51555230  0.82342456  0.42114684  1
  F  F68  1  0.47732384  0.36338598  0.85099782  1
  F  F69  1  0.52267616  0.63661402  0.85099782  1
  F  F70  1  0.02267616  0.86338598  0.14900218  1
  F  F71  1  0.97732384  0.13661402  0.14900218  1
  F  F72  1  0.52267616  0.63661402  0.14900218  1
  F  F73  1  0.47732384  0.36338598  0.14900218  1
  F  F74  1  0.97732384  0.13661402  0.85099782  1
  F  F75  1  0.02267616  0.86338598  0.85099782  1
  F  F76  1  0.36447659  0.26917917  -0.00000000  1
  F  F77  1  0.63552341  0.73082083  0.00000000  1
  F  F78  1  0.13552341  0.76917917  0.00000000  1
  F  F79  1  0.86447659  0.23082083  0.00000000  1
  F  F80  1  0.81831441  0.36347049  0.53140548  1
  F  F81  1  0.18168559  0.63652951  0.53140548  1
  F  F82  1  0.68168559  0.86347049  0.46859452  1
  F  F83  1  0.31831441  0.13652951  0.46859452  1
  F  F84  1  0.18168559  0.63652951  0.46859452  1
  F  F85  1  0.81831441  0.36347049  0.46859452  1
  F  F86  1  0.31831441  0.13652951  0.53140548  1
  F  F87  1  0.68168559  0.86347049  0.53140548  1
  F  F88  1  0.18634530  0.50433077  0.44180105  1
  F  F89  1  0.81365470  0.49566923  0.44180105  1
  F  F90  1  0.31365470  0.00433077  0.55819895  1
  F  F91  1  0.68634530  0.99566923  0.55819895  1
  F  F92  1  0.81365470  0.49566923  0.55819895  1
  F  F93  1  0.18634530  0.50433077  0.55819895  1
  F  F94  1  0.68634530  0.99566923  0.44180105  1
  F  F95  1  0.31365470  0.00433077  0.44180105  1
  F  F96  1  0.25381105  0.76681907  0.36272354  1
  F  F97  1  0.74618895  0.23318093  0.36272354  1
  F  F98  1  0.24618895  0.26681907  0.63727646  1
  F  F99  1  0.75381105  0.73318093  0.63727646  1
  F  F100  1  0.74618895  0.23318093  0.63727646  1
  F  F101  1  0.25381105  0.76681907  0.63727646  1
  F  F102  1  0.75381105  0.73318093  0.36272354  1
  F  F103  1  0.24618895  0.26681907  0.36272354  1
  F  F104  1  0.00000000  0.50000000  0.81642963  1
  F  F105  1  0.50000000  0.00000000  0.18357037  1
  F  F106  1  0.00000000  0.50000000  0.18357037  1
  F  F107  1  0.50000000  0.00000000  0.81642963  1
  Li  Li108  1  0.00000000  0.00000000  0.30493423  1
  Li  Li109  1  0.50000000  0.50000000  0.69506577  1
  Li  Li110  1  0.00000000  0.00000000  0.69506577  1
  Li  Li111  1  0.50000000  0.50000000  0.30493423  1
  Li  Li112  1  0.13444439  0.08322890  -0.00000000  1
  Li  Li113  1  0.86555561  0.91677110  -0.00000000  1
  Li  Li114  1  0.36555561  0.58322890  0.00000000  1
  Li  Li115  1  0.63444439  0.41677110  0.00000000  1
  Li  Li116  1  0.00000000  0.00000000  0.21077704  1
  Li  Li117  1  0.50000000  0.50000000  0.78922296  1
  Li  Li118  1  0.00000000  0.00000000  0.78922296  1
  Li  Li119  1  0.50000000  0.50000000  0.21077704  1
  Li  Li120  1  0.60710898  0.37848337  0.68943089  1
  Li  Li121  1  -0.60710898  -0.37848337  0.68943089  1
  Li  Li122  1  -0.10710898  0.87848337  -0.68943089  1
  Li  Li123  1  1.10710898  0.12151663  -0.68943089  1
  Li  Li124  1  -0.60710898  -0.37848337  -0.68943089  1
  Li  Li125  1  0.60710898  0.37848337  -0.68943089  1
  Li  Li126  1  1.10710898  0.12151663  0.68943089  1
  Li  Li127  1  -0.10710898  0.87848337  0.68943089  1
  Li  Li128  1  0.09520823  0.31162625  0.18517773  1
  Li  Li129  1  0.90479177  0.68837375  0.18517773  1
  Li  Li130  1  0.40479177  0.81162625  0.81482227  1
  Li  Li131  1  0.59520823  0.18837375  0.81482227  1
  Li  Li132  1  0.90479177  0.68837375  0.81482227  1
  Li  Li133  1  0.09520823  0.31162625  0.81482227  1
  Li  Li134  1  0.59520823  0.18837375  0.18517773  1
  Li  Li135  1  0.40479177  0.81162625  0.18517773  1
  Li  Li136  1  0.00000000  0.50000000  0.33469198  1
  Li  Li137  1  0.50000000  0.00000000  0.66530802  1
  Li  Li138  1  0.00000000  0.50000000  0.66530802  1
  Li  Li139  1  0.50000000  0.00000000  0.33469198  1
  Li  Li140  1  0.44156348  0.11909485  0.50000000  1
  Li  Li141  1  0.55843652  0.88090515  0.50000000  1
  Li  Li142  1  0.05843652  0.61909485  0.50000000  1
  Li  Li143  1  0.94156348  0.38090515  0.50000000  1
  Li  Li144  1  0.00000000  0.00000000  0.50000000  1
  Li  Li145  1  0.50000000  0.50000000  0.50000000  1
  Li  Li146  1  0.00000000  0.00000000  0.36766309  1
  Li  Li147  1  0.50000000  0.50000000  0.63233691  1
  Li  Li148  1  0.00000000  0.00000000  0.63233691  1
  Li  Li149  1  0.50000000  0.50000000  0.36766309  1
  Li  Li150  1  0.40743753  0.57045940  0.43921537  1
  Li  Li151  1  0.59256247  0.42954060  0.43921537  1
  Li  Li152  1  0.09256247  0.07045940  0.56078463  1
  Li  Li153  1  0.90743753  0.92954060  0.56078463  1
  Li  Li154  1  0.59256247  0.42954060  0.56078463  1
  Li  Li155  1  0.40743753  0.57045940  0.56078463  1
  Li  Li156  1  0.90743753  0.92954060  0.43921537  1
  Li  Li157  1  0.09256247  0.07045940  0.43921537  1
  Li  Li158  1  0.89507076  0.39694165  0.00000000  1
  Li  Li159  1  0.10492924  0.60305835  0.00000000  1
  Li  Li160  1  0.60492924  0.89694165  0.00000000  1
  Li  Li161  1  0.39507076  0.10305835  0.00000000  1
  Li  Li162  1  0.00000000  0.50000000  0.00000000  1
  Li  Li163  1  0.50000000  0.00000000  0.00000000  1
  Li  Li164  1  0.34111354  0.91990050  0.81006386  1
  Li  Li165  1  0.65888646  0.08009950  0.81006386  1
  Li  Li166  1  0.15888646  0.41990050  0.18993614  1
  Li  Li167  1  0.84111354  0.58009950  0.18993614  1
  Li  Li168  1  0.65888646  0.08009950  0.18993614  1
  Li  Li169  1  0.34111354  0.91990050  0.18993614  1
  Li  Li170  1  0.84111354  0.58009950  0.81006386  1
  Li  Li171  1  0.15888646  0.41990050  0.81006386  1
  Li  Li172  1  0.13458379  0.33220031  0.00000000  1
  Li  Li173  1  0.86541621  0.66779969  0.00000000  1
  Li  Li174  1  0.36541621  0.83220031  0.00000000  1
  Li  Li175  1  0.63458379  0.16779969  0.00000000  1
  Li  Li176  1  0.00000000  0.50000000  0.50000000  1
  Li  Li177  1  0.50000000  0.00000000  0.50000000  1
  Li  Li178  1  0.31935823  0.00791183  0.95775042  1
  Li  Li179  1  0.68064177  0.99208817  0.95775042  1
  Li  Li180  1  0.18064177  0.50791183  0.04224958  1
  Li  Li181  1  0.81935823  0.49208817  0.04224958  1
  Li  Li182  1  0.68064177  0.99208817  0.04224958  1
  Li  Li183  1  0.31935823  0.00791183  0.04224958  1
  Li  Li184  1  0.81935823  0.49208817  0.95775042  1
  Li  Li185  1  0.18064177  0.50791183  0.95775042  1
  Li  Li186  1  0.47039625  0.69502326  0.18175660  1
  Li  Li187  1  0.52960375  0.30497674  0.18175660  1
  Li  Li188  1  0.02960375  0.19502326  0.81824340  1
  Li  Li189  1  0.97039625  0.80497674  0.81824340  1
  Li  Li190  1  0.52960375  0.30497674  0.81824340  1
  Li  Li191  1  0.47039625  0.69502326  0.81824340  1
  Li  Li192  1  0.97039625  0.80497674  0.18175660  1
  Li  Li193  1  0.02960375  0.19502326  0.18175660  1
  Li  Li194  1  0.62946153  0.72336278  0.60050322  1
  Li  Li195  1  0.37053847  0.27663722  0.60050322  1
  Li  Li196  1  0.87053847  0.22336278  0.39949678  1
  Li  Li197  1  0.12946153  0.77663722  0.39949678  1
  Li  Li198  1  0.37053847  0.27663722  0.39949678  1
  Li  Li199  1  0.62946153  0.72336278  0.39949678  1
  Li  Li200  1  0.12946153  0.77663722  0.60050322  1
  Li  Li201  1  0.87053847  0.22336278  0.60050322  1
  Li  Li202  1  0.97713262  0.17271814  0.75784216  1
  Li  Li203  1  0.02286738  0.82728186  0.75784216  1
  Li  Li204  1  0.52286738  0.67271814  0.24215784  1
  Li  Li205  1  0.47713262  0.32728186  0.24215784  1
  Li  Li206  1  0.02286738  0.82728186  0.24215784  1
  Li  Li207  1  0.97713262  0.17271814  0.24215784  1
  Li  Li208  1  0.47713262  0.32728186  0.75784216  1
  Li  Li209  1  0.52286738  0.67271814  0.75784216  1
  Li  Li210  1  0.00000000  0.00000000  0.11708289  1
  Li  Li211  1  0.50000000  0.50000000  0.88291711  1
  Li  Li212  1  0.00000000  0.00000000  0.88291711  1
  Li  Li213  1  0.50000000  0.50000000  0.11708289  1
  Li  Li214  1  0.00000000  0.00000000  0.00000000  1
  Li  Li215  1  0.50000000  0.50000000  0.00000000  1
