# generated using pymatgen
data_LiF
_symmetry_space_group_name_H-M   'P 1'
_cell_length_a   6.83545851
_cell_length_b   6.83545851
_cell_length_c   49.07187802
_cell_angle_alpha   90.00000000
_cell_angle_beta   90.00000000
_cell_angle_gamma   90.00000000
_symmetry_Int_Tables_number   1
_chemical_formula_structural   LiF
_chemical_formula_sum   'Li64 F64'
_cell_volume   2292.80955147
_cell_formula_units_Z   64
loop_
 _symmetry_equiv_pos_site_id
 _symmetry_equiv_pos_as_xyz
  1  'x, y, z'
loop_
 _atom_site_type_symbol
 _atom_site_label
 _atom_site_symmetry_multiplicity
 _atom_site_fract_x
 _atom_site_fract_y
 _atom_site_fract_z
 _atom_site_occupancy
  F  F0  1  0.86664155  0.89740341  0.75172936  1
  F  F1  1  0.63335845  0.10259659  0.25172936  1
  F  F2  1  0.35259659  0.61664155  0.00172936  1
  F  F3  1  0.14740341  0.38335845  0.50172936  1
  F  F4  1  0.63335845  0.89740341  0.24827064  1
  F  F5  1  0.86664155  0.10259659  0.74827064  1
  F  F6  1  0.14740341  0.61664155  0.99827064  1
  F  F7  1  0.35259659  0.38335845  0.49827064  1
  F  F8  1  0.13335845  0.10259659  0.24827064  1
  F  F9  1  0.36664155  0.89740341  0.74827064  1
  F  F10  1  0.64740341  0.38335845  0.99827064  1
  F  F11  1  0.85259659  0.61664155  0.49827064  1
  F  F12  1  0.36664155  0.10259659  0.75172936  1
  F  F13  1  0.13335845  0.89740341  0.25172936  1
  F  F14  1  0.85259659  0.38335845  0.00172936  1
  F  F15  1  0.64740341  0.61664155  0.50172936  1
  F  F16  1  0.36664155  0.39740341  0.25172936  1
  F  F17  1  0.13335845  0.60259659  0.75172936  1
  F  F18  1  0.85259659  0.11664155  0.50172936  1
  F  F19  1  0.64740341  0.88335845  0.00172936  1
  F  F20  1  0.13335845  0.39740341  0.74827064  1
  F  F21  1  0.36664155  0.60259659  0.24827064  1
  F  F22  1  0.64740341  0.11664155  0.49827064  1
  F  F23  1  0.85259659  0.88335845  0.99827064  1
  F  F24  1  0.63335845  0.60259659  0.74827064  1
  F  F25  1  0.86664155  0.39740341  0.24827064  1
  F  F26  1  0.14740341  0.88335845  0.49827064  1
  F  F27  1  0.35259659  0.11664155  0.99827064  1
  F  F28  1  0.86664155  0.60259659  0.25172936  1
  F  F29  1  0.63335845  0.39740341  0.75172936  1
  F  F30  1  0.35259659  0.88335845  0.50172936  1
  F  F31  1  0.14740341  0.11664155  0.00172936  1
  F  F32  1  0.54395690  0.24340422  0.66456364  1
  F  F33  1  0.95604310  0.75659578  0.16456364  1
  F  F34  1  0.00659578  0.29395690  0.91456364  1
  F  F35  1  0.49340422  0.70604310  0.41456364  1
  F  F36  1  0.95604310  0.24340422  0.33543636  1
  F  F37  1  0.54395690  0.75659578  0.83543636  1
  F  F38  1  0.49340422  0.29395690  0.08543636  1
  F  F39  1  0.00659578  0.70604310  0.58543636  1
  F  F40  1  0.45604310  0.75659578  0.33543636  1
  F  F41  1  0.04395690  0.24340422  0.83543636  1
  F  F42  1  0.99340422  0.70604310  0.08543636  1
  F  F43  1  0.50659578  0.29395690  0.58543636  1
  F  F44  1  0.04395690  0.75659578  0.66456364  1
  F  F45  1  0.45604310  0.24340422  0.16456364  1
  F  F46  1  0.50659578  0.70604310  0.91456364  1
  F  F47  1  0.99340422  0.29395690  0.41456364  1
  F  F48  1  0.04395690  0.74340422  0.16456364  1
  F  F49  1  0.45604310  0.25659578  0.66456364  1
  F  F50  1  0.50659578  0.79395690  0.41456364  1
  F  F51  1  0.99340422  0.20604310  0.91456364  1
  F  F52  1  0.45604310  0.74340422  0.83543636  1
  F  F53  1  0.04395690  0.25659578  0.33543636  1
  F  F54  1  0.99340422  0.79395690  0.58543636  1
  F  F55  1  0.50659578  0.20604310  0.08543636  1
  F  F56  1  0.95604310  0.25659578  0.83543636  1
  F  F57  1  0.54395690  0.74340422  0.33543636  1
  F  F58  1  0.49340422  0.20604310  0.58543636  1
  F  F59  1  0.00659578  0.79395690  0.08543636  1
  F  F60  1  0.54395690  0.25659578  0.16456364  1
  F  F61  1  0.95604310  0.74340422  0.66456364  1
  F  F62  1  0.00659578  0.20604310  0.41456364  1
  F  F63  1  0.49340422  0.79395690  0.91456364  1
  Li  Li64  1  0.00000000  0.25000000  0.37500000  1
  Li  Li65  1  0.00000000  0.75000000  0.62500000  1
  Li  Li66  1  0.50000000  0.25000000  0.62500000  1
  Li  Li67  1  0.50000000  0.75000000  0.37500000  1
  Li  Li68  1  0.50000000  0.75000000  0.87500000  1
  Li  Li69  1  0.50000000  0.25000000  0.12500000  1
  Li  Li70  1  0.00000000  0.75000000  0.12500000  1
  Li  Li71  1  0.00000000  0.25000000  0.87500000  1
  Li  Li72  1  0.00000000  0.00000000  0.00000000  1
  Li  Li73  1  0.50000000  0.00000000  0.50000000  1
  Li  Li74  1  0.25000000  0.75000000  0.25000000  1
  Li  Li75  1  0.25000000  0.25000000  0.75000000  1
  Li  Li76  1  0.50000000  0.00000000  0.00000000  1
  Li  Li77  1  0.00000000  0.00000000  0.50000000  1
  Li  Li78  1  0.25000000  0.75000000  0.75000000  1
  Li  Li79  1  0.25000000  0.25000000  0.25000000  1
  Li  Li80  1  0.50000000  0.50000000  0.50000000  1
  Li  Li81  1  0.00000000  0.50000000  0.00000000  1
  Li  Li82  1  0.75000000  0.25000000  0.75000000  1
  Li  Li83  1  0.75000000  0.75000000  0.25000000  1
  Li  Li84  1  0.00000000  0.50000000  0.50000000  1
  Li  Li85  1  0.50000000  0.50000000  0.00000000  1
  Li  Li86  1  0.75000000  0.25000000  0.25000000  1
  Li  Li87  1  0.75000000  0.75000000  0.75000000  1
  Li  Li88  1  0.26756734  0.95401671  0.82644906  1
  Li  Li89  1  0.23243266  -0.95401671  1.32644906  1
  Li  Li90  1  -0.70401671  1.01756734  1.07644906  1
  Li  Li91  1  1.20401671  -0.01756734  1.57644906  1
  Li  Li92  1  0.23243266  0.95401671  -0.82644906  1
  Li  Li93  1  0.26756734  -0.95401671  -0.32644906  1
  Li  Li94  1  1.20401671  1.01756734  -0.07644906  1
  Li  Li95  1  -0.70401671  -0.01756734  -0.57644906  1
  Li  Li96  1  -0.26756734  -0.95401671  -0.82644906  1
  Li  Li97  1  0.76756734  0.95401671  -0.32644906  1
  Li  Li98  1  1.70401671  -0.01756734  -0.07644906  1
  Li  Li99  1  -0.20401671  1.01756734  -0.57644906  1
  Li  Li100  1  0.76756734  -0.95401671  0.82644906  1
  Li  Li101  1  -0.26756734  0.95401671  1.32644906  1
  Li  Li102  1  -0.20401671  -0.01756734  1.07644906  1
  Li  Li103  1  1.70401671  1.01756734  1.57644906  1
  Li  Li104  1  0.76756734  1.45401671  1.32644906  1
  Li  Li105  1  0.73243266  -0.45401671  1.82644906  1
  Li  Li106  1  -0.20401671  1.51756734  1.57644906  1
  Li  Li107  1  1.70401671  0.48243266  2.07644906  1
  Li  Li108  1  0.73243266  1.45401671  -0.32644906  1
  Li  Li109  1  0.76756734  -0.45401671  0.17355094  1
  Li  Li110  1  1.70401671  1.51756734  0.42355094  1
  Li  Li111  1  -0.20401671  0.48243266  -0.07644906  1
  Li  Li112  1  0.23243266  -0.45401671  -0.32644906  1
  Li  Li113  1  1.26756734  1.45401671  0.17355094  1
  Li  Li114  1  2.20401671  0.48243266  0.42355094  1
  Li  Li115  1  0.29598329  1.51756734  -0.07644906  1
  Li  Li116  1  1.26756734  -0.45401671  1.32644906  1
  Li  Li117  1  0.23243266  1.45401671  1.82644906  1
  Li  Li118  1  0.29598329  0.48243266  1.57644906  1
  Li  Li119  1  2.20401671  1.51756734  2.07644906  1
  Li  Li120  1  0.00000000  0.25000000  0.12500000  1
  Li  Li121  1  0.00000000  0.75000000  0.37500000  1
  Li  Li122  1  0.00000000  0.75000000  0.87500000  1
  Li  Li123  1  0.00000000  0.25000000  0.62500000  1
  Li  Li124  1  0.50000000  0.75000000  0.62500000  1
  Li  Li125  1  0.50000000  0.25000000  0.87500000  1
  Li  Li126  1  0.50000000  0.25000000  0.37500000  1
  Li  Li127  1  0.50000000  0.75000000  0.12500000  1
