# generated using pymatgen
data_LiSb4As3O
_symmetry_space_group_name_H-M   'P 1'
_cell_length_a   8.19736004
_cell_length_b   7.39008380
_cell_length_c   8.52619159
_cell_angle_alpha   90.00000000
_cell_angle_beta   90.00000000
_cell_angle_gamma   90.00000000
_symmetry_Int_Tables_number   1
_chemical_formula_structural   LiSb4As3O
_chemical_formula_sum   'Li1 Sb4 As3 O1'
_cell_volume   516.50967470
_cell_formula_units_Z   1
loop_
 _symmetry_equiv_pos_site_id
 _symmetry_equiv_pos_as_xyz
  1  'x, y, z'
loop_
 _atom_site_type_symbol
 _atom_site_label
 _atom_site_symmetry_multiplicity
 _atom_site_fract_x
 _atom_site_fract_y
 _atom_site_fract_z
 _atom_site_occupancy
  As  As0  1  0.00000000  0.00000000  0.00000000  1
  As  As1  1  0.50000000  0.50000000  0.50000000  1
  As  As2  1  0.25000000  0.25000000  0.25000000  1
  O  O3  1  0.75000000  0.25000000  0.00000000  1
  Li  Li4  1  0.25000000  0.75000000  0.50000000  1
  Sb  Sb5  1  0.92636218  0.06201165  0.45298794  1
  Sb  Sb6  1  0.30773982  0.39790631  0.13603395  1
  Sb  Sb7  1  0.18416420  0.27989503  0.92761912  1
  Sb  Sb8  1  0.65870119  0.10410992  0.89499463  1
