# generated using pymatgen
data_LiF
_symmetry_space_group_name_H-M   'P 1'
_cell_length_a   6.78900327
_cell_length_b   6.78900327
_cell_length_c   14.06985807
_cell_angle_alpha   90.00000000
_cell_angle_beta   90.00000000
_cell_angle_gamma   120.00000000
_symmetry_Int_Tables_number   1
_chemical_formula_structural   LiF
_chemical_formula_sum   'Li21 F21'
_cell_volume   561.60683327
_cell_formula_units_Z   21
loop_
 _symmetry_equiv_pos_site_id
 _symmetry_equiv_pos_as_xyz
  1  'x, y, z'
loop_
 _atom_site_type_symbol
 _atom_site_label
 _atom_site_symmetry_multiplicity
 _atom_site_fract_x
 _atom_site_fract_y
 _atom_site_fract_z
 _atom_site_occupancy
  F  F0  1  0.11971147  0.88655989  0.19967416  1
  F  F1  1  0.11344011  0.23315158  0.19967416  1
  F  F2  1  0.76684842  0.88028853  0.19967416  1
  F  F3  1  0.11344011  0.88028853  0.80032584  1
  F  F4  1  0.76684842  0.88655989  0.80032584  1
  F  F5  1  0.11971147  0.23315158  0.80032584  1
  F  F6  1  0.66666667  0.33333333  0.84916860  1
  F  F7  1  0.66666667  0.33333333  0.15083140  1
  F  F8  1  0.66666667  0.33333333  0.00000000  1
  F  F9  1  0.15021634  0.84978366  0.50000000  1
  F  F10  1  0.15021634  0.30043269  0.50000000  1
  F  F11  1  0.69956731  0.84978366  0.50000000  1
  F  F12  1  0.48450076  0.51549924  0.00000000  1
  F  F13  1  0.48450076  0.96900152  0.00000000  1
  F  F14  1  0.03099848  0.51549924  -0.00000000  1
  F  F15  1  0.79883404  0.91582992  0.29266100  1
  F  F16  1  0.08417008  0.88300412  0.29266100  1
  F  F17  1  0.11699588  0.20116596  0.29266100  1
  F  F18  1  0.08417008  0.20116596  0.70733900  1
  F  F19  1  0.11699588  0.91582992  0.70733900  1
  F  F20  1  0.79883404  0.88300412  0.70733900  1
  Li  Li21  1  0.78442799  0.54857445  0.57845318  1
  Li  Li22  1  -0.54857445  0.23585354  0.57845318  1
  Li  Li23  1  -0.23585354  -0.78442799  0.57845318  1
  Li  Li24  1  -0.54857445  -0.78442799  -0.57845318  1
  Li  Li25  1  -0.23585354  0.54857445  -0.57845318  1
  Li  Li26  1  0.78442799  0.23585354  -0.57845318  1
  Li  Li27  1  0.30717751  0.81731498  0.71583148  1
  Li  Li28  1  0.18268502  0.48986253  0.71583148  1
  Li  Li29  1  0.51013747  0.69282249  0.71583148  1
  Li  Li30  1  0.18268502  0.69282249  0.28416852  1
  Li  Li31  1  0.51013747  0.81731498  0.28416852  1
  Li  Li32  1  0.30717751  0.48986253  0.28416852  1
  Li  Li33  1  0.66666667  0.33333333  0.50000000  1
  Li  Li34  1  0.33333333  0.66666667  0.50000000  1
  Li  Li35  1  0.54244369  0.50174985  0.71852309  1
  Li  Li36  1  0.49825015  0.04069384  0.71852309  1
  Li  Li37  1  0.95930616  0.45755631  0.71852309  1
  Li  Li38  1  0.49825015  0.45755631  0.28147691  1
  Li  Li39  1  0.95930616  0.50174985  0.28147691  1
  Li  Li40  1  0.54244369  0.04069384  0.28147691  1
  Li  Li41  1  0.00000000  0.00000000  0.50000000  1
