# generated using pymatgen
data_LiF
_symmetry_space_group_name_H-M   'P 1'
_cell_length_a   6.05849288
_cell_length_b   6.05849288
_cell_length_c   35.41290404
_cell_angle_alpha   90.00000000
_cell_angle_beta   90.00000000
_cell_angle_gamma   120.00000000
_symmetry_Int_Tables_number   1
_chemical_formula_structural   LiF
_chemical_formula_sum   'Li59 F59'
_cell_volume   1125.69666106
_cell_formula_units_Z   59
loop_
 _symmetry_equiv_pos_site_id
 _symmetry_equiv_pos_as_xyz
  1  'x, y, z'
loop_
 _atom_site_type_symbol
 _atom_site_label
 _atom_site_symmetry_multiplicity
 _atom_site_fract_x
 _atom_site_fract_y
 _atom_site_fract_z
 _atom_site_occupancy
  F  F0  1  0.33333333  0.66666667  0.00000000  1
  F  F1  1  0.93723595  0.26788511  0.75417998  1
  F  F2  1  0.73211489  0.66935084  0.75417998  1
  F  F3  1  0.33064916  0.06276405  0.75417998  1
  F  F4  1  0.73211489  0.06276405  0.24582002  1
  F  F5  1  0.33064916  0.26788511  0.24582002  1
  F  F6  1  0.93723595  0.66935084  0.24582002  1
  F  F7  1  0.00000000  0.00000000  0.88541293  1
  F  F8  1  0.00000000  0.00000000  0.11458707  1
  F  F9  1  0.58664068  0.03913639  0.00624810  1
  F  F10  1  0.96086361  0.54750429  0.00624810  1
  F  F11  1  0.45249571  0.41335932  0.00624810  1
  F  F12  1  0.96086361  0.41335932  0.99375190  1
  F  F13  1  0.45249571  0.03913639  0.99375190  1
  F  F14  1  0.58664068  0.54750429  0.99375190  1
  F  F15  1  0.82457112  0.50240285  0.18338693  1
  F  F16  1  0.49759715  0.32216828  0.18338693  1
  F  F17  1  0.67783172  0.17542888  0.18338693  1
  F  F18  1  0.49759715  0.17542888  0.81661307  1
  F  F19  1  0.67783172  0.50240285  0.81661307  1
  F  F20  1  0.82457112  0.32216828  0.81661307  1
  F  F21  1  0.11004603  0.19187361  0.66848367  1
  F  F22  1  0.80812639  0.91817242  0.66848367  1
  F  F23  1  0.08182758  0.88995397  0.66848367  1
  F  F24  1  0.80812639  0.88995397  0.33151633  1
  F  F25  1  0.08182758  0.19187361  0.33151633  1
  F  F26  1  0.11004603  0.91817242  0.33151633  1
  F  F27  1  0.43651108  0.05311763  0.11260339  1
  F  F28  1  0.94688237  0.38339345  0.11260339  1
  F  F29  1  0.61660655  0.56348892  0.11260339  1
  F  F30  1  0.94688237  0.56348892  0.88739661  1
  F  F31  1  0.61660655  0.05311763  0.88739661  1
  F  F32  1  0.43651108  0.38339345  0.88739661  1
  F  F33  1  0.92290363  0.72780293  0.83656353  1
  F  F34  1  0.27219707  0.19510070  0.83656353  1
  F  F35  1  0.80489930  0.07709637  0.83656353  1
  F  F36  1  0.27219707  0.07709637  0.16343647  1
  F  F37  1  0.80489930  0.72780293  0.16343647  1
  F  F38  1  0.92290363  0.19510070  0.16343647  1
  F  F39  1  0.66666667  0.33333333  0.73209019  1
  F  F40  1  0.66666667  0.33333333  0.26790981  1
  F  F41  1  0.90938223  0.21841776  0.04190716  1
  F  F42  1  0.78158224  0.69096447  0.04190716  1
  F  F43  1  0.30903553  0.09061777  0.04190716  1
  F  F44  1  0.78158224  0.09061777  0.95809284  1
  F  F45  1  0.30903553  0.21841776  0.95809284  1
  F  F46  1  0.90938223  0.69096447  0.95809284  1
  F  F47  1  0.40954616  0.23008265  0.23886295  1
  F  F48  1  0.76991735  0.17946351  0.23886295  1
  F  F49  1  0.82053649  0.59045384  0.23886295  1
  F  F50  1  0.76991735  0.59045384  0.76113705  1
  F  F51  1  0.82053649  0.23008265  0.76113705  1
  F  F52  1  0.40954616  0.17946351  0.76113705  1
  F  F53  1  0.06181709  0.63853767  0.53504405  1
  F  F54  1  0.36146233  0.42327942  0.53504405  1
  F  F55  1  0.57672058  0.93818291  0.53504405  1
  F  F56  1  0.36146233  0.93818291  0.46495595  1
  F  F57  1  0.57672058  0.63853767  0.46495595  1
  F  F58  1  0.06181709  0.42327942  0.46495595  1
  Li  Li59  1  0.66666667  0.33333333  0.46123133  1
  Li  Li60  1  0.66666667  0.33333333  0.53876867  1
  Li  Li61  1  0.12211794  0.68504031  0.59923181  1
  Li  Li62  1  -0.68504031  -0.56292238  0.59923181  1
  Li  Li63  1  0.56292238  -0.12211794  0.59923181  1
  Li  Li64  1  -0.68504031  -0.12211794  -0.59923181  1
  Li  Li65  1  0.56292238  0.68504031  -0.59923181  1
  Li  Li66  1  0.12211794  -0.56292238  -0.59923181  1
  Li  Li67  1  0.33333333  0.66666667  0.50000000  1
  Li  Li68  1  0.32779666  0.14642472  0.91924158  1
  Li  Li69  1  0.85357528  0.18137193  0.91924158  1
  Li  Li70  1  0.81862807  0.67220334  0.91924158  1
  Li  Li71  1  0.85357528  0.67220334  0.08075842  1
  Li  Li72  1  0.81862807  0.14642472  0.08075842  1
  Li  Li73  1  0.32779666  0.18137193  0.08075842  1
  Li  Li74  1  0.42817910  0.15762676  0.57224130  1
  Li  Li75  1  0.84237324  0.27055234  0.57224130  1
  Li  Li76  1  0.72944766  0.57182090  0.57224130  1
  Li  Li77  1  0.84237324  0.57182090  0.42775870  1
  Li  Li78  1  0.72944766  0.15762676  0.42775870  1
  Li  Li79  1  0.42817910  0.27055234  0.42775870  1
  Li  Li80  1  0.56412410  0.43587590  0.50000000  1
  Li  Li81  1  0.56412410  0.12824819  0.50000000  1
  Li  Li82  1  0.87175181  0.43587590  0.50000000  1
  Li  Li83  1  0.33333333  0.66666667  0.56695506  1
  Li  Li84  1  0.33333333  0.66666667  0.43304494  1
  Li  Li85  1  0.21996379  0.91892418  0.29435263  1
  Li  Li86  1  0.08107582  0.30103961  0.29435263  1
  Li  Li87  1  0.69896039  0.78003621  0.29435263  1
  Li  Li88  1  0.08107582  0.78003621  0.70564737  1
  Li  Li89  1  0.69896039  0.91892418  0.70564737  1
  Li  Li90  1  0.21996379  0.30103961  0.70564737  1
  Li  Li91  1  0.15504474  0.84495526  0.00000000  1
  Li  Li92  1  0.15504474  0.31008948  0.00000000  1
  Li  Li93  1  0.68991052  0.84495526  0.00000000  1
  Li  Li94  1  0.16062309  0.80690707  0.03859911  1
  Li  Li95  1  0.19309293  0.35371602  0.03859911  1
  Li  Li96  1  0.64628398  0.83937691  0.03859911  1
  Li  Li97  1  0.19309293  0.83937691  0.96140089  1
  Li  Li98  1  0.64628398  0.80690707  0.96140089  1
  Li  Li99  1  0.16062309  0.35371602  0.96140089  1
  Li  Li100  1  0.00000000  0.00000000  0.00000000  1
  Li  Li101  1  0.33333333  0.66666667  0.11617880  1
  Li  Li102  1  0.33333333  0.66666667  0.88382120  1
  Li  Li103  1  0.00000000  0.00000000  0.62512854  1
  Li  Li104  1  0.00000000  0.00000000  0.37487146  1
  Li  Li105  1  0.30105818  0.20980135  0.32517660  1
  Li  Li106  1  0.79019865  0.09125683  0.32517660  1
  Li  Li107  1  0.90874317  0.69894182  0.32517660  1
  Li  Li108  1  0.79019865  0.69894182  0.67482340  1
  Li  Li109  1  0.90874317  0.20980135  0.67482340  1
  Li  Li110  1  0.30105818  0.09125683  0.67482340  1
  Li  Li111  1  0.58431103  0.74014288  0.33179370  1
  Li  Li112  1  0.25985712  0.84416814  0.33179370  1
  Li  Li113  1  0.15583186  0.41568897  0.33179370  1
  Li  Li114  1  0.25985712  0.41568897  0.66820630  1
  Li  Li115  1  0.15583186  0.74014288  0.66820630  1
  Li  Li116  1  0.58431103  0.84416814  0.66820630  1
  Li  Li117  1  0.66666667  0.33333333  0.00000000  1
