# generated using pymatgen
data_LiF
_symmetry_space_group_name_H-M   'P 1'
_cell_length_a   9.26774634
_cell_length_b   9.26774634
_cell_length_c   5.74446880
_cell_angle_alpha   90.00000000
_cell_angle_beta   90.00000000
_cell_angle_gamma   120.00000000
_symmetry_Int_Tables_number   1
_chemical_formula_structural   LiF
_chemical_formula_sum   'Li12 F12'
_cell_volume   427.29595756
_cell_formula_units_Z   12
loop_
 _symmetry_equiv_pos_site_id
 _symmetry_equiv_pos_as_xyz
  1  'x, y, z'
loop_
 _atom_site_type_symbol
 _atom_site_label
 _atom_site_symmetry_multiplicity
 _atom_site_fract_x
 _atom_site_fract_y
 _atom_site_fract_z
 _atom_site_occupancy
  F  F0  1  0.13644886  0.28344451  0.74869640  1
  F  F1  1  -0.28344451  -0.14699565  0.74869640  1
  F  F2  1  0.14699565  -0.13644886  0.74869640  1
  F  F3  1  -0.28344451  -0.13644886  -0.74869640  1
  F  F4  1  0.14699565  0.28344451  -0.74869640  1
  F  F5  1  0.13644886  -0.14699565  -0.74869640  1
  F  F6  1  0.97149141  0.50576369  0.12301767  1
  F  F7  1  0.49423631  0.46572773  0.12301767  1
  F  F8  1  0.53427227  0.02850859  0.12301767  1
  F  F9  1  0.49423631  0.02850859  0.87698233  1
  F  F10  1  0.53427227  0.50576369  0.87698233  1
  F  F11  1  0.97149141  0.46572773  0.87698233  1
  Li  Li12  1  0.66666667  0.33333333  -0.00000000  1
  Li  Li13  1  0.85604102  0.83066939  0.81596376  1
  Li  Li14  1  0.16933061  0.02537163  0.81596376  1
  Li  Li15  1  0.97462837  0.14395898  0.81596376  1
  Li  Li16  1  0.16933061  0.14395898  0.18403624  1
  Li  Li17  1  0.97462837  0.83066939  0.18403624  1
  Li  Li18  1  0.85604102  0.02537163  0.18403624  1
  Li  Li19  1  0.25583634  0.74416366  0.00000000  1
  Li  Li20  1  0.25583634  0.51167269  0.00000000  1
  Li  Li21  1  0.48832731  0.74416366  -0.00000000  1
  Li  Li22  1  0.00000000  0.00000000  0.50000000  1
  Li  Li23  1  0.33333333  0.66666667  0.50000000  1
