# generated using pymatgen
data_LiF
_symmetry_space_group_name_H-M   'P 1'
_cell_length_a   5.54435206
_cell_length_b   9.34246424
_cell_length_c   7.86397440
_cell_angle_alpha   90.00000000
_cell_angle_beta   90.00000000
_cell_angle_gamma   90.00000000
_symmetry_Int_Tables_number   1
_chemical_formula_structural   LiF
_chemical_formula_sum   'Li24 F24'
_cell_volume   407.33744504
_cell_formula_units_Z   24
loop_
 _symmetry_equiv_pos_site_id
 _symmetry_equiv_pos_as_xyz
  1  'x, y, z'
loop_
 _atom_site_type_symbol
 _atom_site_label
 _atom_site_symmetry_multiplicity
 _atom_site_fract_x
 _atom_site_fract_y
 _atom_site_fract_z
 _atom_site_occupancy
  F  F0  1  0.49380449  0.39320228  0.13239842  1
  F  F1  1  0.00619551  0.60679772  0.63239842  1
  F  F2  1  0.50619551  0.89320228  0.86760158  1
  F  F3  1  0.99380449  0.10679772  0.36760158  1
  F  F4  1  0.50619551  0.60679772  0.86760158  1
  F  F5  1  0.99380449  0.39320228  0.36760158  1
  F  F6  1  0.49380449  0.10679772  0.13239842  1
  F  F7  1  0.00619551  0.89320228  0.63239842  1
  F  F8  1  0.75777346  0.61421009  0.39952601  1
  F  F9  1  0.74222654  0.38578991  0.89952601  1
  F  F10  1  0.24222654  0.11421009  0.60047399  1
  F  F11  1  0.25777346  0.88578991  0.10047399  1
  F  F12  1  0.24222654  0.38578991  0.60047399  1
  F  F13  1  0.25777346  0.61421009  0.10047399  1
  F  F14  1  0.75777346  0.88578991  0.39952601  1
  F  F15  1  0.74222654  0.11421009  0.89952601  1
  F  F16  1  0.84483934  0.25000000  0.15350509  1
  F  F17  1  0.65516066  0.75000000  0.65350509  1
  F  F18  1  0.15516066  0.75000000  0.84649491  1
  F  F19  1  0.34483934  0.25000000  0.34649491  1
  F  F20  1  0.00000000  0.00000000  0.50000000  1
  F  F21  1  0.50000000  0.00000000  0.00000000  1
  F  F22  1  0.00000000  0.50000000  0.50000000  1
  F  F23  1  0.50000000  0.50000000  -0.00000000  1
  Li  Li24  1  0.00000000  0.00000000  0.00000000  1
  Li  Li25  1  0.50000000  0.00000000  0.50000000  1
  Li  Li26  1  0.00000000  0.50000000  0.00000000  1
  Li  Li27  1  0.50000000  0.50000000  0.50000000  1
  Li  Li28  1  0.80510158  0.41313996  0.11623378  1
  Li  Li29  1  -0.30510158  -0.41313996  0.61623378  1
  Li  Li30  1  -0.80510158  0.91313996  -0.11623378  1
  Li  Li31  1  1.30510158  0.08686004  0.38376622  1
  Li  Li32  1  -0.80510158  -0.41313996  -0.11623378  1
  Li  Li33  1  1.30510158  0.41313996  0.38376622  1
  Li  Li34  1  0.80510158  0.08686004  0.11623378  1
  Li  Li35  1  -0.30510158  0.91313996  0.61623378  1
  Li  Li36  1  0.67436626  0.89842506  0.24233712  1
  Li  Li37  1  0.82563374  0.10157494  0.74233712  1
  Li  Li38  1  0.32563374  0.39842506  0.75766288  1
  Li  Li39  1  0.17436626  0.60157494  0.25766288  1
  Li  Li40  1  0.32563374  0.10157494  0.75766288  1
  Li  Li41  1  0.17436626  0.89842506  0.25766288  1
  Li  Li42  1  0.67436626  0.60157494  0.24233712  1
  Li  Li43  1  0.82563374  0.39842506  0.74233712  1
  Li  Li44  1  0.75414180  0.25000000  0.91879646  1
  Li  Li45  1  0.74585820  0.75000000  0.41879646  1
  Li  Li46  1  0.24585820  0.75000000  0.08120354  1
  Li  Li47  1  0.25414180  0.25000000  0.58120354  1
