# generated using pymatgen
data_LiY2Te4As3P2
_symmetry_space_group_name_H-M   'P 1'
_cell_length_a   4.98724767
_cell_length_b   4.96170976
_cell_length_c   7.15329158
_cell_angle_alpha   94.88862078
_cell_angle_beta   100.64639973
_cell_angle_gamma   109.63564671
_symmetry_Int_Tables_number   1
_chemical_formula_structural   LiY2Te4As3P2
_chemical_formula_sum   'Li1 Y2 Te4 As3 P2'
_cell_volume   161.75899218
_cell_formula_units_Z   1
loop_
 _symmetry_equiv_pos_site_id
 _symmetry_equiv_pos_as_xyz
  1  'x, y, z'
loop_
 _atom_site_type_symbol
 _atom_site_label
 _atom_site_symmetry_multiplicity
 _atom_site_fract_x
 _atom_site_fract_y
 _atom_site_fract_z
 _atom_site_occupancy
  Te  Te0  1  0.12500000  0.00000000  0.25000000  1
  Te  Te1  1  0.00000000  0.00000000  0.00000000  1
  Te  Te2  1  0.37500000  0.00000000  0.25000000  1
  Te  Te3  1  0.25000000  0.25000000  0.25000000  1
  Y  Y4  1  0.00000000  0.25000000  0.12500000  1
  Y  Y5  1  0.51276080  0.31514210  0.74950388  1
  P  P6  1  0.74838573  0.82025257  0.58159445  1
  P  P7  1  0.23879305  0.81718357  0.53461392  1
  As  As8  1  0.25479081  0.35099603  0.83209971  1
  As  As9  1  0.64100679  0.68040919  0.61105277  1
  As  As10  1  0.06096098  0.75942239  0.67802803  1
  Li  Li11  1  0.81271338  0.90453742  0.44138620  1
