# generated using pymatgen
data_LiF
_symmetry_space_group_name_H-M   'P 1'
_cell_length_a   6.04981249
_cell_length_b   3.23044204
_cell_length_c   11.57058558
_cell_angle_alpha   90.00000000
_cell_angle_beta   90.00000000
_cell_angle_gamma   90.00000000
_symmetry_Int_Tables_number   1
_chemical_formula_structural   LiF
_chemical_formula_sum   'Li20 F20'
_cell_volume   226.13053331
_cell_formula_units_Z   20
loop_
 _symmetry_equiv_pos_site_id
 _symmetry_equiv_pos_as_xyz
  1  'x, y, z'
loop_
 _atom_site_type_symbol
 _atom_site_label
 _atom_site_symmetry_multiplicity
 _atom_site_fract_x
 _atom_site_fract_y
 _atom_site_fract_z
 _atom_site_occupancy
  F  F0  1  0.67736205  0.55153267  0.70844573  1
  F  F1  1  0.82263795  0.44846733  0.20844573  1
  F  F2  1  0.32263795  0.05153267  0.29155427  1
  F  F3  1  0.17736205  0.94846733  0.79155427  1
  F  F4  1  0.32263795  0.44846733  0.29155427  1
  F  F5  1  0.17736205  0.55153267  0.79155427  1
  F  F6  1  0.67736205  0.94846733  0.70844573  1
  F  F7  1  0.82263795  0.05153267  0.20844573  1
  F  F8  1  0.32041397  0.25000000  0.18556491  1
  F  F9  1  0.17958603  0.75000000  0.68556491  1
  F  F10  1  0.67958603  0.75000000  0.81443509  1
  F  F11  1  0.82041397  0.25000000  0.31443509  1
  F  F12  1  0.77241848  0.07606077  0.27627052  1
  F  F13  1  0.72758152  0.92393923  0.77627052  1
  F  F14  1  0.22758152  0.57606077  0.72372948  1
  F  F15  1  0.27241848  0.42393923  0.22372948  1
  F  F16  1  0.22758152  0.92393923  0.72372948  1
  F  F17  1  0.27241848  0.07606077  0.22372948  1
  F  F18  1  0.77241848  0.42393923  0.27627052  1
  F  F19  1  0.72758152  0.57606077  0.77627052  1
  Li  Li20  1  0.79552465  0.95573592  0.05749996  1
  Li  Li21  1  -0.29552465  -0.95573592  0.55749996  1
  Li  Li22  1  -0.79552465  1.45573592  -0.05749996  1
  Li  Li23  1  1.29552465  -0.45573592  0.44250004  1
  Li  Li24  1  -0.79552465  -0.95573592  -0.05749996  1
  Li  Li25  1  1.29552465  0.95573592  0.44250004  1
  Li  Li26  1  0.79552465  -0.45573592  0.05749996  1
  Li  Li27  1  -0.29552465  1.45573592  0.55749996  1
  Li  Li28  1  0.00000000  0.00000000  0.50000000  1
  Li  Li29  1  0.50000000  -0.00000000  -0.00000000  1
  Li  Li30  1  0.00000000  0.50000000  0.50000000  1
  Li  Li31  1  0.50000000  0.50000000  -0.00000000  1
  Li  Li32  1  0.75815496  0.25000000  0.87040197  1
  Li  Li33  1  0.74184504  0.75000000  0.37040197  1
  Li  Li34  1  0.24184504  0.75000000  0.12959803  1
  Li  Li35  1  0.25815496  0.25000000  0.62959803  1
  Li  Li36  1  0.00000000  0.00000000  0.00000000  1
  Li  Li37  1  0.50000000  -0.00000000  0.50000000  1
  Li  Li38  1  0.00000000  0.50000000  0.00000000  1
  Li  Li39  1  0.50000000  0.50000000  0.50000000  1
