# generated using pymatgen
data_Li2Si4Te3F12
_symmetry_space_group_name_H-M   'P 1'
_cell_length_a   11.65237385
_cell_length_b   11.65237385
_cell_length_c   6.60925353
_cell_angle_alpha   90.00000000
_cell_angle_beta   90.00000000
_cell_angle_gamma   90.00000000
_symmetry_Int_Tables_number   1
_chemical_formula_structural   Li2Si4Te3F12
_chemical_formula_sum   'Li8 Si16 Te12 F48'
_cell_volume   897.39001167
_cell_formula_units_Z   4
loop_
 _symmetry_equiv_pos_site_id
 _symmetry_equiv_pos_as_xyz
  1  'x, y, z'
loop_
 _atom_site_type_symbol
 _atom_site_label
 _atom_site_symmetry_multiplicity
 _atom_site_fract_x
 _atom_site_fract_y
 _atom_site_fract_z
 _atom_site_occupancy
  F  F0  1  0.07350190  0.84037388  0.32794972  1
  F  F1  1  0.42649810  -0.84037388  0.82794972  1
  F  F2  1  -0.59037388  0.82350190  0.57794972  1
  F  F3  1  1.09037388  0.17649810  1.07794972  1
  F  F4  1  0.42649810  0.84037388  0.17205028  1
  F  F5  1  0.07350190  -0.84037388  -0.32794972  1
  F  F6  1  1.09037388  0.82350190  -0.07794972  1
  F  F7  1  -0.59037388  0.17649810  0.42205028  1
  F  F8  1  -0.07350190  -0.84037388  -0.32794972  1
  F  F9  1  0.57350190  0.84037388  0.17205028  1
  F  F10  1  1.59037388  0.17649810  0.42205028  1
  F  F11  1  -0.09037388  0.82350190  -0.07794972  1
  F  F12  1  0.57350190  -0.84037388  0.82794972  1
  F  F13  1  -0.07350190  0.84037388  0.32794972  1
  F  F14  1  -0.09037388  0.17649810  1.07794972  1
  F  F15  1  1.59037388  0.82350190  0.57794972  1
  F  F16  1  0.57350190  1.34037388  0.82794972  1
  F  F17  1  0.92649810  -0.34037388  1.32794972  1
  F  F18  1  -0.09037388  1.32350190  1.07794972  1
  F  F19  1  1.59037388  0.67649810  1.57794972  1
  F  F20  1  0.92649810  1.34037388  0.67205028  1
  F  F21  1  0.57350190  -0.34037388  0.17205028  1
  F  F22  1  1.59037388  1.32350190  0.42205028  1
  F  F23  1  -0.09037388  0.67649810  0.92205028  1
  F  F24  1  0.42649810  -0.34037388  0.17205028  1
  F  F25  1  1.07350190  1.34037388  0.67205028  1
  F  F26  1  2.09037388  0.67649810  0.92205028  1
  F  F27  1  0.40962612  1.32350190  0.42205028  1
  F  F28  1  1.07350190  -0.34037388  1.32794972  1
  F  F29  1  0.42649810  1.34037388  0.82794972  1
  F  F30  1  0.40962612  0.67649810  1.57794972  1
  F  F31  1  2.09037388  1.32350190  1.07794972  1
  F  F32  1  0.00000000  0.53903913  0.62468434  1
  F  F33  1  0.50000000  0.46096087  0.12468434  1
  F  F34  1  0.71096087  0.75000000  0.87468434  1
  F  F35  1  0.78903913  0.25000000  0.37468434  1
  F  F36  1  0.50000000  0.53903913  0.87531566  1
  F  F37  1  0.00000000  0.46096087  0.37531566  1
  F  F38  1  0.78903913  0.75000000  0.62531566  1
  F  F39  1  0.71096087  0.25000000  0.12531566  1
  F  F40  1  0.50000000  0.03903913  0.12468434  1
  F  F41  1  0.00000000  0.96096087  0.62468434  1
  F  F42  1  0.21096087  0.25000000  0.37468434  1
  F  F43  1  0.28903913  0.75000000  0.87468434  1
  F  F44  1  0.00000000  0.03903913  0.37531566  1
  F  F45  1  0.50000000  0.96096087  0.87531566  1
  F  F46  1  0.28903913  0.25000000  0.12531566  1
  F  F47  1  0.21096087  0.75000000  0.62531566  1
  Li  Li48  1  0.00000000  0.00000000  0.00000000  1
  Li  Li49  1  0.50000000  0.00000000  0.50000000  1
  Li  Li50  1  0.25000000  0.75000000  0.25000000  1
  Li  Li51  1  0.25000000  0.25000000  0.75000000  1
  Li  Li52  1  0.50000000  0.50000000  0.50000000  1
  Li  Li53  1  0.00000000  0.50000000  0.00000000  1
  Li  Li54  1  0.75000000  0.25000000  0.75000000  1
  Li  Li55  1  0.75000000  0.75000000  0.25000000  1
  Si  Si56  1  0.00000000  0.56973114  0.18623046  1
  Si  Si57  1  0.50000000  0.43026886  0.68623046  1
  Si  Si58  1  0.68026886  0.75000000  0.43623046  1
  Si  Si59  1  0.81973114  0.25000000  0.93623046  1
  Si  Si60  1  0.50000000  0.56973114  0.31376954  1
  Si  Si61  1  0.00000000  0.43026886  0.81376954  1
  Si  Si62  1  0.81973114  0.75000000  0.06376954  1
  Si  Si63  1  0.68026886  0.25000000  0.56376954  1
  Si  Si64  1  0.50000000  0.06973114  0.68623046  1
  Si  Si65  1  0.00000000  0.93026886  0.18623046  1
  Si  Si66  1  0.18026886  0.25000000  0.93623046  1
  Si  Si67  1  0.31973114  0.75000000  0.43623046  1
  Si  Si68  1  0.00000000  0.06973114  0.81376954  1
  Si  Si69  1  0.50000000  0.93026886  0.31376954  1
  Si  Si70  1  0.31973114  0.25000000  0.56376954  1
  Si  Si71  1  0.18026886  0.75000000  0.06376954  1
  Te  Te72  1  0.00000000  0.25000000  0.76287931  1
  Te  Te73  1  0.00000000  0.75000000  0.01287931  1
  Te  Te74  1  0.50000000  0.25000000  0.73712069  1
  Te  Te75  1  0.50000000  0.75000000  0.48712069  1
  Te  Te76  1  0.50000000  0.75000000  0.26287931  1
  Te  Te77  1  0.50000000  0.25000000  0.51287931  1
  Te  Te78  1  0.00000000  0.75000000  0.23712069  1
  Te  Te79  1  0.00000000  0.25000000  0.98712069  1
  Te  Te80  1  0.00000000  0.25000000  0.37500000  1
  Te  Te81  1  0.00000000  0.75000000  0.62500000  1
  Te  Te82  1  0.50000000  0.75000000  0.87500000  1
  Te  Te83  1  0.50000000  0.25000000  0.12500000  1
