# generated using pymatgen
data_LiF
_symmetry_space_group_name_H-M   'P 1'
_cell_length_a   15.81750546
_cell_length_b   12.08031059
_cell_length_c   6.72348734
_cell_angle_alpha   90.00000000
_cell_angle_beta   90.00000000
_cell_angle_gamma   90.00000000
_symmetry_Int_Tables_number   1
_chemical_formula_structural   LiF
_chemical_formula_sum   'Li34 F34'
_cell_volume   1284.72650773
_cell_formula_units_Z   34
loop_
 _symmetry_equiv_pos_site_id
 _symmetry_equiv_pos_as_xyz
  1  'x, y, z'
loop_
 _atom_site_type_symbol
 _atom_site_label
 _atom_site_symmetry_multiplicity
 _atom_site_fract_x
 _atom_site_fract_y
 _atom_site_fract_z
 _atom_site_occupancy
  F  F0  1  0.18958335  0.51899714  0.00000000  1
  F  F1  1  0.81041665  0.48100286  0.00000000  1
  F  F2  1  0.31041665  0.01899714  0.00000000  1
  F  F3  1  0.68958335  0.98100286  0.00000000  1
  F  F4  1  0.89151163  0.86043502  0.62349397  1
  F  F5  1  0.10848837  0.13956498  0.62349397  1
  F  F6  1  0.60848837  0.36043502  0.37650603  1
  F  F7  1  0.39151163  0.63956498  0.37650603  1
  F  F8  1  0.10848837  0.13956498  0.37650603  1
  F  F9  1  0.89151163  0.86043502  0.37650603  1
  F  F10  1  0.39151163  0.63956498  0.62349397  1
  F  F11  1  0.60848837  0.36043502  0.62349397  1
  F  F12  1  0.12597847  0.98884292  -0.00000000  1
  F  F13  1  0.87402153  0.01115708  0.00000000  1
  F  F14  1  0.37402153  0.48884292  0.00000000  1
  F  F15  1  0.62597847  0.51115708  0.00000000  1
  F  F16  1  0.00000000  0.00000000  0.50000000  1
  F  F17  1  0.50000000  0.50000000  0.50000000  1
  F  F18  1  0.00000000  0.50000000  0.71606243  1
  F  F19  1  0.50000000  0.00000000  0.28393757  1
  F  F20  1  0.00000000  0.50000000  0.28393757  1
  F  F21  1  0.50000000  0.00000000  0.71606243  1
  F  F22  1  0.78704855  0.19696466  0.05898410  1
  F  F23  1  0.21295145  0.80303534  0.05898410  1
  F  F24  1  0.71295145  0.69696466  0.94101590  1
  F  F25  1  0.28704855  0.30303534  0.94101590  1
  F  F26  1  0.21295145  0.80303534  0.94101590  1
  F  F27  1  0.78704855  0.19696466  0.94101590  1
  F  F28  1  0.28704855  0.30303534  0.05898410  1
  F  F29  1  0.71295145  0.69696466  0.05898410  1
  F  F30  1  0.00000000  0.00000000  0.79900988  1
  F  F31  1  0.50000000  0.50000000  0.20099012  1
  F  F32  1  0.00000000  0.00000000  0.20099012  1
  F  F33  1  0.50000000  0.50000000  0.79900988  1
  Li  Li34  1  0.30166240  0.57635718  0.50000000  1
  Li  Li35  1  0.69833760  0.42364282  0.50000000  1
  Li  Li36  1  0.19833760  0.07635718  0.50000000  1
  Li  Li37  1  0.80166240  0.92364282  0.50000000  1
  Li  Li38  1  0.31866571  0.21419982  0.22684408  1
  Li  Li39  1  -0.31866571  -0.21419982  0.22684408  1
  Li  Li40  1  0.18133429  0.71419982  -0.22684408  1
  Li  Li41  1  0.81866571  0.28580018  -0.22684408  1
  Li  Li42  1  -0.31866571  -0.21419982  -0.22684408  1
  Li  Li43  1  0.31866571  0.21419982  -0.22684408  1
  Li  Li44  1  0.81866571  0.28580018  0.22684408  1
  Li  Li45  1  0.18133429  0.71419982  0.22684408  1
  Li  Li46  1  0.77070152  0.93555242  0.00000000  1
  Li  Li47  1  0.22929848  0.06444758  -0.00000000  1
  Li  Li48  1  0.72929848  0.43555242  0.00000000  1
  Li  Li49  1  0.27070152  0.56444758  0.00000000  1
  Li  Li50  1  0.87813515  0.39772616  0.37678674  1
  Li  Li51  1  0.12186485  0.60227384  0.37678674  1
  Li  Li52  1  0.62186485  0.89772616  0.62321326  1
  Li  Li53  1  0.37813515  0.10227384  0.62321326  1
  Li  Li54  1  0.12186485  0.60227384  0.62321326  1
  Li  Li55  1  0.87813515  0.39772616  0.62321326  1
  Li  Li56  1  0.37813515  0.10227384  0.37678674  1
  Li  Li57  1  0.62186485  0.89772616  0.37678674  1
  Li  Li58  1  0.14110975  0.42245674  0.26694551  1
  Li  Li59  1  0.85889025  0.57754326  0.26694551  1
  Li  Li60  1  0.35889025  0.92245674  0.73305449  1
  Li  Li61  1  0.64110975  0.07754326  0.73305449  1
  Li  Li62  1  0.85889025  0.57754326  0.73305449  1
  Li  Li63  1  0.14110975  0.42245674  0.73305449  1
  Li  Li64  1  0.64110975  0.07754326  0.26694551  1
  Li  Li65  1  0.35889025  0.92245674  0.26694551  1
  Li  Li66  1  0.00000000  0.50000000  0.50000000  1
  Li  Li67  1  0.50000000  0.00000000  0.50000000  1
