# generated using pymatgen
data_LiF
_symmetry_space_group_name_H-M   'P 1'
_cell_length_a   9.03722794
_cell_length_b   5.46418859
_cell_length_c   9.72692162
_cell_angle_alpha   90.00000000
_cell_angle_beta   90.00000000
_cell_angle_gamma   90.00000000
_symmetry_Int_Tables_number   1
_chemical_formula_structural   LiF
_chemical_formula_sum   'Li24 F24'
_cell_volume   480.32626166
_cell_formula_units_Z   24
loop_
 _symmetry_equiv_pos_site_id
 _symmetry_equiv_pos_as_xyz
  1  'x, y, z'
loop_
 _atom_site_type_symbol
 _atom_site_label
 _atom_site_symmetry_multiplicity
 _atom_site_fract_x
 _atom_site_fract_y
 _atom_site_fract_z
 _atom_site_occupancy
  F  F0  1  0.00000000  0.00000000  0.00000000  1
  F  F1  1  0.50000000  0.00000000  0.50000000  1
  F  F2  1  0.00000000  0.50000000  0.00000000  1
  F  F3  1  0.50000000  0.50000000  0.50000000  1
  F  F4  1  0.40677494  0.25000000  0.48350848  1
  F  F5  1  0.09322506  0.75000000  0.98350848  1
  F  F6  1  0.59322506  0.75000000  0.51649152  1
  F  F7  1  0.90677494  0.25000000  0.01649152  1
  F  F8  1  0.89591282  0.16130347  0.63708224  1
  F  F9  1  0.60408718  0.83869653  0.13708224  1
  F  F10  1  0.10408718  0.66130347  0.36291776  1
  F  F11  1  0.39591282  0.33869653  0.86291776  1
  F  F12  1  0.10408718  0.83869653  0.36291776  1
  F  F13  1  0.39591282  0.16130347  0.86291776  1
  F  F14  1  0.89591282  0.33869653  0.63708224  1
  F  F15  1  0.60408718  0.66130347  0.13708224  1
  F  F16  1  0.70212527  0.06094149  0.22745155  1
  F  F17  1  0.79787473  0.93905851  0.72745155  1
  F  F18  1  0.29787473  0.56094149  0.77254845  1
  F  F19  1  0.20212527  0.43905851  0.27254845  1
  F  F20  1  0.29787473  0.93905851  0.77254845  1
  F  F21  1  0.20212527  0.06094149  0.27254845  1
  F  F22  1  0.70212527  0.43905851  0.22745155  1
  F  F23  1  0.79787473  0.56094149  0.72745155  1
  Li  Li24  1  0.21513517  0.07577419  0.72887454  1
  Li  Li25  1  0.28486483  -0.07577419  1.22887454  1
  Li  Li26  1  -0.21513517  0.57577419  -0.72887454  1
  Li  Li27  1  0.71513517  0.42422581  -0.22887454  1
  Li  Li28  1  -0.21513517  -0.07577419  -0.72887454  1
  Li  Li29  1  0.71513517  0.07577419  -0.22887454  1
  Li  Li30  1  0.21513517  0.42422581  0.72887454  1
  Li  Li31  1  0.28486483  0.57577419  1.22887454  1
  Li  Li32  1  0.54403545  0.39682053  0.88630409  1
  Li  Li33  1  0.95596455  0.60317947  0.38630409  1
  Li  Li34  1  0.45596455  0.89682053  0.11369591  1
  Li  Li35  1  0.04403545  0.10317947  0.61369591  1
  Li  Li36  1  0.45596455  0.60317947  0.11369591  1
  Li  Li37  1  0.04403545  0.39682053  0.61369591  1
  Li  Li38  1  0.54403545  0.10317947  0.88630409  1
  Li  Li39  1  0.95596455  0.89682053  0.38630409  1
  Li  Li40  1  0.35007187  0.25000000  0.71183054  1
  Li  Li41  1  0.14992813  0.75000000  0.21183054  1
  Li  Li42  1  0.64992813  0.75000000  0.28816946  1
  Li  Li43  1  0.85007187  0.25000000  0.78816946  1
  Li  Li44  1  0.00000000  0.00000000  0.50000000  1
  Li  Li45  1  0.50000000  0.00000000  0.00000000  1
  Li  Li46  1  0.00000000  0.50000000  0.50000000  1
  Li  Li47  1  0.50000000  0.50000000  -0.00000000  1
