# generated using pymatgen
data_LiF
_symmetry_space_group_name_H-M   'P 1'
_cell_length_a   8.66158063
_cell_length_b   8.66158063
_cell_length_c   20.36469910
_cell_angle_alpha   90.00000000
_cell_angle_beta   90.00000000
_cell_angle_gamma   120.00000000
_symmetry_Int_Tables_number   1
_chemical_formula_structural   LiF
_chemical_formula_sum   'Li42 F42'
_cell_volume   1323.13127272
_cell_formula_units_Z   42
loop_
 _symmetry_equiv_pos_site_id
 _symmetry_equiv_pos_as_xyz
  1  'x, y, z'
loop_
 _atom_site_type_symbol
 _atom_site_label
 _atom_site_symmetry_multiplicity
 _atom_site_fract_x
 _atom_site_fract_y
 _atom_site_fract_z
 _atom_site_occupancy
  F  F0  1  0.66666667  0.33333333  0.17346444  1
  F  F1  1  0.66666667  0.33333333  0.82653556  1
  F  F2  1  0.82045924  0.53162732  0.25979082  1
  F  F3  1  0.46837268  0.28883192  0.25979082  1
  F  F4  1  0.71116808  0.17954076  0.25979082  1
  F  F5  1  0.46837268  0.17954076  0.74020918  1
  F  F6  1  0.71116808  0.53162732  0.74020918  1
  F  F7  1  0.82045924  0.28883192  0.74020918  1
  F  F8  1  0.95793073  0.86663946  0.26634932  1
  F  F9  1  0.13336054  0.09129126  0.26634932  1
  F  F10  1  0.90870874  0.04206927  0.26634932  1
  F  F11  1  0.13336054  0.04206927  0.73365068  1
  F  F12  1  0.90870874  0.86663946  0.73365068  1
  F  F13  1  0.95793073  0.09129126  0.73365068  1
  F  F14  1  0.00000000  0.00000000  0.00000000  1
  F  F15  1  0.29547327  0.30019764  0.28653868  1
  F  F16  1  0.69980236  0.99527563  0.28653868  1
  F  F17  1  0.00472437  0.70452673  0.28653868  1
  F  F18  1  0.69980236  0.70452673  0.71346132  1
  F  F19  1  0.00472437  0.30019764  0.71346132  1
  F  F20  1  0.29547327  0.99527563  0.71346132  1
  F  F21  1  0.09068085  0.86424581  0.59442595  1
  F  F22  1  0.13575419  0.22643504  0.59442595  1
  F  F23  1  0.77356496  0.90931915  0.59442595  1
  F  F24  1  0.13575419  0.90931915  0.40557405  1
  F  F25  1  0.77356496  0.86424581  0.40557405  1
  F  F26  1  0.09068085  0.22643504  0.40557405  1
  F  F27  1  0.30379508  0.12994182  0.34016437  1
  F  F28  1  0.87005818  0.17385326  0.34016437  1
  F  F29  1  0.82614674  0.69620492  0.34016437  1
  F  F30  1  0.87005818  0.69620492  0.65983563  1
  F  F31  1  0.82614674  0.12994182  0.65983563  1
  F  F32  1  0.30379508  0.17385326  0.65983563  1
  F  F33  1  0.66666667  0.33333333  0.57251778  1
  F  F34  1  0.66666667  0.33333333  0.42748222  1
  F  F35  1  0.66666667  0.33333333  0.25107154  1
  F  F36  1  0.66666667  0.33333333  0.74892846  1
  F  F37  1  0.94578959  0.05421041  0.50000000  1
  F  F38  1  0.94578959  0.89157918  0.50000000  1
  F  F39  1  0.10842082  0.05421041  0.50000000  1
  F  F40  1  0.00000000  0.00000000  0.48051757  1
  F  F41  1  0.00000000  0.00000000  0.51948243  1
  Li  Li42  1  0.50093403  0.72612825  0.09330895  1
  Li  Li43  1  -0.72612825  -0.22519422  0.09330895  1
  Li  Li44  1  0.22519422  -0.50093403  0.09330895  1
  Li  Li45  1  -0.72612825  -0.50093403  -0.09330895  1
  Li  Li46  1  0.22519422  0.72612825  -0.09330895  1
  Li  Li47  1  0.50093403  -0.22519422  -0.09330895  1
  Li  Li48  1  0.00000000  0.00000000  0.11866002  1
  Li  Li49  1  0.00000000  0.00000000  0.88133998  1
  Li  Li50  1  0.51881696  0.12978175  0.46197302  1
  Li  Li51  1  0.87021825  0.38903520  0.46197302  1
  Li  Li52  1  0.61096480  0.48118304  0.46197302  1
  Li  Li53  1  0.87021825  0.48118304  0.53802698  1
  Li  Li54  1  0.61096480  0.12978175  0.53802698  1
  Li  Li55  1  0.51881696  0.38903520  0.53802698  1
  Li  Li56  1  0.66666667  0.33333333  0.33619169  1
  Li  Li57  1  0.66666667  0.33333333  0.66380831  1
  Li  Li58  1  0.70421295  0.20395744  0.46786629  1
  Li  Li59  1  0.79604256  0.50025551  0.46786629  1
  Li  Li60  1  0.49974449  0.29578705  0.46786629  1
  Li  Li61  1  0.79604256  0.29578705  0.53213371  1
  Li  Li62  1  0.49974449  0.20395744  0.53213371  1
  Li  Li63  1  0.70421295  0.50025551  0.53213371  1
  Li  Li64  1  0.66666667  0.33333333  -0.00000000  1
  Li  Li65  1  0.97121743  0.39969444  0.18186921  1
  Li  Li66  1  0.60030556  0.57152299  0.18186921  1
  Li  Li67  1  0.42847701  0.02878257  0.18186921  1
  Li  Li68  1  0.60030556  0.02878257  0.81813079  1
  Li  Li69  1  0.42847701  0.39969444  0.81813079  1
  Li  Li70  1  0.97121743  0.57152299  0.81813079  1
  Li  Li71  1  0.47227398  0.08425565  0.02674518  1
  Li  Li72  1  0.91574435  0.38801832  0.02674518  1
  Li  Li73  1  0.61198168  0.52772602  0.02674518  1
  Li  Li74  1  0.91574435  0.52772602  0.97325482  1
  Li  Li75  1  0.61198168  0.08425565  0.97325482  1
  Li  Li76  1  0.47227398  0.38801832  0.97325482  1
  Li  Li77  1  0.33333333  0.66666667  0.50000000  1
  Li  Li78  1  0.12244738  0.35955072  0.21353070  1
  Li  Li79  1  0.64044928  0.76289666  0.21353070  1
  Li  Li80  1  0.23710334  0.87755262  0.21353070  1
  Li  Li81  1  0.64044928  0.87755262  0.78646930  1
  Li  Li82  1  0.23710334  0.35955072  0.78646930  1
  Li  Li83  1  0.12244738  0.76289666  0.78646930  1
