# generated using pymatgen
data_LiF
_symmetry_space_group_name_H-M   'P 1'
_cell_length_a   5.06845303
_cell_length_b   5.06845303
_cell_length_c   10.57975368
_cell_angle_alpha   90.00000000
_cell_angle_beta   90.00000000
_cell_angle_gamma   120.00000000
_symmetry_Int_Tables_number   1
_chemical_formula_structural   LiF
_chemical_formula_sum   'Li7 F7'
_cell_volume   235.37321605
_cell_formula_units_Z   7
loop_
 _symmetry_equiv_pos_site_id
 _symmetry_equiv_pos_as_xyz
  1  'x, y, z'
loop_
 _atom_site_type_symbol
 _atom_site_label
 _atom_site_symmetry_multiplicity
 _atom_site_fract_x
 _atom_site_fract_y
 _atom_site_fract_z
 _atom_site_occupancy
  F  F0  1  0.85918165  0.32204155  0.60920047  1
  F  F1  1  0.67795845  0.53714009  0.60920047  1
  F  F2  1  0.46285991  0.14081835  0.60920047  1
  F  F3  1  0.67795845  0.14081835  0.39079953  1
  F  F4  1  0.46285991  0.32204155  0.39079953  1
  F  F5  1  0.85918165  0.53714009  0.39079953  1
  F  F6  1  0.66666667  0.33333333  0.50000000  1
  Li  Li7  1  0.43593156  0.35428753  0.85820523  1
  Li  Li8  1  -0.35428753  0.08164402  0.85820523  1
  Li  Li9  1  -0.08164402  -0.43593156  0.85820523  1
  Li  Li10  1  -0.35428753  -0.43593156  -0.85820523  1
  Li  Li11  1  -0.08164402  0.35428753  -0.85820523  1
  Li  Li12  1  0.43593156  0.08164402  -0.85820523  1
  Li  Li13  1  0.00000000  0.00000000  0.00000000  1
