# generated using pymatgen
data_Li4TeF2
_symmetry_space_group_name_H-M   'P 1'
_cell_length_a   17.55281869
_cell_length_b   17.55281869
_cell_length_c   10.74931380
_cell_angle_alpha   90.00000000
_cell_angle_beta   90.00000000
_cell_angle_gamma   90.00000000
_symmetry_Int_Tables_number   1
_chemical_formula_structural   Li4TeF2
_chemical_formula_sum   'Li96 Te24 F48'
_cell_volume   3311.87910323
_cell_formula_units_Z   24
loop_
 _symmetry_equiv_pos_site_id
 _symmetry_equiv_pos_as_xyz
  1  'x, y, z'
loop_
 _atom_site_type_symbol
 _atom_site_label
 _atom_site_symmetry_multiplicity
 _atom_site_fract_x
 _atom_site_fract_y
 _atom_site_fract_z
 _atom_site_occupancy
  F  F0  1  0.35934042  0.50000000  0.40404449  1
  F  F1  1  0.64065958  0.50000000  0.40404449  1
  F  F2  1  0.50000000  0.35934042  0.40404449  1
  F  F3  1  0.50000000  0.64065958  0.40404449  1
  F  F4  1  0.64065958  0.50000000  0.59595551  1
  F  F5  1  0.35934042  0.50000000  0.59595551  1
  F  F6  1  0.50000000  0.35934042  0.59595551  1
  F  F7  1  0.50000000  0.64065958  0.59595551  1
  F  F8  1  0.50000000  0.50000000  0.75670596  1
  F  F9  1  0.50000000  0.50000000  0.24329404  1
  F  F10  1  0.36600860  0.58225800  0.12381973  1
  F  F11  1  -0.36600860  -0.58225800  0.12381973  1
  F  F12  1  -0.58225800  0.36600860  0.12381973  1
  F  F13  1  0.58225800  -0.36600860  0.12381973  1
  F  F14  1  -0.36600860  0.58225800  -0.12381973  1
  F  F15  1  0.36600860  -0.58225800  -0.12381973  1
  F  F16  1  0.58225800  0.36600860  -0.12381973  1
  F  F17  1  -0.58225800  -0.36600860  -0.12381973  1
  F  F18  1  -0.36600860  -0.58225800  -0.12381973  1
  F  F19  1  0.36600860  0.58225800  -0.12381973  1
  F  F20  1  0.58225800  -0.36600860  -0.12381973  1
  F  F21  1  -0.58225800  0.36600860  -0.12381973  1
  F  F22  1  0.36600860  -0.58225800  0.12381973  1
  F  F23  1  -0.36600860  0.58225800  0.12381973  1
  F  F24  1  -0.58225800  -0.36600860  0.12381973  1
  F  F25  1  0.58225800  0.36600860  0.12381973  1
  F  F26  1  0.81607840  0.52687168  0.92015242  1
  F  F27  1  0.18392160  0.47312832  0.92015242  1
  F  F28  1  0.47312832  0.81607840  0.92015242  1
  F  F29  1  0.52687168  0.18392160  0.92015242  1
  F  F30  1  0.18392160  0.52687168  0.07984758  1
  F  F31  1  0.81607840  0.47312832  0.07984758  1
  F  F32  1  0.52687168  0.81607840  0.07984758  1
  F  F33  1  0.47312832  0.18392160  0.07984758  1
  F  F34  1  0.18392160  0.47312832  0.07984758  1
  F  F35  1  0.81607840  0.52687168  0.07984758  1
  F  F36  1  0.52687168  0.18392160  0.07984758  1
  F  F37  1  0.47312832  0.81607840  0.07984758  1
  F  F38  1  0.81607840  0.47312832  0.92015242  1
  F  F39  1  0.18392160  0.52687168  0.92015242  1
  F  F40  1  0.47312832  0.18392160  0.92015242  1
  F  F41  1  0.52687168  0.81607840  0.92015242  1
  F  F42  1  0.20195430  0.50000000  0.50000000  1
  F  F43  1  0.79804570  0.50000000  0.50000000  1
  F  F44  1  0.50000000  0.20195430  0.50000000  1
  F  F45  1  0.50000000  0.79804570  0.50000000  1
  F  F46  1  0.00000000  0.50000000  0.00000000  1
  F  F47  1  0.50000000  0.00000000  0.00000000  1
  Li  Li48  1  0.00000000  0.00000000  0.20626645  1
  Li  Li49  1  0.00000000  0.00000000  0.79373355  1
  Li  Li50  1  0.65226340  0.84071111  0.75650550  1
  Li  Li51  1  0.34773660  0.15928889  0.75650550  1
  Li  Li52  1  0.15928889  0.65226340  0.75650550  1
  Li  Li53  1  0.84071111  0.34773660  0.75650550  1
  Li  Li54  1  0.34773660  0.84071111  0.24349450  1
  Li  Li55  1  0.65226340  0.15928889  0.24349450  1
  Li  Li56  1  0.84071111  0.65226340  0.24349450  1
  Li  Li57  1  0.15928889  0.34773660  0.24349450  1
  Li  Li58  1  0.34773660  0.15928889  0.24349450  1
  Li  Li59  1  0.65226340  0.84071111  0.24349450  1
  Li  Li60  1  0.84071111  0.34773660  0.24349450  1
  Li  Li61  1  0.15928889  0.65226340  0.24349450  1
  Li  Li62  1  0.65226340  0.15928889  0.75650550  1
  Li  Li63  1  0.34773660  0.84071111  0.75650550  1
  Li  Li64  1  0.15928889  0.34773660  0.75650550  1
  Li  Li65  1  0.84071111  0.65226340  0.75650550  1
  Li  Li66  1  0.50000000  0.50000000  0.12904348  1
  Li  Li67  1  0.50000000  0.50000000  0.87095652  1
  Li  Li68  1  0.70031040  0.62572487  0.50000000  1
  Li  Li69  1  0.29968960  0.37427513  0.50000000  1
  Li  Li70  1  0.37427513  0.70031040  0.50000000  1
  Li  Li71  1  0.62572487  0.29968960  0.50000000  1
  Li  Li72  1  0.29968960  0.62572487  0.50000000  1
  Li  Li73  1  0.70031040  0.37427513  0.50000000  1
  Li  Li74  1  0.62572487  0.70031040  0.50000000  1
  Li  Li75  1  0.37427513  0.29968960  0.50000000  1
  Li  Li76  1  0.67043696  0.50000000  0.50000000  1
  Li  Li77  1  0.32956304  0.50000000  0.50000000  1
  Li  Li78  1  0.50000000  0.67043696  0.50000000  1
  Li  Li79  1  0.50000000  0.32956304  0.50000000  1
  Li  Li80  1  0.69553994  0.00000000  0.29528304  1
  Li  Li81  1  0.30446006  0.00000000  0.29528304  1
  Li  Li82  1  0.00000000  0.69553994  0.29528304  1
  Li  Li83  1  0.00000000  0.30446006  0.29528304  1
  Li  Li84  1  0.30446006  0.00000000  0.70471696  1
  Li  Li85  1  0.69553994  0.00000000  0.70471696  1
  Li  Li86  1  0.00000000  0.69553994  0.70471696  1
  Li  Li87  1  0.00000000  0.30446006  0.70471696  1
  Li  Li88  1  0.28792205  0.85089963  0.32900706  1
  Li  Li89  1  0.71207795  0.14910037  0.32900706  1
  Li  Li90  1  0.14910037  0.28792205  0.32900706  1
  Li  Li91  1  0.85089963  0.71207795  0.32900706  1
  Li  Li92  1  0.71207795  0.85089963  0.67099294  1
  Li  Li93  1  0.28792205  0.14910037  0.67099294  1
  Li  Li94  1  0.85089963  0.28792205  0.67099294  1
  Li  Li95  1  0.14910037  0.71207795  0.67099294  1
  Li  Li96  1  0.71207795  0.14910037  0.67099294  1
  Li  Li97  1  0.28792205  0.85089963  0.67099294  1
  Li  Li98  1  0.85089963  0.71207795  0.67099294  1
  Li  Li99  1  0.14910037  0.28792205  0.67099294  1
  Li  Li100  1  0.28792205  0.14910037  0.32900706  1
  Li  Li101  1  0.71207795  0.85089963  0.32900706  1
  Li  Li102  1  0.14910037  0.71207795  0.32900706  1
  Li  Li103  1  0.85089963  0.28792205  0.32900706  1
  Li  Li104  1  0.06023548  0.73811801  0.72250242  1
  Li  Li105  1  0.93976452  0.26188199  0.72250242  1
  Li  Li106  1  0.26188199  0.06023548  0.72250242  1
  Li  Li107  1  0.73811801  0.93976452  0.72250242  1
  Li  Li108  1  0.93976452  0.73811801  0.27749758  1
  Li  Li109  1  0.06023548  0.26188199  0.27749758  1
  Li  Li110  1  0.73811801  0.06023548  0.27749758  1
  Li  Li111  1  0.26188199  0.93976452  0.27749758  1
  Li  Li112  1  0.93976452  0.26188199  0.27749758  1
  Li  Li113  1  0.06023548  0.73811801  0.27749758  1
  Li  Li114  1  0.73811801  0.93976452  0.27749758  1
  Li  Li115  1  0.26188199  0.06023548  0.27749758  1
  Li  Li116  1  0.06023548  0.26188199  0.72250242  1
  Li  Li117  1  0.93976452  0.73811801  0.72250242  1
  Li  Li118  1  0.26188199  0.93976452  0.72250242  1
  Li  Li119  1  0.73811801  0.06023548  0.72250242  1
  Li  Li120  1  0.86563475  0.75770489  0.89923857  1
  Li  Li121  1  0.13436525  0.24229511  0.89923857  1
  Li  Li122  1  0.24229511  0.86563475  0.89923857  1
  Li  Li123  1  0.75770489  0.13436525  0.89923857  1
  Li  Li124  1  0.13436525  0.75770489  0.10076143  1
  Li  Li125  1  0.86563475  0.24229511  0.10076143  1
  Li  Li126  1  0.75770489  0.86563475  0.10076143  1
  Li  Li127  1  0.24229511  0.13436525  0.10076143  1
  Li  Li128  1  0.13436525  0.24229511  0.10076143  1
  Li  Li129  1  0.86563475  0.75770489  0.10076143  1
  Li  Li130  1  0.75770489  0.13436525  0.10076143  1
  Li  Li131  1  0.24229511  0.86563475  0.10076143  1
  Li  Li132  1  0.86563475  0.24229511  0.89923857  1
  Li  Li133  1  0.13436525  0.75770489  0.89923857  1
  Li  Li134  1  0.24229511  0.13436525  0.89923857  1
  Li  Li135  1  0.75770489  0.86563475  0.89923857  1
  Li  Li136  1  0.13168681  0.00000000  0.74705076  1
  Li  Li137  1  0.86831319  0.00000000  0.74705076  1
  Li  Li138  1  0.00000000  0.13168681  0.74705076  1
  Li  Li139  1  0.00000000  0.86831319  0.74705076  1
  Li  Li140  1  0.86831319  0.00000000  0.25294924  1
  Li  Li141  1  0.13168681  0.00000000  0.25294924  1
  Li  Li142  1  0.00000000  0.13168681  0.25294924  1
  Li  Li143  1  0.00000000  0.86831319  0.25294924  1
  Te  Te144  1  0.23988696  0.23988696  0.86791666  1
  Te  Te145  1  0.76011304  0.76011304  0.86791666  1
  Te  Te146  1  0.76011304  0.23988696  0.86791666  1
  Te  Te147  1  0.23988696  0.76011304  0.86791666  1
  Te  Te148  1  0.76011304  0.23988696  0.13208334  1
  Te  Te149  1  0.23988696  0.76011304  0.13208334  1
  Te  Te150  1  0.23988696  0.23988696  0.13208334  1
  Te  Te151  1  0.76011304  0.76011304  0.13208334  1
  Te  Te152  1  0.55074863  0.16290957  0.16615273  1
  Te  Te153  1  0.44925137  0.83709043  0.16615273  1
  Te  Te154  1  0.83709043  0.55074863  0.16615273  1
  Te  Te155  1  0.16290957  0.44925137  0.16615273  1
  Te  Te156  1  0.44925137  0.16290957  0.83384727  1
  Te  Te157  1  0.55074863  0.83709043  0.83384727  1
  Te  Te158  1  0.16290957  0.55074863  0.83384727  1
  Te  Te159  1  0.83709043  0.44925137  0.83384727  1
  Te  Te160  1  0.44925137  0.83709043  0.83384727  1
  Te  Te161  1  0.55074863  0.16290957  0.83384727  1
  Te  Te162  1  0.16290957  0.44925137  0.83384727  1
  Te  Te163  1  0.83709043  0.55074863  0.83384727  1
  Te  Te164  1  0.55074863  0.83709043  0.16615273  1
  Te  Te165  1  0.44925137  0.16290957  0.16615273  1
  Te  Te166  1  0.83709043  0.44925137  0.16615273  1
  Te  Te167  1  0.16290957  0.55074863  0.16615273  1
