# generated using pymatgen
data_LiY2Sb2PSe
_symmetry_space_group_name_H-M   'P 1'
_cell_length_a   5.19640469
_cell_length_b   5.26354732
_cell_length_c   5.98291080
_cell_angle_alpha   93.18494285
_cell_angle_beta   93.07646007
_cell_angle_gamma   96.70030192
_symmetry_Int_Tables_number   1
_chemical_formula_structural   LiY2Sb2PSe
_chemical_formula_sum   'Li1 Y2 Sb2 P1 Se1'
_cell_volume   161.97420296
_cell_formula_units_Z   1
loop_
 _symmetry_equiv_pos_site_id
 _symmetry_equiv_pos_as_xyz
  1  'x, y, z'
loop_
 _atom_site_type_symbol
 _atom_site_label
 _atom_site_symmetry_multiplicity
 _atom_site_fract_x
 _atom_site_fract_y
 _atom_site_fract_z
 _atom_site_occupancy
  Se  Se0  1  0.12500000  0.00000000  0.25000000  1
  Y  Y1  1  0.00000000  0.00000000  0.00000000  1
  Y  Y2  1  0.37500000  0.00000000  0.25000000  1
  P  P3  1  0.25000000  0.25000000  0.25000000  1
  Li  Li4  1  0.00000000  0.25000000  0.12500000  1
  Sb  Sb5  1  0.49141322  0.60072537  0.38329912  1
  Sb  Sb6  1  0.28631500  0.87396113  0.54443123  1
