# generated using pymatgen
data_Li3Y2MoP3Se2
_symmetry_space_group_name_H-M   'P 1'
_cell_length_a   4.70724545
_cell_length_b   5.01500817
_cell_length_c   7.05835378
_cell_angle_alpha   95.27339623
_cell_angle_beta   101.48436067
_cell_angle_gamma   111.18113678
_symmetry_Int_Tables_number   1
_chemical_formula_structural   Li3Y2MoP3Se2
_chemical_formula_sum   'Li3 Y2 Mo1 P3 Se2'
_cell_volume   149.79063894
_cell_formula_units_Z   1
loop_
 _symmetry_equiv_pos_site_id
 _symmetry_equiv_pos_as_xyz
  1  'x, y, z'
loop_
 _atom_site_type_symbol
 _atom_site_label
 _atom_site_symmetry_multiplicity
 _atom_site_fract_x
 _atom_site_fract_y
 _atom_site_fract_z
 _atom_site_occupancy
  Se  Se0  1  0.00000000  0.00000000  0.00000000  1
  Se  Se1  1  0.50000000  0.50000000  0.50000000  1
  P  P2  1  0.50000000  0.50000000  0.00000000  1
  P  P3  1  0.50000000  0.00000000  0.50000000  1
  P  P4  1  0.00000000  0.50000000  0.50000000  1
  Mo  Mo5  1  0.64759465  0.21990949  0.56286069  1
  Li  Li6  1  0.31276526  0.54627055  0.08451318  1
  Li  Li7  1  0.20883529  0.37543228  0.08589438  1
  Li  Li8  1  0.42545788  0.47445445  0.07078194  1
  Y  Y9  1  0.67579846  0.69210066  0.73839182  1
  Y  Y10  1  0.01313654  0.45796930  0.97313874  1
