# generated using pymatgen
data_Li2YTiClF
_symmetry_space_group_name_H-M   'P 1'
_cell_length_a   3.24946568
_cell_length_b   3.15262769
_cell_length_c   5.50839751
_cell_angle_alpha   106.10965306
_cell_angle_beta   109.06823244
_cell_angle_gamma   110.74433302
_symmetry_Int_Tables_number   1
_chemical_formula_structural   Li2YTiClF
_chemical_formula_sum   'Li2 Y1 Ti1 Cl1 F1'
_cell_volume   44.66906757
_cell_formula_units_Z   1
loop_
 _symmetry_equiv_pos_site_id
 _symmetry_equiv_pos_as_xyz
  1  'x, y, z'
loop_
 _atom_site_type_symbol
 _atom_site_label
 _atom_site_symmetry_multiplicity
 _atom_site_fract_x
 _atom_site_fract_y
 _atom_site_fract_z
 _atom_site_occupancy
  F  F0  1  0.00000000  0.00000000  0.00000000  1
  Cl  Cl1  1  0.50000000  0.50000000  0.50000000  1
  Li  Li2  1  0.25000000  0.25000000  0.25000000  1
  Li  Li3  1  0.75000000  0.25000000  0.00000000  1
  Ti  Ti4  1  0.25000000  0.75000000  0.50000000  1
  Y  Y5  1  0.11716504  0.32715153  0.55419515  1
