# generated using pymatgen
data_LiF
_symmetry_space_group_name_H-M   'P 1'
_cell_length_a   16.52624533
_cell_length_b   16.52624533
_cell_length_c   4.69994705
_cell_angle_alpha   90.00000000
_cell_angle_beta   90.00000000
_cell_angle_gamma   120.00000000
_symmetry_Int_Tables_number   1
_chemical_formula_structural   LiF
_chemical_formula_sum   'Li43 F43'
_cell_volume   1111.66002234
_cell_formula_units_Z   43
loop_
 _symmetry_equiv_pos_site_id
 _symmetry_equiv_pos_as_xyz
  1  'x, y, z'
loop_
 _atom_site_type_symbol
 _atom_site_label
 _atom_site_symmetry_multiplicity
 _atom_site_fract_x
 _atom_site_fract_y
 _atom_site_fract_z
 _atom_site_occupancy
  F  F0  1  0.08896306  0.25447573  0.77229370  1
  F  F1  1  0.74552427  0.83448732  0.77229370  1
  F  F2  1  0.16551268  0.91103694  0.77229370  1
  F  F3  1  0.74552427  0.91103694  0.22770630  1
  F  F4  1  0.16551268  0.25447573  0.22770630  1
  F  F5  1  0.08896306  0.83448732  0.22770630  1
  F  F6  1  0.95215438  0.77178920  0.60666425  1
  F  F7  1  0.22821080  0.18036518  0.60666425  1
  F  F8  1  0.81963482  0.04784562  0.60666425  1
  F  F9  1  0.22821080  0.04784562  0.39333575  1
  F  F10  1  0.81963482  0.77178920  0.39333575  1
  F  F11  1  0.95215438  0.18036518  0.39333575  1
  F  F12  1  0.54310541  0.54538087  0.93253847  1
  F  F13  1  0.45461913  0.99772454  0.93253847  1
  F  F14  1  0.00227546  0.45689459  0.93253847  1
  F  F15  1  0.45461913  0.45689459  0.06746153  1
  F  F16  1  0.00227546  0.54538087  0.06746153  1
  F  F17  1  0.54310541  0.99772454  0.06746153  1
  F  F18  1  0.20677385  0.79322615  0.50000000  1
  F  F19  1  0.20677385  0.41354769  0.50000000  1
  F  F20  1  0.58645231  0.79322615  0.50000000  1
  F  F21  1  0.79375668  0.69581877  0.19746471  1
  F  F22  1  0.30418123  0.09793791  0.19746471  1
  F  F23  1  0.90206209  0.20624332  0.19746471  1
  F  F24  1  0.30418123  0.20624332  0.80253529  1
  F  F25  1  0.90206209  0.69581877  0.80253529  1
  F  F26  1  0.79375668  0.09793791  0.80253529  1
  F  F27  1  0.70814594  0.76965723  0.18219746  1
  F  F28  1  0.23034277  0.93848871  0.18219746  1
  F  F29  1  0.06151129  0.29185406  0.18219746  1
  F  F30  1  0.23034277  0.29185406  0.81780254  1
  F  F31  1  0.06151129  0.76965723  0.81780254  1
  F  F32  1  0.70814594  0.93848871  0.81780254  1
  F  F33  1  0.15178527  0.23233663  0.10944381  1
  F  F34  1  0.76766337  0.91944864  0.10944381  1
  F  F35  1  0.08055136  0.84821473  0.10944381  1
  F  F36  1  0.76766337  0.84821473  0.89055619  1
  F  F37  1  0.08055136  0.23233663  0.89055619  1
  F  F38  1  0.15178527  0.91944864  0.89055619  1
  F  F39  1  0.59839855  0.40160145  0.00000000  1
  F  F40  1  0.59839855  0.19679711  0.00000000  1
  F  F41  1  0.80320289  0.40160145  0.00000000  1
  F  F42  1  0.66666667  0.33333333  0.00000000  1
  Li  Li43  1  0.24220989  0.75779011  0.50000000  1
  Li  Li44  1  0.24220989  0.48441977  0.50000000  1
  Li  Li45  1  0.51558023  0.75779011  0.50000000  1
  Li  Li46  1  0.00000000  0.00000000  0.00000000  1
  Li  Li47  1  0.67729255  0.58386965  0.99345206  1
  Li  Li48  1  -0.58386965  0.09342289  0.99345206  1
  Li  Li49  1  -0.09342289  -0.67729255  0.99345206  1
  Li  Li50  1  -0.58386965  -0.67729255  -0.99345206  1
  Li  Li51  1  -0.09342289  0.58386965  -0.99345206  1
  Li  Li52  1  0.67729255  0.09342289  -0.99345206  1
  Li  Li53  1  0.82819848  0.99295359  0.75592174  1
  Li  Li54  1  0.00704641  0.83524489  0.75592174  1
  Li  Li55  1  0.16475511  0.17180152  0.75592174  1
  Li  Li56  1  0.00704641  0.17180152  0.24407826  1
  Li  Li57  1  0.16475511  0.99295359  0.24407826  1
  Li  Li58  1  0.82819848  0.83524489  0.24407826  1
  Li  Li59  1  0.94093534  0.05906466  0.00000000  1
  Li  Li60  1  0.94093534  0.88187067  0.00000000  1
  Li  Li61  1  0.11812933  0.05906466  0.00000000  1
  Li  Li62  1  0.00000000  0.00000000  0.68779634  1
  Li  Li63  1  0.00000000  0.00000000  0.31220366  1
  Li  Li64  1  0.29146927  0.47162504  0.78775493  1
  Li  Li65  1  0.52837496  0.81984423  0.78775493  1
  Li  Li66  1  0.18015577  0.70853073  0.78775493  1
  Li  Li67  1  0.52837496  0.70853073  0.21224507  1
  Li  Li68  1  0.18015577  0.47162504  0.21224507  1
  Li  Li69  1  0.29146927  0.81984423  0.21224507  1
  Li  Li70  1  0.35871264  0.89087378  0.47454358  1
  Li  Li71  1  0.10912622  0.46783886  0.47454358  1
  Li  Li72  1  0.53216114  0.64128736  0.47454358  1
  Li  Li73  1  0.10912622  0.64128736  0.52545642  1
  Li  Li74  1  0.53216114  0.89087378  0.52545642  1
  Li  Li75  1  0.35871264  0.46783886  0.52545642  1
  Li  Li76  1  0.47448930  0.52551070  0.50000000  1
  Li  Li77  1  0.47448930  0.94897860  0.50000000  1
  Li  Li78  1  0.05102140  0.52551070  0.50000000  1
  Li  Li79  1  0.33333333  0.66666667  0.50000000  1
  Li  Li80  1  0.85257323  0.13420632  0.32148079  1
  Li  Li81  1  0.86579368  0.71836691  0.32148079  1
  Li  Li82  1  0.28163309  0.14742677  0.32148079  1
  Li  Li83  1  0.86579368  0.14742677  0.67851921  1
  Li  Li84  1  0.28163309  0.13420632  0.67851921  1
  Li  Li85  1  0.85257323  0.71836691  0.67851921  1
