# generated using pymatgen
data_LiF
_symmetry_space_group_name_H-M   'P 1'
_cell_length_a   7.72220506
_cell_length_b   7.72220506
_cell_length_c   13.11408384
_cell_angle_alpha   90.00000000
_cell_angle_beta   90.00000000
_cell_angle_gamma   90.00000000
_symmetry_Int_Tables_number   1
_chemical_formula_structural   LiF
_chemical_formula_sum   'Li32 F32'
_cell_volume   782.02496175
_cell_formula_units_Z   32
loop_
 _symmetry_equiv_pos_site_id
 _symmetry_equiv_pos_as_xyz
  1  'x, y, z'
loop_
 _atom_site_type_symbol
 _atom_site_label
 _atom_site_symmetry_multiplicity
 _atom_site_fract_x
 _atom_site_fract_y
 _atom_site_fract_z
 _atom_site_occupancy
  F  F0  1  0.50000000  0.50000000  0.00000000  1
  F  F1  1  0.41072017  0.50000000  0.50000000  1
  F  F2  1  0.58927983  0.50000000  0.50000000  1
  F  F3  1  0.50000000  0.41072017  0.50000000  1
  F  F4  1  0.50000000  0.58927983  0.50000000  1
  F  F5  1  0.00000000  0.00000000  0.50000000  1
  F  F6  1  0.68333208  0.50000000  0.17896326  1
  F  F7  1  0.31666792  0.50000000  0.17896326  1
  F  F8  1  0.50000000  0.68333208  0.17896326  1
  F  F9  1  0.50000000  0.31666792  0.17896326  1
  F  F10  1  0.31666792  0.50000000  0.82103674  1
  F  F11  1  0.68333208  0.50000000  0.82103674  1
  F  F12  1  0.50000000  0.68333208  0.82103674  1
  F  F13  1  0.50000000  0.31666792  0.82103674  1
  F  F14  1  0.00000000  0.00000000  0.00000000  1
  F  F15  1  0.82539661  0.09914827  0.85381869  1
  F  F16  1  0.17460339  0.90085173  0.85381869  1
  F  F17  1  0.90085173  0.82539661  0.85381869  1
  F  F18  1  0.09914827  0.17460339  0.85381869  1
  F  F19  1  0.17460339  0.09914827  0.14618131  1
  F  F20  1  0.82539661  0.90085173  0.14618131  1
  F  F21  1  0.09914827  0.82539661  0.14618131  1
  F  F22  1  0.90085173  0.17460339  0.14618131  1
  F  F23  1  0.17460339  0.90085173  0.14618131  1
  F  F24  1  0.82539661  0.09914827  0.14618131  1
  F  F25  1  0.09914827  0.17460339  0.14618131  1
  F  F26  1  0.90085173  0.82539661  0.14618131  1
  F  F27  1  0.82539661  0.90085173  0.85381869  1
  F  F28  1  0.17460339  0.09914827  0.85381869  1
  F  F29  1  0.90085173  0.17460339  0.85381869  1
  F  F30  1  0.09914827  0.82539661  0.85381869  1
  F  F31  1  0.50000000  0.50000000  0.50000000  1
  Li  Li32  1  0.21225920  0.50000000  0.86563437  1
  Li  Li33  1  0.78774080  0.50000000  0.86563437  1
  Li  Li34  1  0.50000000  0.21225920  0.86563437  1
  Li  Li35  1  0.50000000  0.78774080  0.86563437  1
  Li  Li36  1  0.78774080  0.50000000  0.13436563  1
  Li  Li37  1  0.21225920  0.50000000  0.13436563  1
  Li  Li38  1  0.50000000  0.21225920  0.13436563  1
  Li  Li39  1  0.50000000  0.78774080  0.13436563  1
  Li  Li40  1  0.81786689  0.59920726  0.78476991  1
  Li  Li41  1  -0.81786689  -0.59920726  0.78476991  1
  Li  Li42  1  -0.59920726  0.81786689  0.78476991  1
  Li  Li43  1  0.59920726  -0.81786689  0.78476991  1
  Li  Li44  1  -0.81786689  0.59920726  -0.78476991  1
  Li  Li45  1  0.81786689  -0.59920726  -0.78476991  1
  Li  Li46  1  0.59920726  0.81786689  -0.78476991  1
  Li  Li47  1  -0.59920726  -0.81786689  -0.78476991  1
  Li  Li48  1  -0.81786689  -0.59920726  -0.78476991  1
  Li  Li49  1  0.81786689  0.59920726  -0.78476991  1
  Li  Li50  1  0.59920726  -0.81786689  -0.78476991  1
  Li  Li51  1  -0.59920726  0.81786689  -0.78476991  1
  Li  Li52  1  0.81786689  -0.59920726  0.78476991  1
  Li  Li53  1  -0.81786689  0.59920726  0.78476991  1
  Li  Li54  1  -0.59920726  -0.81786689  0.78476991  1
  Li  Li55  1  0.59920726  0.81786689  0.78476991  1
  Li  Li56  1  0.50000000  0.50000000  0.62058654  1
  Li  Li57  1  0.50000000  0.50000000  0.37941346  1
  Li  Li58  1  0.18653323  0.50000000  0.00000000  1
  Li  Li59  1  0.81346677  0.50000000  0.00000000  1
  Li  Li60  1  0.50000000  0.18653323  0.00000000  1
  Li  Li61  1  0.50000000  0.81346677  0.00000000  1
  Li  Li62  1  0.00000000  0.50000000  0.50000000  1
  Li  Li63  1  0.50000000  0.00000000  0.50000000  1
