# generated using pymatgen
data_Sr3Li4S4O
_symmetry_space_group_name_H-M   'P 1'
_cell_length_a   15.20615297
_cell_length_b   15.20615297
_cell_length_c   23.93972317
_cell_angle_alpha   90.00000000
_cell_angle_beta   90.00000000
_cell_angle_gamma   120.00000000
_symmetry_Int_Tables_number   1
_chemical_formula_structural   Sr3Li4S4O
_chemical_formula_sum   'Sr48 Li64 S64 O16'
_cell_volume   4793.89442773
_cell_formula_units_Z   16
loop_
 _symmetry_equiv_pos_site_id
 _symmetry_equiv_pos_as_xyz
  1  'x, y, z'
loop_
 _atom_site_type_symbol
 _atom_site_label
 _atom_site_symmetry_multiplicity
 _atom_site_fract_x
 _atom_site_fract_y
 _atom_site_fract_z
 _atom_site_occupancy
  Li  Li0  1  0.15383474  0.95060815  0.28975859  1
  Li  Li1  1  0.04939185  0.20322659  0.28975859  1
  Li  Li2  1  0.79677341  0.84616526  0.28975859  1
  Li  Li3  1  0.84616526  0.04939185  0.78975859  1
  Li  Li4  1  0.95060815  0.79677341  0.78975859  1
  Li  Li5  1  0.20322659  0.15383474  0.78975859  1
  Li  Li6  1  0.95060815  0.15383474  0.71024141  1
  Li  Li7  1  0.20322659  0.04939185  0.71024141  1
  Li  Li8  1  0.84616526  0.79677341  0.71024141  1
  Li  Li9  1  0.04939185  0.84616526  0.21024141  1
  Li  Li10  1  0.79677341  0.95060815  0.21024141  1
  Li  Li11  1  0.15383474  0.20322659  0.21024141  1
  Li  Li12  1  0.84616526  0.04939185  0.71024141  1
  Li  Li13  1  0.95060815  0.79677341  0.71024141  1
  Li  Li14  1  0.20322659  0.15383474  0.71024141  1
  Li  Li15  1  0.15383474  0.95060815  0.21024141  1
  Li  Li16  1  0.04939185  0.20322659  0.21024141  1
  Li  Li17  1  0.79677341  0.84616526  0.21024141  1
  Li  Li18  1  0.04939185  0.84616526  0.28975859  1
  Li  Li19  1  0.79677341  0.95060815  0.28975859  1
  Li  Li20  1  0.15383474  0.20322659  0.28975859  1
  Li  Li21  1  0.95060815  0.15383474  0.78975859  1
  Li  Li22  1  0.20322659  0.04939185  0.78975859  1
  Li  Li23  1  0.84616526  0.79677341  0.78975859  1
  Li  Li24  1  0.45504514  0.91009028  0.19033003  1
  Li  Li25  1  0.08990972  0.54495486  0.19033003  1
  Li  Li26  1  0.45504514  0.54495486  0.19033003  1
  Li  Li27  1  0.54495486  0.08990972  0.69033003  1
  Li  Li28  1  0.91009028  0.45504514  0.69033003  1
  Li  Li29  1  0.54495486  0.45504514  0.69033003  1
  Li  Li30  1  0.91009028  0.45504514  0.80966997  1
  Li  Li31  1  0.54495486  0.08990972  0.80966997  1
  Li  Li32  1  0.54495486  0.45504514  0.80966997  1
  Li  Li33  1  0.08990972  0.54495486  0.30966997  1
  Li  Li34  1  0.45504514  0.91009028  0.30966997  1
  Li  Li35  1  0.45504514  0.54495486  0.30966997  1
  Li  Li36  1  0.56992664  0.13985329  0.17074699  1
  Li  Li37  1  0.86014671  0.43007336  0.17074699  1
  Li  Li38  1  0.56992664  0.43007336  0.17074699  1
  Li  Li39  1  0.43007336  0.86014671  0.67074699  1
  Li  Li40  1  0.13985329  0.56992664  0.67074699  1
  Li  Li41  1  0.43007336  0.56992664  0.67074699  1
  Li  Li42  1  0.13985329  0.56992664  0.82925301  1
  Li  Li43  1  0.43007336  0.86014671  0.82925301  1
  Li  Li44  1  0.43007336  0.56992664  0.82925301  1
  Li  Li45  1  0.86014671  0.43007336  0.32925301  1
  Li  Li46  1  0.56992664  0.13985329  0.32925301  1
  Li  Li47  1  0.56992664  0.43007336  0.32925301  1
  Li  Li48  1  0.33600452  0.00000000  -0.00000000  1
  Li  Li49  1  0.00000000  0.33600452  0.00000000  1
  Li  Li50  1  0.66399548  0.66399548  -0.00000000  1
  Li  Li51  1  0.66399548  0.00000000  0.50000000  1
  Li  Li52  1  0.00000000  0.66399548  0.50000000  1
  Li  Li53  1  0.33600452  0.33600452  0.50000000  1
  Li  Li54  1  0.66399548  0.00000000  -0.00000000  1
  Li  Li55  1  0.00000000  0.66399548  -0.00000000  1
  Li  Li56  1  0.33600452  0.33600452  -0.00000000  1
  Li  Li57  1  0.33600452  0.00000000  0.50000000  1
  Li  Li58  1  0.00000000  0.33600452  0.50000000  1
  Li  Li59  1  0.66399548  0.66399548  0.50000000  1
  Li  Li60  1  0.33333333  0.66666667  0.75000000  1
  Li  Li61  1  0.66666667  0.33333333  0.25000000  1
  Li  Li62  1  0.33333333  0.66666667  0.25000000  1
  Li  Li63  1  0.66666667  0.33333333  0.75000000  1
  O  O64  1  0.26039797  0.00000000  -0.00000000  1
  O  O65  1  0.00000000  0.26039797  -0.00000000  1
  O  O66  1  0.73960203  0.73960203  -0.00000000  1
  O  O67  1  0.73960203  0.00000000  0.50000000  1
  O  O68  1  0.00000000  0.73960203  0.50000000  1
  O  O69  1  0.26039797  0.26039797  0.50000000  1
  O  O70  1  0.73960203  0.00000000  -0.00000000  1
  O  O71  1  0.00000000  0.73960203  -0.00000000  1
  O  O72  1  0.26039797  0.26039797  -0.00000000  1
  O  O73  1  0.26039797  0.00000000  0.50000000  1
  O  O74  1  0.00000000  0.26039797  0.50000000  1
  O  O75  1  0.73960203  0.73960203  0.50000000  1
  O  O76  1  0.33333333  0.66666667  0.34804355  1
  O  O77  1  0.66666667  0.33333333  0.84804355  1
  O  O78  1  0.66666667  0.33333333  0.65195645  1
  O  O79  1  0.33333333  0.66666667  0.15195645  1
  S  S80  1  0.84327045  0.68654090  0.88879084  1
  S  S81  1  0.31345910  0.15672955  0.88879084  1
  S  S82  1  0.84327045  0.15672955  0.88879084  1
  S  S83  1  0.15672955  0.31345910  0.38879084  1
  S  S84  1  0.68654090  0.84327045  0.38879084  1
  S  S85  1  0.15672955  0.84327045  0.38879084  1
  S  S86  1  0.68654090  0.84327045  0.11120916  1
  S  S87  1  0.15672955  0.31345910  0.11120916  1
  S  S88  1  0.15672955  0.84327045  0.11120916  1
  S  S89  1  0.31345910  0.15672955  0.61120916  1
  S  S90  1  0.84327045  0.68654090  0.61120916  1
  S  S91  1  0.84327045  0.15672955  0.61120916  1
  S  S92  1  0.32735522  0.30170859  0.09102383  1
  S  S93  1  -0.30170859  0.02564663  0.09102383  1
  S  S94  1  -0.02564663  -0.32735522  0.09102383  1
  S  S95  1  -0.32735522  -0.30170859  0.59102383  1
  S  S96  1  0.30170859  -0.02564663  0.59102383  1
  S  S97  1  0.02564663  0.32735522  0.59102383  1
  S  S98  1  0.30170859  0.32735522  -0.09102383  1
  S  S99  1  0.02564663  -0.30170859  -0.09102383  1
  S  S100  1  -0.32735522  -0.02564663  -0.09102383  1
  S  S101  1  -0.30170859  -0.32735522  0.40897617  1
  S  S102  1  -0.02564663  0.30170859  0.40897617  1
  S  S103  1  0.32735522  0.02564663  0.40897617  1
  S  S104  1  -0.32735522  -0.30170859  -0.09102383  1
  S  S105  1  0.30170859  -0.02564663  -0.09102383  1
  S  S106  1  0.02564663  0.32735522  -0.09102383  1
  S  S107  1  0.32735522  0.30170859  0.40897617  1
  S  S108  1  -0.30170859  0.02564663  0.40897617  1
  S  S109  1  -0.02564663  -0.32735522  0.40897617  1
  S  S110  1  -0.30170859  -0.32735522  0.09102383  1
  S  S111  1  -0.02564663  0.30170859  0.09102383  1
  S  S112  1  0.32735522  0.02564663  0.09102383  1
  S  S113  1  0.30170859  0.32735522  0.59102383  1
  S  S114  1  0.02564663  -0.30170859  0.59102383  1
  S  S115  1  -0.32735522  -0.02564663  0.59102383  1
  S  S116  1  0.81704613  0.97240688  0.08476721  1
  S  S117  1  0.02759312  0.84463925  0.08476721  1
  S  S118  1  0.15536075  0.18295387  0.08476721  1
  S  S119  1  0.18295387  0.02759312  0.58476721  1
  S  S120  1  0.97240688  0.15536075  0.58476721  1
  S  S121  1  0.84463925  0.81704613  0.58476721  1
  S  S122  1  0.97240688  0.81704613  0.91523279  1
  S  S123  1  0.84463925  0.02759312  0.91523279  1
  S  S124  1  0.18295387  0.15536075  0.91523279  1
  S  S125  1  0.02759312  0.18295387  0.41523279  1
  S  S126  1  0.15536075  0.97240688  0.41523279  1
  S  S127  1  0.81704613  0.84463925  0.41523279  1
  S  S128  1  0.18295387  0.02759312  0.91523279  1
  S  S129  1  0.97240688  0.15536075  0.91523279  1
  S  S130  1  0.84463925  0.81704613  0.91523279  1
  S  S131  1  0.81704613  0.97240688  0.41523279  1
  S  S132  1  0.02759312  0.84463925  0.41523279  1
  S  S133  1  0.15536075  0.18295387  0.41523279  1
  S  S134  1  0.02759312  0.18295387  0.08476721  1
  S  S135  1  0.15536075  0.97240688  0.08476721  1
  S  S136  1  0.81704613  0.84463925  0.08476721  1
  S  S137  1  0.97240688  0.81704613  0.58476721  1
  S  S138  1  0.84463925  0.02759312  0.58476721  1
  S  S139  1  0.18295387  0.15536075  0.58476721  1
  S  S140  1  0.33333333  0.66666667  0.89788671  1
  S  S141  1  0.66666667  0.33333333  0.39788671  1
  S  S142  1  0.66666667  0.33333333  0.10211329  1
  S  S143  1  0.33333333  0.66666667  0.60211329  1
  Sr  Sr144  1  0.63373701  0.72430951  0.70372809  1
  Sr  Sr145  1  0.27569049  0.90942749  0.70372809  1
  Sr  Sr146  1  0.09057251  0.36626299  0.70372809  1
  Sr  Sr147  1  0.36626299  0.27569049  0.20372809  1
  Sr  Sr148  1  0.72430951  0.09057251  0.20372809  1
  Sr  Sr149  1  0.90942749  0.63373701  0.20372809  1
  Sr  Sr150  1  0.72430951  0.63373701  0.29627191  1
  Sr  Sr151  1  0.90942749  0.27569049  0.29627191  1
  Sr  Sr152  1  0.36626299  0.09057251  0.29627191  1
  Sr  Sr153  1  0.27569049  0.36626299  0.79627191  1
  Sr  Sr154  1  0.09057251  0.72430951  0.79627191  1
  Sr  Sr155  1  0.63373701  0.90942749  0.79627191  1
  Sr  Sr156  1  0.36626299  0.27569049  0.29627191  1
  Sr  Sr157  1  0.72430951  0.09057251  0.29627191  1
  Sr  Sr158  1  0.90942749  0.63373701  0.29627191  1
  Sr  Sr159  1  0.63373701  0.72430951  0.79627191  1
  Sr  Sr160  1  0.27569049  0.90942749  0.79627191  1
  Sr  Sr161  1  0.09057251  0.36626299  0.79627191  1
  Sr  Sr162  1  0.27569049  0.36626299  0.70372809  1
  Sr  Sr163  1  0.09057251  0.72430951  0.70372809  1
  Sr  Sr164  1  0.63373701  0.90942749  0.70372809  1
  Sr  Sr165  1  0.72430951  0.63373701  0.20372809  1
  Sr  Sr166  1  0.90942749  0.27569049  0.20372809  1
  Sr  Sr167  1  0.36626299  0.09057251  0.20372809  1
  Sr  Sr168  1  0.50000000  0.00000000  -0.00000000  1
  Sr  Sr169  1  0.00000000  0.50000000  -0.00000000  1
  Sr  Sr170  1  0.50000000  0.50000000  -0.00000000  1
  Sr  Sr171  1  0.50000000  0.00000000  0.50000000  1
  Sr  Sr172  1  0.00000000  0.50000000  0.50000000  1
  Sr  Sr173  1  0.50000000  0.50000000  0.50000000  1
  Sr  Sr174  1  0.02956962  0.67003099  0.25000000  1
  Sr  Sr175  1  0.32996901  0.35953863  0.25000000  1
  Sr  Sr176  1  0.64046137  0.97043038  0.25000000  1
  Sr  Sr177  1  0.97043038  0.32996901  0.75000000  1
  Sr  Sr178  1  0.67003099  0.64046137  0.75000000  1
  Sr  Sr179  1  0.35953863  0.02956962  0.75000000  1
  Sr  Sr180  1  0.67003099  0.02956962  0.75000000  1
  Sr  Sr181  1  0.35953863  0.32996901  0.75000000  1
  Sr  Sr182  1  0.97043038  0.64046137  0.75000000  1
  Sr  Sr183  1  0.32996901  0.97043038  0.25000000  1
  Sr  Sr184  1  0.64046137  0.67003099  0.25000000  1
  Sr  Sr185  1  0.02956962  0.35953863  0.25000000  1
  Sr  Sr186  1  0.00000000  0.00000000  0.00000000  1
  Sr  Sr187  1  0.00000000  0.00000000  0.50000000  1
  Sr  Sr188  1  0.00000000  0.00000000  0.87545031  1
  Sr  Sr189  1  0.00000000  0.00000000  0.37545031  1
  Sr  Sr190  1  0.00000000  0.00000000  0.12454969  1
  Sr  Sr191  1  0.00000000  0.00000000  0.62454969  1
