# generated using pymatgen
data_Li2Y2P4Se
_symmetry_space_group_name_H-M   'P 1'
_cell_length_a   4.34634342
_cell_length_b   4.54446810
_cell_length_c   6.97110703
_cell_angle_alpha   95.92995327
_cell_angle_beta   102.91420541
_cell_angle_gamma   113.81826548
_symmetry_Int_Tables_number   1
_chemical_formula_structural   Li2Y2P4Se
_chemical_formula_sum   'Li2 Y2 P4 Se1'
_cell_volume   119.85100790
_cell_formula_units_Z   1
loop_
 _symmetry_equiv_pos_site_id
 _symmetry_equiv_pos_as_xyz
  1  'x, y, z'
loop_
 _atom_site_type_symbol
 _atom_site_label
 _atom_site_symmetry_multiplicity
 _atom_site_fract_x
 _atom_site_fract_y
 _atom_site_fract_z
 _atom_site_occupancy
  P  P0  1  0.00000000  0.00000000  0.00000000  1
  P  P1  1  0.33300000  0.66700000  0.25000000  1
  P  P2  1  0.66700000  0.33300000  0.50000000  1
  P  P3  1  0.00000000  0.00000000  0.75000000  1
  Se  Se4  1  0.02239083  0.15447888  0.19987995  1
  Li  Li5  1  0.22796749  0.70876300  0.19498370  1
  Li  Li6  1  0.87528642  0.33227765  0.80738227  1
  Y  Y7  1  0.59130268  0.87295665  0.20710224  1
  Y  Y8  1  0.55308709  0.43929065  0.43366457  1
