# generated using pymatgen
data_Li2YP3Se2
_symmetry_space_group_name_H-M   'P 1'
_cell_length_a   5.02797777
_cell_length_b   5.09634195
_cell_length_c   7.09695260
_cell_angle_alpha   95.06444655
_cell_angle_beta   101.02931170
_cell_angle_gamma   110.34186895
_symmetry_Int_Tables_number   1
_chemical_formula_structural   Li2YP3Se2
_chemical_formula_sum   'Li2 Y1 P3 Se2'
_cell_volume   164.97969555
_cell_formula_units_Z   1
loop_
 _symmetry_equiv_pos_site_id
 _symmetry_equiv_pos_as_xyz
  1  'x, y, z'
loop_
 _atom_site_type_symbol
 _atom_site_label
 _atom_site_symmetry_multiplicity
 _atom_site_fract_x
 _atom_site_fract_y
 _atom_site_fract_z
 _atom_site_occupancy
  P  P0  1  0.12500000  0.12500000  0.12500000  1
  P  P1  1  0.50000000  0.50000000  0.50000000  1
  P  P2  1  0.25000000  0.25000000  0.25000000  1
  Se  Se3  1  0.75000000  0.75000000  0.75000000  1
  Se  Se4  1  0.47660872  0.94987529  0.99923841  1
  Li  Li5  1  0.63829420  0.74197587  0.98448799  1
  Li  Li6  1  0.62563459  0.08462791  0.31560589  1
  Y  Y7  1  0.51175362  0.73234614  0.91887344  1
