# generated using pymatgen
data_KLiTiTe3
_symmetry_space_group_name_H-M   'P 1'
_cell_length_a   15.72205171
_cell_length_b   15.72205171
_cell_length_c   5.66518829
_cell_angle_alpha   90.00000000
_cell_angle_beta   90.00000000
_cell_angle_gamma   120.00000000
_symmetry_Int_Tables_number   1
_chemical_formula_structural   KLiTiTe3
_chemical_formula_sum   'K6 Li6 Ti6 Te18'
_cell_volume   1212.72804607
_cell_formula_units_Z   6
loop_
 _symmetry_equiv_pos_site_id
 _symmetry_equiv_pos_as_xyz
  1  'x, y, z'
loop_
 _atom_site_type_symbol
 _atom_site_label
 _atom_site_symmetry_multiplicity
 _atom_site_fract_x
 _atom_site_fract_y
 _atom_site_fract_z
 _atom_site_occupancy
  K  K0  1  0.70420344  0.74649228  0.25000000  1
  K  K1  1  0.25350772  0.95771116  0.25000000  1
  K  K2  1  0.04228884  0.29579656  0.25000000  1
  K  K3  1  0.29579656  0.25350772  0.75000000  1
  K  K4  1  0.74649228  0.04228884  0.75000000  1
  K  K5  1  0.95771116  0.70420344  0.75000000  1
  Li  Li6  1  0.50000000  0.00000000  0.00000000  1
  Li  Li7  1  0.00000000  0.50000000  0.00000000  1
  Li  Li8  1  0.50000000  0.50000000  0.00000000  1
  Li  Li9  1  0.50000000  0.00000000  0.50000000  1
  Li  Li10  1  0.00000000  0.50000000  0.50000000  1
  Li  Li11  1  0.50000000  0.50000000  0.50000000  1
  Te  Te12  1  0.66666667  0.33333333  0.25000000  1
  Te  Te13  1  0.33333333  0.66666667  0.75000000  1
  Te  Te14  1  0.88070768  0.07404605  0.91002439  1
  Te  Te15  1  -0.07404605  0.80666163  0.91002439  1
  Te  Te16  1  -0.80666163  -0.88070768  0.91002439  1
  Te  Te17  1  -0.88070768  -0.07404605  1.41002439  1
  Te  Te18  1  0.07404605  -0.80666163  1.41002439  1
  Te  Te19  1  0.80666163  0.88070768  1.41002439  1
  Te  Te20  1  -0.88070768  -0.07404605  -0.91002439  1
  Te  Te21  1  0.07404605  -0.80666163  -0.91002439  1
  Te  Te22  1  0.80666163  0.88070768  -0.91002439  1
  Te  Te23  1  0.88070768  0.07404605  -0.41002439  1
  Te  Te24  1  -0.07404605  0.80666163  -0.41002439  1
  Te  Te25  1  -0.80666163  -0.88070768  -0.41002439  1
  Te  Te26  1  0.33333333  0.66666667  0.25000000  1
  Te  Te27  1  0.66666667  0.33333333  0.75000000  1
  Te  Te28  1  0.00000000  0.00000000  0.00000000  1
  Te  Te29  1  0.00000000  0.00000000  0.50000000  1
  Ti  Ti30  1  0.22176845  0.47536915  0.25000000  1
  Ti  Ti31  1  0.52463085  0.74639931  0.25000000  1
  Ti  Ti32  1  0.25360069  0.77823155  0.25000000  1
  Ti  Ti33  1  0.77823155  0.52463085  0.75000000  1
  Ti  Ti34  1  0.47536915  0.25360069  0.75000000  1
  Ti  Ti35  1  0.74639931  0.22176845  0.75000000  1
