# generated using pymatgen
data_LiF
_symmetry_space_group_name_H-M   'P 1'
_cell_length_a   11.10429177
_cell_length_b   9.48779734
_cell_length_c   15.51781269
_cell_angle_alpha   90.00000000
_cell_angle_beta   90.00000000
_cell_angle_gamma   90.00000000
_symmetry_Int_Tables_number   1
_chemical_formula_structural   LiF
_chemical_formula_sum   'Li52 F52'
_cell_volume   1634.88334473
_cell_formula_units_Z   52
loop_
 _symmetry_equiv_pos_site_id
 _symmetry_equiv_pos_as_xyz
  1  'x, y, z'
loop_
 _atom_site_type_symbol
 _atom_site_label
 _atom_site_symmetry_multiplicity
 _atom_site_fract_x
 _atom_site_fract_y
 _atom_site_fract_z
 _atom_site_occupancy
  F  F0  1  0.95987262  0.25000000  0.66646890  1
  F  F1  1  0.54012738  0.75000000  0.16646890  1
  F  F2  1  0.04012738  0.75000000  0.33353110  1
  F  F3  1  0.45987262  0.25000000  0.83353110  1
  F  F4  1  0.57443983  0.41671789  0.48708801  1
  F  F5  1  0.92556017  0.58328211  0.98708801  1
  F  F6  1  0.42556017  0.91671789  0.51291199  1
  F  F7  1  0.07443983  0.08328211  0.01291199  1
  F  F8  1  0.42556017  0.58328211  0.51291199  1
  F  F9  1  0.07443983  0.41671789  0.01291199  1
  F  F10  1  0.57443983  0.08328211  0.48708801  1
  F  F11  1  0.92556017  0.91671789  0.98708801  1
  F  F12  1  0.26129203  0.53965902  0.94644508  1
  F  F13  1  0.23870797  0.46034098  0.44644508  1
  F  F14  1  0.73870797  0.03965902  0.05355492  1
  F  F15  1  0.76129203  0.96034098  0.55355492  1
  F  F16  1  0.73870797  0.46034098  0.05355492  1
  F  F17  1  0.76129203  0.53965902  0.55355492  1
  F  F18  1  0.26129203  0.96034098  0.94644508  1
  F  F19  1  0.23870797  0.03965902  0.44644508  1
  F  F20  1  0.50656604  0.25000000  0.41158834  1
  F  F21  1  0.99343396  0.75000000  0.91158834  1
  F  F22  1  0.49343396  0.75000000  0.58841166  1
  F  F23  1  0.00656604  0.25000000  0.08841166  1
  F  F24  1  0.42568293  0.21480209  0.02289223  1
  F  F25  1  0.07431707  0.78519791  0.52289223  1
  F  F26  1  0.57431707  0.71480209  0.97710777  1
  F  F27  1  0.92568293  0.28519791  0.47710777  1
  F  F28  1  0.57431707  0.78519791  0.97710777  1
  F  F29  1  0.92568293  0.21480209  0.47710777  1
  F  F30  1  0.42568293  0.28519791  0.02289223  1
  F  F31  1  0.07431707  0.71480209  0.52289223  1
  F  F32  1  0.81110591  0.40216602  0.01868782  1
  F  F33  1  0.68889409  0.59783398  0.51868782  1
  F  F34  1  0.18889409  0.90216602  0.98131218  1
  F  F35  1  0.31110591  0.09783398  0.48131218  1
  F  F36  1  0.18889409  0.59783398  0.98131218  1
  F  F37  1  0.31110591  0.40216602  0.48131218  1
  F  F38  1  0.81110591  0.09783398  0.01868782  1
  F  F39  1  0.68889409  0.90216602  0.51868782  1
  F  F40  1  0.92132814  0.02987107  0.56147139  1
  F  F41  1  0.57867186  0.97012893  0.06147139  1
  F  F42  1  0.07867186  0.52987107  0.43852861  1
  F  F43  1  0.42132814  0.47012893  0.93852861  1
  F  F44  1  0.07867186  0.97012893  0.43852861  1
  F  F45  1  0.42132814  0.02987107  0.93852861  1
  F  F46  1  0.92132814  0.47012893  0.56147139  1
  F  F47  1  0.57867186  0.52987107  0.06147139  1
  F  F48  1  0.20054746  0.25000000  0.75587785  1
  F  F49  1  0.29945254  0.75000000  0.25587785  1
  F  F50  1  0.79945254  0.75000000  0.24412215  1
  F  F51  1  0.70054746  0.25000000  0.74412215  1
  Li  Li52  1  0.00000000  0.00000000  0.50000000  1
  Li  Li53  1  0.50000000  0.00000000  0.00000000  1
  Li  Li54  1  0.00000000  0.50000000  0.50000000  1
  Li  Li55  1  0.50000000  0.50000000  -0.00000000  1
  Li  Li56  1  0.16694025  0.15008952  0.60920354  1
  Li  Li57  1  0.33305975  -0.15008952  1.10920354  1
  Li  Li58  1  -0.16694025  0.65008952  -0.60920354  1
  Li  Li59  1  0.66694025  0.34991048  -0.10920354  1
  Li  Li60  1  -0.16694025  -0.15008952  -0.60920354  1
  Li  Li61  1  0.66694025  0.15008952  -0.10920354  1
  Li  Li62  1  0.16694025  0.34991048  0.60920354  1
  Li  Li63  1  0.33305975  0.65008952  1.10920354  1
  Li  Li64  1  0.00429279  0.12721257  0.82940459  1
  Li  Li65  1  0.49570721  0.87278743  0.32940459  1
  Li  Li66  1  0.99570721  0.62721257  0.17059541  1
  Li  Li67  1  0.50429279  0.37278743  0.67059541  1
  Li  Li68  1  0.99570721  0.87278743  0.17059541  1
  Li  Li69  1  0.50429279  0.12721257  0.67059541  1
  Li  Li70  1  0.00429279  0.37278743  0.82940459  1
  Li  Li71  1  0.49570721  0.62721257  0.32940459  1
  Li  Li72  1  0.45977856  0.35378604  0.26647587  1
  Li  Li73  1  0.04022144  0.64621396  0.76647587  1
  Li  Li74  1  0.54022144  0.85378604  0.73352413  1
  Li  Li75  1  0.95977856  0.14621396  0.23352413  1
  Li  Li76  1  0.54022144  0.64621396  0.73352413  1
  Li  Li77  1  0.95977856  0.35378604  0.23352413  1
  Li  Li78  1  0.45977856  0.14621396  0.26647587  1
  Li  Li79  1  0.04022144  0.85378604  0.76647587  1
  Li  Li80  1  0.81575823  0.67120794  0.48058819  1
  Li  Li81  1  0.68424177  0.32879206  0.98058819  1
  Li  Li82  1  0.18424177  0.17120794  0.51941181  1
  Li  Li83  1  0.31575823  0.82879206  0.01941181  1
  Li  Li84  1  0.18424177  0.32879206  0.51941181  1
  Li  Li85  1  0.31575823  0.67120794  0.01941181  1
  Li  Li86  1  0.81575823  0.82879206  0.48058819  1
  Li  Li87  1  0.68424177  0.17120794  0.98058819  1
  Li  Li88  1  0.04663406  0.62309690  0.53745518  1
  Li  Li89  1  0.45336594  0.37690310  0.03745518  1
  Li  Li90  1  0.95336594  0.12309690  0.46254482  1
  Li  Li91  1  0.54663406  0.87690310  0.96254482  1
  Li  Li92  1  0.95336594  0.37690310  0.46254482  1
  Li  Li93  1  0.54663406  0.62309690  0.96254482  1
  Li  Li94  1  0.04663406  0.87690310  0.53745518  1
  Li  Li95  1  0.45336594  0.12309690  0.03745518  1
  Li  Li96  1  0.42126394  0.25000000  0.39847017  1
  Li  Li97  1  0.07873606  0.75000000  0.89847017  1
  Li  Li98  1  0.57873606  0.75000000  0.60152983  1
  Li  Li99  1  0.92126394  0.25000000  0.10152983  1
  Li  Li100  1  0.06203221  0.25000000  0.30317538  1
  Li  Li101  1  0.43796779  0.75000000  0.80317538  1
  Li  Li102  1  0.93796779  0.75000000  0.69682462  1
  Li  Li103  1  0.56203221  0.25000000  0.19682462  1
