# generated using pymatgen
data_LiYP2Se
_symmetry_space_group_name_H-M   'P 1'
_cell_length_a   4.38132146
_cell_length_b   4.67883901
_cell_length_c   6.94540254
_cell_angle_alpha   95.82111717
_cell_angle_beta   102.67718300
_cell_angle_gamma   113.38111411
_symmetry_Int_Tables_number   1
_chemical_formula_structural   LiYP2Se
_chemical_formula_sum   'Li2 Y2 P4 Se2'
_cell_volume   124.64309848
_cell_formula_units_Z   2
loop_
 _symmetry_equiv_pos_site_id
 _symmetry_equiv_pos_as_xyz
  1  'x, y, z'
loop_
 _atom_site_type_symbol
 _atom_site_label
 _atom_site_symmetry_multiplicity
 _atom_site_fract_x
 _atom_site_fract_y
 _atom_site_fract_z
 _atom_site_occupancy
  Y  Y0  1  0.12500000  0.00000000  0.25000000  1
  Y  Y1  1  0.00000000  0.00000000  0.00000000  1
  P  P2  1  0.37500000  0.00000000  0.25000000  1
  P  P3  1  0.25000000  0.25000000  0.25000000  1
  P  P4  1  0.00000000  0.25000000  0.12500000  1
  P  P5  1  0.05881124  0.73590874  0.47990913  1
  Se  Se6  1  0.64434293  0.70092249  0.93441496  1
  Se  Se7  1  0.61298735  0.10951080  0.91712522  1
  Li  Li8  1  0.84695310  0.56662883  0.37311709  1
  Li  Li9  1  0.66455848  0.76580507  0.86386482  1
