# generated using pymatgen
data_Li2Ca3F8
_symmetry_space_group_name_H-M   'P 1'
_cell_length_a   15.72140695
_cell_length_b   15.72140695
_cell_length_c   5.63881399
_cell_angle_alpha   90.00000000
_cell_angle_beta   90.00000000
_cell_angle_gamma   90.00000000
_symmetry_Int_Tables_number   1
_chemical_formula_structural   Li2Ca3F8
_chemical_formula_sum   'Li16 Ca24 F64'
_cell_volume   1393.70413335
_cell_formula_units_Z   8
loop_
 _symmetry_equiv_pos_site_id
 _symmetry_equiv_pos_as_xyz
  1  'x, y, z'
loop_
 _atom_site_type_symbol
 _atom_site_label
 _atom_site_symmetry_multiplicity
 _atom_site_fract_x
 _atom_site_fract_y
 _atom_site_fract_z
 _atom_site_occupancy
  Ca  Ca0  1  0.00000000  0.25000000  0.12500000  1
  Ca  Ca1  1  0.00000000  0.75000000  0.37500000  1
  Ca  Ca2  1  0.00000000  0.75000000  0.87500000  1
  Ca  Ca3  1  0.00000000  0.25000000  0.62500000  1
  Ca  Ca4  1  0.50000000  0.75000000  0.62500000  1
  Ca  Ca5  1  0.50000000  0.25000000  0.87500000  1
  Ca  Ca6  1  0.50000000  0.25000000  0.37500000  1
  Ca  Ca7  1  0.50000000  0.75000000  0.12500000  1
  Ca  Ca8  1  0.28881779  0.53881779  0.12500000  1
  Ca  Ca9  1  0.21118221  0.46118221  0.62500000  1
  Ca  Ca10  1  0.71118221  0.03881779  0.37500000  1
  Ca  Ca11  1  0.78881779  0.96118221  0.87500000  1
  Ca  Ca12  1  0.71118221  0.46118221  0.87500000  1
  Ca  Ca13  1  0.78881779  0.53881779  0.37500000  1
  Ca  Ca14  1  0.28881779  0.96118221  0.62500000  1
  Ca  Ca15  1  0.21118221  0.03881779  0.12500000  1
  Ca  Ca16  1  0.78881779  0.03881779  0.62500000  1
  Ca  Ca17  1  0.71118221  0.96118221  0.12500000  1
  Ca  Ca18  1  0.21118221  0.53881779  0.87500000  1
  Ca  Ca19  1  0.28881779  0.46118221  0.37500000  1
  Ca  Ca20  1  0.21118221  0.96118221  0.37500000  1
  Ca  Ca21  1  0.28881779  0.03881779  0.87500000  1
  Ca  Ca22  1  0.78881779  0.46118221  0.12500000  1
  Ca  Ca23  1  0.71118221  0.53881779  0.62500000  1
  F  F24  1  0.23004205  0.13869989  0.18659197  1
  F  F25  1  0.26995795  -0.13869989  0.68659197  1
  F  F26  1  0.11130011  0.98004205  0.43659197  1
  F  F27  1  0.38869989  0.01995795  0.93659197  1
  F  F28  1  0.26995795  0.13869989  -0.18659197  1
  F  F29  1  0.23004205  -0.13869989  0.31340803  1
  F  F30  1  0.38869989  0.98004205  0.56340803  1
  F  F31  1  0.11130011  0.01995795  0.06340803  1
  F  F32  1  -0.23004205  -0.13869989  -0.18659197  1
  F  F33  1  0.73004205  0.13869989  0.31340803  1
  F  F34  1  0.88869989  0.01995795  0.56340803  1
  F  F35  1  0.61130011  0.98004205  0.06340803  1
  F  F36  1  0.73004205  -0.13869989  0.18659197  1
  F  F37  1  -0.23004205  0.13869989  0.68659197  1
  F  F38  1  0.61130011  0.01995795  0.43659197  1
  F  F39  1  0.88869989  0.98004205  0.93659197  1
  F  F40  1  0.73004205  0.63869989  0.68659197  1
  F  F41  1  0.76995795  0.36130011  1.18659197  1
  F  F42  1  0.61130011  1.48004205  0.93659197  1
  F  F43  1  0.88869989  0.51995795  1.43659197  1
  F  F44  1  0.76995795  0.63869989  0.31340803  1
  F  F45  1  0.73004205  0.36130011  0.81340803  1
  F  F46  1  0.88869989  1.48004205  1.06340803  1
  F  F47  1  0.61130011  0.51995795  0.56340803  1
  F  F48  1  0.26995795  0.36130011  0.31340803  1
  F  F49  1  1.23004205  0.63869989  0.81340803  1
  F  F50  1  1.38869989  0.51995795  1.06340803  1
  F  F51  1  1.11130011  1.48004205  0.56340803  1
  F  F52  1  1.23004205  0.36130011  0.68659197  1
  F  F53  1  0.26995795  0.63869989  1.18659197  1
  F  F54  1  1.11130011  0.51995795  0.93659197  1
  F  F55  1  1.38869989  1.48004205  1.43659197  1
  F  F56  1  0.54158323  0.84768443  0.88640507  1
  F  F57  1  0.95841677  0.15231557  0.38640507  1
  F  F58  1  0.40231557  0.29158323  0.13640507  1
  F  F59  1  0.09768443  0.70841677  0.63640507  1
  F  F60  1  0.95841677  0.84768443  0.11359493  1
  F  F61  1  0.54158323  0.15231557  0.61359493  1
  F  F62  1  0.09768443  0.29158323  0.86359493  1
  F  F63  1  0.40231557  0.70841677  0.36359493  1
  F  F64  1  0.45841677  0.15231557  0.11359493  1
  F  F65  1  0.04158323  0.84768443  0.61359493  1
  F  F66  1  0.59768443  0.70841677  0.86359493  1
  F  F67  1  0.90231557  0.29158323  0.36359493  1
  F  F68  1  0.04158323  0.15231557  0.88640507  1
  F  F69  1  0.45841677  0.84768443  0.38640507  1
  F  F70  1  0.90231557  0.70841677  0.13640507  1
  F  F71  1  0.59768443  0.29158323  0.63640507  1
  F  F72  1  0.04158323  0.34768443  0.38640507  1
  F  F73  1  0.45841677  0.65231557  0.88640507  1
  F  F74  1  0.90231557  0.79158323  0.63640507  1
  F  F75  1  0.59768443  0.20841677  0.13640507  1
  F  F76  1  0.45841677  0.34768443  0.61359493  1
  F  F77  1  0.04158323  0.65231557  0.11359493  1
  F  F78  1  0.59768443  0.79158323  0.36359493  1
  F  F79  1  0.90231557  0.20841677  0.86359493  1
  F  F80  1  0.95841677  0.65231557  0.61359493  1
  F  F81  1  0.54158323  0.34768443  0.11359493  1
  F  F82  1  0.09768443  0.20841677  0.36359493  1
  F  F83  1  0.40231557  0.79158323  0.86359493  1
  F  F84  1  0.54158323  0.65231557  0.38640507  1
  F  F85  1  0.95841677  0.34768443  0.88640507  1
  F  F86  1  0.40231557  0.20841677  0.63640507  1
  F  F87  1  0.09768443  0.79158323  0.13640507  1
  Li  Li88  1  0.00000000  0.00000000  0.00000000  1
  Li  Li89  1  0.50000000  0.00000000  0.50000000  1
  Li  Li90  1  0.25000000  0.75000000  0.25000000  1
  Li  Li91  1  0.25000000  0.25000000  0.75000000  1
  Li  Li92  1  0.50000000  0.00000000  0.00000000  1
  Li  Li93  1  0.00000000  0.00000000  0.50000000  1
  Li  Li94  1  0.25000000  0.75000000  0.75000000  1
  Li  Li95  1  0.25000000  0.25000000  0.25000000  1
  Li  Li96  1  0.50000000  0.50000000  0.50000000  1
  Li  Li97  1  0.00000000  0.50000000  0.00000000  1
  Li  Li98  1  0.75000000  0.25000000  0.75000000  1
  Li  Li99  1  0.75000000  0.75000000  0.25000000  1
  Li  Li100  1  0.00000000  0.50000000  0.50000000  1
  Li  Li101  1  0.50000000  0.50000000  0.00000000  1
  Li  Li102  1  0.75000000  0.25000000  0.25000000  1
  Li  Li103  1  0.75000000  0.75000000  0.75000000  1
