# generated using pymatgen
data_Li7Ca4Se4F7
_symmetry_space_group_name_H-M   'P 1'
_cell_length_a   9.30374090
_cell_length_b   9.30374090
_cell_length_c   5.54439321
_cell_angle_alpha   90.00000000
_cell_angle_beta   90.00000000
_cell_angle_gamma   120.00000000
_symmetry_Int_Tables_number   1
_chemical_formula_structural   Li7Ca4Se4F7
_chemical_formula_sum   'Li7 Ca4 Se4 F7'
_cell_volume   415.62328413
_cell_formula_units_Z   1
loop_
 _symmetry_equiv_pos_site_id
 _symmetry_equiv_pos_as_xyz
  1  'x, y, z'
loop_
 _atom_site_type_symbol
 _atom_site_label
 _atom_site_symmetry_multiplicity
 _atom_site_fract_x
 _atom_site_fract_y
 _atom_site_fract_z
 _atom_site_occupancy
  Ca  Ca0  1  0.33333333  0.66666667  0.29343105  1
  Ca  Ca1  1  0.33333333  0.66666667  0.70656895  1
  Ca  Ca2  1  0.66666667  0.33333333  0.70656895  1
  Ca  Ca3  1  0.66666667  0.33333333  0.29343105  1
  F  F4  1  0.79887122  0.00000000  0.21221401  1
  F  F5  1  0.00000000  0.79887122  0.21221401  1
  F  F6  1  -0.79887122  -0.79887122  0.21221401  1
  F  F7  1  0.79887122  0.00000000  -0.21221401  1
  F  F8  1  0.00000000  0.79887122  -0.21221401  1
  F  F9  1  -0.79887122  -0.79887122  -0.21221401  1
  F  F10  1  0.00000000  0.00000000  0.00000000  1
  Li  Li11  1  0.86480387  0.50709327  0.50000000  1
  Li  Li12  1  0.49290673  0.35771060  0.50000000  1
  Li  Li13  1  0.64228940  0.13519613  0.50000000  1
  Li  Li14  1  0.50709327  0.86480387  0.50000000  1
  Li  Li15  1  0.35771060  0.49290673  0.50000000  1
  Li  Li16  1  0.13519613  0.64228940  0.50000000  1
  Li  Li17  1  0.00000000  0.00000000  0.50000000  1
  Se  Se18  1  0.33333333  0.66666667  -0.00000000  1
  Se  Se19  1  0.66666667  0.33333333  -0.00000000  1
  Se  Se20  1  0.00000000  0.00000000  0.22185922  1
  Se  Se21  1  0.00000000  0.00000000  0.77814078  1
