# generated using pymatgen
data_Li2Y2As3P3Se
_symmetry_space_group_name_H-M   'P 1'
_cell_length_a   5.58544277
_cell_length_b   5.73752779
_cell_length_c   7.28141839
_cell_angle_alpha   93.34375690
_cell_angle_beta   97.49203973
_cell_angle_gamma   103.68414457
_symmetry_Int_Tables_number   1
_chemical_formula_structural   Li2Y2As3P3Se
_chemical_formula_sum   'Li2 Y2 As3 P3 Se1'
_cell_volume   223.82069326
_cell_formula_units_Z   1
loop_
 _symmetry_equiv_pos_site_id
 _symmetry_equiv_pos_as_xyz
  1  'x, y, z'
loop_
 _atom_site_type_symbol
 _atom_site_label
 _atom_site_symmetry_multiplicity
 _atom_site_fract_x
 _atom_site_fract_y
 _atom_site_fract_z
 _atom_site_occupancy
  Se  Se0  1  0.12500000  0.00000000  0.25000000  1
  Y  Y1  1  0.00000000  0.00000000  0.00000000  1
  Y  Y2  1  0.37500000  0.00000000  0.25000000  1
  P  P3  1  0.25000000  0.25000000  0.25000000  1
  P  P4  1  0.00000000  0.25000000  0.12500000  1
  P  P5  1  0.22139604  0.46366169  0.25766453  1
  As  As6  1  0.72417391  0.54594834  0.73494558  1
  As  As7  1  0.04562539  0.49815219  0.40673858  1
  As  As8  1  0.84242408  0.45954298  0.47684999  1
  Li  Li9  1  0.02708594  0.10546489  0.76002010  1
  Li  Li10  1  0.13375909  0.24387666  0.67044728  1
