# generated using pymatgen
data_LiF
_symmetry_space_group_name_H-M   'P 1'
_cell_length_a   4.73056903
_cell_length_b   8.91577108
_cell_length_c   16.28732623
_cell_angle_alpha   90.00000000
_cell_angle_beta   90.00000000
_cell_angle_gamma   90.00000000
_symmetry_Int_Tables_number   1
_chemical_formula_structural   LiF
_chemical_formula_sum   'Li28 F28'
_cell_volume   686.94519242
_cell_formula_units_Z   28
loop_
 _symmetry_equiv_pos_site_id
 _symmetry_equiv_pos_as_xyz
  1  'x, y, z'
loop_
 _atom_site_type_symbol
 _atom_site_label
 _atom_site_symmetry_multiplicity
 _atom_site_fract_x
 _atom_site_fract_y
 _atom_site_fract_z
 _atom_site_occupancy
  F  F0  1  0.05073637  0.82851805  0.04875444  1
  F  F1  1  0.44926363  0.17148195  0.54875444  1
  F  F2  1  0.94926363  0.32851805  0.95124556  1
  F  F3  1  0.55073637  0.67148195  0.45124556  1
  F  F4  1  0.94926363  0.17148195  0.95124556  1
  F  F5  1  0.55073637  0.82851805  0.45124556  1
  F  F6  1  0.05073637  0.67148195  0.04875444  1
  F  F7  1  0.44926363  0.32851805  0.54875444  1
  F  F8  1  0.27643900  0.25000000  0.19140174  1
  F  F9  1  0.22356100  0.75000000  0.69140174  1
  F  F10  1  0.72356100  0.75000000  0.80859826  1
  F  F11  1  0.77643900  0.25000000  0.30859826  1
  F  F12  1  0.93962228  0.65744261  0.59357573  1
  F  F13  1  0.56037772  0.34255739  0.09357573  1
  F  F14  1  0.06037772  0.15744261  0.40642427  1
  F  F15  1  0.43962228  0.84255739  0.90642427  1
  F  F16  1  0.06037772  0.34255739  0.40642427  1
  F  F17  1  0.43962228  0.65744261  0.90642427  1
  F  F18  1  0.93962228  0.84255739  0.59357573  1
  F  F19  1  0.56037772  0.15744261  0.09357573  1
  F  F20  1  0.64841562  0.25000000  0.88957317  1
  F  F21  1  0.85158438  0.75000000  0.38957317  1
  F  F22  1  0.35158438  0.75000000  0.11042683  1
  F  F23  1  0.14841562  0.25000000  0.61042683  1
  F  F24  1  0.00000000  0.00000000  0.00000000  1
  F  F25  1  0.50000000  0.00000000  0.50000000  1
  F  F26  1  0.00000000  0.50000000  0.00000000  1
  F  F27  1  0.50000000  0.50000000  0.50000000  1
  Li  Li28  1  0.49217929  0.91018653  0.21976229  1
  Li  Li29  1  0.00782071  -0.91018653  0.71976229  1
  Li  Li30  1  -0.49217929  1.41018653  -0.21976229  1
  Li  Li31  1  0.99217929  -0.41018653  0.28023771  1
  Li  Li32  1  -0.49217929  -0.91018653  -0.21976229  1
  Li  Li33  1  0.99217929  0.91018653  0.28023771  1
  Li  Li34  1  0.49217929  -0.41018653  0.21976229  1
  Li  Li35  1  0.00782071  1.41018653  0.71976229  1
  Li  Li36  1  0.03004022  0.65117175  0.68004141  1
  Li  Li37  1  0.46995978  0.34882825  0.18004141  1
  Li  Li38  1  0.96995978  0.15117175  0.31995859  1
  Li  Li39  1  0.53004022  0.84882825  0.81995859  1
  Li  Li40  1  0.96995978  0.34882825  0.31995859  1
  Li  Li41  1  0.53004022  0.65117175  0.81995859  1
  Li  Li42  1  0.03004022  0.84882825  0.68004141  1
  Li  Li43  1  0.46995978  0.15117175  0.18004141  1
  Li  Li44  1  0.00000000  0.00000000  0.50000000  1
  Li  Li45  1  0.50000000  0.00000000  0.00000000  1
  Li  Li46  1  0.00000000  0.50000000  0.50000000  1
  Li  Li47  1  0.50000000  0.50000000  0.00000000  1
  Li  Li48  1  0.07596338  0.85060682  0.45778942  1
  Li  Li49  1  0.42403662  0.14939318  0.95778942  1
  Li  Li50  1  0.92403662  0.35060682  0.54221058  1
  Li  Li51  1  0.57596338  0.64939318  0.04221058  1
  Li  Li52  1  0.92403662  0.14939318  0.54221058  1
  Li  Li53  1  0.57596338  0.85060682  0.04221058  1
  Li  Li54  1  0.07596338  0.64939318  0.45778942  1
  Li  Li55  1  0.42403662  0.35060682  0.95778942  1
