# generated using pymatgen
data_LiCu3PSe
_symmetry_space_group_name_H-M   'P 1'
_cell_length_a   4.70124695
_cell_length_b   4.65215060
_cell_length_c   6.18760029
_cell_angle_alpha   94.52696233
_cell_angle_beta   96.37302840
_cell_angle_gamma   102.71642303
_symmetry_Int_Tables_number   1
_chemical_formula_structural   LiCu3PSe
_chemical_formula_sum   'Li1 Cu3 P1 Se1'
_cell_volume   130.44543000
_cell_formula_units_Z   1
loop_
 _symmetry_equiv_pos_site_id
 _symmetry_equiv_pos_as_xyz
  1  'x, y, z'
loop_
 _atom_site_type_symbol
 _atom_site_label
 _atom_site_symmetry_multiplicity
 _atom_site_fract_x
 _atom_site_fract_y
 _atom_site_fract_z
 _atom_site_occupancy
  Se  Se0  1  0.00000000  0.00000000  0.00000000  1
  Cu  Cu1  1  0.50000000  0.50000000  0.50000000  1
  Cu  Cu2  1  0.25000000  0.25000000  0.25000000  1
  Cu  Cu3  1  0.75000000  0.25000000  0.00000000  1
  P  P4  1  0.25000000  0.75000000  0.50000000  1
  Li  Li5  1  0.07269843  0.17990856  0.72131711  1
