# generated using pymatgen
data_Li3Y2P3Se
_symmetry_space_group_name_H-M   'P 1'
_cell_length_a   5.57841525
_cell_length_b   5.88507114
_cell_length_c   7.26903742
_cell_angle_alpha   93.58233263
_cell_angle_beta   97.33971356
_cell_angle_gamma   103.66448431
_symmetry_Int_Tables_number   1
_chemical_formula_structural   Li3Y2P3Se
_chemical_formula_sum   'Li3 Y2 P3 Se1'
_cell_volume   228.91789860
_cell_formula_units_Z   1
loop_
 _symmetry_equiv_pos_site_id
 _symmetry_equiv_pos_as_xyz
  1  'x, y, z'
loop_
 _atom_site_type_symbol
 _atom_site_label
 _atom_site_symmetry_multiplicity
 _atom_site_fract_x
 _atom_site_fract_y
 _atom_site_fract_z
 _atom_site_occupancy
  Se  Se0  1  0.00000000  0.00000000  0.00000000  1
  Y  Y1  1  0.33300000  0.66700000  0.25000000  1
  Y  Y2  1  0.66700000  0.33300000  0.50000000  1
  P  P3  1  0.00000000  0.00000000  0.75000000  1
  P  P4  1  0.62206616  0.36459914  0.30943986  1
  P  P5  1  0.28402477  0.20300373  0.14294549  1
  Li  Li6  1  0.26805066  0.05574933  0.94986696  1
  Li  Li7  1  0.80875827  0.55049887  0.77856526  1
  Li  Li8  1  0.11089216  0.07483960  0.24916945  1
