# generated using pymatgen
data_LiF
_symmetry_space_group_name_H-M   'P 1'
_cell_length_a   10.91564673
_cell_length_b   11.68264569
_cell_length_c   10.22436339
_cell_angle_alpha   90.00000000
_cell_angle_beta   90.00000000
_cell_angle_gamma   90.00000000
_symmetry_Int_Tables_number   1
_chemical_formula_structural   LiF
_chemical_formula_sum   'Li44 F44'
_cell_volume   1303.84796776
_cell_formula_units_Z   44
loop_
 _symmetry_equiv_pos_site_id
 _symmetry_equiv_pos_as_xyz
  1  'x, y, z'
loop_
 _atom_site_type_symbol
 _atom_site_label
 _atom_site_symmetry_multiplicity
 _atom_site_fract_x
 _atom_site_fract_y
 _atom_site_fract_z
 _atom_site_occupancy
  F  F0  1  0.55085649  0.72061116  0.88478330  1
  F  F1  1  -0.05085649  -0.72061116  1.38478330  1
  F  F2  1  -0.55085649  1.22061116  -0.88478330  1
  F  F3  1  1.05085649  -0.22061116  -0.38478330  1
  F  F4  1  -0.55085649  -0.72061116  -0.88478330  1
  F  F5  1  1.05085649  0.72061116  -0.38478330  1
  F  F6  1  0.55085649  -0.22061116  0.88478330  1
  F  F7  1  -0.05085649  1.22061116  1.38478330  1
  F  F8  1  0.00000000  0.00000000  0.00000000  1
  F  F9  1  0.50000000  0.00000000  0.50000000  1
  F  F10  1  0.00000000  0.50000000  0.00000000  1
  F  F11  1  0.50000000  0.50000000  0.50000000  1
  F  F12  1  0.98069857  0.85383720  0.22190617  1
  F  F13  1  0.51930143  0.14616280  0.72190617  1
  F  F14  1  0.01930143  0.35383720  0.77809383  1
  F  F15  1  0.48069857  0.64616280  0.27809383  1
  F  F16  1  0.01930143  0.14616280  0.77809383  1
  F  F17  1  0.48069857  0.85383720  0.27809383  1
  F  F18  1  0.98069857  0.64616280  0.22190617  1
  F  F19  1  0.51930143  0.35383720  0.72190617  1
  F  F20  1  0.36423906  0.71798968  0.43025186  1
  F  F21  1  0.13576094  0.28201032  0.93025186  1
  F  F22  1  0.63576094  0.21798968  0.56974814  1
  F  F23  1  0.86423906  0.78201032  0.06974814  1
  F  F24  1  0.63576094  0.28201032  0.56974814  1
  F  F25  1  0.86423906  0.71798968  0.06974814  1
  F  F26  1  0.36423906  0.78201032  0.43025186  1
  F  F27  1  0.13576094  0.21798968  0.93025186  1
  F  F28  1  0.71061039  0.25000000  0.62693562  1
  F  F29  1  0.78938961  0.75000000  0.12693562  1
  F  F30  1  0.28938961  0.75000000  0.37306438  1
  F  F31  1  0.21061039  0.25000000  0.87306438  1
  F  F32  1  0.07023370  0.89483220  0.44461107  1
  F  F33  1  0.42976630  0.10516780  0.94461107  1
  F  F34  1  0.92976630  0.39483220  0.55538893  1
  F  F35  1  0.57023370  0.60516780  0.05538893  1
  F  F36  1  0.92976630  0.10516780  0.55538893  1
  F  F37  1  0.57023370  0.89483220  0.05538893  1
  F  F38  1  0.07023370  0.60516780  0.44461107  1
  F  F39  1  0.42976630  0.39483220  0.94461107  1
  F  F40  1  0.00000000  0.00000000  0.50000000  1
  F  F41  1  0.50000000  0.00000000  0.00000000  1
  F  F42  1  0.00000000  0.50000000  0.50000000  1
  F  F43  1  0.50000000  0.50000000  -0.00000000  1
  Li  Li44  1  0.75833409  0.48010916  0.48207127  1
  Li  Li45  1  0.74166591  0.51989084  0.98207127  1
  Li  Li46  1  0.24166591  0.98010916  0.51792873  1
  Li  Li47  1  0.25833409  0.01989084  0.01792873  1
  Li  Li48  1  0.24166591  0.51989084  0.51792873  1
  Li  Li49  1  0.25833409  0.48010916  0.01792873  1
  Li  Li50  1  0.75833409  0.01989084  0.48207127  1
  Li  Li51  1  0.74166591  0.98010916  0.98207127  1
  Li  Li52  1  0.25728573  0.51610744  0.24774816  1
  Li  Li53  1  0.24271427  0.48389256  0.74774816  1
  Li  Li54  1  0.74271427  0.01610744  0.75225184  1
  Li  Li55  1  0.75728573  0.98389256  0.25225184  1
  Li  Li56  1  0.74271427  0.48389256  0.75225184  1
  Li  Li57  1  0.75728573  0.51610744  0.25225184  1
  Li  Li58  1  0.25728573  0.98389256  0.24774816  1
  Li  Li59  1  0.24271427  0.01610744  0.74774816  1
  Li  Li60  1  0.54871674  0.13568794  0.32247211  1
  Li  Li61  1  0.95128326  0.86431206  0.82247211  1
  Li  Li62  1  0.45128326  0.63568794  0.67752789  1
  Li  Li63  1  0.04871674  0.36431206  0.17752789  1
  Li  Li64  1  0.45128326  0.86431206  0.67752789  1
  Li  Li65  1  0.04871674  0.13568794  0.17752789  1
  Li  Li66  1  0.54871674  0.36431206  0.32247211  1
  Li  Li67  1  0.95128326  0.63568794  0.82247211  1
  Li  Li68  1  0.65430430  0.25000000  0.11042775  1
  Li  Li69  1  0.84569570  0.75000000  0.61042775  1
  Li  Li70  1  0.34569570  0.75000000  0.88957225  1
  Li  Li71  1  0.15430430  0.25000000  0.38957225  1
  Li  Li72  1  0.04093343  0.35819005  0.54921034  1
  Li  Li73  1  0.45906657  0.64180995  0.04921034  1
  Li  Li74  1  0.95906657  0.85819005  0.45078966  1
  Li  Li75  1  0.54093343  0.14180995  0.95078966  1
  Li  Li76  1  0.95906657  0.64180995  0.45078966  1
  Li  Li77  1  0.54093343  0.35819005  0.95078966  1
  Li  Li78  1  0.04093343  0.14180995  0.54921034  1
  Li  Li79  1  0.45906657  0.85819005  0.04921034  1
  Li  Li80  1  0.12933452  0.99814694  0.85669704  1
  Li  Li81  1  0.37066548  0.00185306  0.35669704  1
  Li  Li82  1  0.87066548  0.49814694  0.14330296  1
  Li  Li83  1  0.62933452  0.50185306  0.64330296  1
  Li  Li84  1  0.87066548  0.00185306  0.14330296  1
  Li  Li85  1  0.62933452  0.99814694  0.64330296  1
  Li  Li86  1  0.12933452  0.50185306  0.85669704  1
  Li  Li87  1  0.37066548  0.49814694  0.35669704  1
