# generated using pymatgen
data_LiF
_symmetry_space_group_name_H-M   'P 1'
_cell_length_a   7.92115414
_cell_length_b   6.91162578
_cell_length_c   9.83925136
_cell_angle_alpha   90.00000000
_cell_angle_beta   90.00000000
_cell_angle_gamma   90.00000000
_symmetry_Int_Tables_number   1
_chemical_formula_structural   LiF
_chemical_formula_sum   'Li24 F24'
_cell_volume   538.67985661
_cell_formula_units_Z   24
loop_
 _symmetry_equiv_pos_site_id
 _symmetry_equiv_pos_as_xyz
  1  'x, y, z'
loop_
 _atom_site_type_symbol
 _atom_site_label
 _atom_site_symmetry_multiplicity
 _atom_site_fract_x
 _atom_site_fract_y
 _atom_site_fract_z
 _atom_site_occupancy
  F  F0  1  0.98241812  0.87902081  0.33552786  1
  F  F1  1  0.51758188  0.12097919  0.83552786  1
  F  F2  1  0.01758188  0.37902081  0.66447214  1
  F  F3  1  0.48241812  0.62097919  0.16447214  1
  F  F4  1  0.01758188  0.12097919  0.66447214  1
  F  F5  1  0.48241812  0.87902081  0.16447214  1
  F  F6  1  0.98241812  0.62097919  0.33552786  1
  F  F7  1  0.51758188  0.37902081  0.83552786  1
  F  F8  1  0.00000000  0.00000000  0.50000000  1
  F  F9  1  0.50000000  0.00000000  0.00000000  1
  F  F10  1  0.00000000  0.50000000  0.50000000  1
  F  F11  1  0.50000000  0.50000000  -0.00000000  1
  F  F12  1  0.62753523  0.25000000  0.33837498  1
  F  F13  1  0.87246477  0.75000000  0.83837498  1
  F  F14  1  0.37246477  0.75000000  0.66162502  1
  F  F15  1  0.12753523  0.25000000  0.16162502  1
  F  F16  1  0.68572512  0.33729826  0.35942628  1
  F  F17  1  0.81427488  0.66270174  0.85942628  1
  F  F18  1  0.31427488  0.83729826  0.64057372  1
  F  F19  1  0.18572512  0.16270174  0.14057372  1
  F  F20  1  0.31427488  0.66270174  0.64057372  1
  F  F21  1  0.18572512  0.33729826  0.14057372  1
  F  F22  1  0.68572512  0.16270174  0.35942628  1
  F  F23  1  0.81427488  0.83729826  0.85942628  1
  Li  Li24  1  0.02971349  0.25000000  0.97971547  1
  Li  Li25  1  0.47028651  0.75000000  0.47971547  1
  Li  Li26  1  0.97028651  0.75000000  0.02028453  1
  Li  Li27  1  0.52971349  0.25000000  0.52028453  1
  Li  Li28  1  0.20772559  0.44712799  0.57530552  1
  Li  Li29  1  0.29227441  -0.44712799  1.07530552  1
  Li  Li30  1  -0.20772559  0.94712799  -0.57530552  1
  Li  Li31  1  0.70772559  0.05287201  -0.07530552  1
  Li  Li32  1  -0.20772559  -0.44712799  -0.57530552  1
  Li  Li33  1  0.70772559  0.44712799  -0.07530552  1
  Li  Li34  1  0.20772559  0.05287201  0.57530552  1
  Li  Li35  1  0.29227441  0.94712799  1.07530552  1
  Li  Li36  1  0.37685205  0.25000000  0.87889887  1
  Li  Li37  1  0.12314795  0.75000000  0.37889887  1
  Li  Li38  1  0.62314795  0.75000000  0.12110113  1
  Li  Li39  1  0.87685205  0.25000000  0.62110113  1
  Li  Li40  1  0.09374905  0.94577404  0.05137562  1
  Li  Li41  1  0.40625095  0.05422596  0.55137562  1
  Li  Li42  1  0.90625095  0.44577404  0.94862438  1
  Li  Li43  1  0.59374905  0.55422596  0.44862438  1
  Li  Li44  1  0.90625095  0.05422596  0.94862438  1
  Li  Li45  1  0.59374905  0.94577404  0.44862438  1
  Li  Li46  1  0.09374905  0.55422596  0.05137562  1
  Li  Li47  1  0.40625095  0.44577404  0.55137562  1
