# generated using pymatgen
data_LiF
_symmetry_space_group_name_H-M   'P 1'
_cell_length_a   9.49678957
_cell_length_b   9.49678957
_cell_length_c   8.11853031
_cell_angle_alpha   90.00000000
_cell_angle_beta   90.00000000
_cell_angle_gamma   90.00000000
_symmetry_Int_Tables_number   1
_chemical_formula_structural   LiF
_chemical_formula_sum   'Li18 F18'
_cell_volume   732.20222830
_cell_formula_units_Z   18
loop_
 _symmetry_equiv_pos_site_id
 _symmetry_equiv_pos_as_xyz
  1  'x, y, z'
loop_
 _atom_site_type_symbol
 _atom_site_label
 _atom_site_symmetry_multiplicity
 _atom_site_fract_x
 _atom_site_fract_y
 _atom_site_fract_z
 _atom_site_occupancy
  F  F0  1  0.11398883  0.59702005  0.95806584  1
  F  F1  1  -0.11398883  -0.59702005  0.95806584  1
  F  F2  1  -0.59702005  0.11398883  0.95806584  1
  F  F3  1  0.59702005  -0.11398883  0.95806584  1
  F  F4  1  -0.11398883  0.59702005  -0.95806584  1
  F  F5  1  0.11398883  -0.59702005  -0.95806584  1
  F  F6  1  0.59702005  0.11398883  -0.95806584  1
  F  F7  1  -0.59702005  -0.11398883  -0.95806584  1
  F  F8  1  -0.11398883  -0.59702005  -0.95806584  1
  F  F9  1  0.11398883  0.59702005  -0.95806584  1
  F  F10  1  0.59702005  -0.11398883  -0.95806584  1
  F  F11  1  -0.59702005  0.11398883  -0.95806584  1
  F  F12  1  0.11398883  -0.59702005  0.95806584  1
  F  F13  1  -0.11398883  0.59702005  0.95806584  1
  F  F14  1  -0.59702005  -0.11398883  0.95806584  1
  F  F15  1  0.59702005  0.11398883  0.95806584  1
  F  F16  1  0.00000000  0.00000000  0.60456557  1
  F  F17  1  0.00000000  0.00000000  0.39543443  1
  Li  Li18  1  0.16445828  0.58941479  0.36372316  1
  Li  Li19  1  0.83554172  0.41058521  0.36372316  1
  Li  Li20  1  0.41058521  0.16445828  0.36372316  1
  Li  Li21  1  0.58941479  0.83554172  0.36372316  1
  Li  Li22  1  0.83554172  0.58941479  0.63627684  1
  Li  Li23  1  0.16445828  0.41058521  0.63627684  1
  Li  Li24  1  0.58941479  0.16445828  0.63627684  1
  Li  Li25  1  0.41058521  0.83554172  0.63627684  1
  Li  Li26  1  0.83554172  0.41058521  0.63627684  1
  Li  Li27  1  0.16445828  0.58941479  0.63627684  1
  Li  Li28  1  0.58941479  0.83554172  0.63627684  1
  Li  Li29  1  0.41058521  0.16445828  0.63627684  1
  Li  Li30  1  0.16445828  0.41058521  0.36372316  1
  Li  Li31  1  0.83554172  0.58941479  0.36372316  1
  Li  Li32  1  0.41058521  0.83554172  0.36372316  1
  Li  Li33  1  0.58941479  0.16445828  0.36372316  1
  Li  Li34  1  0.00000000  0.50000000  0.00000000  1
  Li  Li35  1  0.50000000  0.00000000  0.00000000  1
