# generated using pymatgen
data_LiY2Cu3PSe
_symmetry_space_group_name_H-M   'P 1'
_cell_length_a   4.82825092
_cell_length_b   5.11198295
_cell_length_c   6.38059973
_cell_angle_alpha   94.42703226
_cell_angle_beta   97.05628691
_cell_angle_gamma   103.72787042
_symmetry_Int_Tables_number   1
_chemical_formula_structural   LiY2Cu3PSe
_chemical_formula_sum   'Li1 Y2 Cu3 P1 Se1'
_cell_volume   150.90158759
_cell_formula_units_Z   1
loop_
 _symmetry_equiv_pos_site_id
 _symmetry_equiv_pos_as_xyz
  1  'x, y, z'
loop_
 _atom_site_type_symbol
 _atom_site_label
 _atom_site_symmetry_multiplicity
 _atom_site_fract_x
 _atom_site_fract_y
 _atom_site_fract_z
 _atom_site_occupancy
  Se  Se0  1  0.12500000  0.00000000  0.25000000  1
  Cu  Cu1  1  0.00000000  0.00000000  0.00000000  1
  Cu  Cu2  1  0.37500000  0.00000000  0.25000000  1
  Cu  Cu3  1  0.25000000  0.25000000  0.25000000  1
  Y  Y4  1  0.00000000  0.25000000  0.12500000  1
  Y  Y5  1  0.76928602  0.48376838  0.36836279  1
  P  P6  1  0.69942229  0.09896989  0.24524577  1
  Li  Li7  1  0.13310357  0.37312714  0.32438814  1
