# generated using pymatgen
data_LiF
_symmetry_space_group_name_H-M   'P 1'
_cell_length_a   7.15251469
_cell_length_b   7.86918804
_cell_length_c   9.36077751
_cell_angle_alpha   90.00000000
_cell_angle_beta   90.00000000
_cell_angle_gamma   90.00000000
_symmetry_Int_Tables_number   1
_chemical_formula_structural   LiF
_chemical_formula_sum   'Li24 F24'
_cell_volume   526.86652372
_cell_formula_units_Z   24
loop_
 _symmetry_equiv_pos_site_id
 _symmetry_equiv_pos_as_xyz
  1  'x, y, z'
loop_
 _atom_site_type_symbol
 _atom_site_label
 _atom_site_symmetry_multiplicity
 _atom_site_fract_x
 _atom_site_fract_y
 _atom_site_fract_z
 _atom_site_occupancy
  F  F0  1  0.79261047  0.25000000  0.47465580  1
  F  F1  1  0.70738953  0.75000000  0.97465580  1
  F  F2  1  0.20738953  0.75000000  0.52534420  1
  F  F3  1  0.29261047  0.25000000  0.02534420  1
  F  F4  1  0.00000000  0.00000000  0.00000000  1
  F  F5  1  0.50000000  0.00000000  0.50000000  1
  F  F6  1  0.00000000  0.50000000  -0.00000000  1
  F  F7  1  0.50000000  0.50000000  0.50000000  1
  F  F8  1  0.04387552  0.83664324  0.62001952  1
  F  F9  1  0.45612448  0.16335676  0.12001952  1
  F  F10  1  0.95612448  0.33664324  0.37998048  1
  F  F11  1  0.54387552  0.66335676  0.87998048  1
  F  F12  1  0.95612448  0.16335676  0.37998048  1
  F  F13  1  0.54387552  0.83664324  0.87998048  1
  F  F14  1  0.04387552  0.66335676  0.62001952  1
  F  F15  1  0.45612448  0.33664324  0.12001952  1
  F  F16  1  0.04417771  0.25000000  0.54921852  1
  F  F17  1  0.45582229  0.75000000  0.04921852  1
  F  F18  1  0.95582229  0.75000000  0.45078148  1
  F  F19  1  0.54417771  0.25000000  0.95078148  1
  F  F20  1  0.00000000  0.00000000  0.50000000  1
  F  F21  1  0.50000000  0.00000000  0.00000000  1
  F  F22  1  0.00000000  0.50000000  0.50000000  1
  F  F23  1  0.50000000  0.50000000  0.00000000  1
  Li  Li24  1  0.56900926  0.25000000  0.56507284  1
  Li  Li25  1  0.93099074  0.75000000  0.06507284  1
  Li  Li26  1  0.43099074  0.75000000  0.43492716  1
  Li  Li27  1  0.06900926  0.25000000  0.93492716  1
  Li  Li28  1  0.02011244  0.25000000  0.43813863  1
  Li  Li29  1  0.47988756  0.75000000  0.93813863  1
  Li  Li30  1  0.97988756  0.75000000  0.56186137  1
  Li  Li31  1  0.52011244  0.25000000  0.06186137  1
  Li  Li32  1  0.52938773  0.51494325  0.65958278  1
  Li  Li33  1  -0.02938773  -0.51494325  1.15958278  1
  Li  Li34  1  -0.52938773  1.01494325  -0.65958278  1
  Li  Li35  1  1.02938773  -0.01494325  -0.15958278  1
  Li  Li36  1  -0.52938773  -0.51494325  -0.65958278  1
  Li  Li37  1  1.02938773  0.51494325  -0.15958278  1
  Li  Li38  1  0.52938773  -0.01494325  0.65958278  1
  Li  Li39  1  -0.02938773  1.01494325  1.15958278  1
  Li  Li40  1  0.19961021  0.97243189  0.64240046  1
  Li  Li41  1  0.30038979  0.02756811  0.14240046  1
  Li  Li42  1  0.80038979  0.47243189  0.35759954  1
  Li  Li43  1  0.69961021  0.52756811  0.85759954  1
  Li  Li44  1  0.80038979  0.02756811  0.35759954  1
  Li  Li45  1  0.69961021  0.97243189  0.85759954  1
  Li  Li46  1  0.19961021  0.52756811  0.64240046  1
  Li  Li47  1  0.30038979  0.47243189  0.14240046  1
