# generated using pymatgen
data_LiF
_symmetry_space_group_name_H-M   'P 1'
_cell_length_a   10.29326910
_cell_length_b   10.13251255
_cell_length_c   9.70520787
_cell_angle_alpha   90.00000000
_cell_angle_beta   90.00000000
_cell_angle_gamma   90.00000000
_symmetry_Int_Tables_number   1
_chemical_formula_structural   LiF
_chemical_formula_sum   'Li36 F36'
_cell_volume   1012.22094361
_cell_formula_units_Z   36
loop_
 _symmetry_equiv_pos_site_id
 _symmetry_equiv_pos_as_xyz
  1  'x, y, z'
loop_
 _atom_site_type_symbol
 _atom_site_label
 _atom_site_symmetry_multiplicity
 _atom_site_fract_x
 _atom_site_fract_y
 _atom_site_fract_z
 _atom_site_occupancy
  F  F0  1  0.29573133  0.81358363  0.10592148  1
  F  F1  1  0.20426867  0.18641637  0.60592148  1
  F  F2  1  0.70426867  0.31358363  0.89407852  1
  F  F3  1  0.79573133  0.68641637  0.39407852  1
  F  F4  1  0.70426867  0.18641637  0.89407852  1
  F  F5  1  0.79573133  0.81358363  0.39407852  1
  F  F6  1  0.29573133  0.68641637  0.10592148  1
  F  F7  1  0.20426867  0.31358363  0.60592148  1
  F  F8  1  0.73510858  0.37518145  0.34059891  1
  F  F9  1  0.76489142  0.62481855  0.84059891  1
  F  F10  1  0.26489142  0.87518145  0.65940109  1
  F  F11  1  0.23510858  0.12481855  0.15940109  1
  F  F12  1  0.26489142  0.62481855  0.65940109  1
  F  F13  1  0.23510858  0.37518145  0.15940109  1
  F  F14  1  0.73510858  0.12481855  0.34059891  1
  F  F15  1  0.76489142  0.87518145  0.84059891  1
  F  F16  1  0.40885974  0.82937433  0.80945246  1
  F  F17  1  0.09114026  0.17062567  0.30945246  1
  F  F18  1  0.59114026  0.32937433  0.19054754  1
  F  F19  1  0.90885974  0.67062567  0.69054754  1
  F  F20  1  0.59114026  0.17062567  0.19054754  1
  F  F21  1  0.90885974  0.82937433  0.69054754  1
  F  F22  1  0.40885974  0.67062567  0.80945246  1
  F  F23  1  0.09114026  0.32937433  0.30945246  1
  F  F24  1  0.00000000  0.00000000  0.50000000  1
  F  F25  1  0.50000000  0.00000000  0.00000000  1
  F  F26  1  0.00000000  0.50000000  0.50000000  1
  F  F27  1  0.50000000  0.50000000  0.00000000  1
  F  F28  1  0.24728496  0.54372948  0.96274658  1
  F  F29  1  0.25271504  0.45627052  0.46274658  1
  F  F30  1  0.75271504  0.04372948  0.03725342  1
  F  F31  1  0.74728496  0.95627052  0.53725342  1
  F  F32  1  0.75271504  0.45627052  0.03725342  1
  F  F33  1  0.74728496  0.54372948  0.53725342  1
  F  F34  1  0.24728496  0.95627052  0.96274658  1
  F  F35  1  0.25271504  0.04372948  0.46274658  1
  Li  Li36  1  0.00000000  0.00000000  0.00000000  1
  Li  Li37  1  0.50000000  0.00000000  0.50000000  1
  Li  Li38  1  0.00000000  0.50000000  0.00000000  1
  Li  Li39  1  0.50000000  0.50000000  0.50000000  1
  Li  Li40  1  0.75789778  0.25000000  0.65490953  1
  Li  Li41  1  0.74210222  0.75000000  0.15490953  1
  Li  Li42  1  0.24210222  0.75000000  0.34509047  1
  Li  Li43  1  0.25789778  0.25000000  0.84509047  1
  Li  Li44  1  0.43507439  0.82264608  0.95095275  1
  Li  Li45  1  0.06492561  -0.82264608  1.45095275  1
  Li  Li46  1  -0.43507439  1.32264608  -0.95095275  1
  Li  Li47  1  0.93507439  -0.32264608  -0.45095275  1
  Li  Li48  1  -0.43507439  -0.82264608  -0.95095275  1
  Li  Li49  1  0.93507439  0.82264608  -0.45095275  1
  Li  Li50  1  0.43507439  -0.32264608  0.95095275  1
  Li  Li51  1  0.06492561  1.32264608  1.45095275  1
  Li  Li52  1  0.77286328  0.08283971  0.58219713  1
  Li  Li53  1  0.72713672  0.91716029  0.08219713  1
  Li  Li54  1  0.22713672  0.58283971  0.41780287  1
  Li  Li55  1  0.27286328  0.41716029  0.91780287  1
  Li  Li56  1  0.22713672  0.91716029  0.41780287  1
  Li  Li57  1  0.27286328  0.08283971  0.91780287  1
  Li  Li58  1  0.77286328  0.41716029  0.58219713  1
  Li  Li59  1  0.72713672  0.58283971  0.08219713  1
  Li  Li60  1  0.05947924  0.89508971  0.70157734  1
  Li  Li61  1  0.44052076  0.10491029  0.20157734  1
  Li  Li62  1  0.94052076  0.39508971  0.29842266  1
  Li  Li63  1  0.55947924  0.60491029  0.79842266  1
  Li  Li64  1  0.94052076  0.10491029  0.29842266  1
  Li  Li65  1  0.55947924  0.89508971  0.79842266  1
  Li  Li66  1  0.05947924  0.60491029  0.70157734  1
  Li  Li67  1  0.44052076  0.39508971  0.20157734  1
  Li  Li68  1  0.18172606  0.25000000  0.11468571  1
  Li  Li69  1  0.31827394  0.75000000  0.61468571  1
  Li  Li70  1  0.81827394  0.75000000  0.88531429  1
  Li  Li71  1  0.68172606  0.25000000  0.38531429  1
