# generated using pymatgen
data_Li4TeF2
_symmetry_space_group_name_H-M   'P 1'
_cell_length_a   11.58041890
_cell_length_b   11.58041890
_cell_length_c   11.58041890
_cell_angle_alpha   90.00000000
_cell_angle_beta   90.00000000
_cell_angle_gamma   90.00000000
_symmetry_Int_Tables_number   1
_chemical_formula_structural   Li4TeF2
_chemical_formula_sum   'Li96 Te24 F48'
_cell_volume   1553.00483845
_cell_formula_units_Z   24
loop_
 _symmetry_equiv_pos_site_id
 _symmetry_equiv_pos_as_xyz
  1  'x, y, z'
loop_
 _atom_site_type_symbol
 _atom_site_label
 _atom_site_symmetry_multiplicity
 _atom_site_fract_x
 _atom_site_fract_y
 _atom_site_fract_z
 _atom_site_occupancy
  F  F0  1  0.72342598  0.25024791  0.07071907  1
  F  F1  1  -0.22342598  -0.25024791  0.57071907  1
  F  F2  1  -0.72342598  0.75024791  0.42928093  1
  F  F3  1  1.22342598  0.24975209  -0.07071907  1
  F  F4  1  0.07071907  0.72342598  0.25024791  1
  F  F5  1  0.57071907  -0.22342598  -0.25024791  1
  F  F6  1  0.42928093  -0.72342598  0.75024791  1
  F  F7  1  -0.07071907  1.22342598  0.24975209  1
  F  F8  1  0.25024791  0.07071907  0.72342598  1
  F  F9  1  -0.25024791  0.57071907  -0.22342598  1
  F  F10  1  0.75024791  0.42928093  -0.72342598  1
  F  F11  1  0.24975209  -0.07071907  1.22342598  1
  F  F12  1  1.00024791  0.97342598  0.17928093  1
  F  F13  1  0.49975209  0.02657402  0.67928093  1
  F  F14  1  0.50024791  -0.47342598  0.82071907  1
  F  F15  1  -0.00024791  1.47342598  0.32071907  1
  F  F16  1  1.47342598  0.32071907  -0.00024791  1
  F  F17  1  -0.47342598  0.82071907  0.50024791  1
  F  F18  1  0.02657402  0.67928093  0.49975209  1
  F  F19  1  0.97342598  0.17928093  1.00024791  1
  F  F20  1  0.82071907  0.50024791  -0.47342598  1
  F  F21  1  0.32071907  -0.00024791  1.47342598  1
  F  F22  1  0.17928093  1.00024791  0.97342598  1
  F  F23  1  0.67928093  0.49975209  0.02657402  1
  F  F24  1  1.22342598  0.75024791  0.57071907  1
  F  F25  1  0.27657402  0.24975209  1.07071907  1
  F  F26  1  -0.22342598  1.25024791  0.92928093  1
  F  F27  1  1.72342598  0.74975209  0.42928093  1
  F  F28  1  0.57071907  1.22342598  0.75024791  1
  F  F29  1  1.07071907  0.27657402  0.24975209  1
  F  F30  1  0.92928093  -0.22342598  1.25024791  1
  F  F31  1  0.42928093  1.72342598  0.74975209  1
  F  F32  1  0.75024791  0.57071907  1.22342598  1
  F  F33  1  0.24975209  1.07071907  0.27657402  1
  F  F34  1  1.25024791  0.92928093  -0.22342598  1
  F  F35  1  0.74975209  0.42928093  1.72342598  1
  F  F36  1  1.50024791  1.47342598  0.67928093  1
  F  F37  1  0.99975209  0.52657402  1.17928093  1
  F  F38  1  1.00024791  0.02657402  1.32071907  1
  F  F39  1  0.49975209  1.97342598  0.82071907  1
  F  F40  1  1.97342598  0.82071907  0.49975209  1
  F  F41  1  0.02657402  1.32071907  1.00024791  1
  F  F42  1  0.52657402  1.17928093  0.99975209  1
  F  F43  1  1.47342598  0.67928093  1.50024791  1
  F  F44  1  1.32071907  1.00024791  0.02657402  1
  F  F45  1  0.82071907  0.49975209  1.97342598  1
  F  F46  1  0.67928093  1.50024791  1.47342598  1
  F  F47  1  1.17928093  0.99975209  0.52657402  1
  Li  Li48  1  0.87500000  0.87500000  0.87500000  1
  Li  Li49  1  0.62500000  0.12500000  0.37500000  1
  Li  Li50  1  0.12500000  0.37500000  0.62500000  1
  Li  Li51  1  0.37500000  0.62500000  0.12500000  1
  Li  Li52  1  0.37500000  0.37500000  0.37500000  1
  Li  Li53  1  0.12500000  0.62500000  0.87500000  1
  Li  Li54  1  0.62500000  0.87500000  0.12500000  1
  Li  Li55  1  0.87500000  0.12500000  0.62500000  1
  Li  Li56  1  0.46678413  0.06518674  0.39544845  1
  Li  Li57  1  0.03321587  0.93481326  0.89544845  1
  Li  Li58  1  0.53321587  0.56518674  0.10455155  1
  Li  Li59  1  0.96678413  0.43481326  0.60455155  1
  Li  Li60  1  0.39544845  0.46678413  0.06518674  1
  Li  Li61  1  0.89544845  0.03321587  0.93481326  1
  Li  Li62  1  0.10455155  0.53321587  0.56518674  1
  Li  Li63  1  0.60455155  0.96678413  0.43481326  1
  Li  Li64  1  0.06518674  0.39544845  0.46678413  1
  Li  Li65  1  0.93481326  0.89544845  0.03321587  1
  Li  Li66  1  0.56518674  0.10455155  0.53321587  1
  Li  Li67  1  0.43481326  0.60455155  0.96678413  1
  Li  Li68  1  0.81518674  0.71678413  0.85455155  1
  Li  Li69  1  0.68481326  0.28321587  0.35455155  1
  Li  Li70  1  0.31518674  0.78321587  0.14544845  1
  Li  Li71  1  0.18481326  0.21678413  0.64544845  1
  Li  Li72  1  0.21678413  0.64544845  0.18481326  1
  Li  Li73  1  0.78321587  0.14544845  0.31518674  1
  Li  Li74  1  0.28321587  0.35455155  0.68481326  1
  Li  Li75  1  0.71678413  0.85455155  0.81518674  1
  Li  Li76  1  0.14544845  0.31518674  0.78321587  1
  Li  Li77  1  0.64544845  0.18481326  0.21678413  1
  Li  Li78  1  0.85455155  0.81518674  0.71678413  1
  Li  Li79  1  0.35455155  0.68481326  0.28321587  1
  Li  Li80  1  0.96678413  0.56518674  0.89544845  1
  Li  Li81  1  0.53321587  0.43481326  0.39544845  1
  Li  Li82  1  0.03321587  0.06518674  0.60455155  1
  Li  Li83  1  0.46678413  0.93481326  0.10455155  1
  Li  Li84  1  0.89544845  0.96678413  0.56518674  1
  Li  Li85  1  0.39544845  0.53321587  0.43481326  1
  Li  Li86  1  0.60455155  0.03321587  0.06518674  1
  Li  Li87  1  0.10455155  0.46678413  0.93481326  1
  Li  Li88  1  0.56518674  0.89544845  0.96678413  1
  Li  Li89  1  0.43481326  0.39544845  0.53321587  1
  Li  Li90  1  0.06518674  0.60455155  0.03321587  1
  Li  Li91  1  0.93481326  0.10455155  0.46678413  1
  Li  Li92  1  0.31518674  0.21678413  0.35455155  1
  Li  Li93  1  0.18481326  0.78321587  0.85455155  1
  Li  Li94  1  0.81518674  0.28321587  0.64544845  1
  Li  Li95  1  0.68481326  0.71678413  0.14544845  1
  Li  Li96  1  0.71678413  0.14544845  0.68481326  1
  Li  Li97  1  0.28321587  0.64544845  0.81518674  1
  Li  Li98  1  0.78321587  0.85455155  0.18481326  1
  Li  Li99  1  0.21678413  0.35455155  0.31518674  1
  Li  Li100  1  0.64544845  0.81518674  0.28321587  1
  Li  Li101  1  0.14544845  0.68481326  0.71678413  1
  Li  Li102  1  0.35455155  0.31518674  0.21678413  1
  Li  Li103  1  0.85455155  0.18481326  0.78321587  1
  Li  Li104  1  0.12500000  0.70962908  0.95962908  1
  Li  Li105  1  0.37500000  0.29037092  0.45962908  1
  Li  Li106  1  0.87500000  0.20962908  0.54037092  1
  Li  Li107  1  0.62500000  0.79037092  0.04037092  1
  Li  Li108  1  0.95962908  0.12500000  0.70962908  1
  Li  Li109  1  0.45962908  0.37500000  0.29037092  1
  Li  Li110  1  0.54037092  0.87500000  0.20962908  1
  Li  Li111  1  0.04037092  0.62500000  0.79037092  1
  Li  Li112  1  0.70962908  0.95962908  0.12500000  1
  Li  Li113  1  0.29037092  0.45962908  0.37500000  1
  Li  Li114  1  0.20962908  0.54037092  0.87500000  1
  Li  Li115  1  0.79037092  0.04037092  0.62500000  1
  Li  Li116  1  0.62500000  0.20962908  0.45962908  1
  Li  Li117  1  0.87500000  0.79037092  0.95962908  1
  Li  Li118  1  0.37500000  0.70962908  0.04037092  1
  Li  Li119  1  0.12500000  0.29037092  0.54037092  1
  Li  Li120  1  0.45962908  0.62500000  0.20962908  1
  Li  Li121  1  0.95962908  0.87500000  0.79037092  1
  Li  Li122  1  0.04037092  0.37500000  0.70962908  1
  Li  Li123  1  0.54037092  0.12500000  0.29037092  1
  Li  Li124  1  0.20962908  0.45962908  0.62500000  1
  Li  Li125  1  0.79037092  0.95962908  0.87500000  1
  Li  Li126  1  0.70962908  0.04037092  0.37500000  1
  Li  Li127  1  0.29037092  0.54037092  0.12500000  1
  Li  Li128  1  0.99598822  0.99598822  0.99598822  1
  Li  Li129  1  0.50401178  0.00401178  0.49598822  1
  Li  Li130  1  0.00401178  0.49598822  0.50401178  1
  Li  Li131  1  0.49598822  0.50401178  0.00401178  1
  Li  Li132  1  0.74598822  0.24598822  0.25401178  1
  Li  Li133  1  0.75401178  0.75401178  0.75401178  1
  Li  Li134  1  0.24598822  0.25401178  0.74598822  1
  Li  Li135  1  0.25401178  0.74598822  0.24598822  1
  Li  Li136  1  0.49598822  0.49598822  0.49598822  1
  Li  Li137  1  0.00401178  0.50401178  0.99598822  1
  Li  Li138  1  0.50401178  0.99598822  0.00401178  1
  Li  Li139  1  0.99598822  0.00401178  0.50401178  1
  Li  Li140  1  0.24598822  0.74598822  0.75401178  1
  Li  Li141  1  0.25401178  0.25401178  0.25401178  1
  Li  Li142  1  0.74598822  0.75401178  0.24598822  1
  Li  Li143  1  0.75401178  0.24598822  0.74598822  1
  Te  Te144  1  0.69769910  0.00000000  0.25000000  1
  Te  Te145  1  0.80230090  0.00000000  0.75000000  1
  Te  Te146  1  0.25000000  0.69769910  0.00000000  1
  Te  Te147  1  0.75000000  0.80230090  0.00000000  1
  Te  Te148  1  0.00000000  0.25000000  0.69769910  1
  Te  Te149  1  0.00000000  0.75000000  0.80230090  1
  Te  Te150  1  0.75000000  0.94769910  0.00000000  1
  Te  Te151  1  0.75000000  0.05230090  0.50000000  1
  Te  Te152  1  0.44769910  0.50000000  0.25000000  1
  Te  Te153  1  0.55230090  0.00000000  0.25000000  1
  Te  Te154  1  0.00000000  0.25000000  0.55230090  1
  Te  Te155  1  0.50000000  0.25000000  0.44769910  1
  Te  Te156  1  0.19769910  0.50000000  0.75000000  1
  Te  Te157  1  0.30230090  0.50000000  0.25000000  1
  Te  Te158  1  0.75000000  0.19769910  0.50000000  1
  Te  Te159  1  0.25000000  0.30230090  0.50000000  1
  Te  Te160  1  0.50000000  0.75000000  0.19769910  1
  Te  Te161  1  0.50000000  0.25000000  0.30230090  1
  Te  Te162  1  0.25000000  0.44769910  0.50000000  1
  Te  Te163  1  0.25000000  0.55230090  -0.00000000  1
  Te  Te164  1  0.94769910  -0.00000000  0.75000000  1
  Te  Te165  1  0.05230090  0.50000000  0.75000000  1
  Te  Te166  1  0.50000000  0.75000000  0.05230090  1
  Te  Te167  1  0.00000000  0.75000000  0.94769910  1
