# generated using pymatgen
data_Li2Si4Te3F12
_symmetry_space_group_name_H-M   'P 1'
_cell_length_a   8.10523589
_cell_length_b   10.41269456
_cell_length_c   14.36574835
_cell_angle_alpha   90.00000000
_cell_angle_beta   90.00000000
_cell_angle_gamma   90.00000000
_symmetry_Int_Tables_number   1
_chemical_formula_structural   Li2Si4Te3F12
_chemical_formula_sum   'Li8 Si16 Te12 F48'
_cell_volume   1212.43102810
_cell_formula_units_Z   4
loop_
 _symmetry_equiv_pos_site_id
 _symmetry_equiv_pos_as_xyz
  1  'x, y, z'
loop_
 _atom_site_type_symbol
 _atom_site_label
 _atom_site_symmetry_multiplicity
 _atom_site_fract_x
 _atom_site_fract_y
 _atom_site_fract_z
 _atom_site_occupancy
  F  F0  1  0.11663118  0.60875253  0.00000000  1
  F  F1  1  0.88336882  0.39124747  -0.00000000  1
  F  F2  1  0.38336882  0.10875253  0.00000000  1
  F  F3  1  0.61663118  0.89124747  0.00000000  1
  F  F4  1  0.11672905  0.78143160  0.84819156  1
  F  F5  1  -0.11672905  -0.78143160  0.84819156  1
  F  F6  1  0.38327095  1.28143160  -0.84819156  1
  F  F7  1  0.61672905  -0.28143160  -0.84819156  1
  F  F8  1  -0.11672905  -0.78143160  -0.84819156  1
  F  F9  1  0.11672905  0.78143160  -0.84819156  1
  F  F10  1  0.61672905  -0.28143160  0.84819156  1
  F  F11  1  0.38327095  1.28143160  0.84819156  1
  F  F12  1  0.39416809  0.44289059  0.94171021  1
  F  F13  1  0.60583191  0.55710941  0.94171021  1
  F  F14  1  0.10583191  0.94289059  0.05828979  1
  F  F15  1  0.89416809  0.05710941  0.05828979  1
  F  F16  1  0.60583191  0.55710941  0.05828979  1
  F  F17  1  0.39416809  0.44289059  0.05828979  1
  F  F18  1  0.89416809  0.05710941  0.94171021  1
  F  F19  1  0.10583191  0.94289059  0.94171021  1
  F  F20  1  0.78859438  0.08571156  0.50000000  1
  F  F21  1  0.21140562  0.91428844  0.50000000  1
  F  F22  1  0.71140562  0.58571156  0.50000000  1
  F  F23  1  0.28859438  0.41428844  0.50000000  1
  F  F24  1  0.89740504  0.34110298  0.50000000  1
  F  F25  1  0.10259496  0.65889702  0.50000000  1
  F  F26  1  0.60259496  0.84110298  0.50000000  1
  F  F27  1  0.39740504  0.15889702  0.50000000  1
  F  F28  1  0.89435170  0.77581084  0.59682879  1
  F  F29  1  0.10564830  0.22418916  0.59682879  1
  F  F30  1  0.60564830  0.27581084  0.40317121  1
  F  F31  1  0.39435170  0.72418916  0.40317121  1
  F  F32  1  0.10564830  0.22418916  0.40317121  1
  F  F33  1  0.89435170  0.77581084  0.40317121  1
  F  F34  1  0.39435170  0.72418916  0.59682879  1
  F  F35  1  0.60564830  0.27581084  0.59682879  1
  F  F36  1  0.00000000  0.00000000  0.50000000  1
  F  F37  1  0.50000000  0.50000000  0.50000000  1
  F  F38  1  0.15222985  0.81892760  0.75068888  1
  F  F39  1  0.84777015  0.18107240  0.75068888  1
  F  F40  1  0.34777015  0.31892760  0.24931112  1
  F  F41  1  0.65222985  0.68107240  0.24931112  1
  F  F42  1  0.84777015  0.18107240  0.24931112  1
  F  F43  1  0.15222985  0.81892760  0.24931112  1
  F  F44  1  0.65222985  0.68107240  0.75068888  1
  F  F45  1  0.34777015  0.31892760  0.75068888  1
  F  F46  1  0.00000000  0.50000000  0.00000000  1
  F  F47  1  0.50000000  0.00000000  0.00000000  1
  Li  Li48  1  0.46831726  0.43633839  0.73394686  1
  Li  Li49  1  0.53168274  0.56366161  0.73394686  1
  Li  Li50  1  0.03168274  0.93633839  0.26605314  1
  Li  Li51  1  0.96831726  0.06366161  0.26605314  1
  Li  Li52  1  0.53168274  0.56366161  0.26605314  1
  Li  Li53  1  0.46831726  0.43633839  0.26605314  1
  Li  Li54  1  0.96831726  0.06366161  0.73394686  1
  Li  Li55  1  0.03168274  0.93633839  0.73394686  1
  Si  Si56  1  0.00000000  0.50000000  0.50000000  1
  Si  Si57  1  0.50000000  0.00000000  0.50000000  1
  Si  Si58  1  0.00000000  0.50000000  0.13162480  1
  Si  Si59  1  0.50000000  0.00000000  0.86837520  1
  Si  Si60  1  0.00000000  0.50000000  0.86837520  1
  Si  Si61  1  0.50000000  0.00000000  0.13162480  1
  Si  Si62  1  0.77418560  0.88398712  0.00000000  1
  Si  Si63  1  0.22581440  0.11601288  -0.00000000  1
  Si  Si64  1  0.72581440  0.38398712  0.00000000  1
  Si  Si65  1  0.27418560  0.61601288  0.00000000  1
  Si  Si66  1  0.85710808  0.17429795  0.00000000  1
  Si  Si67  1  0.14289192  0.82570205  0.00000000  1
  Si  Si68  1  0.64289192  0.67429795  -0.00000000  1
  Si  Si69  1  0.35710808  0.32570205  -0.00000000  1
  Si  Si70  1  0.00000000  0.00000000  0.00000000  1
  Si  Si71  1  0.50000000  0.50000000  0.00000000  1
  Te  Te72  1  0.93661800  0.61143939  0.00000000  1
  Te  Te73  1  0.06338200  0.38856061  -0.00000000  1
  Te  Te74  1  0.56338200  0.11143939  0.00000000  1
  Te  Te75  1  0.43661800  0.88856061  0.00000000  1
  Te  Te76  1  0.93034595  0.70285774  0.50000000  1
  Te  Te77  1  0.06965405  0.29714226  0.50000000  1
  Te  Te78  1  0.56965405  0.20285774  0.50000000  1
  Te  Te79  1  0.43034595  0.79714226  0.50000000  1
  Te  Te80  1  0.00000000  0.50000000  0.40320308  1
  Te  Te81  1  0.50000000  0.00000000  0.59679692  1
  Te  Te82  1  0.00000000  0.50000000  0.59679692  1
  Te  Te83  1  0.50000000  0.00000000  0.40320308  1
