# generated using pymatgen
data_LiF
_symmetry_space_group_name_H-M   'P 1'
_cell_length_a   16.36290066
_cell_length_b   8.32707354
_cell_length_c   8.84789486
_cell_angle_alpha   90.00000000
_cell_angle_beta   90.00000000
_cell_angle_gamma   90.00000000
_symmetry_Int_Tables_number   1
_chemical_formula_structural   LiF
_chemical_formula_sum   'Li32 F32'
_cell_volume   1205.57059646
_cell_formula_units_Z   32
loop_
 _symmetry_equiv_pos_site_id
 _symmetry_equiv_pos_as_xyz
  1  'x, y, z'
loop_
 _atom_site_type_symbol
 _atom_site_label
 _atom_site_symmetry_multiplicity
 _atom_site_fract_x
 _atom_site_fract_y
 _atom_site_fract_z
 _atom_site_occupancy
  F  F0  1  0.02212839  0.02696556  0.66534305  1
  F  F1  1  0.47787161  0.97303444  0.16534305  1
  F  F2  1  0.97787161  0.52696556  0.33465695  1
  F  F3  1  0.52212839  0.47303444  0.83465695  1
  F  F4  1  0.97787161  0.97303444  0.33465695  1
  F  F5  1  0.52212839  0.02696556  0.83465695  1
  F  F6  1  0.02212839  0.47303444  0.66534305  1
  F  F7  1  0.47787161  0.52696556  0.16534305  1
  F  F8  1  0.23348798  0.43882465  0.55714489  1
  F  F9  1  0.26651202  0.56117535  0.05714489  1
  F  F10  1  0.76651202  0.93882465  0.44285511  1
  F  F11  1  0.73348798  0.06117535  0.94285511  1
  F  F12  1  0.76651202  0.56117535  0.44285511  1
  F  F13  1  0.73348798  0.43882465  0.94285511  1
  F  F14  1  0.23348798  0.06117535  0.55714489  1
  F  F15  1  0.26651202  0.93882465  0.05714489  1
  F  F16  1  0.22915329  0.25000000  0.60967581  1
  F  F17  1  0.27084671  0.75000000  0.10967581  1
  F  F18  1  0.77084671  0.75000000  0.39032419  1
  F  F19  1  0.72915329  0.25000000  0.89032419  1
  F  F20  1  0.27636487  0.48744654  0.18942364  1
  F  F21  1  0.22363513  0.51255346  0.68942364  1
  F  F22  1  0.72363513  0.98744654  0.81057636  1
  F  F23  1  0.77636487  0.01255346  0.31057636  1
  F  F24  1  0.72363513  0.51255346  0.81057636  1
  F  F25  1  0.77636487  0.48744654  0.31057636  1
  F  F26  1  0.27636487  0.01255346  0.18942364  1
  F  F27  1  0.22363513  0.98744654  0.68942364  1
  F  F28  1  0.85333832  0.25000000  0.95014708  1
  F  F29  1  0.64666168  0.75000000  0.45014708  1
  F  F30  1  0.14666168  0.75000000  0.04985292  1
  F  F31  1  0.35333832  0.25000000  0.54985292  1
  Li  Li32  1  0.51190010  0.25000000  0.82407511  1
  Li  Li33  1  0.98809990  0.75000000  0.32407511  1
  Li  Li34  1  0.48809990  0.75000000  0.17592489  1
  Li  Li35  1  0.01190010  0.25000000  0.67592489  1
  Li  Li36  1  0.68479178  0.92221366  0.37340423  1
  Li  Li37  1  -0.18479178  -0.92221366  0.87340423  1
  Li  Li38  1  -0.68479178  1.42221366  -0.37340423  1
  Li  Li39  1  1.18479178  -0.42221366  0.12659577  1
  Li  Li40  1  -0.68479178  -0.92221366  -0.37340423  1
  Li  Li41  1  1.18479178  0.92221366  0.12659577  1
  Li  Li42  1  0.68479178  -0.42221366  0.37340423  1
  Li  Li43  1  -0.18479178  1.42221366  0.87340423  1
  Li  Li44  1  0.08464984  0.11042243  0.05857224  1
  Li  Li45  1  0.41535016  0.88957757  0.55857224  1
  Li  Li46  1  0.91535016  0.61042243  0.94142776  1
  Li  Li47  1  0.58464984  0.38957757  0.44142776  1
  Li  Li48  1  0.91535016  0.88957757  0.94142776  1
  Li  Li49  1  0.58464984  0.11042243  0.44142776  1
  Li  Li50  1  0.08464984  0.38957757  0.05857224  1
  Li  Li51  1  0.41535016  0.61042243  0.55857224  1
  Li  Li52  1  0.00000000  0.00000000  0.00000000  1
  Li  Li53  1  0.50000000  0.00000000  0.50000000  1
  Li  Li54  1  0.00000000  0.50000000  0.00000000  1
  Li  Li55  1  0.50000000  0.50000000  0.50000000  1
  Li  Li56  1  0.28143378  0.25000000  0.16918731  1
  Li  Li57  1  0.21856622  0.75000000  0.66918731  1
  Li  Li58  1  0.71856622  0.75000000  0.83081269  1
  Li  Li59  1  0.78143378  0.25000000  0.33081269  1
  Li  Li60  1  0.07094620  0.25000000  0.39811668  1
  Li  Li61  1  0.42905380  0.75000000  0.89811668  1
  Li  Li62  1  0.92905380  0.75000000  0.60188332  1
  Li  Li63  1  0.57094620  0.25000000  0.10188332  1
