# generated using pymatgen
data_LiYP2Se
_symmetry_space_group_name_H-M   'P 1'
_cell_length_a   4.48020569
_cell_length_b   4.78136656
_cell_length_c   6.98480485
_cell_angle_alpha   95.64358303
_cell_angle_beta   102.29055057
_cell_angle_gamma   112.66803004
_symmetry_Int_Tables_number   1
_chemical_formula_structural   LiYP2Se
_chemical_formula_sum   'Li2 Y2 P4 Se2'
_cell_volume   132.17526692
_cell_formula_units_Z   2
loop_
 _symmetry_equiv_pos_site_id
 _symmetry_equiv_pos_as_xyz
  1  'x, y, z'
loop_
 _atom_site_type_symbol
 _atom_site_label
 _atom_site_symmetry_multiplicity
 _atom_site_fract_x
 _atom_site_fract_y
 _atom_site_fract_z
 _atom_site_occupancy
  Y  Y0  1  0.00000000  0.00000000  0.00000000  1
  Y  Y1  1  0.33300000  0.66700000  0.25000000  1
  P  P2  1  0.66700000  0.33300000  0.50000000  1
  P  P3  1  0.00000000  0.00000000  0.75000000  1
  P  P4  1  0.54763129  0.06859888  0.05931925  1
  P  P5  1  0.15027770  0.82143502  0.66720557  1
  Se  Se6  1  0.53416642  0.27132606  0.89832556  1
  Se  Se7  1  0.17933458  0.70584677  0.38694840  1
  Li  Li8  1  0.39328705  0.02131986  0.57963739  1
  Li  Li9  1  0.76715092  0.10684245  0.26212102  1
