# generated using pymatgen
data_LiF
_symmetry_space_group_name_H-M   'P 1'
_cell_length_a   10.23394153
_cell_length_b   6.04852033
_cell_length_c   12.79470392
_cell_angle_alpha   90.00000000
_cell_angle_beta   90.00000000
_cell_angle_gamma   90.00000000
_symmetry_Int_Tables_number   1
_chemical_formula_structural   LiF
_chemical_formula_sum   'Li24 F24'
_cell_volume   791.99477500
_cell_formula_units_Z   24
loop_
 _symmetry_equiv_pos_site_id
 _symmetry_equiv_pos_as_xyz
  1  'x, y, z'
loop_
 _atom_site_type_symbol
 _atom_site_label
 _atom_site_symmetry_multiplicity
 _atom_site_fract_x
 _atom_site_fract_y
 _atom_site_fract_z
 _atom_site_occupancy
  F  F0  1  0.89933570  0.41405691  0.70903920  1
  F  F1  1  0.60066430  0.58594309  0.20903920  1
  F  F2  1  0.10066430  0.91405691  0.29096080  1
  F  F3  1  0.39933570  0.08594309  0.79096080  1
  F  F4  1  0.10066430  0.58594309  0.29096080  1
  F  F5  1  0.39933570  0.41405691  0.79096080  1
  F  F6  1  0.89933570  0.08594309  0.70903920  1
  F  F7  1  0.60066430  0.91405691  0.20903920  1
  F  F8  1  0.35284569  0.17480937  0.68682343  1
  F  F9  1  0.14715431  0.82519063  0.18682343  1
  F  F10  1  0.64715431  0.67480937  0.31317657  1
  F  F11  1  0.85284569  0.32519063  0.81317657  1
  F  F12  1  0.64715431  0.82519063  0.31317657  1
  F  F13  1  0.85284569  0.17480937  0.81317657  1
  F  F14  1  0.35284569  0.32519063  0.68682343  1
  F  F15  1  0.14715431  0.67480937  0.18682343  1
  F  F16  1  0.59069888  0.92309069  0.93995203  1
  F  F17  1  0.90930112  0.07690931  0.43995203  1
  F  F18  1  0.40930112  0.42309069  0.06004797  1
  F  F19  1  0.09069888  0.57690931  0.56004797  1
  F  F20  1  0.40930112  0.07690931  0.06004797  1
  F  F21  1  0.09069888  0.92309069  0.56004797  1
  F  F22  1  0.59069888  0.57690931  0.93995203  1
  F  F23  1  0.90930112  0.42309069  0.43995203  1
  Li  Li24  1  0.00000000  0.00000000  0.00000000  1
  Li  Li25  1  0.50000000  0.00000000  0.50000000  1
  Li  Li26  1  0.00000000  0.50000000  0.00000000  1
  Li  Li27  1  0.50000000  0.50000000  0.50000000  1
  Li  Li28  1  0.42361623  0.53851564  0.28322580  1
  Li  Li29  1  0.07638377  -0.53851564  0.78322580  1
  Li  Li30  1  -0.42361623  1.03851564  -0.28322580  1
  Li  Li31  1  0.92361623  -0.03851564  0.21677420  1
  Li  Li32  1  -0.42361623  -0.53851564  -0.28322580  1
  Li  Li33  1  0.92361623  0.53851564  0.21677420  1
  Li  Li34  1  0.42361623  -0.03851564  0.28322580  1
  Li  Li35  1  0.07638377  1.03851564  0.78322580  1
  Li  Li36  1  0.83084714  0.07972819  0.25935960  1
  Li  Li37  1  0.66915286  0.92027181  0.75935960  1
  Li  Li38  1  0.16915286  0.57972819  0.74064040  1
  Li  Li39  1  0.33084714  0.42027181  0.24064040  1
  Li  Li40  1  0.16915286  0.92027181  0.74064040  1
  Li  Li41  1  0.33084714  0.07972819  0.24064040  1
  Li  Li42  1  0.83084714  0.42027181  0.25935960  1
  Li  Li43  1  0.66915286  0.57972819  0.75935960  1
  Li  Li44  1  0.79771789  0.25000000  0.66735432  1
  Li  Li45  1  0.70228211  0.75000000  0.16735432  1
  Li  Li46  1  0.20228211  0.75000000  0.33264568  1
  Li  Li47  1  0.29771789  0.25000000  0.83264568  1
