# generated using pymatgen
data_Li3Y2Sb2(PSe)2
_symmetry_space_group_name_H-M   'P 1'
_cell_length_a   5.16347461
_cell_length_b   5.28601583
_cell_length_c   7.10069591
_cell_angle_alpha   94.40686315
_cell_angle_beta   99.59723177
_cell_angle_gamma   107.70061780
_symmetry_Int_Tables_number   1
_chemical_formula_structural   Li3Y2Sb2(PSe)2
_chemical_formula_sum   'Li3 Y2 Sb2 P2 Se2'
_cell_volume   180.36294635
_cell_formula_units_Z   1
loop_
 _symmetry_equiv_pos_site_id
 _symmetry_equiv_pos_as_xyz
  1  'x, y, z'
loop_
 _atom_site_type_symbol
 _atom_site_label
 _atom_site_symmetry_multiplicity
 _atom_site_fract_x
 _atom_site_fract_y
 _atom_site_fract_z
 _atom_site_occupancy
  Y  Y0  1  0.00000000  0.00000000  0.00000000  1
  Y  Y1  1  0.50000000  0.50000000  0.50000000  1
  P  P2  1  0.50000000  0.50000000  0.00000000  1
  P  P3  1  0.50000000  0.00000000  0.50000000  1
  Se  Se4  1  0.00000000  0.50000000  0.50000000  1
  Se  Se5  1  0.15856529  0.00155258  0.59185431  1
  Li  Li6  1  0.61696705  0.79592801  0.65920916  1
  Li  Li7  1  0.02519322  0.49993699  0.59422400  1
  Li  Li8  1  0.17552865  0.46108596  0.00912140  1
  Sb  Sb9  1  0.61532706  0.90482051  0.63696564  1
  Sb  Sb10  1  0.61178708  0.87620375  0.52921467  1
