# generated using pymatgen
data_LiF
_symmetry_space_group_name_H-M   'P 1'
_cell_length_a   9.85923414
_cell_length_b   7.33225510
_cell_length_c   14.68498666
_cell_angle_alpha   90.00000000
_cell_angle_beta   90.00000000
_cell_angle_gamma   90.00000000
_symmetry_Int_Tables_number   1
_chemical_formula_structural   LiF
_chemical_formula_sum   'Li44 F44'
_cell_volume   1061.58384963
_cell_formula_units_Z   44
loop_
 _symmetry_equiv_pos_site_id
 _symmetry_equiv_pos_as_xyz
  1  'x, y, z'
loop_
 _atom_site_type_symbol
 _atom_site_label
 _atom_site_symmetry_multiplicity
 _atom_site_fract_x
 _atom_site_fract_y
 _atom_site_fract_z
 _atom_site_occupancy
  F  F0  1  0.00000000  0.00000000  0.00000000  1
  F  F1  1  0.50000000  0.00000000  0.50000000  1
  F  F2  1  0.00000000  0.50000000  -0.00000000  1
  F  F3  1  0.50000000  0.50000000  0.50000000  1
  F  F4  1  0.93784039  0.81796300  0.96353225  1
  F  F5  1  0.56215961  0.18203700  0.46353225  1
  F  F6  1  0.06215961  0.31796300  0.03646775  1
  F  F7  1  0.43784039  0.68203700  0.53646775  1
  F  F8  1  0.06215961  0.18203700  0.03646775  1
  F  F9  1  0.43784039  0.81796300  0.53646775  1
  F  F10  1  0.93784039  0.68203700  0.96353225  1
  F  F11  1  0.56215961  0.31796300  0.46353225  1
  F  F12  1  0.38647794  0.49233868  0.55639447  1
  F  F13  1  0.11352206  0.50766132  0.05639447  1
  F  F14  1  0.61352206  0.99233868  0.44360553  1
  F  F15  1  0.88647794  0.00766132  0.94360553  1
  F  F16  1  0.61352206  0.50766132  0.44360553  1
  F  F17  1  0.88647794  0.49233868  0.94360553  1
  F  F18  1  0.38647794  0.00766132  0.55639447  1
  F  F19  1  0.11352206  0.99233868  0.05639447  1
  F  F20  1  0.78650957  0.81928266  0.19254835  1
  F  F21  1  0.71349043  0.18071734  0.69254835  1
  F  F22  1  0.21349043  0.31928266  0.80745165  1
  F  F23  1  0.28650957  0.68071734  0.30745165  1
  F  F24  1  0.21349043  0.18071734  0.80745165  1
  F  F25  1  0.28650957  0.81928266  0.30745165  1
  F  F26  1  0.78650957  0.68071734  0.19254835  1
  F  F27  1  0.71349043  0.31928266  0.69254835  1
  F  F28  1  0.12064033  0.08195856  0.13396146  1
  F  F29  1  0.37935967  0.91804144  0.63396146  1
  F  F30  1  0.87935967  0.58195856  0.86603854  1
  F  F31  1  0.62064033  0.41804144  0.36603854  1
  F  F32  1  0.87935967  0.91804144  0.86603854  1
  F  F33  1  0.62064033  0.08195856  0.36603854  1
  F  F34  1  0.12064033  0.41804144  0.13396146  1
  F  F35  1  0.37935967  0.58195856  0.63396146  1
  F  F36  1  0.49410142  0.41811897  0.45387721  1
  F  F37  1  0.00589858  0.58188103  0.95387721  1
  F  F38  1  0.50589858  0.91811897  0.54612279  1
  F  F39  1  0.99410142  0.08188103  0.04612279  1
  F  F40  1  0.50589858  0.58188103  0.54612279  1
  F  F41  1  0.99410142  0.41811897  0.04612279  1
  F  F42  1  0.49410142  0.08188103  0.45387721  1
  F  F43  1  0.00589858  0.91811897  0.95387721  1
  Li  Li44  1  0.62410066  0.02020982  0.59821134  1
  Li  Li45  1  -0.12410066  -0.02020982  1.09821134  1
  Li  Li46  1  -0.62410066  0.52020982  -0.59821134  1
  Li  Li47  1  1.12410066  0.47979018  -0.09821134  1
  Li  Li48  1  -0.62410066  -0.02020982  -0.59821134  1
  Li  Li49  1  1.12410066  0.02020982  -0.09821134  1
  Li  Li50  1  0.62410066  0.47979018  0.59821134  1
  Li  Li51  1  -0.12410066  0.52020982  1.09821134  1
  Li  Li52  1  0.42724415  0.37962830  0.49420212  1
  Li  Li53  1  0.07275585  0.62037170  0.99420212  1
  Li  Li54  1  0.57275585  0.87962830  0.50579788  1
  Li  Li55  1  0.92724415  0.12037170  0.00579788  1
  Li  Li56  1  0.57275585  0.62037170  0.50579788  1
  Li  Li57  1  0.92724415  0.37962830  0.00579788  1
  Li  Li58  1  0.42724415  0.12037170  0.49420212  1
  Li  Li59  1  0.07275585  0.87962830  0.99420212  1
  Li  Li60  1  0.00000000  0.00000000  0.50000000  1
  Li  Li61  1  0.50000000  0.00000000  0.00000000  1
  Li  Li62  1  0.00000000  0.50000000  0.50000000  1
  Li  Li63  1  0.50000000  0.50000000  -0.00000000  1
  Li  Li64  1  0.23351578  0.11024897  0.22590523  1
  Li  Li65  1  0.26648422  0.88975103  0.72590523  1
  Li  Li66  1  0.76648422  0.61024897  0.77409477  1
  Li  Li67  1  0.73351578  0.38975103  0.27409477  1
  Li  Li68  1  0.76648422  0.88975103  0.77409477  1
  Li  Li69  1  0.73351578  0.11024897  0.27409477  1
  Li  Li70  1  0.23351578  0.38975103  0.22590523  1
  Li  Li71  1  0.26648422  0.61024897  0.72590523  1
  Li  Li72  1  0.03019815  0.54245871  0.66198304  1
  Li  Li73  1  0.46980185  0.45754129  0.16198304  1
  Li  Li74  1  0.96980185  0.04245871  0.33801696  1
  Li  Li75  1  0.53019815  0.95754129  0.83801696  1
  Li  Li76  1  0.96980185  0.45754129  0.33801696  1
  Li  Li77  1  0.53019815  0.54245871  0.83801696  1
  Li  Li78  1  0.03019815  0.95754129  0.66198304  1
  Li  Li79  1  0.46980185  0.04245871  0.16198304  1
  Li  Li80  1  0.06642516  0.00154937  0.79761868  1
  Li  Li81  1  0.43357484  0.99845063  0.29761868  1
  Li  Li82  1  0.93357484  0.50154937  0.20238132  1
  Li  Li83  1  0.56642516  0.49845063  0.70238132  1
  Li  Li84  1  0.93357484  0.99845063  0.20238132  1
  Li  Li85  1  0.56642516  0.00154937  0.70238132  1
  Li  Li86  1  0.06642516  0.49845063  0.79761868  1
  Li  Li87  1  0.43357484  0.50154937  0.29761868  1
