# generated using pymatgen
data_LiPO3
_symmetry_space_group_name_H-M   'P 1'
_cell_length_a   9.83320619
_cell_length_b   9.83320619
_cell_length_c   10.60719543
_cell_angle_alpha   90.00000000
_cell_angle_beta   90.00000000
_cell_angle_gamma   90.00000000
_symmetry_Int_Tables_number   1
_chemical_formula_structural   LiPO3
_chemical_formula_sum   'Li24 P24 O72'
_cell_volume   1025.63034613
_cell_formula_units_Z   24
loop_
 _symmetry_equiv_pos_site_id
 _symmetry_equiv_pos_as_xyz
  1  'x, y, z'
loop_
 _atom_site_type_symbol
 _atom_site_label
 _atom_site_symmetry_multiplicity
 _atom_site_fract_x
 _atom_site_fract_y
 _atom_site_fract_z
 _atom_site_occupancy
  Li  Li0  1  0.00000000  0.65426145  0.75040075  1
  Li  Li1  1  0.50000000  0.34573855  0.25040075  1
  Li  Li2  1  0.59573855  0.75000000  0.00040075  1
  Li  Li3  1  0.90426145  0.25000000  0.50040075  1
  Li  Li4  1  0.50000000  0.65426145  0.74959925  1
  Li  Li5  1  0.00000000  0.34573855  0.24959925  1
  Li  Li6  1  0.90426145  0.75000000  0.49959925  1
  Li  Li7  1  0.59573855  0.25000000  0.99959925  1
  Li  Li8  1  0.50000000  0.15426145  0.25040075  1
  Li  Li9  1  0.00000000  0.84573855  0.75040075  1
  Li  Li10  1  0.09573855  0.25000000  0.50040075  1
  Li  Li11  1  0.40426145  0.75000000  0.00040075  1
  Li  Li12  1  0.00000000  0.15426145  0.24959925  1
  Li  Li13  1  0.50000000  0.84573855  0.74959925  1
  Li  Li14  1  0.40426145  0.25000000  0.99959925  1
  Li  Li15  1  0.09573855  0.75000000  0.49959925  1
  Li  Li16  1  0.00000000  0.25000000  0.71644369  1
  Li  Li17  1  0.00000000  0.75000000  0.96644369  1
  Li  Li18  1  0.50000000  0.25000000  0.78355631  1
  Li  Li19  1  0.50000000  0.75000000  0.53355631  1
  Li  Li20  1  0.50000000  0.75000000  0.21644369  1
  Li  Li21  1  0.50000000  0.25000000  0.46644369  1
  Li  Li22  1  0.00000000  0.75000000  0.28355631  1
  Li  Li23  1  0.00000000  0.25000000  0.03355631  1
  O  O24  1  0.00000000  0.41893442  0.72855748  1
  O  O25  1  0.50000000  0.58106558  0.22855748  1
  O  O26  1  0.83106558  0.75000000  0.97855748  1
  O  O27  1  0.66893442  0.25000000  0.47855748  1
  O  O28  1  0.50000000  0.41893442  0.77144252  1
  O  O29  1  0.00000000  0.58106558  0.27144252  1
  O  O30  1  0.66893442  0.75000000  0.52144252  1
  O  O31  1  0.83106558  0.25000000  0.02144252  1
  O  O32  1  0.50000000  0.91893442  0.22855748  1
  O  O33  1  0.00000000  0.08106558  0.72855748  1
  O  O34  1  0.33106558  0.25000000  0.47855748  1
  O  O35  1  0.16893442  0.75000000  0.97855748  1
  O  O36  1  0.00000000  0.91893442  0.27144252  1
  O  O37  1  0.50000000  0.08106558  0.77144252  1
  O  O38  1  0.16893442  0.25000000  0.02144252  1
  O  O39  1  0.33106558  0.75000000  0.52144252  1
  O  O40  1  0.00000000  0.25000000  0.37500000  1
  O  O41  1  0.00000000  0.75000000  0.62500000  1
  O  O42  1  0.50000000  0.75000000  0.87500000  1
  O  O43  1  0.50000000  0.25000000  0.12500000  1
  O  O44  1  0.00000000  0.75000000  0.12500000  1
  O  O45  1  0.50000000  0.75000000  0.37500000  1
  O  O46  1  0.50000000  0.25000000  0.62500000  1
  O  O47  1  0.00000000  0.25000000  0.87500000  1
  O  O48  1  0.45790952  0.54173479  0.68453038  1
  O  O49  1  0.04209048  -0.54173479  1.18453038  1
  O  O50  1  -0.29173479  1.20790952  0.93453038  1
  O  O51  1  0.79173479  -0.20790952  1.43453038  1
  O  O52  1  0.04209048  0.54173479  -0.18453038  1
  O  O53  1  0.45790952  -0.54173479  -0.68453038  1
  O  O54  1  0.79173479  1.20790952  -0.43453038  1
  O  O55  1  -0.29173479  -0.20790952  0.06546962  1
  O  O56  1  -0.45790952  -0.54173479  -0.68453038  1
  O  O57  1  0.95790952  0.54173479  -0.18453038  1
  O  O58  1  1.29173479  -0.20790952  0.06546962  1
  O  O59  1  0.20826521  1.20790952  -0.43453038  1
  O  O60  1  0.95790952  -0.54173479  1.18453038  1
  O  O61  1  -0.45790952  0.54173479  0.68453038  1
  O  O62  1  0.20826521  -0.20790952  1.43453038  1
  O  O63  1  1.29173479  1.20790952  0.93453038  1
  O  O64  1  0.95790952  1.04173479  1.18453038  1
  O  O65  1  0.54209048  -0.04173479  1.68453038  1
  O  O66  1  0.20826521  1.70790952  1.43453038  1
  O  O67  1  1.29173479  0.29209048  1.93453038  1
  O  O68  1  0.54209048  1.04173479  0.31546962  1
  O  O69  1  0.95790952  -0.04173479  -0.18453038  1
  O  O70  1  1.29173479  1.70790952  0.06546962  1
  O  O71  1  0.20826521  0.29209048  0.56546962  1
  O  O72  1  0.04209048  -0.04173479  -0.18453038  1
  O  O73  1  1.45790952  1.04173479  0.31546962  1
  O  O74  1  1.79173479  0.29209048  0.56546962  1
  O  O75  1  0.70826521  1.70790952  0.06546962  1
  O  O76  1  1.45790952  -0.04173479  1.68453038  1
  O  O77  1  0.04209048  1.04173479  1.18453038  1
  O  O78  1  0.70826521  0.29209048  1.93453038  1
  O  O79  1  1.79173479  1.70790952  1.43453038  1
  O  O80  1  0.05146766  0.00000000  0.00000000  1
  O  O81  1  0.44853234  -0.00000000  0.50000000  1
  O  O82  1  0.25000000  0.80146766  0.25000000  1
  O  O83  1  0.25000000  0.19853234  0.75000000  1
  O  O84  1  0.94853234  0.00000000  -0.00000000  1
  O  O85  1  0.55146766  0.00000000  0.50000000  1
  O  O86  1  0.75000000  0.19853234  0.75000000  1
  O  O87  1  0.75000000  0.80146766  0.25000000  1
  O  O88  1  0.55146766  0.50000000  0.50000000  1
  O  O89  1  0.94853234  0.50000000  0.00000000  1
  O  O90  1  0.75000000  0.30146766  0.75000000  1
  O  O91  1  0.75000000  0.69853234  0.25000000  1
  O  O92  1  0.44853234  0.50000000  0.50000000  1
  O  O93  1  0.05146766  0.50000000  0.00000000  1
  O  O94  1  0.25000000  0.69853234  0.25000000  1
  O  O95  1  0.25000000  0.30146766  0.75000000  1
  P  P96  1  0.28840444  -0.00000000  0.00000000  1
  P  P97  1  0.21159556  0.00000000  0.50000000  1
  P  P98  1  0.25000000  0.03840444  0.25000000  1
  P  P99  1  0.25000000  0.96159556  0.75000000  1
  P  P100  1  0.71159556  0.00000000  0.00000000  1
  P  P101  1  0.78840444  0.00000000  0.50000000  1
  P  P102  1  0.75000000  0.96159556  0.75000000  1
  P  P103  1  0.75000000  0.03840444  0.25000000  1
  P  P104  1  0.78840444  0.50000000  0.50000000  1
  P  P105  1  0.71159556  0.50000000  0.00000000  1
  P  P106  1  0.75000000  0.53840444  0.75000000  1
  P  P107  1  0.75000000  0.46159556  0.25000000  1
  P  P108  1  0.21159556  0.50000000  0.50000000  1
  P  P109  1  0.28840444  0.50000000  0.00000000  1
  P  P110  1  0.25000000  0.46159556  0.25000000  1
  P  P111  1  0.25000000  0.53840444  0.75000000  1
  P  P112  1  0.00000000  0.00000000  0.50000000  1
  P  P113  1  0.50000000  0.00000000  0.00000000  1
  P  P114  1  0.25000000  0.75000000  0.75000000  1
  P  P115  1  0.25000000  0.25000000  0.25000000  1
  P  P116  1  0.50000000  0.50000000  0.00000000  1
  P  P117  1  0.00000000  0.50000000  0.50000000  1
  P  P118  1  0.75000000  0.25000000  0.25000000  1
  P  P119  1  0.75000000  0.75000000  0.75000000  1
