# generated using pymatgen
data_LiF
_symmetry_space_group_name_H-M   'P 1'
_cell_length_a   14.77427339
_cell_length_b   14.77427339
_cell_length_c   14.44276961
_cell_angle_alpha   90.00000000
_cell_angle_beta   90.00000000
_cell_angle_gamma   120.00000000
_symmetry_Int_Tables_number   1
_chemical_formula_structural   LiF
_chemical_formula_sum   'Li72 F72'
_cell_volume   2730.19317902
_cell_formula_units_Z   72
loop_
 _symmetry_equiv_pos_site_id
 _symmetry_equiv_pos_as_xyz
  1  'x, y, z'
loop_
 _atom_site_type_symbol
 _atom_site_label
 _atom_site_symmetry_multiplicity
 _atom_site_fract_x
 _atom_site_fract_y
 _atom_site_fract_z
 _atom_site_occupancy
  F  F0  1  0.75491717  -0.00000000  0.25000000  1
  F  F1  1  0.00000000  0.75491717  0.25000000  1
  F  F2  1  0.24508283  0.24508283  0.25000000  1
  F  F3  1  0.24508283  -0.00000000  0.75000000  1
  F  F4  1  0.00000000  0.24508283  0.75000000  1
  F  F5  1  0.75491717  0.75491717  0.75000000  1
  F  F6  1  0.42158383  0.33333333  0.58333333  1
  F  F7  1  0.66666667  0.08825050  0.58333333  1
  F  F8  1  0.91174950  0.57841617  0.58333333  1
  F  F9  1  0.91174950  0.33333333  0.08333333  1
  F  F10  1  0.66666667  0.57841617  0.08333333  1
  F  F11  1  0.42158383  0.08825050  0.08333333  1
  F  F12  1  0.08825050  0.66666667  0.91666667  1
  F  F13  1  0.33333333  0.42158383  0.91666667  1
  F  F14  1  0.57841617  0.91174950  0.91666667  1
  F  F15  1  0.57841617  0.66666667  0.41666667  1
  F  F16  1  0.33333333  0.91174950  0.41666667  1
  F  F17  1  0.08825050  0.42158383  0.41666667  1
  F  F18  1  0.72076815  0.76173791  0.03262486  1
  F  F19  1  0.23826209  0.95903025  0.03262486  1
  F  F20  1  0.04096975  0.27923185  0.03262486  1
  F  F21  1  0.76173791  0.72076815  0.46737514  1
  F  F22  1  0.95903025  0.23826209  0.46737514  1
  F  F23  1  0.27923185  0.04096975  0.46737514  1
  F  F24  1  0.27923185  0.23826209  0.96737514  1
  F  F25  1  0.76173791  0.04096975  0.96737514  1
  F  F26  1  0.95903025  0.72076815  0.96737514  1
  F  F27  1  0.23826209  0.27923185  0.53262486  1
  F  F28  1  0.04096975  0.76173791  0.53262486  1
  F  F29  1  0.72076815  0.95903025  0.53262486  1
  F  F30  1  0.38743482  0.09507124  0.36595819  1
  F  F31  1  0.90492876  0.29236358  0.36595819  1
  F  F32  1  0.70763642  0.61256518  0.36595819  1
  F  F33  1  0.42840457  0.05410149  0.80070847  1
  F  F34  1  0.62569691  0.57159543  0.80070847  1
  F  F35  1  0.94589851  0.37430309  0.80070847  1
  F  F36  1  0.94589851  0.57159543  0.30070847  1
  F  F37  1  0.42840457  0.37430309  0.30070847  1
  F  F38  1  0.62569691  0.05410149  0.30070847  1
  F  F39  1  0.90492876  0.61256518  0.86595819  1
  F  F40  1  0.70763642  0.09507124  0.86595819  1
  F  F41  1  0.38743482  0.29236358  0.86595819  1
  F  F42  1  0.05410149  0.42840457  0.69929153  1
  F  F43  1  0.57159543  0.62569691  0.69929153  1
  F  F44  1  0.37430309  0.94589851  0.69929153  1
  F  F45  1  0.09507124  0.38743482  0.13404181  1
  F  F46  1  0.29236358  0.90492876  0.13404181  1
  F  F47  1  0.61256518  0.70763642  0.13404181  1
  F  F48  1  0.61256518  0.90492876  0.63404181  1
  F  F49  1  0.09507124  0.70763642  0.63404181  1
  F  F50  1  0.29236358  0.38743482  0.63404181  1
  F  F51  1  0.57159543  0.94589851  0.19929153  1
  F  F52  1  0.37430309  0.42840457  0.19929153  1
  F  F53  1  0.05410149  0.62569691  0.19929153  1
  F  F54  1  0.41103764  0.00000000  0.25000000  1
  F  F55  1  0.00000000  0.41103764  0.25000000  1
  F  F56  1  0.58896236  0.58896236  0.25000000  1
  F  F57  1  0.58896236  0.00000000  0.75000000  1
  F  F58  1  0.00000000  0.58896236  0.75000000  1
  F  F59  1  0.41103764  0.41103764  0.75000000  1
  F  F60  1  0.07770431  0.33333333  0.58333333  1
  F  F61  1  0.66666667  0.74437098  0.58333333  1
  F  F62  1  0.25562902  0.92229569  0.58333333  1
  F  F63  1  0.25562902  0.33333333  0.08333333  1
  F  F64  1  0.66666667  0.92229569  0.08333333  1
  F  F65  1  0.07770431  0.74437098  0.08333333  1
  F  F66  1  0.74437098  0.66666667  0.91666667  1
  F  F67  1  0.33333333  0.07770431  0.91666667  1
  F  F68  1  0.92229569  0.25562902  0.91666667  1
  F  F69  1  0.92229569  0.66666667  0.41666667  1
  F  F70  1  0.33333333  0.25562902  0.41666667  1
  F  F71  1  0.74437098  0.07770431  0.41666667  1
  Li  Li72  1  0.57696768  0.90078129  0.82564809  1
  Li  Li73  1  -0.90078129  -0.32381361  0.82564809  1
  Li  Li74  1  0.32381361  -0.57696768  0.82564809  1
  Li  Li75  1  0.90078129  0.57696768  -0.32564809  1
  Li  Li76  1  -0.32381361  -0.90078129  -0.32564809  1
  Li  Li77  1  -0.57696768  0.32381361  -0.32564809  1
  Li  Li78  1  -0.57696768  -0.90078129  -0.82564809  1
  Li  Li79  1  0.90078129  0.32381361  -0.82564809  1
  Li  Li80  1  -0.32381361  0.57696768  -0.82564809  1
  Li  Li81  1  -0.90078129  -0.57696768  1.32564809  1
  Li  Li82  1  0.32381361  0.90078129  1.32564809  1
  Li  Li83  1  0.57696768  -0.32381361  1.32564809  1
  Li  Li84  1  1.24363435  1.23411463  1.15898143  1
  Li  Li85  1  -0.23411463  0.00951972  1.15898143  1
  Li  Li86  1  0.99048028  -0.24363435  1.15898143  1
  Li  Li87  1  1.56744796  0.91030101  0.00768524  1
  Li  Li88  1  0.34285305  -0.56744796  0.00768524  1
  Li  Li89  1  0.08969899  0.65714695  0.00768524  1
  Li  Li90  1  0.08969899  -0.56744796  -0.49231476  1
  Li  Li91  1  1.56744796  0.65714695  -0.49231476  1
  Li  Li92  1  0.34285305  0.91030101  -0.49231476  1
  Li  Li93  1  -0.23411463  -0.24363435  1.65898143  1
  Li  Li94  1  0.99048028  1.23411463  1.65898143  1
  Li  Li95  1  1.24363435  0.00951972  1.65898143  1
  Li  Li96  1  0.91030101  1.56744796  1.49231476  1
  Li  Li97  1  -0.56744796  0.34285305  1.49231476  1
  Li  Li98  1  0.65714695  0.08969899  1.49231476  1
  Li  Li99  1  1.23411463  1.24363435  0.34101857  1
  Li  Li100  1  0.00951972  -0.23411463  0.34101857  1
  Li  Li101  1  -0.24363435  0.99048028  0.34101857  1
  Li  Li102  1  -0.24363435  -0.23411463  -0.15898143  1
  Li  Li103  1  1.23411463  0.99048028  -0.15898143  1
  Li  Li104  1  0.00951972  1.24363435  -0.15898143  1
  Li  Li105  1  -0.56744796  0.08969899  1.99231476  1
  Li  Li106  1  0.65714695  1.56744796  1.99231476  1
  Li  Li107  1  0.91030101  0.34285305  1.99231476  1
  Li  Li108  1  0.00000000  0.00000000  0.25000000  1
  Li  Li109  1  0.00000000  0.00000000  0.75000000  1
  Li  Li110  1  0.66666667  0.33333333  0.58333333  1
  Li  Li111  1  0.66666667  0.33333333  0.08333333  1
  Li  Li112  1  0.33333333  0.66666667  0.91666667  1
  Li  Li113  1  0.33333333  0.66666667  0.41666667  1
  Li  Li114  1  0.50000000  -0.00000000  0.00000000  1
  Li  Li115  1  0.00000000  0.50000000  0.00000000  1
  Li  Li116  1  0.50000000  0.50000000  0.00000000  1
  Li  Li117  1  0.00000000  0.50000000  0.50000000  1
  Li  Li118  1  0.50000000  -0.00000000  0.50000000  1
  Li  Li119  1  0.50000000  0.50000000  0.50000000  1
  Li  Li120  1  0.16666667  0.33333333  0.33333333  1
  Li  Li121  1  0.66666667  0.83333333  0.33333333  1
  Li  Li122  1  0.16666667  0.83333333  0.33333333  1
  Li  Li123  1  0.66666667  0.83333333  0.83333333  1
  Li  Li124  1  0.16666667  0.33333333  0.83333333  1
  Li  Li125  1  0.16666667  0.83333333  0.83333333  1
  Li  Li126  1  0.83333333  0.66666667  0.66666667  1
  Li  Li127  1  0.33333333  0.16666667  0.66666667  1
  Li  Li128  1  0.83333333  0.16666667  0.66666667  1
  Li  Li129  1  0.33333333  0.16666667  0.16666667  1
  Li  Li130  1  0.83333333  0.66666667  0.16666667  1
  Li  Li131  1  0.83333333  0.16666667  0.16666667  1
  Li  Li132  1  0.00000000  0.00000000  0.13421757  1
  Li  Li133  1  0.00000000  0.00000000  0.36578243  1
  Li  Li134  1  0.00000000  0.00000000  0.86578243  1
  Li  Li135  1  0.00000000  0.00000000  0.63421757  1
  Li  Li136  1  0.66666667  0.33333333  0.46755090  1
  Li  Li137  1  0.66666667  0.33333333  0.69911576  1
  Li  Li138  1  0.66666667  0.33333333  0.19911576  1
  Li  Li139  1  0.66666667  0.33333333  0.96755090  1
  Li  Li140  1  0.33333333  0.66666667  0.80088424  1
  Li  Li141  1  0.33333333  0.66666667  0.03244910  1
  Li  Li142  1  0.33333333  0.66666667  0.53244910  1
  Li  Li143  1  0.33333333  0.66666667  0.30088424  1
