# generated using pymatgen
data_Li2Si4Te3F12
_symmetry_space_group_name_H-M   'P 1'
_cell_length_a   17.26653260
_cell_length_b   17.26653260
_cell_length_c   4.95984716
_cell_angle_alpha   90.00000000
_cell_angle_beta   90.00000000
_cell_angle_gamma   120.00000000
_symmetry_Int_Tables_number   1
_chemical_formula_structural   Li2Si4Te3F12
_chemical_formula_sum   'Li8 Si16 Te12 F48'
_cell_volume   1280.58730212
_cell_formula_units_Z   4
loop_
 _symmetry_equiv_pos_site_id
 _symmetry_equiv_pos_as_xyz
  1  'x, y, z'
loop_
 _atom_site_type_symbol
 _atom_site_label
 _atom_site_symmetry_multiplicity
 _atom_site_fract_x
 _atom_site_fract_y
 _atom_site_fract_z
 _atom_site_occupancy
  F  F0  1  0.62443008  0.76117125  0.57435983  1
  F  F1  1  -0.76117125  -0.13674117  0.57435983  1
  F  F2  1  0.13674117  -0.62443008  0.57435983  1
  F  F3  1  -0.62443008  -0.76117125  1.07435983  1
  F  F4  1  0.76117125  0.13674117  1.07435983  1
  F  F5  1  -0.13674117  0.62443008  1.07435983  1
  F  F6  1  -0.62443008  -0.76117125  -0.57435983  1
  F  F7  1  0.76117125  0.13674117  -0.57435983  1
  F  F8  1  -0.13674117  0.62443008  -0.57435983  1
  F  F9  1  0.62443008  0.76117125  -0.07435983  1
  F  F10  1  -0.76117125  -0.13674117  -0.07435983  1
  F  F11  1  0.13674117  -0.62443008  -0.07435983  1
  F  F12  1  0.26538588  0.28457532  0.25000000  1
  F  F13  1  0.71542468  0.98081055  0.25000000  1
  F  F14  1  0.01918945  0.73461412  0.25000000  1
  F  F15  1  0.73461412  0.71542468  0.75000000  1
  F  F16  1  0.28457532  0.01918945  0.75000000  1
  F  F17  1  0.98081055  0.26538588  0.75000000  1
  F  F18  1  0.33333333  0.66666667  0.98467178  1
  F  F19  1  0.66666667  0.33333333  0.48467178  1
  F  F20  1  0.66666667  0.33333333  0.01532822  1
  F  F21  1  0.33333333  0.66666667  0.51532822  1
  F  F22  1  0.38689948  0.62524479  0.99585575  1
  F  F23  1  0.37475521  0.76165469  0.99585575  1
  F  F24  1  0.23834531  0.61310052  0.99585575  1
  F  F25  1  0.61310052  0.37475521  0.49585575  1
  F  F26  1  0.62524479  0.23834531  0.49585575  1
  F  F27  1  0.76165469  0.38689948  0.49585575  1
  F  F28  1  0.61310052  0.37475521  0.00414425  1
  F  F29  1  0.62524479  0.23834531  0.00414425  1
  F  F30  1  0.76165469  0.38689948  0.00414425  1
  F  F31  1  0.38689948  0.62524479  0.50414425  1
  F  F32  1  0.37475521  0.76165469  0.50414425  1
  F  F33  1  0.23834531  0.61310052  0.50414425  1
  F  F34  1  0.57676564  0.68743552  0.50414291  1
  F  F35  1  0.31256448  0.88933011  0.50414291  1
  F  F36  1  0.11066989  0.42323436  0.50414291  1
  F  F37  1  0.42323436  0.31256448  0.00414291  1
  F  F38  1  0.68743552  0.11066989  0.00414291  1
  F  F39  1  0.88933011  0.57676564  0.00414291  1
  F  F40  1  0.42323436  0.31256448  0.49585709  1
  F  F41  1  0.68743552  0.11066989  0.49585709  1
  F  F42  1  0.88933011  0.57676564  0.49585709  1
  F  F43  1  0.57676564  0.68743552  0.99585709  1
  F  F44  1  0.31256448  0.88933011  0.99585709  1
  F  F45  1  0.11066989  0.42323436  0.99585709  1
  F  F46  1  0.66666667  0.33333333  0.25000000  1
  F  F47  1  0.33333333  0.66666667  0.75000000  1
  Li  Li48  1  0.39643359  0.03874679  0.25000000  1
  Li  Li49  1  0.96125321  0.35768680  0.25000000  1
  Li  Li50  1  0.64231320  0.60356641  0.25000000  1
  Li  Li51  1  0.60356641  0.96125321  0.75000000  1
  Li  Li52  1  0.03874679  0.64231320  0.75000000  1
  Li  Li53  1  0.35768680  0.39643359  0.75000000  1
  Li  Li54  1  0.33333333  0.66666667  0.25000000  1
  Li  Li55  1  0.66666667  0.33333333  0.75000000  1
  Si  Si56  1  0.94922075  0.76689212  0.25000000  1
  Si  Si57  1  0.23310788  0.18232863  0.25000000  1
  Si  Si58  1  0.81767137  0.05077925  0.25000000  1
  Si  Si59  1  0.05077925  0.23310788  0.75000000  1
  Si  Si60  1  0.76689212  0.81767137  0.75000000  1
  Si  Si61  1  0.18232863  0.94922075  0.75000000  1
  Si  Si62  1  0.67507493  0.44125657  0.25000000  1
  Si  Si63  1  0.55874343  0.23381836  0.25000000  1
  Si  Si64  1  0.76618164  0.32492507  0.25000000  1
  Si  Si65  1  0.32492507  0.55874343  0.75000000  1
  Si  Si66  1  0.44125657  0.76618164  0.75000000  1
  Si  Si67  1  0.23381836  0.67507493  0.75000000  1
  Si  Si68  1  0.00000000  0.00000000  0.25000000  1
  Si  Si69  1  0.00000000  0.00000000  0.75000000  1
  Si  Si70  1  0.00000000  0.00000000  0.00000000  1
  Si  Si71  1  0.00000000  0.00000000  0.50000000  1
  Te  Te72  1  0.44084395  0.55685809  0.09396417  1
  Te  Te73  1  0.44314191  0.88398586  0.09396417  1
  Te  Te74  1  0.11601414  0.55915605  0.09396417  1
  Te  Te75  1  0.55915605  0.44314191  0.59396417  1
  Te  Te76  1  0.55685809  0.11601414  0.59396417  1
  Te  Te77  1  0.88398586  0.44084395  0.59396417  1
  Te  Te78  1  0.55915605  0.44314191  0.90603583  1
  Te  Te79  1  0.55685809  0.11601414  0.90603583  1
  Te  Te80  1  0.88398586  0.44084395  0.90603583  1
  Te  Te81  1  0.44084395  0.55685809  0.40603583  1
  Te  Te82  1  0.44314191  0.88398586  0.40603583  1
  Te  Te83  1  0.11601414  0.55915605  0.40603583  1
