# generated using pymatgen
data_Li2Ca3F8
_symmetry_space_group_name_H-M   'P 1'
_cell_length_a   7.44314126
_cell_length_b   7.44314126
_cell_length_c   27.02736418
_cell_angle_alpha   90.00000000
_cell_angle_beta   90.00000000
_cell_angle_gamma   90.00000000
_symmetry_Int_Tables_number   1
_chemical_formula_structural   Li2Ca3F8
_chemical_formula_sum   'Li16 Ca24 F64'
_cell_volume   1497.32548260
_cell_formula_units_Z   8
loop_
 _symmetry_equiv_pos_site_id
 _symmetry_equiv_pos_as_xyz
  1  'x, y, z'
loop_
 _atom_site_type_symbol
 _atom_site_label
 _atom_site_symmetry_multiplicity
 _atom_site_fract_x
 _atom_site_fract_y
 _atom_site_fract_z
 _atom_site_occupancy
  Ca  Ca0  1  0.00000000  0.25000000  0.37500000  1
  Ca  Ca1  1  0.00000000  0.75000000  0.62500000  1
  Ca  Ca2  1  0.50000000  0.25000000  0.62500000  1
  Ca  Ca3  1  0.50000000  0.75000000  0.37500000  1
  Ca  Ca4  1  0.50000000  0.75000000  0.87500000  1
  Ca  Ca5  1  0.50000000  0.25000000  0.12500000  1
  Ca  Ca6  1  0.00000000  0.75000000  0.12500000  1
  Ca  Ca7  1  0.00000000  0.25000000  0.87500000  1
  Ca  Ca8  1  0.00000000  0.25000000  0.01389301  1
  Ca  Ca9  1  0.00000000  0.75000000  0.26389301  1
  Ca  Ca10  1  0.50000000  0.25000000  0.98610699  1
  Ca  Ca11  1  0.50000000  0.75000000  0.73610699  1
  Ca  Ca12  1  0.00000000  0.75000000  0.98610699  1
  Ca  Ca13  1  0.00000000  0.25000000  0.73610699  1
  Ca  Ca14  1  0.50000000  0.75000000  0.01389301  1
  Ca  Ca15  1  0.50000000  0.25000000  0.26389301  1
  Ca  Ca16  1  0.50000000  0.75000000  0.51389301  1
  Ca  Ca17  1  0.50000000  0.25000000  0.76389301  1
  Ca  Ca18  1  0.00000000  0.75000000  0.48610699  1
  Ca  Ca19  1  0.00000000  0.25000000  0.23610699  1
  Ca  Ca20  1  0.50000000  0.25000000  0.48610699  1
  Ca  Ca21  1  0.50000000  0.75000000  0.23610699  1
  Ca  Ca22  1  0.00000000  0.25000000  0.51389301  1
  Ca  Ca23  1  0.00000000  0.75000000  0.76389301  1
  F  F24  1  0.35011397  0.78639878  0.50512742  1
  F  F25  1  0.14988603  -0.78639878  1.00512742  1
  F  F26  1  -0.53639878  1.10011397  0.75512742  1
  F  F27  1  1.03639878  -0.10011397  1.25512742  1
  F  F28  1  0.14988603  0.78639878  -0.50512742  1
  F  F29  1  0.35011397  -0.78639878  -0.00512742  1
  F  F30  1  1.03639878  1.10011397  0.24487258  1
  F  F31  1  -0.53639878  -0.10011397  -0.25512742  1
  F  F32  1  -0.35011397  -0.78639878  -0.50512742  1
  F  F33  1  0.85011397  0.78639878  -0.00512742  1
  F  F34  1  1.53639878  -0.10011397  0.24487258  1
  F  F35  1  -0.03639878  1.10011397  -0.25512742  1
  F  F36  1  0.85011397  -0.78639878  0.50512742  1
  F  F37  1  -0.35011397  0.78639878  1.00512742  1
  F  F38  1  -0.03639878  -0.10011397  0.75512742  1
  F  F39  1  1.53639878  1.10011397  1.25512742  1
  F  F40  1  0.85011397  1.28639878  1.00512742  1
  F  F41  1  0.64988603  -0.28639878  1.50512742  1
  F  F42  1  -0.03639878  1.60011397  1.25512742  1
  F  F43  1  1.53639878  0.39988603  1.75512742  1
  F  F44  1  0.64988603  1.28639878  -0.00512742  1
  F  F45  1  0.85011397  -0.28639878  0.49487258  1
  F  F46  1  1.53639878  1.60011397  0.74487258  1
  F  F47  1  -0.03639878  0.39988603  0.24487258  1
  F  F48  1  0.14988603  -0.28639878  -0.00512742  1
  F  F49  1  1.35011397  1.28639878  0.49487258  1
  F  F50  1  2.03639878  0.39988603  0.74487258  1
  F  F51  1  0.46360122  1.60011397  0.24487258  1
  F  F52  1  1.35011397  -0.28639878  1.00512742  1
  F  F53  1  0.14988603  1.28639878  1.50512742  1
  F  F54  1  0.46360122  0.39988603  1.25512742  1
  F  F55  1  2.03639878  1.60011397  1.75512742  1
  F  F56  1  0.27566317  0.75376074  0.86001063  1
  F  F57  1  0.22433683  0.24623926  0.36001063  1
  F  F58  1  0.49623926  0.02566317  0.11001063  1
  F  F59  1  0.00376074  0.97433683  0.61001063  1
  F  F60  1  0.22433683  0.75376074  0.13998937  1
  F  F61  1  0.27566317  0.24623926  0.63998937  1
  F  F62  1  0.00376074  0.02566317  0.88998937  1
  F  F63  1  0.49623926  0.97433683  0.38998937  1
  F  F64  1  0.72433683  0.24623926  0.13998937  1
  F  F65  1  0.77566317  0.75376074  0.63998937  1
  F  F66  1  0.50376074  0.97433683  0.88998937  1
  F  F67  1  0.99623926  0.02566317  0.38998937  1
  F  F68  1  0.77566317  0.24623926  0.86001063  1
  F  F69  1  0.72433683  0.75376074  0.36001063  1
  F  F70  1  0.99623926  0.97433683  0.11001063  1
  F  F71  1  0.50376074  0.02566317  0.61001063  1
  F  F72  1  0.77566317  0.25376074  0.36001063  1
  F  F73  1  0.72433683  0.74623926  0.86001063  1
  F  F74  1  0.99623926  0.52566317  0.61001063  1
  F  F75  1  0.50376074  0.47433683  0.11001063  1
  F  F76  1  0.72433683  0.25376074  0.63998937  1
  F  F77  1  0.77566317  0.74623926  0.13998937  1
  F  F78  1  0.50376074  0.52566317  0.38998937  1
  F  F79  1  0.99623926  0.47433683  0.88998937  1
  F  F80  1  0.22433683  0.74623926  0.63998937  1
  F  F81  1  0.27566317  0.25376074  0.13998937  1
  F  F82  1  0.00376074  0.47433683  0.38998937  1
  F  F83  1  0.49623926  0.52566317  0.88998937  1
  F  F84  1  0.27566317  0.74623926  0.36001063  1
  F  F85  1  0.22433683  0.25376074  0.86001063  1
  F  F86  1  0.49623926  0.47433683  0.61001063  1
  F  F87  1  0.00376074  0.52566317  0.11001063  1
  Li  Li88  1  0.24481755  -0.00000000  0.25000000  1
  Li  Li89  1  0.25518245  -0.00000000  0.75000000  1
  Li  Li90  1  0.25000000  0.99481755  0.50000000  1
  Li  Li91  1  0.25000000  0.00518245  0.00000000  1
  Li  Li92  1  0.75518245  0.00000000  0.75000000  1
  Li  Li93  1  0.74481755  -0.00000000  0.25000000  1
  Li  Li94  1  0.75000000  0.00518245  0.50000000  1
  Li  Li95  1  0.75000000  0.99481755  0.00000000  1
  Li  Li96  1  0.74481755  0.50000000  0.75000000  1
  Li  Li97  1  0.75518245  0.50000000  0.25000000  1
  Li  Li98  1  0.75000000  0.49481755  0.00000000  1
  Li  Li99  1  0.75000000  0.50518245  0.50000000  1
  Li  Li100  1  0.25518245  0.50000000  0.25000000  1
  Li  Li101  1  0.24481755  0.50000000  0.75000000  1
  Li  Li102  1  0.25000000  0.50518245  0.00000000  1
  Li  Li103  1  0.25000000  0.49481755  0.50000000  1
