# generated using pymatgen
data_LiF
_symmetry_space_group_name_H-M   'P 1'
_cell_length_a   9.91849735
_cell_length_b   9.91849735
_cell_length_c   9.39358623
_cell_angle_alpha   90.00000000
_cell_angle_beta   90.00000000
_cell_angle_gamma   120.00000000
_symmetry_Int_Tables_number   1
_chemical_formula_structural   LiF
_chemical_formula_sum   'Li21 F21'
_cell_volume   800.30185054
_cell_formula_units_Z   21
loop_
 _symmetry_equiv_pos_site_id
 _symmetry_equiv_pos_as_xyz
  1  'x, y, z'
loop_
 _atom_site_type_symbol
 _atom_site_label
 _atom_site_symmetry_multiplicity
 _atom_site_fract_x
 _atom_site_fract_y
 _atom_site_fract_z
 _atom_site_occupancy
  F  F0  1  0.60352960  0.65161557  0.34032469  1
  F  F1  1  0.34838443  0.95191403  0.34032469  1
  F  F2  1  0.04808597  0.39647040  0.34032469  1
  F  F3  1  0.34838443  0.39647040  0.65967531  1
  F  F4  1  0.04808597  0.65161557  0.65967531  1
  F  F5  1  0.60352960  0.95191403  0.65967531  1
  F  F6  1  0.06189840  0.17995067  0.31182716  1
  F  F7  1  0.82004933  0.88194774  0.31182716  1
  F  F8  1  0.11805226  0.93810160  0.31182716  1
  F  F9  1  0.82004933  0.93810160  0.68817284  1
  F  F10  1  0.11805226  0.17995067  0.68817284  1
  F  F11  1  0.06189840  0.88194774  0.68817284  1
  F  F12  1  0.71660958  0.07818783  0.95739013  1
  F  F13  1  0.92181217  0.63842175  0.95739013  1
  F  F14  1  0.36157825  0.28339042  0.95739013  1
  F  F15  1  0.92181217  0.28339042  0.04260987  1
  F  F16  1  0.36157825  0.07818783  0.04260987  1
  F  F17  1  0.71660958  0.63842175  0.04260987  1
  F  F18  1  0.66666667  0.33333333  -0.00000000  1
  F  F19  1  0.00000000  0.00000000  0.27867570  1
  F  F20  1  0.00000000  0.00000000  0.72132430  1
  Li  Li21  1  0.53628961  0.46371039  0.00000000  1
  Li  Li22  1  0.53628961  0.07257923  0.00000000  1
  Li  Li23  1  0.92742077  0.46371039  0.00000000  1
  Li  Li24  1  0.00000000  0.00000000  0.60199328  1
  Li  Li25  1  0.00000000  0.00000000  0.39800672  1
  Li  Li26  1  0.69101205  0.52757527  0.10950524  1
  Li  Li27  1  -0.52757527  0.16343678  0.10950524  1
  Li  Li28  1  -0.16343678  -0.69101205  0.10950524  1
  Li  Li29  1  -0.52757527  -0.69101205  -0.10950524  1
  Li  Li30  1  -0.16343678  0.52757527  -0.10950524  1
  Li  Li31  1  0.69101205  0.16343678  -0.10950524  1
  Li  Li32  1  0.00000000  0.00000000  0.00000000  1
  Li  Li33  1  0.16555770  0.83444230  0.50000000  1
  Li  Li34  1  0.16555770  0.33111540  0.50000000  1
  Li  Li35  1  0.66888460  0.83444230  0.50000000  1
  Li  Li36  1  0.41825678  0.59570131  0.37723054  1
  Li  Li37  1  0.40429869  0.82255547  0.37723054  1
  Li  Li38  1  0.17744453  0.58174322  0.37723054  1
  Li  Li39  1  0.40429869  0.58174322  0.62276946  1
  Li  Li40  1  0.17744453  0.59570131  0.62276946  1
  Li  Li41  1  0.41825678  0.82255547  0.62276946  1
