# generated using pymatgen
data_Li2TiI
_symmetry_space_group_name_H-M   'P 1'
_cell_length_a   3.25452913
_cell_length_b   3.03225149
_cell_length_c   6.31119462
_cell_angle_alpha   106.95786843
_cell_angle_beta   109.92415833
_cell_angle_gamma   111.52436637
_symmetry_Int_Tables_number   1
_chemical_formula_structural   Li2TiI
_chemical_formula_sum   'Li2 Ti1 I1'
_cell_volume   47.89077145
_cell_formula_units_Z   1
loop_
 _symmetry_equiv_pos_site_id
 _symmetry_equiv_pos_as_xyz
  1  'x, y, z'
loop_
 _atom_site_type_symbol
 _atom_site_label
 _atom_site_symmetry_multiplicity
 _atom_site_fract_x
 _atom_site_fract_y
 _atom_site_fract_z
 _atom_site_occupancy
  Li  Li0  1  0.12500000  0.12500000  0.12500000  1
  Li  Li1  1  0.50000000  0.50000000  0.50000000  1
  Ti  Ti2  1  0.25000000  0.25000000  0.25000000  1
  I  I3  1  0.75000000  0.75000000  0.75000000  1
