# generated using pymatgen
data_LiF
_symmetry_space_group_name_H-M   'P 1'
_cell_length_a   6.93760481
_cell_length_b   6.93760481
_cell_length_c   22.27904050
_cell_angle_alpha   90.00000000
_cell_angle_beta   90.00000000
_cell_angle_gamma   120.00000000
_symmetry_Int_Tables_number   1
_chemical_formula_structural   LiF
_chemical_formula_sum   'Li42 F42'
_cell_volume   928.63752503
_cell_formula_units_Z   42
loop_
 _symmetry_equiv_pos_site_id
 _symmetry_equiv_pos_as_xyz
  1  'x, y, z'
loop_
 _atom_site_type_symbol
 _atom_site_label
 _atom_site_symmetry_multiplicity
 _atom_site_fract_x
 _atom_site_fract_y
 _atom_site_fract_z
 _atom_site_occupancy
  F  F0  1  0.66666667  0.33333333  0.25000000  1
  F  F1  1  0.33333333  0.66666667  0.75000000  1
  F  F2  1  0.00000000  0.00000000  0.00000000  1
  F  F3  1  0.00000000  0.00000000  0.50000000  1
  F  F4  1  0.33333333  0.66666667  0.25000000  1
  F  F5  1  0.66666667  0.33333333  0.75000000  1
  F  F6  1  0.99809112  0.74301014  0.06380799  1
  F  F7  1  0.25698986  0.25508098  0.06380799  1
  F  F8  1  0.74491902  0.00190888  0.06380799  1
  F  F9  1  0.00190888  0.25698986  0.56380799  1
  F  F10  1  0.74301014  0.74491902  0.56380799  1
  F  F11  1  0.25508098  0.99809112  0.56380799  1
  F  F12  1  0.00190888  0.25698986  0.93619201  1
  F  F13  1  0.74301014  0.74491902  0.93619201  1
  F  F14  1  0.25508098  0.99809112  0.93619201  1
  F  F15  1  0.99809112  0.74301014  0.43619201  1
  F  F16  1  0.25698986  0.25508098  0.43619201  1
  F  F17  1  0.74491902  0.00190888  0.43619201  1
  F  F18  1  0.32385553  0.75548793  0.57898714  1
  F  F19  1  0.24451207  0.56836760  0.57898714  1
  F  F20  1  0.43163240  0.67614447  0.57898714  1
  F  F21  1  0.67614447  0.24451207  0.07898714  1
  F  F22  1  0.75548793  0.43163240  0.07898714  1
  F  F23  1  0.56836760  0.32385553  0.07898714  1
  F  F24  1  0.67614447  0.24451207  0.42101286  1
  F  F25  1  0.75548793  0.43163240  0.42101286  1
  F  F26  1  0.56836760  0.32385553  0.42101286  1
  F  F27  1  0.32385553  0.75548793  0.92101286  1
  F  F28  1  0.24451207  0.56836760  0.92101286  1
  F  F29  1  0.43163240  0.67614447  0.92101286  1
  F  F30  1  0.88342022  0.65802948  0.64393728  1
  F  F31  1  0.34197052  0.22539074  0.64393728  1
  F  F32  1  0.77460926  0.11657978  0.64393728  1
  F  F33  1  0.11657978  0.34197052  0.14393728  1
  F  F34  1  0.65802948  0.77460926  0.14393728  1
  F  F35  1  0.22539074  0.88342022  0.14393728  1
  F  F36  1  0.11657978  0.34197052  0.35606272  1
  F  F37  1  0.65802948  0.77460926  0.35606272  1
  F  F38  1  0.22539074  0.88342022  0.35606272  1
  F  F39  1  0.88342022  0.65802948  0.85606272  1
  F  F40  1  0.34197052  0.22539074  0.85606272  1
  F  F41  1  0.77460926  0.11657978  0.85606272  1
  Li  Li42  1  0.89627595  0.05798625  0.36314352  1
  Li  Li43  1  -0.05798625  0.83828969  0.36314352  1
  Li  Li44  1  -0.83828969  -0.89627595  0.36314352  1
  Li  Li45  1  -0.89627595  -0.05798625  0.86314352  1
  Li  Li46  1  0.05798625  -0.83828969  0.86314352  1
  Li  Li47  1  0.83828969  0.89627595  0.86314352  1
  Li  Li48  1  -0.89627595  -0.05798625  -0.36314352  1
  Li  Li49  1  0.05798625  -0.83828969  -0.36314352  1
  Li  Li50  1  0.83828969  0.89627595  -0.36314352  1
  Li  Li51  1  0.89627595  0.05798625  0.13685648  1
  Li  Li52  1  -0.05798625  0.83828969  0.13685648  1
  Li  Li53  1  -0.83828969  -0.89627595  0.13685648  1
  Li  Li54  1  0.90368121  0.27731562  0.59145129  1
  Li  Li55  1  0.72268438  0.62636559  0.59145129  1
  Li  Li56  1  0.37363441  0.09631879  0.59145129  1
  Li  Li57  1  0.09631879  0.72268438  0.09145129  1
  Li  Li58  1  0.27731562  0.37363441  0.09145129  1
  Li  Li59  1  0.62636559  0.90368121  0.09145129  1
  Li  Li60  1  0.09631879  0.72268438  0.40854871  1
  Li  Li61  1  0.27731562  0.37363441  0.40854871  1
  Li  Li62  1  0.62636559  0.90368121  0.40854871  1
  Li  Li63  1  0.90368121  0.27731562  0.90854871  1
  Li  Li64  1  0.72268438  0.62636559  0.90854871  1
  Li  Li65  1  0.37363441  0.09631879  0.90854871  1
  Li  Li66  1  0.49504412  0.51604671  0.68758154  1
  Li  Li67  1  0.48395329  0.97899740  0.68758154  1
  Li  Li68  1  0.02100260  0.50495588  0.68758154  1
  Li  Li69  1  0.50495588  0.48395329  0.18758154  1
  Li  Li70  1  0.51604671  0.02100260  0.18758154  1
  Li  Li71  1  0.97899740  0.49504412  0.18758154  1
  Li  Li72  1  0.50495588  0.48395329  0.31241846  1
  Li  Li73  1  0.51604671  0.02100260  0.31241846  1
  Li  Li74  1  0.97899740  0.49504412  0.31241846  1
  Li  Li75  1  0.49504412  0.51604671  0.81241846  1
  Li  Li76  1  0.48395329  0.97899740  0.81241846  1
  Li  Li77  1  0.02100260  0.50495588  0.81241846  1
  Li  Li78  1  0.09806823  0.32670783  0.25000000  1
  Li  Li79  1  0.67329217  0.77136041  0.25000000  1
  Li  Li80  1  0.22863959  0.90193177  0.25000000  1
  Li  Li81  1  0.90193177  0.67329217  0.75000000  1
  Li  Li82  1  0.32670783  0.22863959  0.75000000  1
  Li  Li83  1  0.77136041  0.09806823  0.75000000  1
