# generated using pymatgen
data_Li2TiF
_symmetry_space_group_name_H-M   'P 1'
_cell_length_a   7.83060810
_cell_length_b   7.09802876
_cell_length_c   8.88630696
_cell_angle_alpha   90.00000000
_cell_angle_beta   90.00000000
_cell_angle_gamma   90.00000000
_symmetry_Int_Tables_number   1
_chemical_formula_structural   Li2TiF
_chemical_formula_sum   'Li4 Ti2 F2'
_cell_volume   493.91766003
_cell_formula_units_Z   2
loop_
 _symmetry_equiv_pos_site_id
 _symmetry_equiv_pos_as_xyz
  1  'x, y, z'
loop_
 _atom_site_type_symbol
 _atom_site_label
 _atom_site_symmetry_multiplicity
 _atom_site_fract_x
 _atom_site_fract_y
 _atom_site_fract_z
 _atom_site_occupancy
  F  F0  1  0.00000000  0.00000000  0.00000000  1
  F  F1  1  0.50000000  0.50000000  0.50000000  1
  Ti  Ti2  1  0.50000000  0.50000000  0.00000000  1
  Ti  Ti3  1  0.50000000  0.00000000  0.50000000  1
  Li  Li4  1  0.00000000  0.50000000  0.50000000  1
  Li  Li5  1  0.01291499  0.12501662  0.24073469  1
  Li  Li6  1  0.45813729  0.27041983  0.79857949  1
  Li  Li7  1  0.91507718  0.82023271  0.39536585  1
