# generated using pymatgen
data_LiY2Cu3P2
_symmetry_space_group_name_H-M   'P 1'
_cell_length_a   4.85173582
_cell_length_b   5.00969459
_cell_length_c   7.05028542
_cell_angle_alpha   95.09303867
_cell_angle_beta   100.91502063
_cell_angle_gamma   110.17982126
_symmetry_Int_Tables_number   1
_chemical_formula_structural   LiY2Cu3P2
_chemical_formula_sum   'Li1 Y2 Cu3 P2'
_cell_volume   155.71015743
_cell_formula_units_Z   1
loop_
 _symmetry_equiv_pos_site_id
 _symmetry_equiv_pos_as_xyz
  1  'x, y, z'
loop_
 _atom_site_type_symbol
 _atom_site_label
 _atom_site_symmetry_multiplicity
 _atom_site_fract_x
 _atom_site_fract_y
 _atom_site_fract_z
 _atom_site_occupancy
  Cu  Cu0  1  0.00000000  0.00000000  0.00000000  1
  Cu  Cu1  1  0.50000000  0.50000000  0.50000000  1
  Cu  Cu2  1  0.50000000  0.50000000  0.00000000  1
  Y  Y3  1  0.50000000  0.00000000  0.50000000  1
  Y  Y4  1  0.00000000  0.50000000  0.50000000  1
  P  P5  1  0.98573284  0.05747644  0.91113950  1
  P  P6  1  0.82043713  0.51641949  0.43197262  1
  Li  Li7  1  0.13455745  0.83672308  0.64800234  1
