# generated using pymatgen
data_Li2Ca3F8
_symmetry_space_group_name_H-M   'P 1'
_cell_length_a   12.38671417
_cell_length_b   12.38671417
_cell_length_c   13.96710097
_cell_angle_alpha   90.00000000
_cell_angle_beta   90.00000000
_cell_angle_gamma   120.00000000
_symmetry_Int_Tables_number   1
_chemical_formula_structural   Li2Ca3F8
_chemical_formula_sum   'Li16 Ca24 F64'
_cell_volume   1855.87677509
_cell_formula_units_Z   8
loop_
 _symmetry_equiv_pos_site_id
 _symmetry_equiv_pos_as_xyz
  1  'x, y, z'
loop_
 _atom_site_type_symbol
 _atom_site_label
 _atom_site_symmetry_multiplicity
 _atom_site_fract_x
 _atom_site_fract_y
 _atom_site_fract_z
 _atom_site_occupancy
  Ca  Ca0  1  0.33333333  0.66666667  0.19110172  1
  Ca  Ca1  1  0.33333333  0.66666667  0.80889828  1
  Ca  Ca2  1  0.66666667  0.33333333  0.80889828  1
  Ca  Ca3  1  0.66666667  0.33333333  0.19110172  1
  Ca  Ca4  1  0.29140758  0.39230261  0.50000000  1
  Ca  Ca5  1  0.60769739  0.89910497  0.50000000  1
  Ca  Ca6  1  0.10089503  0.70859242  0.50000000  1
  Ca  Ca7  1  0.39230261  0.29140758  0.50000000  1
  Ca  Ca8  1  0.89910497  0.60769739  0.50000000  1
  Ca  Ca9  1  0.70859242  0.10089503  0.50000000  1
  Ca  Ca10  1  0.50339918  0.00000000  0.39883273  1
  Ca  Ca11  1  0.00000000  0.50339918  0.39883273  1
  Ca  Ca12  1  0.49660082  0.49660082  0.39883273  1
  Ca  Ca13  1  0.50339918  0.00000000  0.60116727  1
  Ca  Ca14  1  0.00000000  0.50339918  0.60116727  1
  Ca  Ca15  1  0.49660082  0.49660082  0.60116727  1
  Ca  Ca16  1  0.12046490  0.00000000  -0.00000000  1
  Ca  Ca17  1  0.00000000  0.12046490  0.00000000  1
  Ca  Ca18  1  0.87953510  0.87953510  0.00000000  1
  Ca  Ca19  1  0.30501106  0.00000000  0.00000000  1
  Ca  Ca20  1  0.00000000  0.30501106  0.00000000  1
  Ca  Ca21  1  0.69498894  0.69498894  -0.00000000  1
  Ca  Ca22  1  0.33333333  0.66666667  0.50000000  1
  Ca  Ca23  1  0.66666667  0.33333333  0.50000000  1
  F  F24  1  0.18017399  0.00000000  0.10952270  1
  F  F25  1  0.00000000  0.18017399  0.10952270  1
  F  F26  1  0.81982601  0.81982601  0.10952270  1
  F  F27  1  0.18017399  0.00000000  0.89047730  1
  F  F28  1  0.00000000  0.18017399  0.89047730  1
  F  F29  1  0.81982601  0.81982601  0.89047730  1
  F  F30  1  0.76961904  0.43880871  0.54819917  1
  F  F31  1  -0.43880871  0.33081034  0.54819917  1
  F  F32  1  -0.33081034  -0.76961904  0.54819917  1
  F  F33  1  0.76961904  0.43880871  -0.54819917  1
  F  F34  1  -0.43880871  0.33081034  -0.54819917  1
  F  F35  1  -0.33081034  -0.76961904  -0.54819917  1
  F  F36  1  0.43880871  0.76961904  -0.54819917  1
  F  F37  1  0.33081034  -0.43880871  -0.54819917  1
  F  F38  1  -0.76961904  -0.33081034  -0.54819917  1
  F  F39  1  0.43880871  0.76961904  0.54819917  1
  F  F40  1  0.33081034  -0.43880871  0.54819917  1
  F  F41  1  -0.76961904  -0.33081034  0.54819917  1
  F  F42  1  0.00000000  0.00000000  0.63858091  1
  F  F43  1  0.00000000  0.00000000  0.36141909  1
  F  F44  1  0.00000000  0.00000000  0.50000000  1
  F  F45  1  0.96868394  0.80841434  0.38794170  1
  F  F46  1  0.19158566  0.16026961  0.38794170  1
  F  F47  1  0.83973039  0.03131606  0.38794170  1
  F  F48  1  0.96868394  0.80841434  0.61205830  1
  F  F49  1  0.19158566  0.16026961  0.61205830  1
  F  F50  1  0.83973039  0.03131606  0.61205830  1
  F  F51  1  0.80841434  0.96868394  0.61205830  1
  F  F52  1  0.16026961  0.19158566  0.61205830  1
  F  F53  1  0.03131606  0.83973039  0.61205830  1
  F  F54  1  0.80841434  0.96868394  0.38794170  1
  F  F55  1  0.16026961  0.19158566  0.38794170  1
  F  F56  1  0.03131606  0.83973039  0.38794170  1
  F  F57  1  0.67334301  0.47779180  0.04202714  1
  F  F58  1  0.52220820  0.19555121  0.04202714  1
  F  F59  1  0.80444879  0.32665699  0.04202714  1
  F  F60  1  0.67334301  0.47779180  0.95797286  1
  F  F61  1  0.52220820  0.19555121  0.95797286  1
  F  F62  1  0.80444879  0.32665699  0.95797286  1
  F  F63  1  0.47779180  0.67334301  0.95797286  1
  F  F64  1  0.19555121  0.52220820  0.95797286  1
  F  F65  1  0.32665699  0.80444879  0.95797286  1
  F  F66  1  0.47779180  0.67334301  0.04202714  1
  F  F67  1  0.19555121  0.52220820  0.04202714  1
  F  F68  1  0.32665699  0.80444879  0.04202714  1
  F  F69  1  0.80859478  0.00000000  -0.00000000  1
  F  F70  1  0.00000000  0.80859478  -0.00000000  1
  F  F71  1  0.19140522  0.19140522  -0.00000000  1
  F  F72  1  0.68674766  0.60362188  0.11143130  1
  F  F73  1  0.39637812  0.08312578  0.11143130  1
  F  F74  1  0.91687422  0.31325234  0.11143130  1
  F  F75  1  0.68674766  0.60362188  0.88856870  1
  F  F76  1  0.39637812  0.08312578  0.88856870  1
  F  F77  1  0.91687422  0.31325234  0.88856870  1
  F  F78  1  0.60362188  0.68674766  0.88856870  1
  F  F79  1  0.08312578  0.39637812  0.88856870  1
  F  F80  1  0.31325234  0.91687422  0.88856870  1
  F  F81  1  0.60362188  0.68674766  0.11143130  1
  F  F82  1  0.08312578  0.39637812  0.11143130  1
  F  F83  1  0.31325234  0.91687422  0.11143130  1
  F  F84  1  0.00000000  0.00000000  0.00000000  1
  F  F85  1  0.60882293  0.00000000  0.50000000  1
  F  F86  1  0.00000000  0.60882293  0.50000000  1
  F  F87  1  0.39117707  0.39117707  0.50000000  1
  Li  Li88  1  0.09044082  0.63639293  0.06902203  1
  Li  Li89  1  0.36360707  0.45404789  0.06902203  1
  Li  Li90  1  0.54595211  0.90955918  0.06902203  1
  Li  Li91  1  0.09044082  0.63639293  0.93097797  1
  Li  Li92  1  0.36360707  0.45404789  0.93097797  1
  Li  Li93  1  0.54595211  0.90955918  0.93097797  1
  Li  Li94  1  0.63639293  0.09044082  0.93097797  1
  Li  Li95  1  0.45404789  0.36360707  0.93097797  1
  Li  Li96  1  0.90955918  0.54595211  0.93097797  1
  Li  Li97  1  0.63639293  0.09044082  0.06902203  1
  Li  Li98  1  0.45404789  0.36360707  0.06902203  1
  Li  Li99  1  0.90955918  0.54595211  0.06902203  1
  Li  Li100  1  0.33333333  0.66666667  0.05924908  1
  Li  Li101  1  0.33333333  0.66666667  0.94075092  1
  Li  Li102  1  0.66666667  0.33333333  0.94075092  1
  Li  Li103  1  0.66666667  0.33333333  0.05924908  1
