# generated using pymatgen
data_Li2ScF
_symmetry_space_group_name_H-M   'P 1'
_cell_length_a   3.14179167
_cell_length_b   3.05512082
_cell_length_c   5.75754936
_cell_angle_alpha   107.45376220
_cell_angle_beta   106.05785027
_cell_angle_gamma   109.98912797
_symmetry_Int_Tables_number   1
_chemical_formula_structural   Li2ScF
_chemical_formula_sum   'Li2 Sc1 F1'
_cell_volume   44.89507100
_cell_formula_units_Z   1
loop_
 _symmetry_equiv_pos_site_id
 _symmetry_equiv_pos_as_xyz
  1  'x, y, z'
loop_
 _atom_site_type_symbol
 _atom_site_label
 _atom_site_symmetry_multiplicity
 _atom_site_fract_x
 _atom_site_fract_y
 _atom_site_fract_z
 _atom_site_occupancy
  F  F0  1  0.12500000  0.00000000  0.25000000  1
  Li  Li1  1  0.00000000  0.00000000  0.00000000  1
  Li  Li2  1  0.37500000  0.00000000  0.25000000  1
  Sc  Sc3  1  0.25000000  0.25000000  0.25000000  1
