# generated using pymatgen
data_Li2Y2Cu3P2Se
_symmetry_space_group_name_H-M   'P 1'
_cell_length_a   5.18830512
_cell_length_b   5.53343778
_cell_length_c   7.00118322
_cell_angle_alpha   94.33226873
_cell_angle_beta   98.41254894
_cell_angle_gamma   104.94036053
_symmetry_Int_Tables_number   1
_chemical_formula_structural   Li2Y2Cu3P2Se
_chemical_formula_sum   'Li2 Y2 Cu3 P2 Se1'
_cell_volume   190.76021537
_cell_formula_units_Z   1
loop_
 _symmetry_equiv_pos_site_id
 _symmetry_equiv_pos_as_xyz
  1  'x, y, z'
loop_
 _atom_site_type_symbol
 _atom_site_label
 _atom_site_symmetry_multiplicity
 _atom_site_fract_x
 _atom_site_fract_y
 _atom_site_fract_z
 _atom_site_occupancy
  Se  Se0  1  0.00000000  0.00000000  0.00000000  1
  Cu  Cu1  1  0.50000000  0.50000000  0.50000000  1
  Cu  Cu2  1  0.50000000  0.50000000  0.00000000  1
  Cu  Cu3  1  0.50000000  0.00000000  0.50000000  1
  Y  Y4  1  0.00000000  0.50000000  0.50000000  1
  Y  Y5  1  0.35159660  0.50447811  0.29741244  1
  P  P6  1  0.34528420  0.32911106  0.50442465  1
  P  P7  1  0.02102598  0.82825085  0.41248146  1
  Li  Li8  1  0.83915300  0.13987020  0.01849440  1
  Li  Li9  1  0.24012610  0.00390266  0.14579419  1
