# generated using pymatgen
data_LiF
_symmetry_space_group_name_H-M   'P 1'
_cell_length_a   10.85968825
_cell_length_b   10.85968825
_cell_length_c   10.24136239
_cell_angle_alpha   90.00000000
_cell_angle_beta   90.00000000
_cell_angle_gamma   120.00000000
_symmetry_Int_Tables_number   1
_chemical_formula_structural   LiF
_chemical_formula_sum   'Li28 F28'
_cell_volume   1045.97927930
_cell_formula_units_Z   28
loop_
 _symmetry_equiv_pos_site_id
 _symmetry_equiv_pos_as_xyz
  1  'x, y, z'
loop_
 _atom_site_type_symbol
 _atom_site_label
 _atom_site_symmetry_multiplicity
 _atom_site_fract_x
 _atom_site_fract_y
 _atom_site_fract_z
 _atom_site_occupancy
  F  F0  1  0.33333333  0.66666667  0.50000000  1
  F  F1  1  0.15060408  0.68363482  0.58894718  1
  F  F2  1  0.31636518  0.46696926  0.58894718  1
  F  F3  1  0.53303074  0.84939592  0.58894718  1
  F  F4  1  0.31636518  0.84939592  0.41105282  1
  F  F5  1  0.53303074  0.68363482  0.41105282  1
  F  F6  1  0.15060408  0.46696926  0.41105282  1
  F  F7  1  0.00000000  0.00000000  0.02852201  1
  F  F8  1  0.00000000  0.00000000  0.97147799  1
  F  F9  1  0.76769992  0.75115875  0.74607745  1
  F  F10  1  0.24884125  0.01654117  0.74607745  1
  F  F11  1  0.98345883  0.23230008  0.74607745  1
  F  F12  1  0.24884125  0.23230008  0.25392255  1
  F  F13  1  0.98345883  0.75115875  0.25392255  1
  F  F14  1  0.76769992  0.01654117  0.25392255  1
  F  F15  1  0.16133674  0.68545974  0.83179626  1
  F  F16  1  0.31454026  0.47587700  0.83179626  1
  F  F17  1  0.52412300  0.83866326  0.83179626  1
  F  F18  1  0.31454026  0.83866326  0.16820374  1
  F  F19  1  0.52412300  0.68545974  0.16820374  1
  F  F20  1  0.16133674  0.47587700  0.16820374  1
  F  F21  1  0.33333333  0.66666667  0.22230498  1
  F  F22  1  0.33333333  0.66666667  0.77769502  1
  F  F23  1  0.56141168  0.43858832  0.00000000  1
  F  F24  1  0.56141168  0.12282337  0.00000000  1
  F  F25  1  0.87717663  0.43858832  0.00000000  1
  F  F26  1  0.66666667  0.33333333  0.79257293  1
  F  F27  1  0.66666667  0.33333333  0.20742707  1
  Li  Li28  1  0.68546040  0.12966311  0.69515785  1
  Li  Li29  1  -0.12966311  0.55579729  0.69515785  1
  Li  Li30  1  -0.55579729  -0.68546040  0.69515785  1
  Li  Li31  1  -0.12966311  -0.68546040  -0.69515785  1
  Li  Li32  1  -0.55579729  0.12966311  -0.69515785  1
  Li  Li33  1  0.68546040  0.55579729  -0.69515785  1
  Li  Li34  1  0.67988220  0.22466114  0.90733173  1
  Li  Li35  1  0.77533886  0.45522106  0.90733173  1
  Li  Li36  1  0.54477894  0.32011780  0.90733173  1
  Li  Li37  1  0.77533886  0.32011780  0.09266827  1
  Li  Li38  1  0.54477894  0.22466114  0.09266827  1
  Li  Li39  1  0.67988220  0.45522106  0.09266827  1
  Li  Li40  1  0.27921037  0.03738374  0.01768309  1
  Li  Li41  1  0.96261626  0.24182662  0.01768309  1
  Li  Li42  1  0.75817338  0.72078963  0.01768309  1
  Li  Li43  1  0.96261626  0.72078963  0.98231691  1
  Li  Li44  1  0.75817338  0.03738374  0.98231691  1
  Li  Li45  1  0.27921037  0.24182662  0.98231691  1
  Li  Li46  1  0.20595556  0.08231849  0.58209768  1
  Li  Li47  1  0.91768151  0.12363706  0.58209768  1
  Li  Li48  1  0.87636294  0.79404444  0.58209768  1
  Li  Li49  1  0.91768151  0.79404444  0.41790232  1
  Li  Li50  1  0.87636294  0.08231849  0.41790232  1
  Li  Li51  1  0.20595556  0.12363706  0.41790232  1
  Li  Li52  1  0.05198226  0.94801774  0.00000000  1
  Li  Li53  1  0.05198226  0.10396453  0.00000000  1
  Li  Li54  1  0.89603547  0.94801774  0.00000000  1
  Li  Li55  1  0.33333333  0.66666667  0.00000000  1
