# generated using pymatgen
data_Li2Y2MoP3
_symmetry_space_group_name_H-M   'P 1'
_cell_length_a   4.98161126
_cell_length_b   5.29811171
_cell_length_c   7.15452379
_cell_angle_alpha   94.80991554
_cell_angle_beta   100.47499608
_cell_angle_gamma   109.31951905
_symmetry_Int_Tables_number   1
_chemical_formula_structural   Li2Y2MoP3
_chemical_formula_sum   'Li2 Y2 Mo1 P3'
_cell_volume   173.10458606
_cell_formula_units_Z   1
loop_
 _symmetry_equiv_pos_site_id
 _symmetry_equiv_pos_as_xyz
  1  'x, y, z'
loop_
 _atom_site_type_symbol
 _atom_site_label
 _atom_site_symmetry_multiplicity
 _atom_site_fract_x
 _atom_site_fract_y
 _atom_site_fract_z
 _atom_site_occupancy
  Y  Y0  1  0.00000000  0.00000000  0.00000000  1
  Y  Y1  1  0.50000000  0.50000000  0.50000000  1
  P  P2  1  0.50000000  0.50000000  0.00000000  1
  P  P3  1  0.50000000  0.00000000  0.50000000  1
  P  P4  1  0.00000000  0.50000000  0.50000000  1
  Mo  Mo5  1  0.17432560  0.63441389  0.22255549  1
  Li  Li6  1  0.62671650  0.29906832  0.02774349  1
  Li  Li7  1  0.44735527  0.16878479  0.94945587  1
