# generated using pymatgen
data_LiF
_symmetry_space_group_name_H-M   'P 1'
_cell_length_a   8.05544789
_cell_length_b   8.05544789
_cell_length_c   11.71628629
_cell_angle_alpha   90.00000000
_cell_angle_beta   90.00000000
_cell_angle_gamma   120.00000000
_symmetry_Int_Tables_number   1
_chemical_formula_structural   LiF
_chemical_formula_sum   'Li28 F28'
_cell_volume   658.41541780
_cell_formula_units_Z   28
loop_
 _symmetry_equiv_pos_site_id
 _symmetry_equiv_pos_as_xyz
  1  'x, y, z'
loop_
 _atom_site_type_symbol
 _atom_site_label
 _atom_site_symmetry_multiplicity
 _atom_site_fract_x
 _atom_site_fract_y
 _atom_site_fract_z
 _atom_site_occupancy
  F  F0  1  0.42036765  0.80218902  0.13667332  1
  F  F1  1  0.19781098  0.61817862  0.13667332  1
  F  F2  1  0.38182138  0.57963235  0.13667332  1
  F  F3  1  0.19781098  0.57963235  0.86332668  1
  F  F4  1  0.38182138  0.80218902  0.86332668  1
  F  F5  1  0.42036765  0.61817862  0.86332668  1
  F  F6  1  0.74172120  0.38483577  0.07688566  1
  F  F7  1  0.61516423  0.35688544  0.07688566  1
  F  F8  1  0.64311456  0.25827880  0.07688566  1
  F  F9  1  0.61516423  0.25827880  0.92311434  1
  F  F10  1  0.64311456  0.38483577  0.92311434  1
  F  F11  1  0.74172120  0.35688544  0.92311434  1
  F  F12  1  0.81572837  0.05164773  0.32568944  1
  F  F13  1  0.94835227  0.76408063  0.32568944  1
  F  F14  1  0.23591937  0.18427163  0.32568944  1
  F  F15  1  0.94835227  0.18427163  0.67431056  1
  F  F16  1  0.23591937  0.05164773  0.67431056  1
  F  F17  1  0.81572837  0.76408063  0.67431056  1
  F  F18  1  0.80510920  0.75162257  0.90671467  1
  F  F19  1  0.24837743  0.05348662  0.90671467  1
  F  F20  1  0.94651338  0.19489080  0.90671467  1
  F  F21  1  0.24837743  0.19489080  0.09328533  1
  F  F22  1  0.94651338  0.75162257  0.09328533  1
  F  F23  1  0.80510920  0.05348662  0.09328533  1
  F  F24  1  0.66666667  0.33333333  0.00000000  1
  F  F25  1  0.73672636  0.26327364  0.50000000  1
  F  F26  1  0.73672636  0.47345272  0.50000000  1
  F  F27  1  0.52654728  0.26327364  0.50000000  1
  Li  Li28  1  0.00000000  0.00000000  0.50000000  1
  Li  Li29  1  0.33333333  0.66666667  0.00000000  1
  Li  Li30  1  0.39655226  0.98277506  0.11515657  1
  Li  Li31  1  -0.98277506  -0.58622280  0.11515657  1
  Li  Li32  1  0.58622280  -0.39655226  0.11515657  1
  Li  Li33  1  -0.98277506  -0.39655226  -0.11515657  1
  Li  Li34  1  0.58622280  0.98277506  -0.11515657  1
  Li  Li35  1  0.39655226  -0.58622280  -0.11515657  1
  Li  Li36  1  0.44580724  0.35717579  0.04561891  1
  Li  Li37  1  0.64282421  0.08863145  0.04561891  1
  Li  Li38  1  0.91136855  0.55419276  0.04561891  1
  Li  Li39  1  0.64282421  0.55419276  0.95438109  1
  Li  Li40  1  0.91136855  0.35717579  0.95438109  1
  Li  Li41  1  0.44580724  0.08863145  0.95438109  1
  Li  Li42  1  0.70427082  0.52076009  0.21294388  1
  Li  Li43  1  0.47923991  0.18351073  0.21294388  1
  Li  Li44  1  0.81648927  0.29572918  0.21294388  1
  Li  Li45  1  0.47923991  0.29572918  0.78705612  1
  Li  Li46  1  0.81648927  0.52076009  0.78705612  1
  Li  Li47  1  0.70427082  0.18351073  0.78705612  1
  Li  Li48  1  0.33333333  0.66666667  0.50000000  1
  Li  Li49  1  0.22013153  0.59815450  0.39343395  1
  Li  Li50  1  0.40184550  0.62197703  0.39343395  1
  Li  Li51  1  0.37802297  0.77986847  0.39343395  1
  Li  Li52  1  0.40184550  0.77986847  0.60656605  1
  Li  Li53  1  0.37802297  0.59815450  0.60656605  1
  Li  Li54  1  0.22013153  0.62197703  0.60656605  1
  Li  Li55  1  0.00000000  0.00000000  0.00000000  1
