# generated using pymatgen
data_LiF
_symmetry_space_group_name_H-M   'P 1'
_cell_length_a   7.17987330
_cell_length_b   8.97810385
_cell_length_c   8.85558871
_cell_angle_alpha   90.00000000
_cell_angle_beta   90.00000000
_cell_angle_gamma   90.00000000
_symmetry_Int_Tables_number   1
_chemical_formula_structural   LiF
_chemical_formula_sum   'Li24 F24'
_cell_volume   570.84584335
_cell_formula_units_Z   24
loop_
 _symmetry_equiv_pos_site_id
 _symmetry_equiv_pos_as_xyz
  1  'x, y, z'
loop_
 _atom_site_type_symbol
 _atom_site_label
 _atom_site_symmetry_multiplicity
 _atom_site_fract_x
 _atom_site_fract_y
 _atom_site_fract_z
 _atom_site_occupancy
  F  F0  1  0.29144165  0.25000000  0.57209195  1
  F  F1  1  0.20855835  0.75000000  0.07209195  1
  F  F2  1  0.70855835  0.75000000  0.42790805  1
  F  F3  1  0.79144165  0.25000000  0.92790805  1
  F  F4  1  0.18765907  0.25000000  0.93794742  1
  F  F5  1  0.31234093  0.75000000  0.43794742  1
  F  F6  1  0.81234093  0.75000000  0.06205258  1
  F  F7  1  0.68765907  0.25000000  0.56205258  1
  F  F8  1  0.18392435  0.67278391  0.10566464  1
  F  F9  1  0.31607565  0.32721609  0.60566464  1
  F  F10  1  0.81607565  0.17278391  0.89433536  1
  F  F11  1  0.68392435  0.82721609  0.39433536  1
  F  F12  1  0.81607565  0.32721609  0.89433536  1
  F  F13  1  0.68392435  0.67278391  0.39433536  1
  F  F14  1  0.18392435  0.82721609  0.10566464  1
  F  F15  1  0.31607565  0.17278391  0.60566464  1
  F  F16  1  0.49781508  0.96213999  0.12494793  1
  F  F17  1  0.00218492  0.03786001  0.62494793  1
  F  F18  1  0.50218492  0.46213999  0.87505207  1
  F  F19  1  0.99781508  0.53786001  0.37505207  1
  F  F20  1  0.50218492  0.03786001  0.87505207  1
  F  F21  1  0.99781508  0.96213999  0.37505207  1
  F  F22  1  0.49781508  0.53786001  0.12494793  1
  F  F23  1  0.00218492  0.46213999  0.62494793  1
  Li  Li24  1  0.52079545  0.25000000  0.87839208  1
  Li  Li25  1  0.97920455  0.75000000  0.37839208  1
  Li  Li26  1  0.47920455  0.75000000  0.12160792  1
  Li  Li27  1  0.02079545  0.25000000  0.62160792  1
  Li  Li28  1  0.00000000  0.00000000  0.50000000  1
  Li  Li29  1  0.50000000  0.00000000  0.00000000  1
  Li  Li30  1  0.00000000  0.50000000  0.50000000  1
  Li  Li31  1  0.50000000  0.50000000  0.00000000  1
  Li  Li32  1  0.23833476  0.95348118  0.41322977  1
  Li  Li33  1  0.26166524  -0.95348118  0.91322977  1
  Li  Li34  1  -0.23833476  1.45348118  -0.41322977  1
  Li  Li35  1  0.73833476  -0.45348118  0.08677023  1
  Li  Li36  1  -0.23833476  -0.95348118  -0.41322977  1
  Li  Li37  1  0.73833476  0.95348118  0.08677023  1
  Li  Li38  1  0.23833476  -0.45348118  0.41322977  1
  Li  Li39  1  0.26166524  1.45348118  0.91322977  1
  Li  Li40  1  0.28354918  0.25000000  0.85021097  1
  Li  Li41  1  0.21645082  0.75000000  0.35021097  1
  Li  Li42  1  0.71645082  0.75000000  0.14978903  1
  Li  Li43  1  0.78354918  0.25000000  0.64978903  1
  Li  Li44  1  0.00000000  0.00000000  0.00000000  1
  Li  Li45  1  0.50000000  0.00000000  0.50000000  1
  Li  Li46  1  0.00000000  0.50000000  0.00000000  1
  Li  Li47  1  0.50000000  0.50000000  0.50000000  1
