# generated using pymatgen
data_LiF
_symmetry_space_group_name_H-M   'P 1'
_cell_length_a   10.90686193
_cell_length_b   10.90686193
_cell_length_c   3.47613541
_cell_angle_alpha   90.00000000
_cell_angle_beta   90.00000000
_cell_angle_gamma   120.00000000
_symmetry_Int_Tables_number   1
_chemical_formula_structural   LiF
_chemical_formula_sum   'Li24 F24'
_cell_volume   358.11865710
_cell_formula_units_Z   24
loop_
 _symmetry_equiv_pos_site_id
 _symmetry_equiv_pos_as_xyz
  1  'x, y, z'
loop_
 _atom_site_type_symbol
 _atom_site_label
 _atom_site_symmetry_multiplicity
 _atom_site_fract_x
 _atom_site_fract_y
 _atom_site_fract_z
 _atom_site_occupancy
  F  F0  1  0.42480874  0.03163062  0.97966193  1
  F  F1  1  0.96836938  0.39317812  0.97966193  1
  F  F2  1  0.60682188  0.57519126  0.97966193  1
  F  F3  1  0.96836938  0.57519126  0.02033807  1
  F  F4  1  0.60682188  0.03163062  0.02033807  1
  F  F5  1  0.42480874  0.39317812  0.02033807  1
  F  F6  1  0.95052448  0.87783856  0.88082404  1
  F  F7  1  0.12216144  0.07268593  0.88082404  1
  F  F8  1  0.92731407  0.04947552  0.88082404  1
  F  F9  1  0.12216144  0.04947552  0.11917596  1
  F  F10  1  0.92731407  0.87783856  0.11917596  1
  F  F11  1  0.95052448  0.07268593  0.11917596  1
  F  F12  1  0.88686452  0.11313548  0.00000000  1
  F  F13  1  0.88686452  0.77372903  0.00000000  1
  F  F14  1  0.22627097  0.11313548  -0.00000000  1
  F  F15  1  0.00502686  0.53345445  0.46382729  1
  F  F16  1  0.46654555  0.47157242  0.46382729  1
  F  F17  1  0.52842758  0.99497314  0.46382729  1
  F  F18  1  0.46654555  0.99497314  0.53617271  1
  F  F19  1  0.52842758  0.53345445  0.53617271  1
  F  F20  1  0.00502686  0.47157242  0.53617271  1
  F  F21  1  0.74025658  0.25974342  0.50000000  1
  F  F22  1  0.74025658  0.48051317  0.50000000  1
  F  F23  1  0.51948683  0.25974342  0.50000000  1
  Li  Li24  1  0.11833286  0.88166714  0.50000000  1
  Li  Li25  1  0.11833286  0.23666572  0.50000000  1
  Li  Li26  1  0.76333428  0.88166714  0.50000000  1
  Li  Li27  1  0.48114693  0.71806741  0.18957743  1
  Li  Li28  1  -0.71806741  -0.23692048  0.18957743  1
  Li  Li29  1  0.23692048  -0.48114693  0.18957743  1
  Li  Li30  1  -0.71806741  -0.48114693  -0.18957743  1
  Li  Li31  1  0.23692048  0.71806741  -0.18957743  1
  Li  Li32  1  0.48114693  -0.23692048  -0.18957743  1
  Li  Li33  1  0.33333333  0.66666667  -0.00000000  1
  Li  Li34  1  0.50279572  0.07513155  0.81709119  1
  Li  Li35  1  0.92486845  0.42766417  0.81709119  1
  Li  Li36  1  0.57233583  0.49720428  0.81709119  1
  Li  Li37  1  0.92486845  0.49720428  0.18290881  1
  Li  Li38  1  0.57233583  0.07513155  0.18290881  1
  Li  Li39  1  0.50279572  0.42766417  0.18290881  1
  Li  Li40  1  0.00000000  0.00000000  0.50000000  1
  Li  Li41  1  0.73420877  0.93689719  0.85798913  1
  Li  Li42  1  0.06310281  0.79731158  0.85798913  1
  Li  Li43  1  0.20268842  0.26579123  0.85798913  1
  Li  Li44  1  0.06310281  0.26579123  0.14201087  1
  Li  Li45  1  0.20268842  0.93689719  0.14201087  1
  Li  Li46  1  0.73420877  0.79731158  0.14201087  1
  Li  Li47  1  0.66666667  0.33333333  0.00000000  1
