# generated using pymatgen
data_LiF
_symmetry_space_group_name_H-M   'P 1'
_cell_length_a   7.74396572
_cell_length_b   11.53730699
_cell_length_c   10.56467377
_cell_angle_alpha   90.00000000
_cell_angle_beta   90.00000000
_cell_angle_gamma   90.00000000
_symmetry_Int_Tables_number   1
_chemical_formula_structural   LiF
_chemical_formula_sum   'Li36 F36'
_cell_volume   943.89560055
_cell_formula_units_Z   36
loop_
 _symmetry_equiv_pos_site_id
 _symmetry_equiv_pos_as_xyz
  1  'x, y, z'
loop_
 _atom_site_type_symbol
 _atom_site_label
 _atom_site_symmetry_multiplicity
 _atom_site_fract_x
 _atom_site_fract_y
 _atom_site_fract_z
 _atom_site_occupancy
  F  F0  1  0.20313585  0.50645228  0.33791084  1
  F  F1  1  0.79686415  0.49354772  0.33791084  1
  F  F2  1  0.29686415  0.00645228  0.66208916  1
  F  F3  1  0.70313585  0.99354772  0.66208916  1
  F  F4  1  0.79686415  0.49354772  0.66208916  1
  F  F5  1  0.20313585  0.50645228  0.66208916  1
  F  F6  1  0.70313585  0.99354772  0.33791084  1
  F  F7  1  0.29686415  0.00645228  0.33791084  1
  F  F8  1  0.73094161  0.32610356  0.72519767  1
  F  F9  1  0.26905839  0.67389644  0.72519767  1
  F  F10  1  0.76905839  0.82610356  0.27480233  1
  F  F11  1  0.23094161  0.17389644  0.27480233  1
  F  F12  1  0.26905839  0.67389644  0.27480233  1
  F  F13  1  0.73094161  0.32610356  0.27480233  1
  F  F14  1  0.23094161  0.17389644  0.72519767  1
  F  F15  1  0.76905839  0.82610356  0.72519767  1
  F  F16  1  0.29682389  0.30283232  0.31252731  1
  F  F17  1  0.70317611  0.69716768  0.31252731  1
  F  F18  1  0.20317611  0.80283232  0.68747269  1
  F  F19  1  0.79682389  0.19716768  0.68747269  1
  F  F20  1  0.70317611  0.69716768  0.68747269  1
  F  F21  1  0.29682389  0.30283232  0.68747269  1
  F  F22  1  0.79682389  0.19716768  0.31252731  1
  F  F23  1  0.20317611  0.80283232  0.31252731  1
  F  F24  1  0.97691124  0.36417704  0.57120595  1
  F  F25  1  0.02308876  0.63582296  0.57120595  1
  F  F26  1  0.52308876  0.86417704  0.42879405  1
  F  F27  1  0.47691124  0.13582296  0.42879405  1
  F  F28  1  0.02308876  0.63582296  0.42879405  1
  F  F29  1  0.97691124  0.36417704  0.42879405  1
  F  F30  1  0.47691124  0.13582296  0.57120595  1
  F  F31  1  0.52308876  0.86417704  0.57120595  1
  F  F32  1  0.00000000  0.00000000  0.27862767  1
  F  F33  1  0.50000000  0.50000000  0.72137233  1
  F  F34  1  0.00000000  0.00000000  0.72137233  1
  F  F35  1  0.50000000  0.50000000  0.27862767  1
  Li  Li36  1  0.00000000  0.50000000  0.34549446  1
  Li  Li37  1  0.50000000  -0.00000000  0.65450554  1
  Li  Li38  1  0.00000000  0.50000000  0.65450554  1
  Li  Li39  1  0.50000000  -0.00000000  0.34549446  1
  Li  Li40  1  0.00000000  0.50000000  0.50000000  1
  Li  Li41  1  0.50000000  -0.00000000  0.50000000  1
  Li  Li42  1  0.38550813  0.31350426  0.83868693  1
  Li  Li43  1  -0.38550813  -0.31350426  0.83868693  1
  Li  Li44  1  0.11449187  0.81350426  -0.83868693  1
  Li  Li45  1  0.88550813  0.18649574  -0.83868693  1
  Li  Li46  1  -0.38550813  -0.31350426  -0.83868693  1
  Li  Li47  1  0.38550813  0.31350426  -0.83868693  1
  Li  Li48  1  0.88550813  0.18649574  0.83868693  1
  Li  Li49  1  0.11449187  0.81350426  0.83868693  1
  Li  Li50  1  0.69826561  0.05982597  0.17639503  1
  Li  Li51  1  0.30173439  0.94017403  0.17639503  1
  Li  Li52  1  0.80173439  0.55982597  0.82360497  1
  Li  Li53  1  0.19826561  0.44017403  0.82360497  1
  Li  Li54  1  0.30173439  0.94017403  0.82360497  1
  Li  Li55  1  0.69826561  0.05982597  0.82360497  1
  Li  Li56  1  0.19826561  0.44017403  0.17639503  1
  Li  Li57  1  0.80173439  0.55982597  0.17639503  1
  Li  Li58  1  0.70167382  0.47310907  0.61338995  1
  Li  Li59  1  0.29832618  0.52689093  0.61338995  1
  Li  Li60  1  0.79832618  0.97310907  0.38661005  1
  Li  Li61  1  0.20167382  0.02689093  0.38661005  1
  Li  Li62  1  0.29832618  0.52689093  0.38661005  1
  Li  Li63  1  0.70167382  0.47310907  0.38661005  1
  Li  Li64  1  0.20167382  0.02689093  0.61338995  1
  Li  Li65  1  0.79832618  0.97310907  0.61338995  1
  Li  Li66  1  0.00000000  0.00000000  0.50000000  1
  Li  Li67  1  0.50000000  0.50000000  0.50000000  1
  Li  Li68  1  0.00000000  0.00000000  0.00000000  1
  Li  Li69  1  0.50000000  0.50000000  -0.00000000  1
  Li  Li70  1  0.00000000  0.50000000  0.00000000  1
  Li  Li71  1  0.50000000  -0.00000000  0.00000000  1
