# generated using pymatgen
data_LiF
_symmetry_space_group_name_H-M   'P 1'
_cell_length_a   10.38576249
_cell_length_b   10.38576249
_cell_length_c   7.98260417
_cell_angle_alpha   90.00000000
_cell_angle_beta   90.00000000
_cell_angle_gamma   120.00000000
_symmetry_Int_Tables_number   1
_chemical_formula_structural   LiF
_chemical_formula_sum   'Li33 F33'
_cell_volume   745.67914934
_cell_formula_units_Z   33
loop_
 _symmetry_equiv_pos_site_id
 _symmetry_equiv_pos_as_xyz
  1  'x, y, z'
loop_
 _atom_site_type_symbol
 _atom_site_label
 _atom_site_symmetry_multiplicity
 _atom_site_fract_x
 _atom_site_fract_y
 _atom_site_fract_z
 _atom_site_occupancy
  F  F0  1  0.00000000  0.00000000  0.00000000  1
  F  F1  1  0.18476043  0.37575927  0.76213183  1
  F  F2  1  0.62424073  0.80900116  0.76213183  1
  F  F3  1  0.19099884  0.81523957  0.76213183  1
  F  F4  1  0.62424073  0.81523957  0.23786817  1
  F  F5  1  0.19099884  0.37575927  0.23786817  1
  F  F6  1  0.18476043  0.80900116  0.23786817  1
  F  F7  1  0.00000000  0.00000000  0.50000000  1
  F  F8  1  0.14453115  0.42405516  0.49263534  1
  F  F9  1  0.57594484  0.72047598  0.49263534  1
  F  F10  1  0.27952402  0.85546885  0.49263534  1
  F  F11  1  0.57594484  0.85546885  0.50736466  1
  F  F12  1  0.27952402  0.42405516  0.50736466  1
  F  F13  1  0.14453115  0.72047598  0.50736466  1
  F  F14  1  0.33333333  0.66666667  0.00000000  1
  F  F15  1  0.39419406  0.78086728  0.24302903  1
  F  F16  1  0.21913272  0.61332678  0.24302903  1
  F  F17  1  0.38667322  0.60580594  0.24302903  1
  F  F18  1  0.21913272  0.60580594  0.75697097  1
  F  F19  1  0.38667322  0.78086728  0.75697097  1
  F  F20  1  0.39419406  0.61332678  0.75697097  1
  F  F21  1  0.57624185  0.25036688  0.41754656  1
  F  F22  1  0.74963312  0.32587497  0.41754656  1
  F  F23  1  0.67412503  0.42375815  0.41754656  1
  F  F24  1  0.74963312  0.42375815  0.58245344  1
  F  F25  1  0.67412503  0.25036688  0.58245344  1
  F  F26  1  0.57624185  0.32587497  0.58245344  1
  F  F27  1  0.68958300  0.30344158  0.26737677  1
  F  F28  1  0.69655842  0.38614142  0.26737677  1
  F  F29  1  0.61385858  0.31041700  0.26737677  1
  F  F30  1  0.69655842  0.31041700  0.73262323  1
  F  F31  1  0.61385858  0.30344158  0.73262323  1
  F  F32  1  0.68958300  0.38614142  0.73262323  1
  Li  Li33  1  0.89489495  0.97066194  0.39125977  1
  Li  Li34  1  -0.97066194  -0.07576699  0.39125977  1
  Li  Li35  1  0.07576699  -0.89489495  0.39125977  1
  Li  Li36  1  -0.97066194  -0.89489495  -0.39125977  1
  Li  Li37  1  0.07576699  0.97066194  -0.39125977  1
  Li  Li38  1  0.89489495  -0.07576699  -0.39125977  1
  Li  Li39  1  0.31872587  0.05816935  0.69950402  1
  Li  Li40  1  0.94183065  0.26055652  0.69950402  1
  Li  Li41  1  0.73944348  0.68127413  0.69950402  1
  Li  Li42  1  0.94183065  0.68127413  0.30049598  1
  Li  Li43  1  0.73944348  0.05816935  0.30049598  1
  Li  Li44  1  0.31872587  0.26055652  0.30049598  1
  Li  Li45  1  0.66666667  0.33333333  0.50000000  1
  Li  Li46  1  0.56048942  0.07806934  0.24134280  1
  Li  Li47  1  0.92193066  0.48242008  0.24134280  1
  Li  Li48  1  0.51757992  0.43951058  0.24134280  1
  Li  Li49  1  0.92193066  0.43951058  0.75865720  1
  Li  Li50  1  0.51757992  0.07806934  0.75865720  1
  Li  Li51  1  0.56048942  0.48242008  0.75865720  1
  Li  Li52  1  0.33333333  0.66666667  0.50000000  1
  Li  Li53  1  0.67536952  0.81728189  0.34611357  1
  Li  Li54  1  0.18271811  0.85808764  0.34611357  1
  Li  Li55  1  0.14191236  0.32463048  0.34611357  1
  Li  Li56  1  0.18271811  0.32463048  0.65388643  1
  Li  Li57  1  0.14191236  0.81728189  0.65388643  1
  Li  Li58  1  0.67536952  0.85808764  0.65388643  1
  Li  Li59  1  0.66666667  0.33333333  0.00000000  1
  Li  Li60  1  0.29108078  0.89885212  0.20138869  1
  Li  Li61  1  0.10114788  0.39222865  0.20138869  1
  Li  Li62  1  0.60777135  0.70891922  0.20138869  1
  Li  Li63  1  0.10114788  0.70891922  0.79861131  1
  Li  Li64  1  0.60777135  0.89885212  0.79861131  1
  Li  Li65  1  0.29108078  0.39222865  0.79861131  1
