# generated using pymatgen
data_LiF
_symmetry_space_group_name_H-M   'P 1'
_cell_length_a   9.60899894
_cell_length_b   9.60899894
_cell_length_c   5.65317708
_cell_angle_alpha   90.00000000
_cell_angle_beta   90.00000000
_cell_angle_gamma   120.00000000
_symmetry_Int_Tables_number   1
_chemical_formula_structural   LiF
_chemical_formula_sum   'Li23 F23'
_cell_volume   452.04275409
_cell_formula_units_Z   23
loop_
 _symmetry_equiv_pos_site_id
 _symmetry_equiv_pos_as_xyz
  1  'x, y, z'
loop_
 _atom_site_type_symbol
 _atom_site_label
 _atom_site_symmetry_multiplicity
 _atom_site_fract_x
 _atom_site_fract_y
 _atom_site_fract_z
 _atom_site_occupancy
  F  F0  1  0.26729826  0.82715228  0.27503517  1
  F  F1  1  0.17284772  0.44014598  0.27503517  1
  F  F2  1  0.55985402  0.73270174  0.27503517  1
  F  F3  1  0.17284772  0.73270174  0.72496483  1
  F  F4  1  0.55985402  0.82715228  0.72496483  1
  F  F5  1  0.26729826  0.44014598  0.72496483  1
  F  F6  1  0.06707053  0.85725028  0.02462590  1
  F  F7  1  0.14274972  0.20982025  0.02462590  1
  F  F8  1  0.79017975  0.93292947  0.02462590  1
  F  F9  1  0.14274972  0.93292947  0.97537410  1
  F  F10  1  0.79017975  0.85725028  0.97537410  1
  F  F11  1  0.06707053  0.20982025  0.97537410  1
  F  F12  1  0.75135890  0.13990619  0.38125956  1
  F  F13  1  0.86009381  0.61145271  0.38125956  1
  F  F14  1  0.38854729  0.24864110  0.38125956  1
  F  F15  1  0.86009381  0.24864110  0.61874044  1
  F  F16  1  0.38854729  0.13990619  0.61874044  1
  F  F17  1  0.75135890  0.61145271  0.61874044  1
  F  F18  1  0.26657962  0.73342038  0.50000000  1
  F  F19  1  0.26657962  0.53315925  0.50000000  1
  F  F20  1  0.46684075  0.73342038  0.50000000  1
  F  F21  1  0.33333333  0.66666667  0.50000000  1
  F  F22  1  0.33333333  0.66666667  0.00000000  1
  Li  Li23  1  0.34256922  0.53902861  0.25823453  1
  Li  Li24  1  -0.53902861  -0.19645939  0.25823453  1
  Li  Li25  1  0.19645939  -0.34256922  0.25823453  1
  Li  Li26  1  -0.53902861  -0.34256922  -0.25823453  1
  Li  Li27  1  0.19645939  0.53902861  -0.25823453  1
  Li  Li28  1  0.34256922  -0.19645939  -0.25823453  1
  Li  Li29  1  0.27948748  0.97417910  0.68392599  1
  Li  Li30  1  0.02582090  0.30530839  0.68392599  1
  Li  Li31  1  0.69469161  0.72051252  0.68392599  1
  Li  Li32  1  0.02582090  0.72051252  0.31607401  1
  Li  Li33  1  0.69469161  0.97417910  0.31607401  1
  Li  Li34  1  0.27948748  0.30530839  0.31607401  1
  Li  Li35  1  0.00000000  0.00000000  0.00000000  1
  Li  Li36  1  0.68638404  0.59125887  0.80163033  1
  Li  Li37  1  0.40874113  0.09512517  0.80163033  1
  Li  Li38  1  0.90487483  0.31361596  0.80163033  1
  Li  Li39  1  0.40874113  0.31361596  0.19836967  1
  Li  Li40  1  0.90487483  0.59125887  0.19836967  1
  Li  Li41  1  0.68638404  0.09512517  0.19836967  1
  Li  Li42  1  0.66666667  0.33333333  0.50000000  1
  Li  Li43  1  0.00000000  0.00000000  0.50000000  1
  Li  Li44  1  0.66666667  0.33333333  0.83569671  1
  Li  Li45  1  0.66666667  0.33333333  0.16430329  1
