# generated using pymatgen
data_LiF
_symmetry_space_group_name_H-M   'P 1'
_cell_length_a   9.34338884
_cell_length_b   10.02855521
_cell_length_c   5.21145742
_cell_angle_alpha   90.00000000
_cell_angle_beta   90.00000000
_cell_angle_gamma   90.00000000
_symmetry_Int_Tables_number   1
_chemical_formula_structural   LiF
_chemical_formula_sum   'Li24 F24'
_cell_volume   488.31716083
_cell_formula_units_Z   24
loop_
 _symmetry_equiv_pos_site_id
 _symmetry_equiv_pos_as_xyz
  1  'x, y, z'
loop_
 _atom_site_type_symbol
 _atom_site_label
 _atom_site_symmetry_multiplicity
 _atom_site_fract_x
 _atom_site_fract_y
 _atom_site_fract_z
 _atom_site_occupancy
  F  F0  1  0.21599880  0.66480554  0.07209598  1
  F  F1  1  0.28400120  0.33519446  0.57209598  1
  F  F2  1  0.78400120  0.16480554  0.92790402  1
  F  F3  1  0.71599880  0.83519446  0.42790402  1
  F  F4  1  0.78400120  0.33519446  0.92790402  1
  F  F5  1  0.71599880  0.66480554  0.42790402  1
  F  F6  1  0.21599880  0.83519446  0.07209598  1
  F  F7  1  0.28400120  0.16480554  0.57209598  1
  F  F8  1  0.00000000  0.00000000  0.00000000  1
  F  F9  1  0.50000000  0.00000000  0.50000000  1
  F  F10  1  0.00000000  0.50000000  0.00000000  1
  F  F11  1  0.50000000  0.50000000  0.50000000  1
  F  F12  1  0.04901981  0.19771471  0.25092994  1
  F  F13  1  0.45098019  0.80228529  0.75092994  1
  F  F14  1  0.95098019  0.69771471  0.74907006  1
  F  F15  1  0.54901981  0.30228529  0.24907006  1
  F  F16  1  0.95098019  0.80228529  0.74907006  1
  F  F17  1  0.54901981  0.19771471  0.24907006  1
  F  F18  1  0.04901981  0.30228529  0.25092994  1
  F  F19  1  0.45098019  0.69771471  0.75092994  1
  F  F20  1  0.82709589  0.25000000  0.55938330  1
  F  F21  1  0.67290411  0.75000000  0.05938330  1
  F  F22  1  0.17290411  0.75000000  0.44061670  1
  F  F23  1  0.32709589  0.25000000  0.94061670  1
  Li  Li24  1  0.02638410  0.25000000  0.74726902  1
  Li  Li25  1  0.47361590  0.75000000  0.24726902  1
  Li  Li26  1  0.97361590  0.75000000  0.25273098  1
  Li  Li27  1  0.52638410  0.25000000  0.75273098  1
  Li  Li28  1  0.96998823  0.25000000  0.47983636  1
  Li  Li29  1  0.53001177  0.75000000  0.97983636  1
  Li  Li30  1  0.03001177  0.75000000  0.52016364  1
  Li  Li31  1  0.46998823  0.25000000  0.02016364  1
  Li  Li32  1  0.59160982  0.36762133  0.99457026  1
  Li  Li33  1  -0.09160982  -0.36762133  1.49457026  1
  Li  Li34  1  -0.59160982  0.86762133  -0.99457026  1
  Li  Li35  1  1.09160982  0.13237867  -0.49457026  1
  Li  Li36  1  -0.59160982  -0.36762133  -0.99457026  1
  Li  Li37  1  1.09160982  0.36762133  -0.49457026  1
  Li  Li38  1  0.59160982  0.13237867  0.99457026  1
  Li  Li39  1  -0.09160982  0.86762133  1.49457026  1
  Li  Li40  1  0.00000000  0.00000000  0.50000000  1
  Li  Li41  1  0.50000000  0.00000000  0.00000000  1
  Li  Li42  1  0.00000000  0.50000000  0.50000000  1
  Li  Li43  1  0.50000000  0.50000000  0.00000000  1
  Li  Li44  1  0.17879975  0.25000000  0.85056183  1
  Li  Li45  1  0.32120025  0.75000000  0.35056183  1
  Li  Li46  1  0.82120025  0.75000000  0.14943817  1
  Li  Li47  1  0.67879975  0.25000000  0.64943817  1
