# generated using pymatgen
data_LiY2P3
_symmetry_space_group_name_H-M   'P 1'
_cell_length_a   4.63595645
_cell_length_b   4.87430994
_cell_length_c   7.04765398
_cell_angle_alpha   95.45199068
_cell_angle_beta   101.87330224
_cell_angle_gamma   111.89847969
_symmetry_Int_Tables_number   1
_chemical_formula_structural   LiY2P3
_chemical_formula_sum   'Li1 Y2 P3'
_cell_volume   141.99365514
_cell_formula_units_Z   1
loop_
 _symmetry_equiv_pos_site_id
 _symmetry_equiv_pos_as_xyz
  1  'x, y, z'
loop_
 _atom_site_type_symbol
 _atom_site_label
 _atom_site_symmetry_multiplicity
 _atom_site_fract_x
 _atom_site_fract_y
 _atom_site_fract_z
 _atom_site_occupancy
  Y  Y0  1  0.00000000  0.00000000  0.00000000  1
  Y  Y1  1  0.33300000  0.66700000  0.25000000  1
  P  P2  1  0.66700000  0.33300000  0.50000000  1
  P  P3  1  0.00000000  0.00000000  0.75000000  1
  P  P4  1  0.97709917  0.25224068  0.92312246  1
  Li  Li5  1  0.97863684  0.97256969  0.12126436  1
