# generated using pymatgen
data_LiHfSeSCl
_symmetry_space_group_name_H-M   'P 1'
_cell_length_a   18.76618650
_cell_length_b   18.76618650
_cell_length_c   3.99089652
_cell_angle_alpha   90.00000000
_cell_angle_beta   90.00000000
_cell_angle_gamma   120.00000000
_symmetry_Int_Tables_number   1
_chemical_formula_structural   LiHfSeSCl
_chemical_formula_sum   'Li12 Hf12 Se12 S12 Cl12'
_cell_volume   1217.17536883
_cell_formula_units_Z   12
loop_
 _symmetry_equiv_pos_site_id
 _symmetry_equiv_pos_as_xyz
  1  'x, y, z'
loop_
 _atom_site_type_symbol
 _atom_site_label
 _atom_site_symmetry_multiplicity
 _atom_site_fract_x
 _atom_site_fract_y
 _atom_site_fract_z
 _atom_site_occupancy
  Cl  Cl0  1  0.27189934  0.54379868  0.25000000  1
  Cl  Cl1  1  0.45620132  0.72810066  0.25000000  1
  Cl  Cl2  1  0.27189934  0.72810066  0.25000000  1
  Cl  Cl3  1  0.72810066  0.45620132  0.75000000  1
  Cl  Cl4  1  0.54379868  0.27189934  0.75000000  1
  Cl  Cl5  1  0.72810066  0.27189934  0.75000000  1
  Cl  Cl6  1  0.33333333  0.66666667  0.40806719  1
  Cl  Cl7  1  0.66666667  0.33333333  0.90806719  1
  Cl  Cl8  1  0.66666667  0.33333333  0.59193281  1
  Cl  Cl9  1  0.33333333  0.66666667  0.09193281  1
  Cl  Cl10  1  0.00000000  0.00000000  0.25000000  1
  Cl  Cl11  1  0.00000000  0.00000000  0.75000000  1
  Hf  Hf12  1  0.76431442  0.52862883  0.25000000  1
  Hf  Hf13  1  0.47137117  0.23568558  0.25000000  1
  Hf  Hf14  1  0.76431442  0.23568558  0.25000000  1
  Hf  Hf15  1  0.23568558  0.47137117  0.75000000  1
  Hf  Hf16  1  0.52862883  0.76431442  0.75000000  1
  Hf  Hf17  1  0.23568558  0.76431442  0.75000000  1
  Hf  Hf18  1  0.56143627  0.12287254  0.25000000  1
  Hf  Hf19  1  0.87712746  0.43856373  0.25000000  1
  Hf  Hf20  1  0.56143627  0.43856373  0.25000000  1
  Hf  Hf21  1  0.43856373  0.87712746  0.75000000  1
  Hf  Hf22  1  0.12287254  0.56143627  0.75000000  1
  Hf  Hf23  1  0.43856373  0.56143627  0.75000000  1
  Li  Li24  1  0.37886757  0.00000000  0.00000000  1
  Li  Li25  1  0.00000000  0.37886757  -0.00000000  1
  Li  Li26  1  0.62113243  0.62113243  0.00000000  1
  Li  Li27  1  0.62113243  0.00000000  0.50000000  1
  Li  Li28  1  0.00000000  0.62113243  0.50000000  1
  Li  Li29  1  0.37886757  0.37886757  0.50000000  1
  Li  Li30  1  0.62113243  0.00000000  0.00000000  1
  Li  Li31  1  0.00000000  0.62113243  -0.00000000  1
  Li  Li32  1  0.37886757  0.37886757  -0.00000000  1
  Li  Li33  1  0.37886757  0.00000000  0.50000000  1
  Li  Li34  1  0.00000000  0.37886757  0.50000000  1
  Li  Li35  1  0.62113243  0.62113243  0.50000000  1
  S  S36  1  0.17683711  0.00000000  0.00000000  1
  S  S37  1  0.00000000  0.17683711  -0.00000000  1
  S  S38  1  -0.17683711  -0.17683711  0.00000000  1
  S  S39  1  -0.17683711  0.00000000  0.50000000  1
  S  S40  1  0.00000000  -0.17683711  0.50000000  1
  S  S41  1  0.17683711  0.17683711  0.50000000  1
  S  S42  1  -0.17683711  0.00000000  -0.00000000  1
  S  S43  1  0.00000000  -0.17683711  0.00000000  1
  S  S44  1  0.17683711  0.17683711  0.00000000  1
  S  S45  1  0.17683711  0.00000000  0.50000000  1
  S  S46  1  0.00000000  0.17683711  0.50000000  1
  S  S47  1  -0.17683711  -0.17683711  0.50000000  1
  Se  Se48  1  0.44394011  0.88788022  0.25000000  1
  Se  Se49  1  0.11211978  0.55605989  0.25000000  1
  Se  Se50  1  0.44394011  0.55605989  0.25000000  1
  Se  Se51  1  0.55605989  0.11211978  0.75000000  1
  Se  Se52  1  0.88788022  0.44394011  0.75000000  1
  Se  Se53  1  0.55605989  0.44394011  0.75000000  1
  Se  Se54  1  0.50000000  0.00000000  0.00000000  1
  Se  Se55  1  0.00000000  0.50000000  -0.00000000  1
  Se  Se56  1  0.50000000  0.50000000  0.00000000  1
  Se  Se57  1  0.50000000  0.00000000  0.50000000  1
  Se  Se58  1  0.00000000  0.50000000  0.50000000  1
  Se  Se59  1  0.50000000  0.50000000  0.50000000  1
