# generated using pymatgen
data_LiF
_symmetry_space_group_name_H-M   'P 1'
_cell_length_a   7.23747344
_cell_length_b   12.66165370
_cell_length_c   9.65984142
_cell_angle_alpha   90.00000000
_cell_angle_beta   90.00000000
_cell_angle_gamma   90.00000000
_symmetry_Int_Tables_number   1
_chemical_formula_structural   LiF
_chemical_formula_sum   'Li48 F48'
_cell_volume   885.21224233
_cell_formula_units_Z   48
loop_
 _symmetry_equiv_pos_site_id
 _symmetry_equiv_pos_as_xyz
  1  'x, y, z'
loop_
 _atom_site_type_symbol
 _atom_site_label
 _atom_site_symmetry_multiplicity
 _atom_site_fract_x
 _atom_site_fract_y
 _atom_site_fract_z
 _atom_site_occupancy
  F  F0  1  0.17220099  0.49842214  0.21054777  1
  F  F1  1  0.32779901  0.50157786  0.71054777  1
  F  F2  1  0.82779901  0.99842214  0.78945223  1
  F  F3  1  0.67220099  0.00157786  0.28945223  1
  F  F4  1  0.82779901  0.50157786  0.78945223  1
  F  F5  1  0.67220099  0.49842214  0.28945223  1
  F  F6  1  0.17220099  0.00157786  0.21054777  1
  F  F7  1  0.32779901  0.99842214  0.71054777  1
  F  F8  1  0.55797418  0.30824521  0.39376860  1
  F  F9  1  0.94202582  0.69175479  0.89376860  1
  F  F10  1  0.44202582  0.80824521  0.60623140  1
  F  F11  1  0.05797418  0.19175479  0.10623140  1
  F  F12  1  0.44202582  0.69175479  0.60623140  1
  F  F13  1  0.05797418  0.30824521  0.10623140  1
  F  F14  1  0.55797418  0.19175479  0.39376860  1
  F  F15  1  0.94202582  0.80824521  0.89376860  1
  F  F16  1  0.04848023  0.12642944  0.10398055  1
  F  F17  1  0.45151977  0.87357056  0.60398055  1
  F  F18  1  0.95151977  0.62642944  0.89601945  1
  F  F19  1  0.54848023  0.37357056  0.39601945  1
  F  F20  1  0.95151977  0.87357056  0.89601945  1
  F  F21  1  0.54848023  0.12642944  0.39601945  1
  F  F22  1  0.04848023  0.37357056  0.10398055  1
  F  F23  1  0.45151977  0.62642944  0.60398055  1
  F  F24  1  0.20144881  0.62854825  0.74392120  1
  F  F25  1  0.29855119  0.37145175  0.24392120  1
  F  F26  1  0.79855119  0.12854825  0.25607880  1
  F  F27  1  0.70144881  0.87145175  0.75607880  1
  F  F28  1  0.79855119  0.37145175  0.25607880  1
  F  F29  1  0.70144881  0.62854825  0.75607880  1
  F  F30  1  0.20144881  0.87145175  0.74392120  1
  F  F31  1  0.29855119  0.12854825  0.24392120  1
  F  F32  1  0.18198126  0.65376693  0.90634400  1
  F  F33  1  0.31801874  0.34623307  0.40634400  1
  F  F34  1  0.81801874  0.15376693  0.09365600  1
  F  F35  1  0.68198126  0.84623307  0.59365600  1
  F  F36  1  0.81801874  0.34623307  0.09365600  1
  F  F37  1  0.68198126  0.65376693  0.59365600  1
  F  F38  1  0.18198126  0.84623307  0.90634400  1
  F  F39  1  0.31801874  0.15376693  0.40634400  1
  F  F40  1  0.30562111  0.88330642  0.97455728  1
  F  F41  1  0.19437889  0.11669358  0.47455728  1
  F  F42  1  0.69437889  0.38330642  0.02544272  1
  F  F43  1  0.80562111  0.61669358  0.52544272  1
  F  F44  1  0.69437889  0.11669358  0.02544272  1
  F  F45  1  0.80562111  0.88330642  0.52544272  1
  F  F46  1  0.30562111  0.61669358  0.97455728  1
  F  F47  1  0.19437889  0.38330642  0.47455728  1
  Li  Li48  1  0.00000000  0.00000000  0.50000000  1
  Li  Li49  1  0.50000000  0.00000000  0.00000000  1
  Li  Li50  1  0.00000000  0.50000000  0.50000000  1
  Li  Li51  1  0.50000000  0.50000000  0.00000000  1
  Li  Li52  1  0.13523184  0.05898671  0.38101832  1
  Li  Li53  1  0.36476816  -0.05898671  0.88101832  1
  Li  Li54  1  -0.13523184  0.55898671  -0.38101832  1
  Li  Li55  1  0.63523184  0.44101329  0.11898168  1
  Li  Li56  1  -0.13523184  -0.05898671  -0.38101832  1
  Li  Li57  1  0.63523184  0.05898671  0.11898168  1
  Li  Li58  1  0.13523184  0.44101329  0.38101832  1
  Li  Li59  1  0.36476816  0.55898671  0.88101832  1
  Li  Li60  1  0.00000000  0.00000000  0.00000000  1
  Li  Li61  1  0.50000000  0.00000000  0.50000000  1
  Li  Li62  1  0.00000000  0.50000000  0.00000000  1
  Li  Li63  1  0.50000000  0.50000000  0.50000000  1
  Li  Li64  1  0.80246090  0.97203356  0.95370447  1
  Li  Li65  1  0.69753910  0.02796644  0.45370447  1
  Li  Li66  1  0.19753910  0.47203356  0.04629553  1
  Li  Li67  1  0.30246090  0.52796644  0.54629553  1
  Li  Li68  1  0.19753910  0.02796644  0.04629553  1
  Li  Li69  1  0.30246090  0.97203356  0.54629553  1
  Li  Li70  1  0.80246090  0.52796644  0.95370447  1
  Li  Li71  1  0.69753910  0.47203356  0.45370447  1
  Li  Li72  1  0.49091851  0.67396795  0.26830411  1
  Li  Li73  1  0.00908149  0.32603205  0.76830411  1
  Li  Li74  1  0.50908149  0.17396795  0.73169589  1
  Li  Li75  1  0.99091851  0.82603205  0.23169589  1
  Li  Li76  1  0.50908149  0.32603205  0.73169589  1
  Li  Li77  1  0.99091851  0.67396795  0.23169589  1
  Li  Li78  1  0.49091851  0.82603205  0.26830411  1
  Li  Li79  1  0.00908149  0.17396795  0.76830411  1
  Li  Li80  1  0.60240087  0.25000000  0.07061412  1
  Li  Li81  1  0.89759913  0.75000000  0.57061412  1
  Li  Li82  1  0.39759913  0.75000000  0.92938588  1
  Li  Li83  1  0.10240087  0.25000000  0.42938588  1
  Li  Li84  1  0.73316604  0.16969841  0.87576221  1
  Li  Li85  1  0.76683396  0.83030159  0.37576221  1
  Li  Li86  1  0.26683396  0.66969841  0.12423779  1
  Li  Li87  1  0.23316604  0.33030159  0.62423779  1
  Li  Li88  1  0.26683396  0.83030159  0.12423779  1
  Li  Li89  1  0.23316604  0.16969841  0.62423779  1
  Li  Li90  1  0.73316604  0.33030159  0.87576221  1
  Li  Li91  1  0.76683396  0.66969841  0.37576221  1
  Li  Li92  1  0.51211165  0.25000000  0.44816071  1
  Li  Li93  1  0.98788835  0.75000000  0.94816071  1
  Li  Li94  1  0.48788835  0.75000000  0.55183929  1
  Li  Li95  1  0.01211165  0.25000000  0.05183929  1
