# generated using pymatgen
data_Li2S
_symmetry_space_group_name_H-M   'P 1'
_cell_length_a   6.89293615
_cell_length_b   6.89293615
_cell_length_c   49.09640959
_cell_angle_alpha   90.00000000
_cell_angle_beta   90.00000000
_cell_angle_gamma   120.00000000
_symmetry_Int_Tables_number   1
_chemical_formula_structural   Li2S
_chemical_formula_sum   'Li96 S48'
_cell_volume   2020.17445870
_cell_formula_units_Z   48
loop_
 _symmetry_equiv_pos_site_id
 _symmetry_equiv_pos_as_xyz
  1  'x, y, z'
loop_
 _atom_site_type_symbol
 _atom_site_label
 _atom_site_symmetry_multiplicity
 _atom_site_fract_x
 _atom_site_fract_y
 _atom_site_fract_z
 _atom_site_occupancy
  Li  Li0  1  0.93643788  0.57212358  0.29436995  1
  Li  Li1  1  0.42787642  0.36431429  0.29436995  1
  Li  Li2  1  0.63568571  0.06356212  0.29436995  1
  Li  Li3  1  0.06356212  0.42787642  0.79436995  1
  Li  Li4  1  0.57212358  0.63568571  0.79436995  1
  Li  Li5  1  0.36431429  0.93643788  0.79436995  1
  Li  Li6  1  0.06356212  0.42787642  0.70563005  1
  Li  Li7  1  0.57212358  0.63568571  0.70563005  1
  Li  Li8  1  0.36431429  0.93643788  0.70563005  1
  Li  Li9  1  0.93643788  0.57212358  0.20563005  1
  Li  Li10  1  0.42787642  0.36431429  0.20563005  1
  Li  Li11  1  0.63568571  0.06356212  0.20563005  1
  Li  Li12  1  0.50126091  0.50690033  0.52963939  1
  Li  Li13  1  0.49309967  0.99436058  0.52963939  1
  Li  Li14  1  0.00563942  0.49873909  0.52963939  1
  Li  Li15  1  0.49873909  0.49309967  0.02963939  1
  Li  Li16  1  0.50690033  0.00563942  0.02963939  1
  Li  Li17  1  0.99436058  0.50126091  0.02963939  1
  Li  Li18  1  0.49873909  0.49309967  0.47036061  1
  Li  Li19  1  0.50690033  0.00563942  0.47036061  1
  Li  Li20  1  0.99436058  0.50126091  0.47036061  1
  Li  Li21  1  0.50126091  0.50690033  0.97036061  1
  Li  Li22  1  0.49309967  0.99436058  0.97036061  1
  Li  Li23  1  0.00563942  0.49873909  0.97036061  1
  Li  Li24  1  0.97723756  0.59816073  0.40420416  1
  Li  Li25  1  0.40183927  0.37907683  0.40420416  1
  Li  Li26  1  0.62092317  0.02276244  0.40420416  1
  Li  Li27  1  0.02276244  0.40183927  0.90420416  1
  Li  Li28  1  0.59816073  0.62092317  0.90420416  1
  Li  Li29  1  0.37907683  0.97723756  0.90420416  1
  Li  Li30  1  0.02276244  0.40183927  0.59579584  1
  Li  Li31  1  0.59816073  0.62092317  0.59579584  1
  Li  Li32  1  0.37907683  0.97723756  0.59579584  1
  Li  Li33  1  0.97723756  0.59816073  0.09579584  1
  Li  Li34  1  0.40183927  0.37907683  0.09579584  1
  Li  Li35  1  0.62092317  0.02276244  0.09579584  1
  Li  Li36  1  0.02270540  0.36306098  0.35889500  1
  Li  Li37  1  0.63693902  0.65964442  0.35889500  1
  Li  Li38  1  0.34035558  0.97729460  0.35889500  1
  Li  Li39  1  0.97729460  0.63693902  0.85889500  1
  Li  Li40  1  0.36306098  0.34035558  0.85889500  1
  Li  Li41  1  0.65964442  0.02270540  0.85889500  1
  Li  Li42  1  0.97729460  0.63693902  0.64110500  1
  Li  Li43  1  0.36306098  0.34035558  0.64110500  1
  Li  Li44  1  0.65964442  0.02270540  0.64110500  1
  Li  Li45  1  0.02270540  0.36306098  0.14110500  1
  Li  Li46  1  0.63693902  0.65964442  0.14110500  1
  Li  Li47  1  0.34035558  0.97729460  0.14110500  1
  Li  Li48  1  0.33333333  0.66666667  0.91009298  1
  Li  Li49  1  0.66666667  0.33333333  0.41009298  1
  Li  Li50  1  0.66666667  0.33333333  0.08990702  1
  Li  Li51  1  0.33333333  0.66666667  0.58990702  1
  Li  Li52  1  0.13324473  0.50561738  0.28360055  1
  Li  Li53  1  0.49438262  0.62762735  0.28360055  1
  Li  Li54  1  0.37237265  0.86675527  0.28360055  1
  Li  Li55  1  0.86675527  0.49438262  0.78360055  1
  Li  Li56  1  0.50561738  0.37237265  0.78360055  1
  Li  Li57  1  0.62762735  0.13324473  0.78360055  1
  Li  Li58  1  0.86675527  0.49438262  0.71639945  1
  Li  Li59  1  0.50561738  0.37237265  0.71639945  1
  Li  Li60  1  0.62762735  0.13324473  0.71639945  1
  Li  Li61  1  0.13324473  0.50561738  0.21639945  1
  Li  Li62  1  0.49438262  0.62762735  0.21639945  1
  Li  Li63  1  0.37237265  0.86675527  0.21639945  1
  Li  Li64  1  0.66666667  0.33333333  0.25000000  1
  Li  Li65  1  0.33333333  0.66666667  0.75000000  1
  Li  Li66  1  0.00000000  0.00000000  0.89971906  1
  Li  Li67  1  0.00000000  0.00000000  0.39971906  1
  Li  Li68  1  0.00000000  0.00000000  0.10028094  1
  Li  Li69  1  0.00000000  0.00000000  0.60028094  1
  Li  Li70  1  0.39838513  0.19170179  0.52411875  1
  Li  Li71  1  0.80829821  0.20668334  0.52411875  1
  Li  Li72  1  0.79331666  0.60161487  0.52411875  1
  Li  Li73  1  0.60161487  0.80829821  0.02411875  1
  Li  Li74  1  0.19170179  0.79331666  0.02411875  1
  Li  Li75  1  0.20668334  0.39838513  0.02411875  1
  Li  Li76  1  0.60161487  0.80829821  0.47588125  1
  Li  Li77  1  0.19170179  0.79331666  0.47588125  1
  Li  Li78  1  0.20668334  0.39838513  0.47588125  1
  Li  Li79  1  0.39838513  0.19170179  0.97588125  1
  Li  Li80  1  0.80829821  0.20668334  0.97588125  1
  Li  Li81  1  0.79331666  0.60161487  0.97588125  1
  Li  Li82  1  0.19303372  0.81885460  0.50745874  1
  Li  Li83  1  0.18114540  0.37417913  0.50745874  1
  Li  Li84  1  0.62582087  0.80696628  0.50745874  1
  Li  Li85  1  0.80696628  0.18114540  0.00745874  1
  Li  Li86  1  0.81885460  0.62582087  0.00745874  1
  Li  Li87  1  0.37417913  0.19303372  0.00745874  1
  Li  Li88  1  0.80696628  0.18114540  0.49254126  1
  Li  Li89  1  0.81885460  0.62582087  0.49254126  1
  Li  Li90  1  0.37417913  0.19303372  0.49254126  1
  Li  Li91  1  0.19303372  0.81885460  0.99254126  1
  Li  Li92  1  0.18114540  0.37417913  0.99254126  1
  Li  Li93  1  0.62582087  0.80696628  0.99254126  1
  Li  Li94  1  0.00000000  0.00000000  0.25000000  1
  Li  Li95  1  0.00000000  0.00000000  0.75000000  1
  S  S96  1  0.89690694  0.49672196  0.59411567  1
  S  S97  1  -0.49672196  0.40018498  0.59411567  1
  S  S98  1  -0.40018498  -0.89690694  0.59411567  1
  S  S99  1  -0.89690694  -0.49672196  1.09411567  1
  S  S100  1  0.49672196  -0.40018498  1.09411567  1
  S  S101  1  0.40018498  0.89690694  1.09411567  1
  S  S102  1  -0.89690694  -0.49672196  -0.59411567  1
  S  S103  1  0.49672196  -0.40018498  -0.59411567  1
  S  S104  1  0.40018498  0.89690694  -0.59411567  1
  S  S105  1  0.89690694  0.49672196  -0.09411567  1
  S  S106  1  -0.49672196  0.40018498  -0.09411567  1
  S  S107  1  -0.40018498  -0.89690694  -0.09411567  1
  S  S108  1  0.33333333  0.66666667  0.63841849  1
  S  S109  1  0.66666667  0.33333333  0.13841849  1
  S  S110  1  0.66666667  0.33333333  0.36158151  1
  S  S111  1  0.33333333  0.66666667  0.86158151  1
  S  S112  1  0.15083143  0.91351808  0.44189958  1
  S  S113  1  0.08648192  0.23731335  0.44189958  1
  S  S114  1  0.76268665  0.84916857  0.44189958  1
  S  S115  1  0.84916857  0.08648192  0.94189958  1
  S  S116  1  0.91351808  0.76268665  0.94189958  1
  S  S117  1  0.23731335  0.15083143  0.94189958  1
  S  S118  1  0.84916857  0.08648192  0.55810042  1
  S  S119  1  0.91351808  0.76268665  0.55810042  1
  S  S120  1  0.23731335  0.15083143  0.55810042  1
  S  S121  1  0.15083143  0.91351808  0.05810042  1
  S  S122  1  0.08648192  0.23731335  0.05810042  1
  S  S123  1  0.76268665  0.84916857  0.05810042  1
  S  S124  1  0.33333333  0.66666667  0.25000000  1
  S  S125  1  0.66666667  0.33333333  0.75000000  1
  S  S126  1  0.06457506  0.13088753  0.86737593  1
  S  S127  1  0.86911247  0.93368753  0.86737593  1
  S  S128  1  0.06631247  0.93542494  0.86737593  1
  S  S129  1  0.93542494  0.86911247  0.36737593  1
  S  S130  1  0.13088753  0.06631247  0.36737593  1
  S  S131  1  0.93368753  0.06457506  0.36737593  1
  S  S132  1  0.93542494  0.86911247  0.13262407  1
  S  S133  1  0.13088753  0.06631247  0.13262407  1
  S  S134  1  0.93368753  0.06457506  0.13262407  1
  S  S135  1  0.06457506  0.13088753  0.63262407  1
  S  S136  1  0.86911247  0.93368753  0.63262407  1
  S  S137  1  0.06631247  0.93542494  0.63262407  1
  S  S138  1  0.00000000  0.00000000  0.00000000  1
  S  S139  1  0.00000000  0.00000000  0.50000000  1
  S  S140  1  0.33333333  0.66666667  0.77732314  1
  S  S141  1  0.66666667  0.33333333  0.27732314  1
  S  S142  1  0.66666667  0.33333333  0.22267686  1
  S  S143  1  0.33333333  0.66666667  0.72267686  1
