# generated using pymatgen
data_Li3Y2As4P3Se
_symmetry_space_group_name_H-M   'P 1'
_cell_length_a   5.32284361
_cell_length_b   5.55130008
_cell_length_c   7.03036646
_cell_angle_alpha   93.56997782
_cell_angle_beta   98.09105425
_cell_angle_gamma   104.72119854
_symmetry_Int_Tables_number   1
_chemical_formula_structural   Li3Y2As4P3Se
_chemical_formula_sum   'Li3 Y2 As4 P3 Se1'
_cell_volume   197.87368468
_cell_formula_units_Z   1
loop_
 _symmetry_equiv_pos_site_id
 _symmetry_equiv_pos_as_xyz
  1  'x, y, z'
loop_
 _atom_site_type_symbol
 _atom_site_label
 _atom_site_symmetry_multiplicity
 _atom_site_fract_x
 _atom_site_fract_y
 _atom_site_fract_z
 _atom_site_occupancy
  Y  Y0  1  0.00000000  0.00000000  0.00000000  1
  Y  Y1  1  0.50000000  0.50000000  0.50000000  1
  P  P2  1  0.50000000  0.50000000  0.00000000  1
  P  P3  1  0.50000000  0.00000000  0.50000000  1
  P  P4  1  0.00000000  0.50000000  0.50000000  1
  Se  Se5  1  0.37306002  0.79715539  0.14433714  1
  As  As6  1  0.38432537  0.66523840  0.10143091  1
  As  As7  1  0.68696110  0.37292612  0.42554118  1
  As  As8  1  0.30616969  0.00557021  0.74099505  1
  As  As9  1  0.25856536  0.05192180  0.25938916  1
  Li  Li10  1  0.32087508  0.78207694  0.19360372  1
  Li  Li11  1  0.66224583  0.74089591  0.71163890  1
  Li  Li12  1  0.88154215  0.23550545  0.71269882  1
