# generated using pymatgen
data_LiF
_symmetry_space_group_name_H-M   'P 1'
_cell_length_a   13.05342861
_cell_length_b   10.40946772
_cell_length_c   9.94576633
_cell_angle_alpha   90.00000000
_cell_angle_beta   90.00000000
_cell_angle_gamma   90.00000000
_symmetry_Int_Tables_number   1
_chemical_formula_structural   LiF
_chemical_formula_sum   'Li36 F36'
_cell_volume   1351.42320639
_cell_formula_units_Z   36
loop_
 _symmetry_equiv_pos_site_id
 _symmetry_equiv_pos_as_xyz
  1  'x, y, z'
loop_
 _atom_site_type_symbol
 _atom_site_label
 _atom_site_symmetry_multiplicity
 _atom_site_fract_x
 _atom_site_fract_y
 _atom_site_fract_z
 _atom_site_occupancy
  F  F0  1  0.85555567  0.25000000  0.54945932  1
  F  F1  1  0.64444433  0.75000000  0.04945932  1
  F  F2  1  0.14444433  0.75000000  0.45054068  1
  F  F3  1  0.35555567  0.25000000  0.95054068  1
  F  F4  1  0.92386828  0.29125195  0.10280251  1
  F  F5  1  0.57613172  0.70874805  0.60280251  1
  F  F6  1  0.07613172  0.79125195  0.89719749  1
  F  F7  1  0.42386828  0.20874805  0.39719749  1
  F  F8  1  0.07613172  0.70874805  0.89719749  1
  F  F9  1  0.42386828  0.29125195  0.39719749  1
  F  F10  1  0.92386828  0.20874805  0.10280251  1
  F  F11  1  0.57613172  0.79125195  0.60280251  1
  F  F12  1  0.41390770  0.30572220  0.64579150  1
  F  F13  1  0.08609230  0.69427780  0.14579150  1
  F  F14  1  0.58609230  0.80572220  0.35420850  1
  F  F15  1  0.91390770  0.19427780  0.85420850  1
  F  F16  1  0.58609230  0.69427780  0.35420850  1
  F  F17  1  0.91390770  0.30572220  0.85420850  1
  F  F18  1  0.41390770  0.19427780  0.64579150  1
  F  F19  1  0.08609230  0.80572220  0.14579150  1
  F  F20  1  0.11537586  0.07165807  0.44696898  1
  F  F21  1  0.38462414  0.92834193  0.94696898  1
  F  F22  1  0.88462414  0.57165807  0.55303102  1
  F  F23  1  0.61537586  0.42834193  0.05303102  1
  F  F24  1  0.88462414  0.92834193  0.55303102  1
  F  F25  1  0.61537586  0.07165807  0.05303102  1
  F  F26  1  0.11537586  0.42834193  0.44696898  1
  F  F27  1  0.38462414  0.57165807  0.94696898  1
  F  F28  1  0.13012735  0.57067507  0.87933503  1
  F  F29  1  0.36987265  0.42932493  0.37933503  1
  F  F30  1  0.86987265  0.07067507  0.12066497  1
  F  F31  1  0.63012735  0.92932493  0.62066497  1
  F  F32  1  0.86987265  0.42932493  0.12066497  1
  F  F33  1  0.63012735  0.57067507  0.62066497  1
  F  F34  1  0.13012735  0.92932493  0.87933503  1
  F  F35  1  0.36987265  0.07067507  0.37933503  1
  Li  Li36  1  0.00000000  0.00000000  0.00000000  1
  Li  Li37  1  0.50000000  0.00000000  0.50000000  1
  Li  Li38  1  0.00000000  0.50000000  0.00000000  1
  Li  Li39  1  0.50000000  0.50000000  0.50000000  1
  Li  Li40  1  0.33295666  0.48809362  0.64963198  1
  Li  Li41  1  0.16704334  -0.48809362  1.14963198  1
  Li  Li42  1  -0.33295666  0.98809362  -0.64963198  1
  Li  Li43  1  0.83295666  0.01190638  -0.14963198  1
  Li  Li44  1  -0.33295666  -0.48809362  -0.64963198  1
  Li  Li45  1  0.83295666  0.48809362  -0.14963198  1
  Li  Li46  1  0.33295666  0.01190638  0.64963198  1
  Li  Li47  1  0.16704334  0.98809362  1.14963198  1
  Li  Li48  1  0.00000000  0.00000000  0.50000000  1
  Li  Li49  1  0.50000000  0.00000000  0.00000000  1
  Li  Li50  1  0.00000000  0.50000000  0.50000000  1
  Li  Li51  1  0.50000000  0.50000000  0.00000000  1
  Li  Li52  1  0.48338486  0.85988890  0.62152784  1
  Li  Li53  1  0.01661514  0.14011110  0.12152784  1
  Li  Li54  1  0.51661514  0.35988890  0.37847216  1
  Li  Li55  1  0.98338486  0.64011110  0.87847216  1
  Li  Li56  1  0.51661514  0.14011110  0.37847216  1
  Li  Li57  1  0.98338486  0.85988890  0.87847216  1
  Li  Li58  1  0.48338486  0.64011110  0.62152784  1
  Li  Li59  1  0.01661514  0.35988890  0.12152784  1
  Li  Li60  1  0.19846322  0.17677379  0.02013540  1
  Li  Li61  1  0.30153678  0.82322621  0.52013540  1
  Li  Li62  1  0.80153678  0.67677379  0.97986460  1
  Li  Li63  1  0.69846322  0.32322621  0.47986460  1
  Li  Li64  1  0.80153678  0.82322621  0.97986460  1
  Li  Li65  1  0.69846322  0.17677379  0.47986460  1
  Li  Li66  1  0.19846322  0.32322621  0.02013540  1
  Li  Li67  1  0.30153678  0.67677379  0.52013540  1
  Li  Li68  1  0.67631996  0.25000000  0.79556631  1
  Li  Li69  1  0.82368004  0.75000000  0.29556631  1
  Li  Li70  1  0.32368004  0.75000000  0.20443369  1
  Li  Li71  1  0.17631996  0.25000000  0.70443369  1
