# generated using pymatgen
data_LiF
_symmetry_space_group_name_H-M   'P 1'
_cell_length_a   10.78665035
_cell_length_b   9.78791847
_cell_length_c   5.88440755
_cell_angle_alpha   90.00000000
_cell_angle_beta   90.00000000
_cell_angle_gamma   90.00000000
_symmetry_Int_Tables_number   1
_chemical_formula_structural   LiF
_chemical_formula_sum   'Li26 F26'
_cell_volume   621.26900662
_cell_formula_units_Z   26
loop_
 _symmetry_equiv_pos_site_id
 _symmetry_equiv_pos_as_xyz
  1  'x, y, z'
loop_
 _atom_site_type_symbol
 _atom_site_label
 _atom_site_symmetry_multiplicity
 _atom_site_fract_x
 _atom_site_fract_y
 _atom_site_fract_z
 _atom_site_occupancy
  F  F0  1  0.00761644  0.76996504  0.90990166  1
  F  F1  1  -0.00761644  -0.76996504  0.90990166  1
  F  F2  1  0.49238356  1.26996504  -0.90990166  1
  F  F3  1  0.50761644  -0.26996504  -0.90990166  1
  F  F4  1  -0.00761644  -0.76996504  -0.90990166  1
  F  F5  1  0.00761644  0.76996504  -0.90990166  1
  F  F6  1  0.50761644  -0.26996504  0.90990166  1
  F  F7  1  0.49238356  1.26996504  0.90990166  1
  F  F8  1  0.00000000  0.00000000  0.42573514  1
  F  F9  1  0.50000000  0.50000000  0.57426486  1
  F  F10  1  0.00000000  0.00000000  0.57426486  1
  F  F11  1  0.50000000  0.50000000  0.42573514  1
  F  F12  1  0.03016773  0.03788941  0.89383318  1
  F  F13  1  0.96983227  0.96211059  0.89383318  1
  F  F14  1  0.46983227  0.53788941  0.10616682  1
  F  F15  1  0.53016773  0.46211059  0.10616682  1
  F  F16  1  0.96983227  0.96211059  0.10616682  1
  F  F17  1  0.03016773  0.03788941  0.10616682  1
  F  F18  1  0.53016773  0.46211059  0.89383318  1
  F  F19  1  0.46983227  0.53788941  0.89383318  1
  F  F20  1  0.39295447  0.94366596  0.00000000  1
  F  F21  1  0.60704553  0.05633404  0.00000000  1
  F  F22  1  0.10704553  0.44366596  0.00000000  1
  F  F23  1  0.89295447  0.55633404  0.00000000  1
  F  F24  1  0.00000000  0.50000000  0.50000000  1
  F  F25  1  0.50000000  0.00000000  0.50000000  1
  Li  Li26  1  0.77481470  0.99727537  0.50000000  1
  Li  Li27  1  0.22518530  0.00272463  0.50000000  1
  Li  Li28  1  0.72518530  0.49727537  0.50000000  1
  Li  Li29  1  0.27481470  0.50272463  0.50000000  1
  Li  Li30  1  0.00000000  0.50000000  0.00000000  1
  Li  Li31  1  0.50000000  0.00000000  0.00000000  1
  Li  Li32  1  0.88009634  0.79494292  0.38626970  1
  Li  Li33  1  0.11990366  0.20505708  0.38626970  1
  Li  Li34  1  0.61990366  0.29494292  0.61373030  1
  Li  Li35  1  0.38009634  0.70505708  0.61373030  1
  Li  Li36  1  0.11990366  0.20505708  0.61373030  1
  Li  Li37  1  0.88009634  0.79494292  0.61373030  1
  Li  Li38  1  0.38009634  0.70505708  0.38626970  1
  Li  Li39  1  0.61990366  0.29494292  0.38626970  1
  Li  Li40  1  0.51070023  0.33515526  0.29958179  1
  Li  Li41  1  0.48929977  0.66484474  0.29958179  1
  Li  Li42  1  0.98929977  0.83515526  0.70041821  1
  Li  Li43  1  0.01070023  0.16484474  0.70041821  1
  Li  Li44  1  0.48929977  0.66484474  0.70041821  1
  Li  Li45  1  0.51070023  0.33515526  0.70041821  1
  Li  Li46  1  0.01070023  0.16484474  0.29958179  1
  Li  Li47  1  0.98929977  0.83515526  0.29958179  1
  Li  Li48  1  0.28377903  0.21152617  0.00000000  1
  Li  Li49  1  0.71622097  0.78847383  0.00000000  1
  Li  Li50  1  0.21622097  0.71152617  0.00000000  1
  Li  Li51  1  0.78377903  0.28847383  0.00000000  1
