# generated using pymatgen
data_Li2TiP2
_symmetry_space_group_name_H-M   'P 1'
_cell_length_a   6.87970493
_cell_length_b   6.73330000
_cell_length_c   7.54425564
_cell_angle_alpha   101.11098081
_cell_angle_beta   90.86738373
_cell_angle_gamma   93.99196575
_symmetry_Int_Tables_number   1
_chemical_formula_structural   Li2TiP2
_chemical_formula_sum   'Li2 Ti1 P2'
_cell_volume   341.94525510
_cell_formula_units_Z   1
loop_
 _symmetry_equiv_pos_site_id
 _symmetry_equiv_pos_as_xyz
  1  'x, y, z'
loop_
 _atom_site_type_symbol
 _atom_site_label
 _atom_site_symmetry_multiplicity
 _atom_site_fract_x
 _atom_site_fract_y
 _atom_site_fract_z
 _atom_site_occupancy
  P  P0  1  0.00000000  0.00000000  0.00000000  1
  P  P1  1  0.33300000  0.66700000  0.25000000  1
  Ti  Ti2  1  0.66700000  0.33300000  0.50000000  1
  Li  Li3  1  0.00000000  0.00000000  0.75000000  1
  Li  Li4  1  0.72768546  0.15265861  0.95356789  1
