# generated using pymatgen
data_LiF
_symmetry_space_group_name_H-M   'P 1'
_cell_length_a   13.52142336
_cell_length_b   13.52142336
_cell_length_c   6.28490204
_cell_angle_alpha   90.00000000
_cell_angle_beta   90.00000000
_cell_angle_gamma   120.00000000
_symmetry_Int_Tables_number   1
_chemical_formula_structural   LiF
_chemical_formula_sum   'Li35 F35'
_cell_volume   995.11658998
_cell_formula_units_Z   35
loop_
 _symmetry_equiv_pos_site_id
 _symmetry_equiv_pos_as_xyz
  1  'x, y, z'
loop_
 _atom_site_type_symbol
 _atom_site_label
 _atom_site_symmetry_multiplicity
 _atom_site_fract_x
 _atom_site_fract_y
 _atom_site_fract_z
 _atom_site_occupancy
  F  F0  1  0.17090182  0.61657425  0.55436952  1
  F  F1  1  0.38342575  0.55432757  0.55436952  1
  F  F2  1  0.44567243  0.82909818  0.55436952  1
  F  F3  1  0.38342575  0.82909818  0.44563048  1
  F  F4  1  0.44567243  0.61657425  0.44563048  1
  F  F5  1  0.17090182  0.55432757  0.44563048  1
  F  F6  1  0.33333333  0.66666667  0.00000000  1
  F  F7  1  0.69975967  0.69195830  0.15834189  1
  F  F8  1  0.30804170  0.00780137  0.15834189  1
  F  F9  1  0.99219863  0.30024033  0.15834189  1
  F  F10  1  0.30804170  0.30024033  0.84165811  1
  F  F11  1  0.99219863  0.69195830  0.84165811  1
  F  F12  1  0.69975967  0.00780137  0.84165811  1
  F  F13  1  0.00000000  0.00000000  0.00000000  1
  F  F14  1  0.30316043  0.86608883  0.95122194  1
  F  F15  1  0.13391117  0.43707160  0.95122194  1
  F  F16  1  0.56292840  0.69683957  0.95122194  1
  F  F17  1  0.13391117  0.69683957  0.04877806  1
  F  F18  1  0.56292840  0.86608883  0.04877806  1
  F  F19  1  0.30316043  0.43707160  0.04877806  1
  F  F20  1  0.50267728  0.79508174  0.19293979  1
  F  F21  1  0.20491826  0.70759553  0.19293979  1
  F  F22  1  0.29240447  0.49732272  0.19293979  1
  F  F23  1  0.20491826  0.49732272  0.80706021  1
  F  F24  1  0.29240447  0.79508174  0.80706021  1
  F  F25  1  0.50267728  0.70759553  0.80706021  1
  F  F26  1  0.50651363  0.83911707  0.36774470  1
  F  F27  1  0.16088293  0.66739657  0.36774470  1
  F  F28  1  0.33260343  0.49348637  0.36774470  1
  F  F29  1  0.16088293  0.49348637  0.63225530  1
  F  F30  1  0.33260343  0.83911707  0.63225530  1
  F  F31  1  0.50651363  0.66739657  0.63225530  1
  F  F32  1  0.68791337  0.31208663  0.50000000  1
  F  F33  1  0.68791337  0.37582674  0.50000000  1
  F  F34  1  0.62417326  0.31208663  0.50000000  1
  Li  Li35  1  0.57504891  0.32914715  0.77674844  1
  Li  Li36  1  -0.32914715  0.24590176  0.77674844  1
  Li  Li37  1  -0.24590176  -0.57504891  0.77674844  1
  Li  Li38  1  -0.32914715  -0.57504891  -0.77674844  1
  Li  Li39  1  -0.24590176  0.32914715  -0.77674844  1
  Li  Li40  1  0.57504891  0.24590176  -0.77674844  1
  Li  Li41  1  0.83499552  0.16500448  0.50000000  1
  Li  Li42  1  0.83499552  0.66999104  0.50000000  1
  Li  Li43  1  0.33000896  0.16500448  0.50000000  1
  Li  Li44  1  0.59690499  0.03211510  0.08203081  1
  Li  Li45  1  0.96788490  0.56478989  0.08203081  1
  Li  Li46  1  0.43521011  0.40309501  0.08203081  1
  Li  Li47  1  0.96788490  0.40309501  0.91796919  1
  Li  Li48  1  0.43521011  0.03211510  0.91796919  1
  Li  Li49  1  0.59690499  0.56478989  0.91796919  1
  Li  Li50  1  0.01378222  0.82601542  0.14964629  1
  Li  Li51  1  0.17398458  0.18776680  0.14964629  1
  Li  Li52  1  0.81223320  0.98621778  0.14964629  1
  Li  Li53  1  0.17398458  0.98621778  0.85035371  1
  Li  Li54  1  0.81223320  0.82601542  0.85035371  1
  Li  Li55  1  0.01378222  0.18776680  0.85035371  1
  Li  Li56  1  0.62233620  0.45199529  0.89378659  1
  Li  Li57  1  0.54800471  0.17034090  0.89378659  1
  Li  Li58  1  0.82965910  0.37766380  0.89378659  1
  Li  Li59  1  0.54800471  0.37766380  0.10621341  1
  Li  Li60  1  0.82965910  0.45199529  0.10621341  1
  Li  Li61  1  0.62233620  0.17034090  0.10621341  1
  Li  Li62  1  0.49194503  0.50805497  0.00000000  1
  Li  Li63  1  0.49194503  0.98389006  -0.00000000  1
  Li  Li64  1  0.01610994  0.50805497  0.00000000  1
  Li  Li65  1  0.27440137  0.72559863  0.50000000  1
  Li  Li66  1  0.27440137  0.54880274  0.50000000  1
  Li  Li67  1  0.45119726  0.72559863  0.50000000  1
  Li  Li68  1  0.33333333  0.66666667  0.36479257  1
  Li  Li69  1  0.33333333  0.66666667  0.63520743  1
