# generated using pymatgen
data_LiF
_symmetry_space_group_name_H-M   'P 1'
_cell_length_a   5.35054460
_cell_length_b   11.30073763
_cell_length_c   6.29999080
_cell_angle_alpha   90.00000000
_cell_angle_beta   90.00000000
_cell_angle_gamma   90.00000000
_symmetry_Int_Tables_number   1
_chemical_formula_structural   LiF
_chemical_formula_sum   'Li24 F24'
_cell_volume   380.92957814
_cell_formula_units_Z   24
loop_
 _symmetry_equiv_pos_site_id
 _symmetry_equiv_pos_as_xyz
  1  'x, y, z'
loop_
 _atom_site_type_symbol
 _atom_site_label
 _atom_site_symmetry_multiplicity
 _atom_site_fract_x
 _atom_site_fract_y
 _atom_site_fract_z
 _atom_site_occupancy
  F  F0  1  0.70426996  0.00111795  0.68035447  1
  F  F1  1  0.79573004  0.99888205  0.18035447  1
  F  F2  1  0.29573004  0.50111795  0.31964553  1
  F  F3  1  0.20426996  0.49888205  0.81964553  1
  F  F4  1  0.29573004  0.99888205  0.31964553  1
  F  F5  1  0.20426996  0.00111795  0.81964553  1
  F  F6  1  0.70426996  0.49888205  0.68035447  1
  F  F7  1  0.79573004  0.50111795  0.18035447  1
  F  F8  1  0.89353754  0.64083095  0.05908088  1
  F  F9  1  0.60646246  0.35916905  0.55908088  1
  F  F10  1  0.10646246  0.14083095  0.94091912  1
  F  F11  1  0.39353754  0.85916905  0.44091912  1
  F  F12  1  0.10646246  0.35916905  0.94091912  1
  F  F13  1  0.39353754  0.64083095  0.44091912  1
  F  F14  1  0.89353754  0.85916905  0.05908088  1
  F  F15  1  0.60646246  0.14083095  0.55908088  1
  F  F16  1  0.53958788  0.25000000  0.97923801  1
  F  F17  1  0.96041212  0.75000000  0.47923801  1
  F  F18  1  0.46041212  0.75000000  0.02076199  1
  F  F19  1  0.03958788  0.25000000  0.52076199  1
  F  F20  1  0.00000000  0.00000000  0.00000000  1
  F  F21  1  0.50000000  0.00000000  0.50000000  1
  F  F22  1  0.00000000  0.50000000  0.00000000  1
  F  F23  1  0.50000000  0.50000000  0.50000000  1
  Li  Li24  1  0.62687287  0.61868286  0.65819841  1
  Li  Li25  1  -0.12687287  -0.61868286  1.15819841  1
  Li  Li26  1  -0.62687287  1.11868286  -0.65819841  1
  Li  Li27  1  1.12687287  -0.11868286  -0.15819841  1
  Li  Li28  1  -0.62687287  -0.61868286  -0.65819841  1
  Li  Li29  1  1.12687287  0.61868286  -0.15819841  1
  Li  Li30  1  0.62687287  -0.11868286  0.65819841  1
  Li  Li31  1  -0.12687287  1.11868286  1.15819841  1
  Li  Li32  1  0.15892200  0.92134709  0.59403091  1
  Li  Li33  1  0.34107800  0.07865291  0.09403091  1
  Li  Li34  1  0.84107800  0.42134709  0.40596909  1
  Li  Li35  1  0.65892200  0.57865291  0.90596909  1
  Li  Li36  1  0.84107800  0.07865291  0.40596909  1
  Li  Li37  1  0.65892200  0.92134709  0.90596909  1
  Li  Li38  1  0.15892200  0.57865291  0.59403091  1
  Li  Li39  1  0.34107800  0.42134709  0.09403091  1
  Li  Li40  1  0.42348413  0.25000000  0.21807128  1
  Li  Li41  1  0.07651587  0.75000000  0.71807128  1
  Li  Li42  1  0.57651587  0.75000000  0.78192872  1
  Li  Li43  1  0.92348413  0.25000000  0.28192872  1
  Li  Li44  1  0.00000000  0.00000000  0.50000000  1
  Li  Li45  1  0.50000000  0.00000000  0.00000000  1
  Li  Li46  1  0.00000000  0.50000000  0.50000000  1
  Li  Li47  1  0.50000000  0.50000000  0.00000000  1
