# generated using pymatgen
data_LiPO3
_symmetry_space_group_name_H-M   'P 1'
_cell_length_a   13.32822357
_cell_length_b   13.32822357
_cell_length_c   13.32822357
_cell_angle_alpha   90.00000000
_cell_angle_beta   90.00000000
_cell_angle_gamma   90.00000000
_symmetry_Int_Tables_number   1
_chemical_formula_structural   LiPO3
_chemical_formula_sum   'Li24 P24 O72'
_cell_volume   2367.64620955
_cell_formula_units_Z   24
loop_
 _symmetry_equiv_pos_site_id
 _symmetry_equiv_pos_as_xyz
  1  'x, y, z'
loop_
 _atom_site_type_symbol
 _atom_site_label
 _atom_site_symmetry_multiplicity
 _atom_site_fract_x
 _atom_site_fract_y
 _atom_site_fract_z
 _atom_site_occupancy
  Li  Li0  1  0.12500000  0.05480790  0.30480790  1
  Li  Li1  1  0.37500000  0.94519210  0.80480790  1
  Li  Li2  1  0.87500000  0.55480790  0.19519210  1
  Li  Li3  1  0.62500000  0.44519210  0.69519210  1
  Li  Li4  1  0.30480790  0.12500000  0.05480790  1
  Li  Li5  1  0.80480790  0.37500000  0.94519210  1
  Li  Li6  1  0.19519210  0.87500000  0.55480790  1
  Li  Li7  1  0.69519210  0.62500000  0.44519210  1
  Li  Li8  1  0.05480790  0.30480790  0.12500000  1
  Li  Li9  1  0.94519210  0.80480790  0.37500000  1
  Li  Li10  1  0.55480790  0.19519210  0.87500000  1
  Li  Li11  1  0.44519210  0.69519210  0.62500000  1
  Li  Li12  1  0.62500000  0.55480790  0.80480790  1
  Li  Li13  1  0.87500000  0.44519210  0.30480790  1
  Li  Li14  1  0.37500000  0.05480790  0.69519210  1
  Li  Li15  1  0.12500000  0.94519210  0.19519210  1
  Li  Li16  1  0.80480790  0.62500000  0.55480790  1
  Li  Li17  1  0.30480790  0.87500000  0.44519210  1
  Li  Li18  1  0.69519210  0.37500000  0.05480790  1
  Li  Li19  1  0.19519210  0.12500000  0.94519210  1
  Li  Li20  1  0.55480790  0.80480790  0.62500000  1
  Li  Li21  1  0.44519210  0.30480790  0.87500000  1
  Li  Li22  1  0.05480790  0.69519210  0.37500000  1
  Li  Li23  1  0.94519210  0.19519210  0.12500000  1
  O  O24  1  0.52655653  0.46561925  0.35121396  1
  O  O25  1  -0.02655653  -0.46561925  0.85121396  1
  O  O26  1  -0.52655653  0.96561925  0.14878604  1
  O  O27  1  1.02655653  0.03438075  -0.35121396  1
  O  O28  1  0.35121396  0.52655653  0.46561925  1
  O  O29  1  0.85121396  -0.02655653  -0.46561925  1
  O  O30  1  0.14878604  -0.52655653  0.96561925  1
  O  O31  1  -0.35121396  1.02655653  0.03438075  1
  O  O32  1  0.46561925  0.35121396  0.52655653  1
  O  O33  1  -0.46561925  0.85121396  -0.02655653  1
  O  O34  1  0.96561925  0.14878604  -0.52655653  1
  O  O35  1  0.03438075  -0.35121396  1.02655653  1
  O  O36  1  1.21561925  0.77655653  -0.10121396  1
  O  O37  1  0.28438075  0.22344347  0.39878604  1
  O  O38  1  0.71561925  -0.27655653  1.10121396  1
  O  O39  1  -0.21561925  1.27655653  0.60121396  1
  O  O40  1  1.27655653  0.60121396  -0.21561925  1
  O  O41  1  -0.27655653  1.10121396  0.71561925  1
  O  O42  1  0.22344347  0.39878604  0.28438075  1
  O  O43  1  0.77655653  -0.10121396  1.21561925  1
  O  O44  1  1.10121396  0.71561925  -0.27655653  1
  O  O45  1  0.60121396  -0.21561925  1.27655653  1
  O  O46  1  -0.10121396  1.21561925  0.77655653  1
  O  O47  1  0.39878604  0.28438075  0.22344347  1
  O  O48  1  1.02655653  0.96561925  0.85121396  1
  O  O49  1  0.47344347  0.03438075  1.35121396  1
  O  O50  1  -0.02655653  1.46561925  0.64878604  1
  O  O51  1  1.52655653  0.53438075  0.14878604  1
  O  O52  1  0.85121396  1.02655653  0.96561925  1
  O  O53  1  1.35121396  0.47344347  0.03438075  1
  O  O54  1  0.64878604  -0.02655653  1.46561925  1
  O  O55  1  0.14878604  1.52655653  0.53438075  1
  O  O56  1  0.96561925  0.85121396  1.02655653  1
  O  O57  1  0.03438075  1.35121396  0.47344347  1
  O  O58  1  1.46561925  0.64878604  -0.02655653  1
  O  O59  1  0.53438075  0.14878604  1.52655653  1
  O  O60  1  1.71561925  1.27655653  0.39878604  1
  O  O61  1  0.78438075  0.72344347  0.89878604  1
  O  O62  1  1.21561925  0.22344347  1.60121396  1
  O  O63  1  0.28438075  1.77655653  1.10121396  1
  O  O64  1  1.77655653  1.10121396  0.28438075  1
  O  O65  1  0.22344347  1.60121396  1.21561925  1
  O  O66  1  0.72344347  0.89878604  0.78438075  1
  O  O67  1  1.27655653  0.39878604  1.71561925  1
  O  O68  1  1.60121396  1.21561925  0.22344347  1
  O  O69  1  1.10121396  0.28438075  1.77655653  1
  O  O70  1  0.39878604  1.71561925  1.27655653  1
  O  O71  1  0.89878604  0.78438075  0.72344347  1
  O  O72  1  0.12500000  0.06942321  0.18057679  1
  O  O73  1  0.37500000  0.93057679  0.68057679  1
  O  O74  1  0.87500000  0.56942321  0.31942321  1
  O  O75  1  0.62500000  0.43057679  0.81942321  1
  O  O76  1  0.18057679  0.12500000  0.06942321  1
  O  O77  1  0.68057679  0.37500000  0.93057679  1
  O  O78  1  0.31942321  0.87500000  0.56942321  1
  O  O79  1  0.81942321  0.62500000  0.43057679  1
  O  O80  1  0.06942321  0.18057679  0.12500000  1
  O  O81  1  0.93057679  0.68057679  0.37500000  1
  O  O82  1  0.56942321  0.31942321  0.87500000  1
  O  O83  1  0.43057679  0.81942321  0.62500000  1
  O  O84  1  0.62500000  0.56942321  0.68057679  1
  O  O85  1  0.87500000  0.43057679  0.18057679  1
  O  O86  1  0.37500000  0.06942321  0.81942321  1
  O  O87  1  0.12500000  0.93057679  0.31942321  1
  O  O88  1  0.68057679  0.62500000  0.56942321  1
  O  O89  1  0.18057679  0.87500000  0.43057679  1
  O  O90  1  0.81942321  0.37500000  0.06942321  1
  O  O91  1  0.31942321  0.12500000  0.93057679  1
  O  O92  1  0.56942321  0.68057679  0.62500000  1
  O  O93  1  0.43057679  0.18057679  0.87500000  1
  O  O94  1  0.06942321  0.81942321  0.37500000  1
  O  O95  1  0.93057679  0.31942321  0.12500000  1
  P  P96  1  0.12500000  0.32809886  0.57809886  1
  P  P97  1  0.37500000  0.67190114  0.07809886  1
  P  P98  1  0.87500000  0.82809886  0.92190114  1
  P  P99  1  0.62500000  0.17190114  0.42190114  1
  P  P100  1  0.57809886  0.12500000  0.32809886  1
  P  P101  1  0.07809886  0.37500000  0.67190114  1
  P  P102  1  0.92190114  0.87500000  0.82809886  1
  P  P103  1  0.42190114  0.62500000  0.17190114  1
  P  P104  1  0.32809886  0.57809886  0.12500000  1
  P  P105  1  0.67190114  0.07809886  0.37500000  1
  P  P106  1  0.82809886  0.92190114  0.87500000  1
  P  P107  1  0.17190114  0.42190114  0.62500000  1
  P  P108  1  0.62500000  0.82809886  0.07809886  1
  P  P109  1  0.87500000  0.17190114  0.57809886  1
  P  P110  1  0.37500000  0.32809886  0.42190114  1
  P  P111  1  0.12500000  0.67190114  0.92190114  1
  P  P112  1  0.07809886  0.62500000  0.82809886  1
  P  P113  1  0.57809886  0.87500000  0.17190114  1
  P  P114  1  0.42190114  0.37500000  0.32809886  1
  P  P115  1  0.92190114  0.12500000  0.67190114  1
  P  P116  1  0.82809886  0.07809886  0.62500000  1
  P  P117  1  0.17190114  0.57809886  0.87500000  1
  P  P118  1  0.32809886  0.42190114  0.37500000  1
  P  P119  1  0.67190114  0.92190114  0.12500000  1
