# generated using pymatgen
data_LiF
_symmetry_space_group_name_H-M   'P 1'
_cell_length_a   5.78761334
_cell_length_b   11.08994024
_cell_length_c   13.24058510
_cell_angle_alpha   90.00000000
_cell_angle_beta   90.00000000
_cell_angle_gamma   90.00000000
_symmetry_Int_Tables_number   1
_chemical_formula_structural   LiF
_chemical_formula_sum   'Li36 F36'
_cell_volume   849.83750240
_cell_formula_units_Z   36
loop_
 _symmetry_equiv_pos_site_id
 _symmetry_equiv_pos_as_xyz
  1  'x, y, z'
loop_
 _atom_site_type_symbol
 _atom_site_label
 _atom_site_symmetry_multiplicity
 _atom_site_fract_x
 _atom_site_fract_y
 _atom_site_fract_z
 _atom_site_occupancy
  F  F0  1  0.87777575  0.92185009  0.62936241  1
  F  F1  1  0.62222425  0.07814991  0.12936241  1
  F  F2  1  0.12222425  0.42185009  0.37063759  1
  F  F3  1  0.37777575  0.57814991  0.87063759  1
  F  F4  1  0.12222425  0.07814991  0.37063759  1
  F  F5  1  0.37777575  0.92185009  0.87063759  1
  F  F6  1  0.87777575  0.57814991  0.62936241  1
  F  F7  1  0.62222425  0.42185009  0.12936241  1
  F  F8  1  0.66650662  0.79015653  0.25922337  1
  F  F9  1  0.83349338  0.20984347  0.75922337  1
  F  F10  1  0.33349338  0.29015653  0.74077663  1
  F  F11  1  0.16650662  0.70984347  0.24077663  1
  F  F12  1  0.33349338  0.20984347  0.74077663  1
  F  F13  1  0.16650662  0.79015653  0.24077663  1
  F  F14  1  0.66650662  0.70984347  0.25922337  1
  F  F15  1  0.83349338  0.29015653  0.75922337  1
  F  F16  1  0.17423413  0.31363786  0.16460383  1
  F  F17  1  0.32576587  0.68636214  0.66460383  1
  F  F18  1  0.82576587  0.81363786  0.83539617  1
  F  F19  1  0.67423413  0.18636214  0.33539617  1
  F  F20  1  0.82576587  0.68636214  0.83539617  1
  F  F21  1  0.67423413  0.31363786  0.33539617  1
  F  F22  1  0.17423413  0.18636214  0.16460383  1
  F  F23  1  0.32576587  0.81363786  0.66460383  1
  F  F24  1  0.03288851  0.17713599  0.53686450  1
  F  F25  1  0.46711149  0.82286401  0.03686450  1
  F  F26  1  0.96711149  0.67713599  0.46313550  1
  F  F27  1  0.53288851  0.32286401  0.96313550  1
  F  F28  1  0.96711149  0.82286401  0.46313550  1
  F  F29  1  0.53288851  0.17713599  0.96313550  1
  F  F30  1  0.03288851  0.32286401  0.53686450  1
  F  F31  1  0.46711149  0.67713599  0.03686450  1
  F  F32  1  0.21670603  0.25000000  0.10181870  1
  F  F33  1  0.28329397  0.75000000  0.60181870  1
  F  F34  1  0.78329397  0.75000000  0.89818130  1
  F  F35  1  0.71670603  0.25000000  0.39818130  1
  Li  Li36  1  0.89814457  0.61768030  0.08442542  1
  Li  Li37  1  -0.39814457  -0.61768030  0.58442542  1
  Li  Li38  1  -0.89814457  1.11768030  -0.08442542  1
  Li  Li39  1  1.39814457  -0.11768030  0.41557458  1
  Li  Li40  1  -0.89814457  -0.61768030  -0.08442542  1
  Li  Li41  1  1.39814457  0.61768030  0.41557458  1
  Li  Li42  1  0.89814457  -0.11768030  0.08442542  1
  Li  Li43  1  -0.39814457  1.11768030  0.58442542  1
  Li  Li44  1  0.00000000  0.00000000  0.00000000  1
  Li  Li45  1  0.50000000  0.00000000  0.50000000  1
  Li  Li46  1  0.00000000  0.50000000  0.00000000  1
  Li  Li47  1  0.50000000  0.50000000  0.50000000  1
  Li  Li48  1  0.83733322  0.09615988  0.73262914  1
  Li  Li49  1  0.66266678  0.90384012  0.23262914  1
  Li  Li50  1  0.16266678  0.59615988  0.26737086  1
  Li  Li51  1  0.33733322  0.40384012  0.76737086  1
  Li  Li52  1  0.16266678  0.90384012  0.26737086  1
  Li  Li53  1  0.33733322  0.09615988  0.76737086  1
  Li  Li54  1  0.83733322  0.40384012  0.73262914  1
  Li  Li55  1  0.66266678  0.59615988  0.23262914  1
  Li  Li56  1  0.78241538  0.25000000  0.65227497  1
  Li  Li57  1  0.71758462  0.75000000  0.15227497  1
  Li  Li58  1  0.21758462  0.75000000  0.34772503  1
  Li  Li59  1  0.28241538  0.25000000  0.84772503  1
  Li  Li60  1  0.51486469  0.25000000  0.62666307  1
  Li  Li61  1  0.98513531  0.75000000  0.12666307  1
  Li  Li62  1  0.48513531  0.75000000  0.37333693  1
  Li  Li63  1  0.01486469  0.25000000  0.87333693  1
  Li  Li64  1  0.00000000  0.00000000  0.50000000  1
  Li  Li65  1  0.50000000  0.00000000  0.00000000  1
  Li  Li66  1  0.00000000  0.50000000  0.50000000  1
  Li  Li67  1  0.50000000  0.50000000  0.00000000  1
  Li  Li68  1  0.66878585  0.25000000  0.73959314  1
  Li  Li69  1  0.83121415  0.75000000  0.23959314  1
  Li  Li70  1  0.33121415  0.75000000  0.26040686  1
  Li  Li71  1  0.16878585  0.25000000  0.76040686  1
