# generated using pymatgen
data_LiYP2Se
_symmetry_space_group_name_H-M   'P 1'
_cell_length_a   5.00930754
_cell_length_b   5.32996283
_cell_length_c   7.19563561
_cell_angle_alpha   94.69364748
_cell_angle_beta   100.22178842
_cell_angle_gamma   108.85251647
_symmetry_Int_Tables_number   1
_chemical_formula_structural   LiYP2Se
_chemical_formula_sum   'Li2 Y2 P4 Se2'
_cell_volume   176.91809763
_cell_formula_units_Z   2
loop_
 _symmetry_equiv_pos_site_id
 _symmetry_equiv_pos_as_xyz
  1  'x, y, z'
loop_
 _atom_site_type_symbol
 _atom_site_label
 _atom_site_symmetry_multiplicity
 _atom_site_fract_x
 _atom_site_fract_y
 _atom_site_fract_z
 _atom_site_occupancy
  Se  Se0  1  0.00000000  0.00000000  0.00000000  1
  Se  Se1  1  0.50000000  0.50000000  0.50000000  1
  Y  Y2  1  0.50000000  0.50000000  0.00000000  1
  Y  Y3  1  0.50000000  0.00000000  0.50000000  1
  P  P4  1  0.00000000  0.50000000  0.50000000  1
  P  P5  1  0.66253604  0.08284693  0.06785796  1
  P  P6  1  0.04177580  0.17568153  0.83684356  1
  P  P7  1  0.78112359  0.25857464  0.65228210  1
  Li  Li8  1  0.96251055  0.11469856  0.30100069  1
  Li  Li9  1  0.09954444  0.90389945  0.61398243  1
