# generated using pymatgen
data_Li2Y2As2P3Se
_symmetry_space_group_name_H-M   'P 1'
_cell_length_a   5.52342492
_cell_length_b   5.59048019
_cell_length_c   7.22129048
_cell_angle_alpha   93.79794384
_cell_angle_beta   98.27113210
_cell_angle_gamma   105.25483093
_symmetry_Int_Tables_number   1
_chemical_formula_structural   Li2Y2As2P3Se
_chemical_formula_sum   'Li2 Y2 As2 P3 Se1'
_cell_volume   211.61986184
_cell_formula_units_Z   1
loop_
 _symmetry_equiv_pos_site_id
 _symmetry_equiv_pos_as_xyz
  1  'x, y, z'
loop_
 _atom_site_type_symbol
 _atom_site_label
 _atom_site_symmetry_multiplicity
 _atom_site_fract_x
 _atom_site_fract_y
 _atom_site_fract_z
 _atom_site_occupancy
  Se  Se0  1  0.00000000  0.00000000  0.00000000  1
  Y  Y1  1  0.50000000  0.50000000  0.50000000  1
  Y  Y2  1  0.50000000  0.50000000  0.00000000  1
  P  P3  1  0.50000000  0.00000000  0.50000000  1
  P  P4  1  0.00000000  0.50000000  0.50000000  1
  P  P5  1  0.21216845  0.58335649  0.10584342  1
  As  As6  1  0.44389984  0.82693748  0.51402743  1
  As  As7  1  0.15332286  0.64913784  0.16328641  1
  Li  Li8  1  0.88523679  0.33386798  0.01637730  1
  Li  Li9  1  0.69487376  0.80397627  0.62141941  1
