# generated using pymatgen
data_Li2Si4Te3F12
_symmetry_space_group_name_H-M   'P 1'
_cell_length_a   8.11617236
_cell_length_b   8.11617236
_cell_length_c   21.28461459
_cell_angle_alpha   90.00000000
_cell_angle_beta   90.00000000
_cell_angle_gamma   90.00000000
_symmetry_Int_Tables_number   1
_chemical_formula_structural   Li2Si4Te3F12
_chemical_formula_sum   'Li8 Si16 Te12 F48'
_cell_volume   1402.06553441
_cell_formula_units_Z   4
loop_
 _symmetry_equiv_pos_site_id
 _symmetry_equiv_pos_as_xyz
  1  'x, y, z'
loop_
 _atom_site_type_symbol
 _atom_site_label
 _atom_site_symmetry_multiplicity
 _atom_site_fract_x
 _atom_site_fract_y
 _atom_site_fract_z
 _atom_site_occupancy
  F  F0  1  0.80400407  0.68932537  0.82096949  1
  F  F1  1  -0.30400407  -0.68932537  1.32096949  1
  F  F2  1  -0.43932537  1.55400407  1.07096949  1
  F  F3  1  0.93932537  -0.55400407  1.57096949  1
  F  F4  1  -0.30400407  0.68932537  -0.32096949  1
  F  F5  1  0.80400407  -0.68932537  -0.82096949  1
  F  F6  1  0.93932537  1.55400407  -0.57096949  1
  F  F7  1  -0.43932537  -0.55400407  -0.07096949  1
  F  F8  1  -0.80400407  -0.68932537  -0.82096949  1
  F  F9  1  1.30400407  0.68932537  -0.32096949  1
  F  F10  1  1.43932537  -0.55400407  -0.07096949  1
  F  F11  1  0.06067463  1.55400407  -0.57096949  1
  F  F12  1  1.30400407  -0.68932537  1.32096949  1
  F  F13  1  -0.80400407  0.68932537  0.82096949  1
  F  F14  1  0.06067463  -0.55400407  1.57096949  1
  F  F15  1  1.43932537  1.55400407  1.07096949  1
  F  F16  1  1.30400407  1.18932537  1.32096949  1
  F  F17  1  0.19599593  -0.18932537  1.82096949  1
  F  F18  1  0.06067463  2.05400407  1.57096949  1
  F  F19  1  1.43932537  -0.05400407  2.07096949  1
  F  F20  1  0.19599593  1.18932537  0.17903051  1
  F  F21  1  1.30400407  -0.18932537  -0.32096949  1
  F  F22  1  1.43932537  2.05400407  -0.07096949  1
  F  F23  1  0.06067463  -0.05400407  0.42903051  1
  F  F24  1  -0.30400407  -0.18932537  -0.32096949  1
  F  F25  1  1.80400407  1.18932537  0.17903051  1
  F  F26  1  1.93932537  -0.05400407  0.42903051  1
  F  F27  1  0.56067463  2.05400407  -0.07096949  1
  F  F28  1  1.80400407  -0.18932537  1.82096949  1
  F  F29  1  -0.30400407  1.18932537  1.32096949  1
  F  F30  1  0.56067463  -0.05400407  2.07096949  1
  F  F31  1  1.93932537  2.05400407  1.57096949  1
  F  F32  1  0.00000000  0.15203429  0.93565358  1
  F  F33  1  0.50000000  0.84796571  0.43565358  1
  F  F34  1  0.09796571  0.75000000  0.18565358  1
  F  F35  1  0.40203429  0.25000000  0.68565358  1
  F  F36  1  0.50000000  0.15203429  0.56434642  1
  F  F37  1  0.00000000  0.84796571  0.06434642  1
  F  F38  1  0.40203429  0.75000000  0.31434642  1
  F  F39  1  0.09796571  0.25000000  0.81434642  1
  F  F40  1  0.50000000  0.65203429  0.43565358  1
  F  F41  1  0.00000000  0.34796571  0.93565358  1
  F  F42  1  0.59796571  0.25000000  0.68565358  1
  F  F43  1  0.90203429  0.75000000  0.18565358  1
  F  F44  1  0.00000000  0.65203429  0.06434642  1
  F  F45  1  0.50000000  0.34796571  0.56434642  1
  F  F46  1  0.90203429  0.25000000  0.81434642  1
  F  F47  1  0.59796571  0.75000000  0.31434642  1
  Li  Li48  1  0.00000000  0.25000000  0.78861537  1
  Li  Li49  1  0.00000000  0.75000000  0.03861537  1
  Li  Li50  1  0.50000000  0.25000000  0.71138463  1
  Li  Li51  1  0.50000000  0.75000000  0.46138463  1
  Li  Li52  1  0.50000000  0.75000000  0.28861537  1
  Li  Li53  1  0.50000000  0.25000000  0.53861537  1
  Li  Li54  1  0.00000000  0.75000000  0.21138463  1
  Li  Li55  1  0.00000000  0.25000000  0.96138463  1
  Si  Si56  1  0.00000000  0.00000000  0.00000000  1
  Si  Si57  1  0.50000000  0.00000000  0.50000000  1
  Si  Si58  1  0.25000000  0.75000000  0.25000000  1
  Si  Si59  1  0.25000000  0.25000000  0.75000000  1
  Si  Si60  1  0.50000000  0.50000000  0.50000000  1
  Si  Si61  1  0.00000000  0.50000000  0.00000000  1
  Si  Si62  1  0.75000000  0.25000000  0.75000000  1
  Si  Si63  1  0.75000000  0.75000000  0.25000000  1
  Si  Si64  1  0.00000000  0.25000000  0.42903668  1
  Si  Si65  1  0.00000000  0.75000000  0.67903668  1
  Si  Si66  1  0.50000000  0.25000000  0.07096332  1
  Si  Si67  1  0.50000000  0.75000000  0.82096332  1
  Si  Si68  1  0.50000000  0.75000000  0.92903668  1
  Si  Si69  1  0.50000000  0.25000000  0.17903668  1
  Si  Si70  1  0.00000000  0.75000000  0.57096332  1
  Si  Si71  1  0.00000000  0.25000000  0.32096332  1
  Te  Te72  1  0.00000000  0.00000000  0.50000000  1
  Te  Te73  1  0.50000000  0.00000000  0.00000000  1
  Te  Te74  1  0.25000000  0.75000000  0.75000000  1
  Te  Te75  1  0.25000000  0.25000000  0.25000000  1
  Te  Te76  1  0.50000000  0.50000000  0.00000000  1
  Te  Te77  1  0.00000000  0.50000000  0.50000000  1
  Te  Te78  1  0.75000000  0.25000000  0.25000000  1
  Te  Te79  1  0.75000000  0.75000000  0.75000000  1
  Te  Te80  1  0.00000000  0.75000000  0.12500000  1
  Te  Te81  1  0.50000000  0.75000000  0.37500000  1
  Te  Te82  1  0.50000000  0.25000000  0.62500000  1
  Te  Te83  1  0.00000000  0.25000000  0.87500000  1
