# generated using pymatgen
data_LiF
_symmetry_space_group_name_H-M   'P 1'
_cell_length_a   8.57506256
_cell_length_b   16.73322714
_cell_length_c   5.35889094
_cell_angle_alpha   90.00000000
_cell_angle_beta   90.00000000
_cell_angle_gamma   90.00000000
_symmetry_Int_Tables_number   1
_chemical_formula_structural   LiF
_chemical_formula_sum   'Li24 F24'
_cell_volume   768.93905850
_cell_formula_units_Z   24
loop_
 _symmetry_equiv_pos_site_id
 _symmetry_equiv_pos_as_xyz
  1  'x, y, z'
loop_
 _atom_site_type_symbol
 _atom_site_label
 _atom_site_symmetry_multiplicity
 _atom_site_fract_x
 _atom_site_fract_y
 _atom_site_fract_z
 _atom_site_occupancy
  F  F0  1  0.08584827  0.48169554  0.23660230  1
  F  F1  1  0.41415173  0.51830446  0.73660230  1
  F  F2  1  0.91415173  0.98169554  0.76339770  1
  F  F3  1  0.58584827  0.01830446  0.26339770  1
  F  F4  1  0.91415173  0.51830446  0.76339770  1
  F  F5  1  0.58584827  0.48169554  0.26339770  1
  F  F6  1  0.08584827  0.01830446  0.23660230  1
  F  F7  1  0.41415173  0.98169554  0.73660230  1
  F  F8  1  0.21420452  0.45682342  0.54170275  1
  F  F9  1  0.28579548  0.54317658  0.04170275  1
  F  F10  1  0.78579548  0.95682342  0.45829725  1
  F  F11  1  0.71420452  0.04317658  0.95829725  1
  F  F12  1  0.78579548  0.54317658  0.45829725  1
  F  F13  1  0.71420452  0.45682342  0.95829725  1
  F  F14  1  0.21420452  0.04317658  0.54170275  1
  F  F15  1  0.28579548  0.95682342  0.04170275  1
  F  F16  1  0.00000000  0.00000000  0.00000000  1
  F  F17  1  0.50000000  0.00000000  0.50000000  1
  F  F18  1  0.00000000  0.50000000  0.00000000  1
  F  F19  1  0.50000000  0.50000000  0.50000000  1
  F  F20  1  0.60341468  0.25000000  0.09123020  1
  F  F21  1  0.89658532  0.75000000  0.59123020  1
  F  F22  1  0.39658532  0.75000000  0.90876980  1
  F  F23  1  0.10341468  0.25000000  0.40876980  1
  Li  Li24  1  0.00000000  0.00000000  0.50000000  1
  Li  Li25  1  0.50000000  0.00000000  0.00000000  1
  Li  Li26  1  0.00000000  0.50000000  0.50000000  1
  Li  Li27  1  0.50000000  0.50000000  0.00000000  1
  Li  Li28  1  0.51143068  0.69017188  0.08428471  1
  Li  Li29  1  -0.01143068  -0.69017188  0.58428471  1
  Li  Li30  1  -0.51143068  1.19017188  -0.08428471  1
  Li  Li31  1  1.01143068  -0.19017188  0.41571529  1
  Li  Li32  1  -0.51143068  -0.69017188  -0.08428471  1
  Li  Li33  1  1.01143068  0.69017188  0.41571529  1
  Li  Li34  1  0.51143068  -0.19017188  0.08428471  1
  Li  Li35  1  -0.01143068  1.19017188  0.58428471  1
  Li  Li36  1  0.16482119  0.34089468  0.68228459  1
  Li  Li37  1  0.33517881  0.65910532  0.18228459  1
  Li  Li38  1  0.83517881  0.84089468  0.31771541  1
  Li  Li39  1  0.66482119  0.15910532  0.81771541  1
  Li  Li40  1  0.83517881  0.65910532  0.31771541  1
  Li  Li41  1  0.66482119  0.34089468  0.81771541  1
  Li  Li42  1  0.16482119  0.15910532  0.68228459  1
  Li  Li43  1  0.33517881  0.84089468  0.18228459  1
  Li  Li44  1  0.39823600  0.25000000  0.14205979  1
  Li  Li45  1  0.10176400  0.75000000  0.64205979  1
  Li  Li46  1  0.60176400  0.75000000  0.85794021  1
  Li  Li47  1  0.89823600  0.25000000  0.35794021  1
