# generated using pymatgen
data_LiF
_symmetry_space_group_name_H-M   'P 1'
_cell_length_a   4.34536507
_cell_length_b   5.67115305
_cell_length_c   13.21777072
_cell_angle_alpha   90.00000000
_cell_angle_beta   90.00000000
_cell_angle_gamma   90.00000000
_symmetry_Int_Tables_number   1
_chemical_formula_structural   LiF
_chemical_formula_sum   'Li24 F24'
_cell_volume   325.72856898
_cell_formula_units_Z   24
loop_
 _symmetry_equiv_pos_site_id
 _symmetry_equiv_pos_as_xyz
  1  'x, y, z'
loop_
 _atom_site_type_symbol
 _atom_site_label
 _atom_site_symmetry_multiplicity
 _atom_site_fract_x
 _atom_site_fract_y
 _atom_site_fract_z
 _atom_site_occupancy
  F  F0  1  0.88951691  0.25000000  0.76879007  1
  F  F1  1  0.61048309  0.75000000  0.26879007  1
  F  F2  1  0.11048309  0.75000000  0.23120993  1
  F  F3  1  0.38951691  0.25000000  0.73120993  1
  F  F4  1  0.14168681  0.25000000  0.19079969  1
  F  F5  1  0.35831319  0.75000000  0.69079969  1
  F  F6  1  0.85831319  0.75000000  0.80920031  1
  F  F7  1  0.64168681  0.25000000  0.30920031  1
  F  F8  1  0.81413285  0.25000000  0.10872971  1
  F  F9  1  0.68586715  0.75000000  0.60872971  1
  F  F10  1  0.18586715  0.75000000  0.89127029  1
  F  F11  1  0.31413285  0.25000000  0.39127029  1
  F  F12  1  0.54013844  0.25000000  0.43337630  1
  F  F13  1  0.95986156  0.75000000  0.93337630  1
  F  F14  1  0.45986156  0.75000000  0.56662370  1
  F  F15  1  0.04013844  0.25000000  0.06662370  1
  F  F16  1  0.89062201  0.04475564  0.15049788  1
  F  F17  1  0.60937799  0.95524436  0.65049788  1
  F  F18  1  0.10937799  0.54475564  0.84950212  1
  F  F19  1  0.39062201  0.45524436  0.34950212  1
  F  F20  1  0.10937799  0.95524436  0.84950212  1
  F  F21  1  0.39062201  0.04475564  0.34950212  1
  F  F22  1  0.89062201  0.45524436  0.15049788  1
  F  F23  1  0.60937799  0.54475564  0.65049788  1
  Li  Li24  1  0.08374943  0.25000000  0.86267830  1
  Li  Li25  1  0.41625057  0.75000000  0.36267830  1
  Li  Li26  1  0.91625057  0.75000000  0.13732170  1
  Li  Li27  1  0.58374943  0.25000000  0.63732170  1
  Li  Li28  1  0.00000000  0.00000000  0.00000000  1
  Li  Li29  1  0.50000000  0.00000000  0.50000000  1
  Li  Li30  1  0.00000000  0.50000000  0.00000000  1
  Li  Li31  1  0.50000000  0.50000000  0.50000000  1
  Li  Li32  1  0.77983756  0.37355852  0.27773195  1
  Li  Li33  1  -0.27983756  -0.37355852  0.77773195  1
  Li  Li34  1  -0.77983756  0.87355852  -0.27773195  1
  Li  Li35  1  1.27983756  0.12644148  0.22226805  1
  Li  Li36  1  -0.77983756  -0.37355852  -0.27773195  1
  Li  Li37  1  1.27983756  0.37355852  0.22226805  1
  Li  Li38  1  0.77983756  0.12644148  0.27773195  1
  Li  Li39  1  -0.27983756  0.87355852  0.77773195  1
  Li  Li40  1  0.13128844  0.25000000  0.30078934  1
  Li  Li41  1  0.36871156  0.75000000  0.80078934  1
  Li  Li42  1  0.86871156  0.75000000  0.69921066  1
  Li  Li43  1  0.63128844  0.25000000  0.19921066  1
  Li  Li44  1  0.00000000  0.00000000  0.50000000  1
  Li  Li45  1  0.50000000  0.00000000  0.00000000  1
  Li  Li46  1  0.00000000  0.50000000  0.50000000  1
  Li  Li47  1  0.50000000  0.50000000  0.00000000  1
