# generated using pymatgen
data_LiCaF3
_symmetry_space_group_name_H-M   'P 1'
_cell_length_a   11.90565784
_cell_length_b   11.90565784
_cell_length_c   9.73786764
_cell_angle_alpha   90.00000000
_cell_angle_beta   90.00000000
_cell_angle_gamma   120.00000000
_symmetry_Int_Tables_number   1
_chemical_formula_structural   LiCaF3
_chemical_formula_sum   'Li18 Ca18 F54'
_cell_volume   1195.36708545
_cell_formula_units_Z   18
loop_
 _symmetry_equiv_pos_site_id
 _symmetry_equiv_pos_as_xyz
  1  'x, y, z'
loop_
 _atom_site_type_symbol
 _atom_site_label
 _atom_site_symmetry_multiplicity
 _atom_site_fract_x
 _atom_site_fract_y
 _atom_site_fract_z
 _atom_site_occupancy
  Ca  Ca0  1  0.78221269  0.17649911  0.64445418  1
  Ca  Ca1  1  0.82350089  0.60571358  0.64445418  1
  Ca  Ca2  1  0.39428642  0.21778731  0.64445418  1
  Ca  Ca3  1  0.82350089  0.21778731  0.35554582  1
  Ca  Ca4  1  0.39428642  0.17649911  0.35554582  1
  Ca  Ca5  1  0.78221269  0.60571358  0.35554582  1
  Ca  Ca6  1  0.96232865  0.36067032  0.13157561  1
  Ca  Ca7  1  0.63932968  0.60165832  0.13157561  1
  Ca  Ca8  1  0.39834168  0.03767135  0.13157561  1
  Ca  Ca9  1  0.63932968  0.03767135  0.86842439  1
  Ca  Ca10  1  0.39834168  0.36067032  0.86842439  1
  Ca  Ca11  1  0.96232865  0.60165832  0.86842439  1
  Ca  Ca12  1  0.86583463  0.40898891  0.22881209  1
  Ca  Ca13  1  0.59101109  0.45684572  0.22881209  1
  Ca  Ca14  1  0.54315428  0.13416537  0.22881209  1
  Ca  Ca15  1  0.59101109  0.13416537  0.77118791  1
  Ca  Ca16  1  0.54315428  0.40898891  0.77118791  1
  Ca  Ca17  1  0.86583463  0.45684572  0.77118791  1
  F  F18  1  0.33333333  0.66666667  0.18550198  1
  F  F19  1  0.33333333  0.66666667  0.81449802  1
  F  F20  1  0.82526483  0.72105746  0.29478698  1
  F  F21  1  -0.72105746  0.10420737  0.29478698  1
  F  F22  1  -0.10420737  -0.82526483  0.29478698  1
  F  F23  1  -0.72105746  -0.82526483  -0.29478698  1
  F  F24  1  -0.10420737  0.72105746  -0.29478698  1
  F  F25  1  0.82526483  0.10420737  -0.29478698  1
  F  F26  1  0.05802833  0.94197167  0.50000000  1
  F  F27  1  0.05802833  0.11605666  0.50000000  1
  F  F28  1  0.88394334  0.94197167  0.50000000  1
  F  F29  1  0.25089807  0.00748212  0.38888192  1
  F  F30  1  0.99251788  0.24341595  0.38888192  1
  F  F31  1  0.75658405  0.74910193  0.38888192  1
  F  F32  1  0.99251788  0.74910193  0.61111808  1
  F  F33  1  0.75658405  0.00748212  0.61111808  1
  F  F34  1  0.25089807  0.24341595  0.61111808  1
  F  F35  1  0.14094930  0.90025877  0.18162541  1
  F  F36  1  0.09974123  0.24069053  0.18162541  1
  F  F37  1  0.75930947  0.85905070  0.18162541  1
  F  F38  1  0.09974123  0.85905070  0.81837459  1
  F  F39  1  0.75930947  0.90025877  0.81837459  1
  F  F40  1  0.14094930  0.24069053  0.81837459  1
  F  F41  1  0.66666667  0.33333333  0.00000000  1
  F  F42  1  0.28824805  0.59050177  0.88553949  1
  F  F43  1  0.40949823  0.69774628  0.88553949  1
  F  F44  1  0.30225372  0.71175195  0.88553949  1
  F  F45  1  0.40949823  0.71175195  0.11446051  1
  F  F46  1  0.30225372  0.59050177  0.11446051  1
  F  F47  1  0.28824805  0.69774628  0.11446051  1
  F  F48  1  0.00000000  0.00000000  0.42343655  1
  F  F49  1  0.00000000  0.00000000  0.57656345  1
  F  F50  1  0.66666667  0.33333333  0.63616561  1
  F  F51  1  0.66666667  0.33333333  0.36383439  1
  F  F52  1  0.63290152  0.36709848  0.00000000  1
  F  F53  1  0.63290152  0.26580304  0.00000000  1
  F  F54  1  0.73419696  0.36709848  0.00000000  1
  F  F55  1  0.33333333  0.66666667  0.00000000  1
  F  F56  1  0.40003076  0.37380060  0.02592478  1
  F  F57  1  0.62619940  0.02623016  0.02592478  1
  F  F58  1  0.97376984  0.59996924  0.02592478  1
  F  F59  1  0.62619940  0.59996924  0.97407522  1
  F  F60  1  0.97376984  0.37380060  0.97407522  1
  F  F61  1  0.40003076  0.02623016  0.97407522  1
  F  F62  1  0.39276611  0.40166226  0.47676757  1
  F  F63  1  0.59833774  0.99110385  0.47676757  1
  F  F64  1  0.00889615  0.60723389  0.47676757  1
  F  F65  1  0.59833774  0.60723389  0.52323243  1
  F  F66  1  0.00889615  0.40166226  0.52323243  1
  F  F67  1  0.39276611  0.99110385  0.52323243  1
  F  F68  1  0.80386195  0.19613805  0.00000000  1
  F  F69  1  0.80386195  0.60772389  0.00000000  1
  F  F70  1  0.39227611  0.19613805  0.00000000  1
  F  F71  1  0.00000000  0.00000000  0.50000000  1
  Li  Li72  1  0.62678774  0.94735390  0.65310240  1
  Li  Li73  1  0.05264610  0.67943384  0.65310240  1
  Li  Li74  1  0.32056616  0.37321226  0.65310240  1
  Li  Li75  1  0.05264610  0.37321226  0.34689760  1
  Li  Li76  1  0.32056616  0.94735390  0.34689760  1
  Li  Li77  1  0.62678774  0.67943384  0.34689760  1
  Li  Li78  1  0.71796462  0.93275663  0.28756670  1
  Li  Li79  1  0.06724337  0.78520799  0.28756670  1
  Li  Li80  1  0.21479201  0.28203538  0.28756670  1
  Li  Li81  1  0.06724337  0.28203538  0.71243330  1
  Li  Li82  1  0.21479201  0.93275663  0.71243330  1
  Li  Li83  1  0.71796462  0.78520799  0.71243330  1
  Li  Li84  1  0.09005170  0.76076442  0.02967841  1
  Li  Li85  1  0.23923558  0.32928728  0.02967841  1
  Li  Li86  1  0.67071272  0.90994830  0.02967841  1
  Li  Li87  1  0.23923558  0.90994830  0.97032159  1
  Li  Li88  1  0.67071272  0.76076442  0.97032159  1
  Li  Li89  1  0.09005170  0.32928728  0.97032159  1
