# generated using pymatgen
data_Sr6Li3Al2(Cl4F3)3
_symmetry_space_group_name_H-M   'P 1'
_cell_length_a   9.94371525
_cell_length_b   9.94371525
_cell_length_c   14.57206980
_cell_angle_alpha   90.00000000
_cell_angle_beta   90.00000000
_cell_angle_gamma   120.00000000
_symmetry_Int_Tables_number   1
_chemical_formula_structural   Sr6Li3Al2(Cl4F3)3
_chemical_formula_sum   'Sr12 Li6 Al4 Cl24 F18'
_cell_volume   1247.81221729
_cell_formula_units_Z   2
loop_
 _symmetry_equiv_pos_site_id
 _symmetry_equiv_pos_as_xyz
  1  'x, y, z'
loop_
 _atom_site_type_symbol
 _atom_site_label
 _atom_site_symmetry_multiplicity
 _atom_site_fract_x
 _atom_site_fract_y
 _atom_site_fract_z
 _atom_site_occupancy
  Al  Al0  1  0.00000000  0.00000000  0.25000000  1
  Al  Al1  1  0.00000000  0.00000000  0.75000000  1
  Al  Al2  1  0.66666667  0.33333333  0.25000000  1
  Al  Al3  1  0.33333333  0.66666667  0.75000000  1
  Cl  Cl4  1  0.26155711  0.62658976  0.25000000  1
  Cl  Cl5  1  0.37341024  0.63496735  0.25000000  1
  Cl  Cl6  1  0.36503265  0.73844289  0.25000000  1
  Cl  Cl7  1  0.73844289  0.37341024  0.75000000  1
  Cl  Cl8  1  0.62658976  0.36503265  0.75000000  1
  Cl  Cl9  1  0.63496735  0.26155711  0.75000000  1
  Cl  Cl10  1  0.81175622  0.13258609  0.15240245  1
  Cl  Cl11  1  -0.13258609  0.67917013  0.15240245  1
  Cl  Cl12  1  -0.67917013  -0.81175622  0.15240245  1
  Cl  Cl13  1  -0.81175622  -0.13258609  0.65240245  1
  Cl  Cl14  1  0.13258609  -0.67917013  0.65240245  1
  Cl  Cl15  1  0.67917013  0.81175622  0.65240245  1
  Cl  Cl16  1  -0.81175622  -0.13258609  -0.15240245  1
  Cl  Cl17  1  0.13258609  -0.67917013  -0.15240245  1
  Cl  Cl18  1  0.67917013  0.81175622  -0.15240245  1
  Cl  Cl19  1  0.81175622  0.13258609  0.34759755  1
  Cl  Cl20  1  -0.13258609  0.67917013  0.34759755  1
  Cl  Cl21  1  -0.67917013  -0.81175622  0.34759755  1
  Cl  Cl22  1  0.81177418  0.04995113  0.25000000  1
  Cl  Cl23  1  0.95004887  0.76182305  0.25000000  1
  Cl  Cl24  1  0.23817695  0.18822582  0.25000000  1
  Cl  Cl25  1  0.18822582  0.95004887  0.75000000  1
  Cl  Cl26  1  0.04995113  0.23817695  0.75000000  1
  Cl  Cl27  1  0.76182305  0.81177418  0.75000000  1
  F  F28  1  0.63516780  0.07850595  0.41677428  1
  F  F29  1  0.92149405  0.55666185  0.41677428  1
  F  F30  1  0.44333815  0.36483220  0.41677428  1
  F  F31  1  0.36483220  0.92149405  0.91677428  1
  F  F32  1  0.07850595  0.44333815  0.91677428  1
  F  F33  1  0.55666185  0.63516780  0.91677428  1
  F  F34  1  0.36483220  0.92149405  0.58322572  1
  F  F35  1  0.07850595  0.44333815  0.58322572  1
  F  F36  1  0.55666185  0.63516780  0.58322572  1
  F  F37  1  0.63516780  0.07850595  0.08322572  1
  F  F38  1  0.92149405  0.55666185  0.08322572  1
  F  F39  1  0.44333815  0.36483220  0.08322572  1
  F  F40  1  0.46067326  0.45043762  0.25000000  1
  F  F41  1  0.54956238  0.01023564  0.25000000  1
  F  F42  1  0.98976436  0.53932674  0.25000000  1
  F  F43  1  0.53932674  0.54956238  0.75000000  1
  F  F44  1  0.45043762  0.98976436  0.75000000  1
  F  F45  1  0.01023564  0.46067326  0.75000000  1
  Li  Li46  1  0.50000000  -0.00000000  0.00000000  1
  Li  Li47  1  0.00000000  0.50000000  0.00000000  1
  Li  Li48  1  0.50000000  0.50000000  0.00000000  1
  Li  Li49  1  0.50000000  -0.00000000  0.50000000  1
  Li  Li50  1  0.00000000  0.50000000  0.50000000  1
  Li  Li51  1  0.50000000  0.50000000  0.50000000  1
  Sr  Sr52  1  0.33333333  0.66666667  0.58379875  1
  Sr  Sr53  1  0.66666667  0.33333333  0.08379875  1
  Sr  Sr54  1  0.66666667  0.33333333  0.41620125  1
  Sr  Sr55  1  0.33333333  0.66666667  0.91620125  1
  Sr  Sr56  1  0.79847623  0.83417721  0.25000000  1
  Sr  Sr57  1  0.16582279  0.96429902  0.25000000  1
  Sr  Sr58  1  0.03570098  0.20152377  0.25000000  1
  Sr  Sr59  1  0.20152377  0.16582279  0.75000000  1
  Sr  Sr60  1  0.83417721  0.03570098  0.75000000  1
  Sr  Sr61  1  0.96429902  0.79847623  0.75000000  1
  Sr  Sr62  1  0.00000000  0.00000000  0.00000000  1
  Sr  Sr63  1  0.00000000  0.00000000  0.50000000  1
