# generated using pymatgen
data_LiF
_symmetry_space_group_name_H-M   'P 1'
_cell_length_a   11.68136377
_cell_length_b   4.37032756
_cell_length_c   9.52623695
_cell_angle_alpha   90.00000000
_cell_angle_beta   90.00000000
_cell_angle_gamma   90.00000000
_symmetry_Int_Tables_number   1
_chemical_formula_structural   LiF
_chemical_formula_sum   'Li16 F16'
_cell_volume   486.32760008
_cell_formula_units_Z   16
loop_
 _symmetry_equiv_pos_site_id
 _symmetry_equiv_pos_as_xyz
  1  'x, y, z'
loop_
 _atom_site_type_symbol
 _atom_site_label
 _atom_site_symmetry_multiplicity
 _atom_site_fract_x
 _atom_site_fract_y
 _atom_site_fract_z
 _atom_site_occupancy
  F  F0  1  0.85806256  0.19381324  0.76140799  1
  F  F1  1  -0.85806256  -0.19381324  0.76140799  1
  F  F2  1  -0.35806256  0.69381324  -0.76140799  1
  F  F3  1  1.35806256  0.30618676  -0.76140799  1
  F  F4  1  -0.85806256  -0.19381324  -0.76140799  1
  F  F5  1  0.85806256  0.19381324  -0.76140799  1
  F  F6  1  1.35806256  0.30618676  0.76140799  1
  F  F7  1  -0.35806256  0.69381324  0.76140799  1
  F  F8  1  0.08028475  0.83782631  0.00000000  1
  F  F9  1  0.91971525  0.16217369  -0.00000000  1
  F  F10  1  0.41971525  0.33782631  0.00000000  1
  F  F11  1  0.58028475  0.66217369  0.00000000  1
  F  F12  1  0.00000000  0.50000000  0.00000000  1
  F  F13  1  0.50000000  0.00000000  0.00000000  1
  F  F14  1  0.00000000  0.00000000  0.50000000  1
  F  F15  1  0.50000000  0.50000000  0.50000000  1
  Li  Li16  1  0.47376464  0.32388716  0.61525176  1
  Li  Li17  1  0.52623536  0.67611284  0.61525176  1
  Li  Li18  1  0.02623536  0.82388716  0.38474824  1
  Li  Li19  1  0.97376464  0.17611284  0.38474824  1
  Li  Li20  1  0.52623536  0.67611284  0.38474824  1
  Li  Li21  1  0.47376464  0.32388716  0.38474824  1
  Li  Li22  1  0.97376464  0.17611284  0.61525176  1
  Li  Li23  1  0.02623536  0.82388716  0.61525176  1
  Li  Li24  1  0.35924178  0.92605093  0.81867587  1
  Li  Li25  1  0.64075822  0.07394907  0.81867587  1
  Li  Li26  1  0.14075822  0.42605093  0.18132413  1
  Li  Li27  1  0.85924178  0.57394907  0.18132413  1
  Li  Li28  1  0.64075822  0.07394907  0.18132413  1
  Li  Li29  1  0.35924178  0.92605093  0.18132413  1
  Li  Li30  1  0.85924178  0.57394907  0.81867587  1
  Li  Li31  1  0.14075822  0.42605093  0.81867587  1
