# generated using pymatgen
data_LiF
_symmetry_space_group_name_H-M   'P 1'
_cell_length_a   10.03434863
_cell_length_b   6.63077671
_cell_length_c   13.13804178
_cell_angle_alpha   90.00000000
_cell_angle_beta   90.00000000
_cell_angle_gamma   90.00000000
_symmetry_Int_Tables_number   1
_chemical_formula_structural   LiF
_chemical_formula_sum   'Li40 F40'
_cell_volume   874.14651030
_cell_formula_units_Z   40
loop_
 _symmetry_equiv_pos_site_id
 _symmetry_equiv_pos_as_xyz
  1  'x, y, z'
loop_
 _atom_site_type_symbol
 _atom_site_label
 _atom_site_symmetry_multiplicity
 _atom_site_fract_x
 _atom_site_fract_y
 _atom_site_fract_z
 _atom_site_occupancy
  F  F0  1  0.28338439  0.47513805  0.45232433  1
  F  F1  1  0.71661561  0.52486195  0.45232433  1
  F  F2  1  0.21661561  0.97513805  0.54767567  1
  F  F3  1  0.78338439  0.02486195  0.54767567  1
  F  F4  1  0.71661561  0.52486195  0.54767567  1
  F  F5  1  0.28338439  0.47513805  0.54767567  1
  F  F6  1  0.78338439  0.02486195  0.45232433  1
  F  F7  1  0.21661561  0.97513805  0.45232433  1
  F  F8  1  0.82655500  0.92061499  0.56918388  1
  F  F9  1  0.17344500  0.07938501  0.56918388  1
  F  F10  1  0.67344500  0.42061499  0.43081612  1
  F  F11  1  0.32655500  0.57938501  0.43081612  1
  F  F12  1  0.17344500  0.07938501  0.43081612  1
  F  F13  1  0.82655500  0.92061499  0.43081612  1
  F  F14  1  0.32655500  0.57938501  0.56918388  1
  F  F15  1  0.67344500  0.42061499  0.56918388  1
  F  F16  1  0.84423413  0.96074601  0.18786539  1
  F  F17  1  0.15576587  0.03925399  0.18786539  1
  F  F18  1  0.65576587  0.46074601  0.81213461  1
  F  F19  1  0.34423413  0.53925399  0.81213461  1
  F  F20  1  0.15576587  0.03925399  0.81213461  1
  F  F21  1  0.84423413  0.96074601  0.81213461  1
  F  F22  1  0.34423413  0.53925399  0.18786539  1
  F  F23  1  0.65576587  0.46074601  0.18786539  1
  F  F24  1  0.77764311  0.92540659  0.37045523  1
  F  F25  1  0.22235689  0.07459341  0.37045523  1
  F  F26  1  0.72235689  0.42540659  0.62954477  1
  F  F27  1  0.27764311  0.57459341  0.62954477  1
  F  F28  1  0.22235689  0.07459341  0.62954477  1
  F  F29  1  0.77764311  0.92540659  0.62954477  1
  F  F30  1  0.27764311  0.57459341  0.37045523  1
  F  F31  1  0.72235689  0.42540659  0.37045523  1
  F  F32  1  0.57222073  0.80274887  0.80139705  1
  F  F33  1  0.42777927  0.19725113  0.80139705  1
  F  F34  1  0.92777927  0.30274887  0.19860295  1
  F  F35  1  0.07222073  0.69725113  0.19860295  1
  F  F36  1  0.42777927  0.19725113  0.19860295  1
  F  F37  1  0.57222073  0.80274887  0.19860295  1
  F  F38  1  0.07222073  0.69725113  0.80139705  1
  F  F39  1  0.92777927  0.30274887  0.80139705  1
  Li  Li40  1  0.00000000  0.50000000  0.00000000  1
  Li  Li41  1  0.50000000  -0.00000000  0.00000000  1
  Li  Li42  1  0.87729245  0.22494203  0.60850261  1
  Li  Li43  1  -0.87729245  -0.22494203  0.60850261  1
  Li  Li44  1  -0.37729245  0.72494203  -0.60850261  1
  Li  Li45  1  1.37729245  0.27505797  -0.60850261  1
  Li  Li46  1  -0.87729245  -0.22494203  -0.60850261  1
  Li  Li47  1  0.87729245  0.22494203  -0.60850261  1
  Li  Li48  1  1.37729245  0.27505797  0.60850261  1
  Li  Li49  1  -0.37729245  0.72494203  0.60850261  1
  Li  Li50  1  0.67910340  0.82278440  0.94254405  1
  Li  Li51  1  0.32089660  0.17721560  0.94254405  1
  Li  Li52  1  0.82089660  0.32278440  0.05745595  1
  Li  Li53  1  0.17910340  0.67721560  0.05745595  1
  Li  Li54  1  0.32089660  0.17721560  0.05745595  1
  Li  Li55  1  0.67910340  0.82278440  0.05745595  1
  Li  Li56  1  0.17910340  0.67721560  0.94254405  1
  Li  Li57  1  0.82089660  0.32278440  0.94254405  1
  Li  Li58  1  0.00000000  0.50000000  0.68030678  1
  Li  Li59  1  0.50000000  -0.00000000  0.31969322  1
  Li  Li60  1  0.00000000  0.50000000  0.31969322  1
  Li  Li61  1  0.50000000  -0.00000000  0.68030678  1
  Li  Li62  1  0.35040003  0.58371098  0.50000000  1
  Li  Li63  1  0.64959997  0.41628902  0.50000000  1
  Li  Li64  1  0.14959997  0.08371098  0.50000000  1
  Li  Li65  1  0.85040003  0.91628902  0.50000000  1
  Li  Li66  1  0.67313212  0.23561738  0.38427574  1
  Li  Li67  1  0.32686788  0.76438262  0.38427574  1
  Li  Li68  1  0.82686788  0.73561738  0.61572426  1
  Li  Li69  1  0.17313212  0.26438262  0.61572426  1
  Li  Li70  1  0.32686788  0.76438262  0.61572426  1
  Li  Li71  1  0.67313212  0.23561738  0.61572426  1
  Li  Li72  1  0.17313212  0.26438262  0.38427574  1
  Li  Li73  1  0.82686788  0.73561738  0.38427574  1
  Li  Li74  1  0.86811334  0.11575955  0.50000000  1
  Li  Li75  1  0.13188666  0.88424045  0.50000000  1
  Li  Li76  1  0.63188666  0.61575955  0.50000000  1
  Li  Li77  1  0.36811334  0.38424045  0.50000000  1
  Li  Li78  1  0.00000000  0.50000000  0.50000000  1
  Li  Li79  1  0.50000000  -0.00000000  0.50000000  1
