# generated using pymatgen
data_Li4Hf3(SBr2)4
_symmetry_space_group_name_H-M   'P 1'
_cell_length_a   12.99979600
_cell_length_b   12.99979600
_cell_length_c   9.09691933
_cell_angle_alpha   90.00000000
_cell_angle_beta   90.00000000
_cell_angle_gamma   120.00000000
_symmetry_Int_Tables_number   1
_chemical_formula_structural   Li4Hf3(SBr2)4
_chemical_formula_sum   'Li16 Hf12 S16 Br32'
_cell_volume   1331.36780060
_cell_formula_units_Z   4
loop_
 _symmetry_equiv_pos_site_id
 _symmetry_equiv_pos_as_xyz
  1  'x, y, z'
loop_
 _atom_site_type_symbol
 _atom_site_label
 _atom_site_symmetry_multiplicity
 _atom_site_fract_x
 _atom_site_fract_y
 _atom_site_fract_z
 _atom_site_occupancy
  Br  Br0  1  0.21694211  0.60582543  0.25000000  1
  Br  Br1  1  0.39417457  0.61111668  0.25000000  1
  Br  Br2  1  0.38888332  0.78305789  0.25000000  1
  Br  Br3  1  0.78305789  0.39417457  0.75000000  1
  Br  Br4  1  0.60582543  0.38888332  0.75000000  1
  Br  Br5  1  0.61111668  0.21694211  0.75000000  1
  Br  Br6  1  0.66666667  0.33333333  0.25000000  1
  Br  Br7  1  0.33333333  0.66666667  0.75000000  1
  Br  Br8  1  0.28494152  0.93527851  0.92052668  1
  Br  Br9  1  -0.93527851  -0.65033700  0.92052668  1
  Br  Br10  1  0.65033700  -0.28494152  0.92052668  1
  Br  Br11  1  -0.28494152  -0.93527851  1.42052668  1
  Br  Br12  1  0.93527851  0.65033700  1.42052668  1
  Br  Br13  1  -0.65033700  0.28494152  1.42052668  1
  Br  Br14  1  -0.28494152  -0.93527851  -0.92052668  1
  Br  Br15  1  0.93527851  0.65033700  -0.92052668  1
  Br  Br16  1  -0.65033700  0.28494152  -0.92052668  1
  Br  Br17  1  0.28494152  0.93527851  -0.42052668  1
  Br  Br18  1  -0.93527851  -0.65033700  -0.42052668  1
  Br  Br19  1  0.65033700  -0.28494152  -0.42052668  1
  Br  Br20  1  0.32971228  0.82269572  0.85261772  1
  Br  Br21  1  0.17730428  0.50701656  0.85261772  1
  Br  Br22  1  0.49298344  0.67028772  0.85261772  1
  Br  Br23  1  0.67028772  0.17730428  0.35261772  1
  Br  Br24  1  0.82269572  0.49298344  0.35261772  1
  Br  Br25  1  0.50701656  0.32971228  0.35261772  1
  Br  Br26  1  0.67028772  0.17730428  0.14738228  1
  Br  Br27  1  0.82269572  0.49298344  0.14738228  1
  Br  Br28  1  0.50701656  0.32971228  0.14738228  1
  Br  Br29  1  0.32971228  0.82269572  0.64738228  1
  Br  Br30  1  0.17730428  0.50701656  0.64738228  1
  Br  Br31  1  0.49298344  0.67028772  0.64738228  1
  Hf  Hf32  1  0.48483931  0.56615208  0.25000000  1
  Hf  Hf33  1  0.43384792  0.91868723  0.25000000  1
  Hf  Hf34  1  0.08131277  0.51516069  0.25000000  1
  Hf  Hf35  1  0.51516069  0.43384792  0.75000000  1
  Hf  Hf36  1  0.56615208  0.08131277  0.75000000  1
  Hf  Hf37  1  0.91868723  0.48483931  0.75000000  1
  Hf  Hf38  1  0.50000000  0.00000000  0.00000000  1
  Hf  Hf39  1  0.00000000  0.50000000  0.00000000  1
  Hf  Hf40  1  0.50000000  0.50000000  0.00000000  1
  Hf  Hf41  1  0.50000000  0.00000000  0.50000000  1
  Hf  Hf42  1  0.00000000  0.50000000  0.50000000  1
  Hf  Hf43  1  0.50000000  0.50000000  0.50000000  1
  Li  Li44  1  0.29007784  0.17044359  0.25000000  1
  Li  Li45  1  0.82955641  0.11963425  0.25000000  1
  Li  Li46  1  0.88036575  0.70992216  0.25000000  1
  Li  Li47  1  0.70992216  0.82955641  0.75000000  1
  Li  Li48  1  0.17044359  0.88036575  0.75000000  1
  Li  Li49  1  0.11963425  0.29007784  0.75000000  1
  Li  Li50  1  0.32155408  0.45850091  0.25000000  1
  Li  Li51  1  0.54149909  0.86305317  0.25000000  1
  Li  Li52  1  0.13694683  0.67844592  0.25000000  1
  Li  Li53  1  0.67844592  0.54149909  0.75000000  1
  Li  Li54  1  0.45850091  0.13694683  0.75000000  1
  Li  Li55  1  0.86305317  0.32155408  0.75000000  1
  Li  Li56  1  0.33333333  0.66666667  0.94212147  1
  Li  Li57  1  0.66666667  0.33333333  0.44212147  1
  Li  Li58  1  0.66666667  0.33333333  0.05787853  1
  Li  Li59  1  0.33333333  0.66666667  0.55787853  1
  S  S60  1  0.40709538  0.02835335  0.84238689  1
  S  S61  1  0.97164665  0.37874203  0.84238689  1
  S  S62  1  0.62125797  0.59290462  0.84238689  1
  S  S63  1  0.59290462  0.97164665  0.34238689  1
  S  S64  1  0.02835335  0.62125797  0.34238689  1
  S  S65  1  0.37874203  0.40709538  0.34238689  1
  S  S66  1  0.59290462  0.97164665  0.15761311  1
  S  S67  1  0.02835335  0.62125797  0.15761311  1
  S  S68  1  0.37874203  0.40709538  0.15761311  1
  S  S69  1  0.40709538  0.02835335  0.65761311  1
  S  S70  1  0.97164665  0.37874203  0.65761311  1
  S  S71  1  0.62125797  0.59290462  0.65761311  1
  S  S72  1  0.00000000  0.00000000  0.25000000  1
  S  S73  1  0.00000000  0.00000000  0.75000000  1
  S  S74  1  0.33333333  0.66666667  0.25000000  1
  S  S75  1  0.66666667  0.33333333  0.75000000  1
