# generated using pymatgen
data_Li4ScF
_symmetry_space_group_name_H-M   'P 1'
_cell_length_a   3.31057671
_cell_length_b   3.16995739
_cell_length_c   5.49533428
_cell_angle_alpha   107.54165821
_cell_angle_beta   104.22089423
_cell_angle_gamma   109.55166621
_symmetry_Int_Tables_number   1
_chemical_formula_structural   Li4ScF
_chemical_formula_sum   'Li4 Sc1 F1'
_cell_volume   47.80911801
_cell_formula_units_Z   1
loop_
 _symmetry_equiv_pos_site_id
 _symmetry_equiv_pos_as_xyz
  1  'x, y, z'
loop_
 _atom_site_type_symbol
 _atom_site_label
 _atom_site_symmetry_multiplicity
 _atom_site_fract_x
 _atom_site_fract_y
 _atom_site_fract_z
 _atom_site_occupancy
  F  F0  1  0.00000000  0.00000000  0.00000000  1
  Li  Li1  1  0.50000000  0.50000000  0.50000000  1
  Li  Li2  1  0.25000000  0.25000000  0.25000000  1
  Li  Li3  1  0.75000000  0.25000000  0.00000000  1
  Li  Li4  1  0.25000000  0.75000000  0.50000000  1
  Sc  Sc5  1  0.48663134  0.73951858  0.99078973  1
