# generated using pymatgen
data_LiF
_symmetry_space_group_name_H-M   'P 1'
_cell_length_a   20.35307098
_cell_length_b   4.13949185
_cell_length_c   7.30951202
_cell_angle_alpha   90.00000000
_cell_angle_beta   90.00000000
_cell_angle_gamma   90.00000000
_symmetry_Int_Tables_number   1
_chemical_formula_structural   LiF
_chemical_formula_sum   'Li24 F24'
_cell_volume   615.83641205
_cell_formula_units_Z   24
loop_
 _symmetry_equiv_pos_site_id
 _symmetry_equiv_pos_as_xyz
  1  'x, y, z'
loop_
 _atom_site_type_symbol
 _atom_site_label
 _atom_site_symmetry_multiplicity
 _atom_site_fract_x
 _atom_site_fract_y
 _atom_site_fract_z
 _atom_site_occupancy
  F  F0  1  0.59486432  0.42810099  0.12756250  1
  F  F1  1  0.90513568  0.57189901  0.62756250  1
  F  F2  1  0.40513568  0.92810099  0.87243750  1
  F  F3  1  0.09486432  0.07189901  0.37243750  1
  F  F4  1  0.40513568  0.57189901  0.87243750  1
  F  F5  1  0.09486432  0.42810099  0.37243750  1
  F  F6  1  0.59486432  0.07189901  0.12756250  1
  F  F7  1  0.90513568  0.92810099  0.62756250  1
  F  F8  1  0.28216142  0.59611054  0.20760499  1
  F  F9  1  0.21783858  0.40388946  0.70760499  1
  F  F10  1  0.71783858  0.09611054  0.79239501  1
  F  F11  1  0.78216142  0.90388946  0.29239501  1
  F  F12  1  0.71783858  0.40388946  0.79239501  1
  F  F13  1  0.78216142  0.59611054  0.29239501  1
  F  F14  1  0.28216142  0.90388946  0.20760499  1
  F  F15  1  0.21783858  0.09611054  0.70760499  1
  F  F16  1  0.25449652  0.58131998  0.27733655  1
  F  F17  1  0.24550348  0.41868002  0.77733655  1
  F  F18  1  0.74550348  0.08131998  0.72266345  1
  F  F19  1  0.75449652  0.91868002  0.22266345  1
  F  F20  1  0.74550348  0.41868002  0.72266345  1
  F  F21  1  0.75449652  0.58131998  0.22266345  1
  F  F22  1  0.25449652  0.91868002  0.27733655  1
  F  F23  1  0.24550348  0.08131998  0.77733655  1
  Li  Li24  1  0.05410068  0.59392505  0.95564933  1
  Li  Li25  1  0.44589932  -0.59392505  1.45564933  1
  Li  Li26  1  -0.05410068  1.09392505  -0.95564933  1
  Li  Li27  1  0.55410068  -0.09392505  -0.45564933  1
  Li  Li28  1  -0.05410068  -0.59392505  -0.95564933  1
  Li  Li29  1  0.55410068  0.59392505  -0.45564933  1
  Li  Li30  1  0.05410068  -0.09392505  0.95564933  1
  Li  Li31  1  0.44589932  1.09392505  1.45564933  1
  Li  Li32  1  0.40276796  0.25000000  0.60452898  1
  Li  Li33  1  0.09723204  0.75000000  0.10452898  1
  Li  Li34  1  0.59723204  0.75000000  0.39547102  1
  Li  Li35  1  0.90276796  0.25000000  0.89547102  1
  Li  Li36  1  0.54862521  0.25000000  0.69331105  1
  Li  Li37  1  0.95137479  0.75000000  0.19331105  1
  Li  Li38  1  0.45137479  0.75000000  0.30668895  1
  Li  Li39  1  0.04862521  0.25000000  0.80668895  1
  Li  Li40  1  0.51928405  0.25000000  0.41329667  1
  Li  Li41  1  0.98071595  0.75000000  0.91329667  1
  Li  Li42  1  0.48071595  0.75000000  0.58670333  1
  Li  Li43  1  0.01928405  0.25000000  0.08670333  1
  Li  Li44  1  0.00000000  0.00000000  0.50000000  1
  Li  Li45  1  0.50000000  0.00000000  0.00000000  1
  Li  Li46  1  0.00000000  0.50000000  0.50000000  1
  Li  Li47  1  0.50000000  0.50000000  0.00000000  1
