# generated using pymatgen
data_Li2O
_symmetry_space_group_name_H-M   'P 1'
_cell_length_a   6.07518417
_cell_length_b   6.07518417
_cell_length_c   12.64735422
_cell_angle_alpha   90.00000000
_cell_angle_beta   90.00000000
_cell_angle_gamma   120.00000000
_symmetry_Int_Tables_number   1
_chemical_formula_structural   Li2O
_chemical_formula_sum   'Li24 O12'
_cell_volume   404.24923835
_cell_formula_units_Z   12
loop_
 _symmetry_equiv_pos_site_id
 _symmetry_equiv_pos_as_xyz
  1  'x, y, z'
loop_
 _atom_site_type_symbol
 _atom_site_label
 _atom_site_symmetry_multiplicity
 _atom_site_fract_x
 _atom_site_fract_y
 _atom_site_fract_z
 _atom_site_occupancy
  Li  Li0  1  0.33333333  0.66666667  0.86487356  1
  Li  Li1  1  0.66666667  0.33333333  0.36487356  1
  Li  Li2  1  0.66666667  0.33333333  0.13512644  1
  Li  Li3  1  0.33333333  0.66666667  0.63512644  1
  Li  Li4  1  0.33333333  0.66666667  0.25000000  1
  Li  Li5  1  0.66666667  0.33333333  0.75000000  1
  Li  Li6  1  0.50000000  0.00000000  0.00000000  1
  Li  Li7  1  0.00000000  0.50000000  0.00000000  1
  Li  Li8  1  0.50000000  0.50000000  0.00000000  1
  Li  Li9  1  0.50000000  0.00000000  0.50000000  1
  Li  Li10  1  0.00000000  0.50000000  0.50000000  1
  Li  Li11  1  0.50000000  0.50000000  0.50000000  1
  Li  Li12  1  0.85666811  1.71333621  0.97827825  1
  Li  Li13  1  -1.71333621  -0.85666811  0.97827825  1
  Li  Li14  1  0.85666811  -0.85666811  0.97827825  1
  Li  Li15  1  -0.85666811  -1.71333621  1.47827825  1
  Li  Li16  1  1.71333621  0.85666811  1.47827825  1
  Li  Li17  1  -0.85666811  0.85666811  1.47827825  1
  Li  Li18  1  1.71333621  0.85666811  -0.97827825  1
  Li  Li19  1  -0.85666811  -1.71333621  -0.97827825  1
  Li  Li20  1  -0.85666811  0.85666811  -0.97827825  1
  Li  Li21  1  -1.71333621  -0.85666811  -0.47827825  1
  Li  Li22  1  0.85666811  1.71333621  -0.47827825  1
  Li  Li23  1  0.85666811  -0.85666811  -0.47827825  1
  O  O24  1  0.33333333  0.66666667  0.75000000  1
  O  O25  1  0.66666667  0.33333333  0.25000000  1
  O  O26  1  0.00000000  0.00000000  0.00000000  1
  O  O27  1  0.00000000  0.00000000  0.50000000  1
  O  O28  1  0.79715933  0.59431866  0.25000000  1
  O  O29  1  0.40568134  0.20284067  0.25000000  1
  O  O30  1  0.79715933  0.20284067  0.25000000  1
  O  O31  1  0.20284067  0.40568134  0.75000000  1
  O  O32  1  0.59431866  0.79715933  0.75000000  1
  O  O33  1  0.20284067  0.79715933  0.75000000  1
  O  O34  1  0.00000000  0.00000000  0.25000000  1
  O  O35  1  0.00000000  0.00000000  0.75000000  1
