# generated using pymatgen
data_LiYAs2PSe
_symmetry_space_group_name_H-M   'P 1'
_cell_length_a   5.53034074
_cell_length_b   5.57822556
_cell_length_c   6.99336791
_cell_angle_alpha   93.63187405
_cell_angle_beta   97.29923310
_cell_angle_gamma   103.63078692
_symmetry_Int_Tables_number   1
_chemical_formula_structural   LiYAs2PSe
_chemical_formula_sum   'Li2 Y2 As4 P2 Se2'
_cell_volume   206.99011234
_cell_formula_units_Z   2
loop_
 _symmetry_equiv_pos_site_id
 _symmetry_equiv_pos_as_xyz
  1  'x, y, z'
loop_
 _atom_site_type_symbol
 _atom_site_label
 _atom_site_symmetry_multiplicity
 _atom_site_fract_x
 _atom_site_fract_y
 _atom_site_fract_z
 _atom_site_occupancy
  Se  Se0  1  0.12500000  0.00000000  0.25000000  1
  Se  Se1  1  0.00000000  0.00000000  0.00000000  1
  P  P2  1  0.37500000  0.00000000  0.25000000  1
  P  P3  1  0.25000000  0.25000000  0.25000000  1
  As  As4  1  0.00000000  0.25000000  0.12500000  1
  As  As5  1  0.84839916  0.85020525  0.30025167  1
  As  As6  1  0.60388239  0.06007888  0.98774597  1
  As  As7  1  0.54933191  0.63059572  0.17811267  1
  Li  Li8  1  0.81010235  0.84082335  0.17015681  1
  Li  Li9  1  0.07573542  0.57825536  0.91790599  1
  Y  Y10  1  0.47148615  0.81892259  0.60605569  1
  Y  Y11  1  0.33674118  0.03232259  0.01611800  1
