# generated using pymatgen
data_LiY2Te4(As2P)2
_symmetry_space_group_name_H-M   'P 1'
_cell_length_a   5.22989750
_cell_length_b   5.19801195
_cell_length_c   7.24702319
_cell_angle_alpha   94.59580861
_cell_angle_beta   100.00871570
_cell_angle_gamma   108.45953660
_symmetry_Int_Tables_number   1
_chemical_formula_structural   LiY2Te4(As2P)2
_chemical_formula_sum   'Li1 Y2 Te4 As4 P2'
_cell_volume   182.09361675
_cell_formula_units_Z   1
loop_
 _symmetry_equiv_pos_site_id
 _symmetry_equiv_pos_as_xyz
  1  'x, y, z'
loop_
 _atom_site_type_symbol
 _atom_site_label
 _atom_site_symmetry_multiplicity
 _atom_site_fract_x
 _atom_site_fract_y
 _atom_site_fract_z
 _atom_site_occupancy
  Te  Te0  1  0.12500000  0.00000000  0.25000000  1
  Te  Te1  1  0.00000000  0.00000000  0.00000000  1
  Te  Te2  1  0.37500000  0.00000000  0.25000000  1
  Te  Te3  1  0.25000000  0.25000000  0.25000000  1
  Y  Y4  1  0.00000000  0.25000000  0.12500000  1
  Y  Y5  1  0.91793836  0.97177883  0.69115683  1
  P  P6  1  0.83131026  0.72502179  0.60932902  1
  P  P7  1  0.39734379  0.29306972  0.08676497  1
  As  As8  1  0.18042752  0.68684027  0.58539055  1
  As  As9  1  0.11746734  0.67827275  0.17153569  1
  As  As10  1  0.04621352  0.38211444  0.93248085  1
  As  As11  1  0.14663966  0.27459029  0.49638082  1
  Li  Li12  1  0.01911637  0.45296441  0.98218273  1
