# generated using pymatgen
data_LiF
_symmetry_space_group_name_H-M   'P 1'
_cell_length_a   5.82760623
_cell_length_b   7.41848109
_cell_length_c   15.91164584
_cell_angle_alpha   90.00000000
_cell_angle_beta   90.00000000
_cell_angle_gamma   90.00000000
_symmetry_Int_Tables_number   1
_chemical_formula_structural   LiF
_chemical_formula_sum   'Li24 F24'
_cell_volume   687.89205992
_cell_formula_units_Z   24
loop_
 _symmetry_equiv_pos_site_id
 _symmetry_equiv_pos_as_xyz
  1  'x, y, z'
loop_
 _atom_site_type_symbol
 _atom_site_label
 _atom_site_symmetry_multiplicity
 _atom_site_fract_x
 _atom_site_fract_y
 _atom_site_fract_z
 _atom_site_occupancy
  F  F0  1  0.44544999  0.25000000  0.10091564  1
  F  F1  1  0.05455001  0.75000000  0.60091564  1
  F  F2  1  0.55455001  0.75000000  0.89908436  1
  F  F3  1  0.94544999  0.25000000  0.39908436  1
  F  F4  1  0.06178998  0.10717557  0.56233912  1
  F  F5  1  0.43821002  0.89282443  0.06233912  1
  F  F6  1  0.93821002  0.60717557  0.43766088  1
  F  F7  1  0.56178998  0.39282443  0.93766088  1
  F  F8  1  0.93821002  0.89282443  0.43766088  1
  F  F9  1  0.56178998  0.10717557  0.93766088  1
  F  F10  1  0.06178998  0.39282443  0.56233912  1
  F  F11  1  0.43821002  0.60717557  0.06233912  1
  F  F12  1  0.00000000  0.00000000  0.00000000  1
  F  F13  1  0.50000000  -0.00000000  0.50000000  1
  F  F14  1  0.00000000  0.50000000  -0.00000000  1
  F  F15  1  0.50000000  0.50000000  0.50000000  1
  F  F16  1  0.91968235  0.03226027  0.34910107  1
  F  F17  1  0.58031765  0.96773973  0.84910107  1
  F  F18  1  0.08031765  0.53226027  0.65089893  1
  F  F19  1  0.41968235  0.46773973  0.15089893  1
  F  F20  1  0.08031765  0.96773973  0.65089893  1
  F  F21  1  0.41968235  0.03226027  0.15089893  1
  F  F22  1  0.91968235  0.46773973  0.34910107  1
  F  F23  1  0.58031765  0.53226027  0.84910107  1
  Li  Li24  1  0.92651181  0.62156365  0.01573254  1
  Li  Li25  1  -0.42651181  -0.62156365  0.51573254  1
  Li  Li26  1  -0.92651181  1.12156365  -0.01573254  1
  Li  Li27  1  1.42651181  -0.12156365  0.48426746  1
  Li  Li28  1  -0.92651181  -0.62156365  -0.01573254  1
  Li  Li29  1  1.42651181  0.62156365  0.48426746  1
  Li  Li30  1  0.92651181  -0.12156365  0.01573254  1
  Li  Li31  1  -0.42651181  1.12156365  0.51573254  1
  Li  Li32  1  0.92716113  0.36939275  0.75445184  1
  Li  Li33  1  0.57283887  0.63060725  0.25445184  1
  Li  Li34  1  0.07283887  0.86939275  0.24554816  1
  Li  Li35  1  0.42716113  0.13060725  0.74554816  1
  Li  Li36  1  0.07283887  0.63060725  0.24554816  1
  Li  Li37  1  0.42716113  0.36939275  0.74554816  1
  Li  Li38  1  0.92716113  0.13060725  0.75445184  1
  Li  Li39  1  0.57283887  0.86939275  0.25445184  1
  Li  Li40  1  0.34544335  0.25000000  0.36052856  1
  Li  Li41  1  0.15455665  0.75000000  0.86052856  1
  Li  Li42  1  0.65455665  0.75000000  0.63947144  1
  Li  Li43  1  0.84544335  0.25000000  0.13947144  1
  Li  Li44  1  0.00000000  0.00000000  0.50000000  1
  Li  Li45  1  0.50000000  -0.00000000  0.00000000  1
  Li  Li46  1  0.00000000  0.50000000  0.50000000  1
  Li  Li47  1  0.50000000  0.50000000  -0.00000000  1
