# generated using pymatgen
data_LiF
_symmetry_space_group_name_H-M   'P 1'
_cell_length_a   9.13916461
_cell_length_b   8.79336228
_cell_length_c   7.02333973
_cell_angle_alpha   90.00000000
_cell_angle_beta   90.00000000
_cell_angle_gamma   90.00000000
_symmetry_Int_Tables_number   1
_chemical_formula_structural   LiF
_chemical_formula_sum   'Li24 F24'
_cell_volume   564.42357097
_cell_formula_units_Z   24
loop_
 _symmetry_equiv_pos_site_id
 _symmetry_equiv_pos_as_xyz
  1  'x, y, z'
loop_
 _atom_site_type_symbol
 _atom_site_label
 _atom_site_symmetry_multiplicity
 _atom_site_fract_x
 _atom_site_fract_y
 _atom_site_fract_z
 _atom_site_occupancy
  F  F0  1  0.00000000  0.00000000  0.50000000  1
  F  F1  1  0.50000000  0.00000000  -0.00000000  1
  F  F2  1  0.00000000  0.50000000  0.50000000  1
  F  F3  1  0.50000000  0.50000000  0.00000000  1
  F  F4  1  0.53002863  0.84952900  0.02781651  1
  F  F5  1  0.96997137  0.15047100  0.52781651  1
  F  F6  1  0.46997137  0.34952900  0.97218349  1
  F  F7  1  0.03002863  0.65047100  0.47218349  1
  F  F8  1  0.46997137  0.15047100  0.97218349  1
  F  F9  1  0.03002863  0.84952900  0.47218349  1
  F  F10  1  0.53002863  0.65047100  0.02781651  1
  F  F11  1  0.96997137  0.34952900  0.52781651  1
  F  F12  1  0.16773338  0.10544568  0.23584861  1
  F  F13  1  0.33226662  0.89455432  0.73584861  1
  F  F14  1  0.83226662  0.60544568  0.76415139  1
  F  F15  1  0.66773338  0.39455432  0.26415139  1
  F  F16  1  0.83226662  0.89455432  0.76415139  1
  F  F17  1  0.66773338  0.10544568  0.26415139  1
  F  F18  1  0.16773338  0.39455432  0.23584861  1
  F  F19  1  0.33226662  0.60544568  0.73584861  1
  F  F20  1  0.63459626  0.25000000  0.40569925  1
  F  F21  1  0.86540374  0.75000000  0.90569925  1
  F  F22  1  0.36540374  0.75000000  0.59430075  1
  F  F23  1  0.13459626  0.25000000  0.09430075  1
  Li  Li24  1  0.65212356  0.51338547  0.71293005  1
  Li  Li25  1  -0.15212356  -0.51338547  1.21293005  1
  Li  Li26  1  -0.65212356  1.01338547  -0.71293005  1
  Li  Li27  1  1.15212356  -0.01338547  -0.21293005  1
  Li  Li28  1  -0.65212356  -0.51338547  -0.71293005  1
  Li  Li29  1  1.15212356  0.51338547  -0.21293005  1
  Li  Li30  1  0.65212356  -0.01338547  0.71293005  1
  Li  Li31  1  -0.15212356  1.01338547  1.21293005  1
  Li  Li32  1  0.00000000  0.00000000  0.00000000  1
  Li  Li33  1  0.50000000  0.00000000  0.50000000  1
  Li  Li34  1  0.00000000  0.50000000  0.00000000  1
  Li  Li35  1  0.50000000  0.50000000  0.50000000  1
  Li  Li36  1  0.75320561  0.25000000  0.67021103  1
  Li  Li37  1  0.74679439  0.75000000  0.17021103  1
  Li  Li38  1  0.24679439  0.75000000  0.32978897  1
  Li  Li39  1  0.25320561  0.25000000  0.82978897  1
  Li  Li40  1  0.58361752  0.14194800  0.04815460  1
  Li  Li41  1  0.91638248  0.85805200  0.54815460  1
  Li  Li42  1  0.41638248  0.64194800  0.95184540  1
  Li  Li43  1  0.08361752  0.35805200  0.45184540  1
  Li  Li44  1  0.41638248  0.85805200  0.95184540  1
  Li  Li45  1  0.08361752  0.14194800  0.45184540  1
  Li  Li46  1  0.58361752  0.35805200  0.04815460  1
  Li  Li47  1  0.91638248  0.64194800  0.54815460  1
