# generated using pymatgen
data_LiF
_symmetry_space_group_name_H-M   'P 1'
_cell_length_a   5.65251030
_cell_length_b   8.91995529
_cell_length_c   9.49464216
_cell_angle_alpha   90.00000000
_cell_angle_beta   90.00000000
_cell_angle_gamma   90.00000000
_symmetry_Int_Tables_number   1
_chemical_formula_structural   LiF
_chemical_formula_sum   'Li20 F20'
_cell_volume   478.72117894
_cell_formula_units_Z   20
loop_
 _symmetry_equiv_pos_site_id
 _symmetry_equiv_pos_as_xyz
  1  'x, y, z'
loop_
 _atom_site_type_symbol
 _atom_site_label
 _atom_site_symmetry_multiplicity
 _atom_site_fract_x
 _atom_site_fract_y
 _atom_site_fract_z
 _atom_site_occupancy
  F  F0  1  0.34170804  0.56669244  0.18170314  1
  F  F1  1  0.65829196  0.43330756  0.18170314  1
  F  F2  1  0.15829196  0.06669244  0.81829686  1
  F  F3  1  0.84170804  0.93330756  0.81829686  1
  F  F4  1  0.65829196  0.43330756  0.81829686  1
  F  F5  1  0.34170804  0.56669244  0.81829686  1
  F  F6  1  0.84170804  0.93330756  0.18170314  1
  F  F7  1  0.15829196  0.06669244  0.18170314  1
  F  F8  1  0.07231089  0.68852100  -0.00000000  1
  F  F9  1  0.92768911  0.31147900  -0.00000000  1
  F  F10  1  0.42768911  0.18852100  0.00000000  1
  F  F11  1  0.57231089  0.81147900  0.00000000  1
  F  F12  1  0.38362346  0.02225801  0.07958857  1
  F  F13  1  0.61637654  0.97774199  0.07958857  1
  F  F14  1  0.11637654  0.52225801  0.92041143  1
  F  F15  1  0.88362346  0.47774199  0.92041143  1
  F  F16  1  0.61637654  0.97774199  0.92041143  1
  F  F17  1  0.38362346  0.02225801  0.92041143  1
  F  F18  1  0.88362346  0.47774199  0.07958857  1
  F  F19  1  0.11637654  0.52225801  0.07958857  1
  Li  Li20  1  0.64954902  0.73535915  0.60529127  1
  Li  Li21  1  -0.64954902  -0.73535915  0.60529127  1
  Li  Li22  1  -0.14954902  1.23535915  -0.60529127  1
  Li  Li23  1  1.14954902  -0.23535915  -0.60529127  1
  Li  Li24  1  -0.64954902  -0.73535915  -0.60529127  1
  Li  Li25  1  0.64954902  0.73535915  -0.60529127  1
  Li  Li26  1  1.14954902  -0.23535915  0.60529127  1
  Li  Li27  1  -0.14954902  1.23535915  0.60529127  1
  Li  Li28  1  0.72631189  0.75234097  0.85993991  1
  Li  Li29  1  0.27368811  0.24765903  0.85993991  1
  Li  Li30  1  0.77368811  0.25234097  0.14006009  1
  Li  Li31  1  0.22631189  0.74765903  0.14006009  1
  Li  Li32  1  0.27368811  0.24765903  0.14006009  1
  Li  Li33  1  0.72631189  0.75234097  0.14006009  1
  Li  Li34  1  0.22631189  0.74765903  0.85993991  1
  Li  Li35  1  0.77368811  0.25234097  0.85993991  1
  Li  Li36  1  0.00000000  0.50000000  0.50000000  1
  Li  Li37  1  0.50000000  0.00000000  0.50000000  1
  Li  Li38  1  0.00000000  0.50000000  0.00000000  1
  Li  Li39  1  0.50000000  0.00000000  0.00000000  1
