# generated using pymatgen
data_LiF
_symmetry_space_group_name_H-M   'P 1'
_cell_length_a   12.50283913
_cell_length_b   12.50283913
_cell_length_c   5.29909910
_cell_angle_alpha   90.00000000
_cell_angle_beta   90.00000000
_cell_angle_gamma   120.00000000
_symmetry_Int_Tables_number   1
_chemical_formula_structural   LiF
_chemical_formula_sum   'Li42 F42'
_cell_volume   717.38114773
_cell_formula_units_Z   42
loop_
 _symmetry_equiv_pos_site_id
 _symmetry_equiv_pos_as_xyz
  1  'x, y, z'
loop_
 _atom_site_type_symbol
 _atom_site_label
 _atom_site_symmetry_multiplicity
 _atom_site_fract_x
 _atom_site_fract_y
 _atom_site_fract_z
 _atom_site_occupancy
  F  F0  1  0.53056375  0.24232788  0.53692351  1
  F  F1  1  0.75767212  0.28823588  0.53692351  1
  F  F2  1  0.71176412  0.46943625  0.53692351  1
  F  F3  1  0.46943625  0.75767212  0.03692351  1
  F  F4  1  0.24232788  0.71176412  0.03692351  1
  F  F5  1  0.28823588  0.53056375  0.03692351  1
  F  F6  1  0.46943625  0.75767212  0.46307649  1
  F  F7  1  0.24232788  0.71176412  0.46307649  1
  F  F8  1  0.28823588  0.53056375  0.46307649  1
  F  F9  1  0.53056375  0.24232788  0.96307649  1
  F  F10  1  0.75767212  0.28823588  0.96307649  1
  F  F11  1  0.71176412  0.46943625  0.96307649  1
  F  F12  1  0.34753855  0.36936482  0.25000000  1
  F  F13  1  0.63063518  0.97817374  0.25000000  1
  F  F14  1  0.02182626  0.65246145  0.25000000  1
  F  F15  1  0.65246145  0.63063518  0.75000000  1
  F  F16  1  0.36936482  0.02182626  0.75000000  1
  F  F17  1  0.97817374  0.34753855  0.75000000  1
  F  F18  1  0.38944191  0.00304840  0.41234242  1
  F  F19  1  0.99695160  0.38639350  0.41234242  1
  F  F20  1  0.61360650  0.61055809  0.41234242  1
  F  F21  1  0.61055809  0.99695160  0.91234242  1
  F  F22  1  0.00304840  0.61360650  0.91234242  1
  F  F23  1  0.38639350  0.38944191  0.91234242  1
  F  F24  1  0.61055809  0.99695160  0.58765758  1
  F  F25  1  0.00304840  0.61360650  0.58765758  1
  F  F26  1  0.38639350  0.38944191  0.58765758  1
  F  F27  1  0.38944191  0.00304840  0.08765758  1
  F  F28  1  0.99695160  0.38639350  0.08765758  1
  F  F29  1  0.61360650  0.61055809  0.08765758  1
  F  F30  1  0.34846951  0.29255074  0.96166368  1
  F  F31  1  0.70744926  0.05591878  0.96166368  1
  F  F32  1  0.94408122  0.65153049  0.96166368  1
  F  F33  1  0.65153049  0.70744926  0.46166368  1
  F  F34  1  0.29255074  0.94408122  0.46166368  1
  F  F35  1  0.05591878  0.34846951  0.46166368  1
  F  F36  1  0.65153049  0.70744926  0.03833632  1
  F  F37  1  0.29255074  0.94408122  0.03833632  1
  F  F38  1  0.05591878  0.34846951  0.03833632  1
  F  F39  1  0.34846951  0.29255074  0.53833632  1
  F  F40  1  0.70744926  0.05591878  0.53833632  1
  F  F41  1  0.94408122  0.65153049  0.53833632  1
  Li  Li42  1  0.58371972  0.69900653  0.25000000  1
  Li  Li43  1  0.30099347  0.88471320  0.25000000  1
  Li  Li44  1  0.11528680  0.41628028  0.25000000  1
  Li  Li45  1  0.41628028  0.30099347  0.75000000  1
  Li  Li46  1  0.69900653  0.11528680  0.75000000  1
  Li  Li47  1  0.88471320  0.58371972  0.75000000  1
  Li  Li48  1  0.72112708  0.90242174  0.25000000  1
  Li  Li49  1  0.09757826  0.81870534  0.25000000  1
  Li  Li50  1  0.18129466  0.27887292  0.25000000  1
  Li  Li51  1  0.27887292  0.09757826  0.75000000  1
  Li  Li52  1  0.90242174  0.18129466  0.75000000  1
  Li  Li53  1  0.81870534  0.72112708  0.75000000  1
  Li  Li54  1  0.15322173  0.61160044  0.58807045  1
  Li  Li55  1  -0.61160044  -0.45837871  0.58807045  1
  Li  Li56  1  0.45837871  -0.15322173  0.58807045  1
  Li  Li57  1  -0.15322173  -0.61160044  1.08807045  1
  Li  Li58  1  0.61160044  0.45837871  1.08807045  1
  Li  Li59  1  -0.45837871  0.15322173  1.08807045  1
  Li  Li60  1  -0.15322173  -0.61160044  -0.58807045  1
  Li  Li61  1  0.61160044  0.45837871  -0.58807045  1
  Li  Li62  1  -0.45837871  0.15322173  -0.58807045  1
  Li  Li63  1  0.15322173  0.61160044  -0.08807045  1
  Li  Li64  1  -0.61160044  -0.45837871  -0.08807045  1
  Li  Li65  1  0.45837871  -0.15322173  -0.08807045  1
  Li  Li66  1  0.11478280  0.51150416  0.10055041  1
  Li  Li67  1  0.48849584  0.60327865  0.10055041  1
  Li  Li68  1  0.39672135  0.88521720  0.10055041  1
  Li  Li69  1  0.88521720  0.48849584  0.60055041  1
  Li  Li70  1  0.51150416  0.39672135  0.60055041  1
  Li  Li71  1  0.60327865  0.11478280  0.60055041  1
  Li  Li72  1  0.88521720  0.48849584  0.89944959  1
  Li  Li73  1  0.51150416  0.39672135  0.89944959  1
  Li  Li74  1  0.60327865  0.11478280  0.89944959  1
  Li  Li75  1  0.11478280  0.51150416  0.39944959  1
  Li  Li76  1  0.48849584  0.60327865  0.39944959  1
  Li  Li77  1  0.39672135  0.88521720  0.39944959  1
  Li  Li78  1  0.33333333  0.66666667  0.25000000  1
  Li  Li79  1  0.66666667  0.33333333  0.75000000  1
  Li  Li80  1  0.00000000  0.00000000  0.25000000  1
  Li  Li81  1  0.00000000  0.00000000  0.75000000  1
  Li  Li82  1  0.00000000  0.00000000  0.00000000  1
  Li  Li83  1  0.00000000  0.00000000  0.50000000  1
