# generated using pymatgen
data_LiF
_symmetry_space_group_name_H-M   'P 1'
_cell_length_a   6.63443672
_cell_length_b   6.63443672
_cell_length_c   4.76768984
_cell_angle_alpha   90.00000000
_cell_angle_beta   90.00000000
_cell_angle_gamma   120.00000000
_symmetry_Int_Tables_number   1
_chemical_formula_structural   LiF
_chemical_formula_sum   'Li9 F9'
_cell_volume   181.73841594
_cell_formula_units_Z   9
loop_
 _symmetry_equiv_pos_site_id
 _symmetry_equiv_pos_as_xyz
  1  'x, y, z'
loop_
 _atom_site_type_symbol
 _atom_site_label
 _atom_site_symmetry_multiplicity
 _atom_site_fract_x
 _atom_site_fract_y
 _atom_site_fract_z
 _atom_site_occupancy
  F  F0  1  0.48289926  0.64224706  0.17568688  1
  F  F1  1  0.35775294  0.84065221  0.17568688  1
  F  F2  1  0.15934779  0.51710074  0.17568688  1
  F  F3  1  0.35775294  0.51710074  0.82431312  1
  F  F4  1  0.15934779  0.64224706  0.82431312  1
  F  F5  1  0.48289926  0.84065221  0.82431312  1
  F  F6  1  0.07683525  0.92316475  0.00000000  1
  F  F7  1  0.07683525  0.15367049  0.00000000  1
  F  F8  1  0.84632951  0.92316475  0.00000000  1
  Li  Li9  1  0.66057168  0.71069087  0.77488381  1
  Li  Li10  1  -0.71069087  -0.05011920  0.77488381  1
  Li  Li11  1  0.05011920  -0.66057168  0.77488381  1
  Li  Li12  1  -0.71069087  -0.66057168  -0.77488381  1
  Li  Li13  1  0.05011920  0.71069087  -0.77488381  1
  Li  Li14  1  0.66057168  -0.05011920  -0.77488381  1
  Li  Li15  1  0.47955348  0.52044652  0.50000000  1
  Li  Li16  1  0.47955348  0.95910696  0.50000000  1
  Li  Li17  1  0.04089304  0.52044652  0.50000000  1
