# generated using pymatgen
data_LiYP2
_symmetry_space_group_name_H-M   'P 1'
_cell_length_a   3.55186792
_cell_length_b   3.81882479
_cell_length_c   6.61489091
_cell_angle_alpha   97.31029627
_cell_angle_beta   105.92030548
_cell_angle_gamma   119.36255467
_symmetry_Int_Tables_number   1
_chemical_formula_structural   LiYP2
_chemical_formula_sum   'Li2 Y2 P4'
_cell_volume   71.43714200
_cell_formula_units_Z   2
loop_
 _symmetry_equiv_pos_site_id
 _symmetry_equiv_pos_as_xyz
  1  'x, y, z'
loop_
 _atom_site_type_symbol
 _atom_site_label
 _atom_site_symmetry_multiplicity
 _atom_site_fract_x
 _atom_site_fract_y
 _atom_site_fract_z
 _atom_site_occupancy
  P  P0  1  0.12500000  0.12500000  0.12500000  1
  P  P1  1  0.50000000  0.50000000  0.50000000  1
  P  P2  1  0.25000000  0.25000000  0.25000000  1
  P  P3  1  0.75000000  0.75000000  0.75000000  1
  Li  Li4  1  0.26005437  0.63297008  0.40139607  1
  Li  Li5  1  0.02111049  0.04657175  0.59829337  1
  Y  Y6  1  0.23141702  0.35499873  0.09992704  1
  Y  Y7  1  0.16289301  0.02685496  0.95707958  1
