# generated using pymatgen
data_LiF
_symmetry_space_group_name_H-M   'P 1'
_cell_length_a   14.95357530
_cell_length_b   14.95357530
_cell_length_c   4.33082578
_cell_angle_alpha   90.00000000
_cell_angle_beta   90.00000000
_cell_angle_gamma   120.00000000
_symmetry_Int_Tables_number   1
_chemical_formula_structural   LiF
_chemical_formula_sum   'Li28 F28'
_cell_volume   838.67062016
_cell_formula_units_Z   28
loop_
 _symmetry_equiv_pos_site_id
 _symmetry_equiv_pos_as_xyz
  1  'x, y, z'
loop_
 _atom_site_type_symbol
 _atom_site_label
 _atom_site_symmetry_multiplicity
 _atom_site_fract_x
 _atom_site_fract_y
 _atom_site_fract_z
 _atom_site_occupancy
  F  F0  1  0.99120099  0.31189195  0.27932009  1
  F  F1  1  0.68810805  0.67930904  0.27932009  1
  F  F2  1  0.32069096  0.00879901  0.27932009  1
  F  F3  1  0.68810805  0.00879901  0.72067991  1
  F  F4  1  0.32069096  0.31189195  0.72067991  1
  F  F5  1  0.99120099  0.67930904  0.72067991  1
  F  F6  1  0.38077140  0.97775160  0.60548075  1
  F  F7  1  0.02224840  0.40301980  0.60548075  1
  F  F8  1  0.59698020  0.61922860  0.60548075  1
  F  F9  1  0.02224840  0.61922860  0.39451925  1
  F  F10  1  0.59698020  0.97775160  0.39451925  1
  F  F11  1  0.38077140  0.40301980  0.39451925  1
  F  F12  1  0.13359762  0.86640238  0.50000000  1
  F  F13  1  0.13359762  0.26719524  0.50000000  1
  F  F14  1  0.73280476  0.86640238  0.50000000  1
  F  F15  1  0.70565100  0.87995113  0.87068724  1
  F  F16  1  0.12004887  0.82569987  0.87068724  1
  F  F17  1  0.17430013  0.29434900  0.87068724  1
  F  F18  1  0.12004887  0.29434900  0.12931276  1
  F  F19  1  0.17430013  0.87995113  0.12931276  1
  F  F20  1  0.70565100  0.82569987  0.12931276  1
  F  F21  1  0.30992773  0.80743477  0.59341084  1
  F  F22  1  0.19256523  0.50249297  0.59341084  1
  F  F23  1  0.49750703  0.69007227  0.59341084  1
  F  F24  1  0.19256523  0.69007227  0.40658916  1
  F  F25  1  0.49750703  0.80743477  0.40658916  1
  F  F26  1  0.30992773  0.50249297  0.40658916  1
  F  F27  1  0.33333333  0.66666667  0.50000000  1
  Li  Li28  1  0.00000000  0.00000000  0.23033773  1
  Li  Li29  1  0.00000000  0.00000000  0.76966227  1
  Li  Li30  1  0.66666667  0.33333333  0.50000000  1
  Li  Li31  1  0.84198655  0.51089097  0.42130792  1
  Li  Li32  1  -0.51089097  0.33109558  0.42130792  1
  Li  Li33  1  -0.33109558  -0.84198655  0.42130792  1
  Li  Li34  1  -0.51089097  -0.84198655  -0.42130792  1
  Li  Li35  1  -0.33109558  0.51089097  -0.42130792  1
  Li  Li36  1  0.84198655  0.33109558  -0.42130792  1
  Li  Li37  1  0.90506738  0.61240080  0.65474702  1
  Li  Li38  1  0.38759920  0.29266658  0.65474702  1
  Li  Li39  1  0.70733342  0.09493262  0.65474702  1
  Li  Li40  1  0.38759920  0.09493262  0.34525298  1
  Li  Li41  1  0.70733342  0.61240080  0.34525298  1
  Li  Li42  1  0.90506738  0.29266658  0.34525298  1
  Li  Li43  1  0.33333333  0.66666667  -0.00000000  1
  Li  Li44  1  0.47178540  0.52821460  -0.00000000  1
  Li  Li45  1  0.47178540  0.94357080  -0.00000000  1
  Li  Li46  1  0.05642920  0.52821460  0.00000000  1
  Li  Li47  1  0.23876339  0.08807827  0.82100266  1
  Li  Li48  1  0.91192173  0.15068512  0.82100266  1
  Li  Li49  1  0.84931488  0.76123661  0.82100266  1
  Li  Li50  1  0.91192173  0.76123661  0.17899734  1
  Li  Li51  1  0.84931488  0.08807827  0.17899734  1
  Li  Li52  1  0.23876339  0.15068512  0.17899734  1
  Li  Li53  1  0.17808072  0.82191928  0.00000000  1
  Li  Li54  1  0.17808072  0.35616145  -0.00000000  1
  Li  Li55  1  0.64383855  0.82191928  0.00000000  1
