# generated using pymatgen
data_LiF
_symmetry_space_group_name_H-M   'P 1'
_cell_length_a   6.29139970
_cell_length_b   6.29139970
_cell_length_c   14.07997326
_cell_angle_alpha   90.00000000
_cell_angle_beta   90.00000000
_cell_angle_gamma   120.00000000
_symmetry_Int_Tables_number   1
_chemical_formula_structural   LiF
_chemical_formula_sum   'Li15 F15'
_cell_volume   482.64411585
_cell_formula_units_Z   15
loop_
 _symmetry_equiv_pos_site_id
 _symmetry_equiv_pos_as_xyz
  1  'x, y, z'
loop_
 _atom_site_type_symbol
 _atom_site_label
 _atom_site_symmetry_multiplicity
 _atom_site_fract_x
 _atom_site_fract_y
 _atom_site_fract_z
 _atom_site_occupancy
  F  F0  1  0.13880080  0.73275595  0.32426093  1
  F  F1  1  0.26724405  0.40604485  0.32426093  1
  F  F2  1  0.59395515  0.86119920  0.32426093  1
  F  F3  1  0.26724405  0.86119920  0.67573907  1
  F  F4  1  0.59395515  0.73275595  0.67573907  1
  F  F5  1  0.13880080  0.40604485  0.67573907  1
  F  F6  1  0.74112420  0.31310773  0.30537557  1
  F  F7  1  0.68689227  0.42801647  0.30537557  1
  F  F8  1  0.57198353  0.25887580  0.30537557  1
  F  F9  1  0.68689227  0.25887580  0.69462443  1
  F  F10  1  0.57198353  0.31310773  0.69462443  1
  F  F11  1  0.74112420  0.42801647  0.69462443  1
  F  F12  1  0.00000000  0.00000000  0.81817792  1
  F  F13  1  0.00000000  0.00000000  0.18182208  1
  F  F14  1  0.33333333  0.66666667  0.50000000  1
  Li  Li15  1  0.37434514  0.51424437  0.13336446  1
  Li  Li16  1  -0.51424437  -0.13989924  0.13336446  1
  Li  Li17  1  0.13989924  -0.37434514  0.13336446  1
  Li  Li18  1  -0.51424437  -0.37434514  -0.13336446  1
  Li  Li19  1  0.13989924  0.51424437  -0.13336446  1
  Li  Li20  1  0.37434514  -0.13989924  -0.13336446  1
  Li  Li21  1  0.90661253  0.08385602  0.44559667  1
  Li  Li22  1  0.91614398  0.82275651  0.44559667  1
  Li  Li23  1  0.17724349  0.09338747  0.44559667  1
  Li  Li24  1  0.91614398  0.09338747  0.55440333  1
  Li  Li25  1  0.17724349  0.08385602  0.55440333  1
  Li  Li26  1  0.90661253  0.82275651  0.55440333  1
  Li  Li27  1  0.33333333  0.66666667  0.00000000  1
  Li  Li28  1  0.00000000  0.00000000  0.75149360  1
  Li  Li29  1  0.00000000  0.00000000  0.24850640  1
