# generated using pymatgen
data_Li3Y2P3Se2
_symmetry_space_group_name_H-M   'P 1'
_cell_length_a   5.41671190
_cell_length_b   5.67118371
_cell_length_c   7.25905286
_cell_angle_alpha   93.98988125
_cell_angle_beta   98.68913187
_cell_angle_gamma   106.02576721
_symmetry_Int_Tables_number   1
_chemical_formula_structural   Li3Y2P3Se2
_chemical_formula_sum   'Li3 Y2 P3 Se2'
_cell_volume   210.40776335
_cell_formula_units_Z   1
loop_
 _symmetry_equiv_pos_site_id
 _symmetry_equiv_pos_as_xyz
  1  'x, y, z'
loop_
 _atom_site_type_symbol
 _atom_site_label
 _atom_site_symmetry_multiplicity
 _atom_site_fract_x
 _atom_site_fract_y
 _atom_site_fract_z
 _atom_site_occupancy
  Se  Se0  1  0.12500000  0.12500000  0.12500000  1
  Se  Se1  1  0.50000000  0.50000000  0.50000000  1
  Y  Y2  1  0.25000000  0.25000000  0.25000000  1
  Y  Y3  1  0.75000000  0.75000000  0.75000000  1
  P  P4  1  0.91867957  0.20776844  0.75704190  1
  P  P5  1  0.94530846  0.23040762  0.22626763  1
  P  P6  1  0.35007237  0.75933491  0.53136491  1
  Li  Li7  1  0.50556362  0.42195632  0.93669096  1
  Li  Li8  1  0.45425920  0.16126131  0.52864706  1
  Li  Li9  1  0.14426977  0.82748337  0.61949778  1
