# generated using pymatgen
data_Li2Y2As4P2Se
_symmetry_space_group_name_H-M   'P 1'
_cell_length_a   5.23269313
_cell_length_b   5.29323426
_cell_length_c   6.68416238
_cell_angle_alpha   93.94821194
_cell_angle_beta   97.23122870
_cell_angle_gamma   103.71433560
_symmetry_Int_Tables_number   1
_chemical_formula_structural   Li2Y2As4P2Se
_chemical_formula_sum   'Li2 Y2 As4 P2 Se1'
_cell_volume   177.49013021
_cell_formula_units_Z   1
loop_
 _symmetry_equiv_pos_site_id
 _symmetry_equiv_pos_as_xyz
  1  'x, y, z'
loop_
 _atom_site_type_symbol
 _atom_site_label
 _atom_site_symmetry_multiplicity
 _atom_site_fract_x
 _atom_site_fract_y
 _atom_site_fract_z
 _atom_site_occupancy
  Se  Se0  1  0.00000000  0.00000000  0.00000000  1
  P  P1  1  0.50000000  0.50000000  0.50000000  1
  P  P2  1  0.50000000  0.50000000  0.00000000  1
  As  As3  1  0.50000000  0.00000000  0.50000000  1
  As  As4  1  0.00000000  0.50000000  0.50000000  1
  As  As5  1  0.68628727  0.33131663  0.80443093  1
  As  As6  1  0.87669335  0.58170546  0.38150759  1
  Li  Li7  1  0.59724763  0.06791113  0.98058746  1
  Li  Li8  1  0.46202773  0.07316674  0.81893585  1
  Y  Y9  1  0.28953753  0.89873649  0.34421107  1
  Y  Y10  1  0.85337250  0.18683580  0.86030752  1
