# generated using pymatgen
data_LiCaF3
_symmetry_space_group_name_H-M   'P 1'
_cell_length_a   12.53636073
_cell_length_b   12.53636073
_cell_length_c   10.65707339
_cell_angle_alpha   90.00000000
_cell_angle_beta   90.00000000
_cell_angle_gamma   120.00000000
_symmetry_Int_Tables_number   1
_chemical_formula_structural   LiCaF3
_chemical_formula_sum   'Li18 Ca18 F54'
_cell_volume   1450.47934503
_cell_formula_units_Z   18
loop_
 _symmetry_equiv_pos_site_id
 _symmetry_equiv_pos_as_xyz
  1  'x, y, z'
loop_
 _atom_site_type_symbol
 _atom_site_label
 _atom_site_symmetry_multiplicity
 _atom_site_fract_x
 _atom_site_fract_y
 _atom_site_fract_z
 _atom_site_occupancy
  Ca  Ca0  1  0.24822150  0.00000000  0.65433079  1
  Ca  Ca1  1  0.00000000  0.24822150  0.65433079  1
  Ca  Ca2  1  0.75177850  0.75177850  0.65433079  1
  Ca  Ca3  1  0.24822150  0.00000000  0.34566921  1
  Ca  Ca4  1  0.00000000  0.24822150  0.34566921  1
  Ca  Ca5  1  0.75177850  0.75177850  0.34566921  1
  Ca  Ca6  1  0.46516646  0.00000000  0.11182800  1
  Ca  Ca7  1  0.00000000  0.46516646  0.11182800  1
  Ca  Ca8  1  0.53483354  0.53483354  0.11182800  1
  Ca  Ca9  1  0.46516646  0.00000000  0.88817200  1
  Ca  Ca10  1  0.00000000  0.46516646  0.88817200  1
  Ca  Ca11  1  0.53483354  0.53483354  0.88817200  1
  Ca  Ca12  1  0.00000000  0.00000000  0.27013465  1
  Ca  Ca13  1  0.00000000  0.00000000  0.72986535  1
  Ca  Ca14  1  0.33333333  0.66666667  0.60599100  1
  Ca  Ca15  1  0.33333333  0.66666667  0.39400900  1
  Ca  Ca16  1  0.66666667  0.33333333  0.39400900  1
  Ca  Ca17  1  0.66666667  0.33333333  0.60599100  1
  F  F18  1  0.03787176  0.00000000  0.10242745  1
  F  F19  1  0.00000000  0.03787176  0.10242745  1
  F  F20  1  0.96212824  0.96212824  0.10242745  1
  F  F21  1  0.03787176  0.00000000  0.89757255  1
  F  F22  1  0.00000000  0.03787176  0.89757255  1
  F  F23  1  0.96212824  0.96212824  0.89757255  1
  F  F24  1  0.82647126  0.00000000  -0.00000000  1
  F  F25  1  0.00000000  0.82647126  0.00000000  1
  F  F26  1  0.17352874  0.17352874  -0.00000000  1
  F  F27  1  0.76889083  0.70518062  0.11452109  1
  F  F28  1  -0.70518062  0.06371021  0.11452109  1
  F  F29  1  -0.06371021  -0.76889083  0.11452109  1
  F  F30  1  0.76889083  0.70518062  -0.11452109  1
  F  F31  1  -0.70518062  0.06371021  -0.11452109  1
  F  F32  1  -0.06371021  -0.76889083  -0.11452109  1
  F  F33  1  0.70518062  0.76889083  -0.11452109  1
  F  F34  1  0.06371021  -0.70518062  -0.11452109  1
  F  F35  1  -0.76889083  -0.06371021  -0.11452109  1
  F  F36  1  0.70518062  0.76889083  0.11452109  1
  F  F37  1  0.06371021  -0.70518062  0.11452109  1
  F  F38  1  -0.76889083  -0.06371021  0.11452109  1
  F  F39  1  0.52149078  0.00000000  0.00000000  1
  F  F40  1  0.00000000  0.52149078  0.00000000  1
  F  F41  1  0.47850922  0.47850922  0.00000000  1
  F  F42  1  0.19281548  0.95382302  0.50000000  1
  F  F43  1  0.04617698  0.23899246  0.50000000  1
  F  F44  1  0.76100754  0.80718452  0.50000000  1
  F  F45  1  0.95382302  0.19281548  0.50000000  1
  F  F46  1  0.23899246  0.04617698  0.50000000  1
  F  F47  1  0.80718452  0.76100754  0.50000000  1
  F  F48  1  0.42744493  0.00000000  0.00000000  1
  F  F49  1  0.00000000  0.42744493  0.00000000  1
  F  F50  1  0.57255507  0.57255507  0.00000000  1
  F  F51  1  0.34180580  -0.00000000  0.40496805  1
  F  F52  1  0.00000000  0.34180580  0.40496805  1
  F  F53  1  0.65819420  0.65819420  0.40496805  1
  F  F54  1  0.34180580  -0.00000000  0.59503195  1
  F  F55  1  0.00000000  0.34180580  0.59503195  1
  F  F56  1  0.65819420  0.65819420  0.59503195  1
  F  F57  1  0.26041361  0.89312855  0.89216388  1
  F  F58  1  0.10687145  0.36728506  0.89216388  1
  F  F59  1  0.63271494  0.73958639  0.89216388  1
  F  F60  1  0.26041361  0.89312855  0.10783612  1
  F  F61  1  0.10687145  0.36728506  0.10783612  1
  F  F62  1  0.63271494  0.73958639  0.10783612  1
  F  F63  1  0.89312855  0.26041361  0.10783612  1
  F  F64  1  0.36728506  0.10687145  0.10783612  1
  F  F65  1  0.73958639  0.63271494  0.10783612  1
  F  F66  1  0.89312855  0.26041361  0.89216388  1
  F  F67  1  0.36728506  0.10687145  0.89216388  1
  F  F68  1  0.73958639  0.63271494  0.89216388  1
  F  F69  1  0.62266060  0.00000000  0.50000000  1
  F  F70  1  0.00000000  0.62266060  0.50000000  1
  F  F71  1  0.37733940  0.37733940  0.50000000  1
  Li  Li72  1  0.74138175  0.85022359  0.17102107  1
  Li  Li73  1  0.14977641  0.89115816  0.17102107  1
  Li  Li74  1  0.10884184  0.25861825  0.17102107  1
  Li  Li75  1  0.74138175  0.85022359  0.82897893  1
  Li  Li76  1  0.14977641  0.89115816  0.82897893  1
  Li  Li77  1  0.10884184  0.25861825  0.82897893  1
  Li  Li78  1  0.85022359  0.74138175  0.82897893  1
  Li  Li79  1  0.89115816  0.14977641  0.82897893  1
  Li  Li80  1  0.25861825  0.10884184  0.82897893  1
  Li  Li81  1  0.85022359  0.74138175  0.17102107  1
  Li  Li82  1  0.89115816  0.14977641  0.17102107  1
  Li  Li83  1  0.25861825  0.10884184  0.17102107  1
  Li  Li84  1  0.00000000  0.00000000  0.00000000  1
  Li  Li85  1  0.33333333  0.66666667  0.09064373  1
  Li  Li86  1  0.33333333  0.66666667  0.90935627  1
  Li  Li87  1  0.66666667  0.33333333  0.90935627  1
  Li  Li88  1  0.66666667  0.33333333  0.09064373  1
  Li  Li89  1  0.00000000  0.00000000  0.50000000  1
