# generated using pymatgen
data_LiCaF3
_symmetry_space_group_name_H-M   'P 1'
_cell_length_a   15.43501395
_cell_length_b   15.43501395
_cell_length_c   5.83853331
_cell_angle_alpha   90.00000000
_cell_angle_beta   90.00000000
_cell_angle_gamma   120.00000000
_symmetry_Int_Tables_number   1
_chemical_formula_structural   LiCaF3
_chemical_formula_sum   'Li18 Ca18 F54'
_cell_volume   1204.61549959
_cell_formula_units_Z   18
loop_
 _symmetry_equiv_pos_site_id
 _symmetry_equiv_pos_as_xyz
  1  'x, y, z'
loop_
 _atom_site_type_symbol
 _atom_site_label
 _atom_site_symmetry_multiplicity
 _atom_site_fract_x
 _atom_site_fract_y
 _atom_site_fract_z
 _atom_site_occupancy
  Ca  Ca0  1  0.13389291  0.86610709  0.50000000  1
  Ca  Ca1  1  0.13389291  0.26778583  0.50000000  1
  Ca  Ca2  1  0.73221417  0.86610709  0.50000000  1
  Ca  Ca3  1  0.66666667  0.33333333  0.50000000  1
  Ca  Ca4  1  0.00000000  0.00000000  0.00000000  1
  Ca  Ca5  1  0.63183813  0.50987703  0.88535551  1
  Ca  Ca6  1  -0.50987703  0.12196110  0.88535551  1
  Ca  Ca7  1  -0.12196110  -0.63183813  0.88535551  1
  Ca  Ca8  1  -0.50987703  -0.63183813  -0.88535551  1
  Ca  Ca9  1  -0.12196110  0.50987703  -0.88535551  1
  Ca  Ca10  1  0.63183813  0.12196110  -0.88535551  1
  Ca  Ca11  1  0.33333333  0.66666667  0.50000000  1
  Ca  Ca12  1  0.77289932  0.69648479  0.28990510  1
  Ca  Ca13  1  0.30351521  0.07641452  0.28990510  1
  Ca  Ca14  1  0.92358548  0.22710068  0.28990510  1
  Ca  Ca15  1  0.30351521  0.22710068  0.71009490  1
  Ca  Ca16  1  0.92358548  0.69648479  0.71009490  1
  Ca  Ca17  1  0.77289932  0.07641452  0.71009490  1
  F  F18  1  0.38518743  0.20025665  0.59097037  1
  F  F19  1  0.79974335  0.18493079  0.59097037  1
  F  F20  1  0.81506921  0.61481257  0.59097037  1
  F  F21  1  0.79974335  0.61481257  0.40902963  1
  F  F22  1  0.81506921  0.20025665  0.40902963  1
  F  F23  1  0.38518743  0.18493079  0.40902963  1
  F  F24  1  0.40906350  0.62077740  0.72662124  1
  F  F25  1  0.37922260  0.78828610  0.72662124  1
  F  F26  1  0.21171390  0.59093650  0.72662124  1
  F  F27  1  0.37922260  0.59093650  0.27337876  1
  F  F28  1  0.21171390  0.62077740  0.27337876  1
  F  F29  1  0.40906350  0.78828610  0.27337876  1
  F  F30  1  0.08691739  0.00990885  0.99910046  1
  F  F31  1  0.99009115  0.07700854  0.99910046  1
  F  F32  1  0.92299146  0.91308261  0.99910046  1
  F  F33  1  0.99009115  0.91308261  0.00089954  1
  F  F34  1  0.92299146  0.00990885  0.00089954  1
  F  F35  1  0.08691739  0.07700854  0.00089954  1
  F  F36  1  0.84818572  0.38543839  0.14655095  1
  F  F37  1  0.61456161  0.46274733  0.14655095  1
  F  F38  1  0.53725267  0.15181428  0.14655095  1
  F  F39  1  0.61456161  0.15181428  0.85344905  1
  F  F40  1  0.53725267  0.38543839  0.85344905  1
  F  F41  1  0.84818572  0.46274733  0.85344905  1
  F  F42  1  0.33333333  0.66666667  -0.00000000  1
  F  F43  1  0.08365245  0.62093231  0.49506836  1
  F  F44  1  0.37906769  0.46272015  0.49506836  1
  F  F45  1  0.53727985  0.91634755  0.49506836  1
  F  F46  1  0.37906769  0.91634755  0.50493164  1
  F  F47  1  0.53727985  0.62093231  0.50493164  1
  F  F48  1  0.08365245  0.46272015  0.50493164  1
  F  F49  1  0.00000000  0.00000000  0.63406447  1
  F  F50  1  0.00000000  0.00000000  0.36593553  1
  F  F51  1  0.13476217  0.52930703  0.59968972  1
  F  F52  1  0.47069297  0.60545514  0.59968972  1
  F  F53  1  0.39454486  0.86523783  0.59968972  1
  F  F54  1  0.47069297  0.86523783  0.40031028  1
  F  F55  1  0.39454486  0.52930703  0.40031028  1
  F  F56  1  0.13476217  0.60545514  0.40031028  1
  F  F57  1  0.00000000  0.00000000  0.50000000  1
  F  F58  1  0.53027261  0.46972739  0.00000000  1
  F  F59  1  0.53027261  0.06054522  -0.00000000  1
  F  F60  1  0.93945478  0.46972739  0.00000000  1
  F  F61  1  0.23600767  0.83177312  0.72790332  1
  F  F62  1  0.16822688  0.40423456  0.72790332  1
  F  F63  1  0.59576544  0.76399233  0.72790332  1
  F  F64  1  0.16822688  0.76399233  0.27209668  1
  F  F65  1  0.59576544  0.83177312  0.27209668  1
  F  F66  1  0.23600767  0.40423456  0.27209668  1
  F  F67  1  0.26592514  0.73407486  0.00000000  1
  F  F68  1  0.26592514  0.53185028  0.00000000  1
  F  F69  1  0.46814972  0.73407486  -0.00000000  1
  F  F70  1  0.00000000  0.00000000  0.80007307  1
  F  F71  1  0.00000000  0.00000000  0.19992693  1
  Li  Li72  1  0.77710474  0.29752116  0.38426720  1
  Li  Li73  1  0.70247884  0.47958359  0.38426720  1
  Li  Li74  1  0.52041641  0.22289526  0.38426720  1
  Li  Li75  1  0.70247884  0.22289526  0.61573280  1
  Li  Li76  1  0.52041641  0.29752116  0.61573280  1
  Li  Li77  1  0.77710474  0.47958359  0.61573280  1
  Li  Li78  1  0.58583658  0.96835205  0.31258605  1
  Li  Li79  1  0.03164795  0.61748453  0.31258605  1
  Li  Li80  1  0.38251547  0.41416342  0.31258605  1
  Li  Li81  1  0.03164795  0.41416342  0.68741395  1
  Li  Li82  1  0.38251547  0.96835205  0.68741395  1
  Li  Li83  1  0.58583658  0.61748453  0.68741395  1
  Li  Li84  1  0.29725233  0.78710637  0.17838195  1
  Li  Li85  1  0.21289363  0.51014597  0.17838195  1
  Li  Li86  1  0.48985403  0.70274767  0.17838195  1
  Li  Li87  1  0.21289363  0.70274767  0.82161805  1
  Li  Li88  1  0.48985403  0.78710637  0.82161805  1
  Li  Li89  1  0.29725233  0.51014597  0.82161805  1
