# generated using pymatgen
data_Li2As2P3Se
_symmetry_space_group_name_H-M   'P 1'
_cell_length_a   5.03255404
_cell_length_b   5.01750595
_cell_length_c   7.24113276
_cell_angle_alpha   94.74742414
_cell_angle_beta   100.33890279
_cell_angle_gamma   109.06851592
_symmetry_Int_Tables_number   1
_chemical_formula_structural   Li2As2P3Se
_chemical_formula_sum   'Li2 As2 P3 Se1'
_cell_volume   168.02873426
_cell_formula_units_Z   1
loop_
 _symmetry_equiv_pos_site_id
 _symmetry_equiv_pos_as_xyz
  1  'x, y, z'
loop_
 _atom_site_type_symbol
 _atom_site_label
 _atom_site_symmetry_multiplicity
 _atom_site_fract_x
 _atom_site_fract_y
 _atom_site_fract_z
 _atom_site_occupancy
  P  P0  1  0.00000000  0.00000000  0.00000000  1
  P  P1  1  0.33300000  0.66700000  0.25000000  1
  P  P2  1  0.66700000  0.33300000  0.50000000  1
  Se  Se3  1  0.00000000  0.00000000  0.75000000  1
  As  As4  1  0.00620469  0.51896460  0.18146765  1
  As  As5  1  0.83074499  0.80241169  0.23113388  1
  Li  Li6  1  0.04235118  0.00158074  0.34616955  1
  Li  Li7  1  0.59197642  0.69142670  0.64221497  1
