# generated using pymatgen
data_LiF
_symmetry_space_group_name_H-M   'P 1'
_cell_length_a   7.62572010
_cell_length_b   6.58919065
_cell_length_c   7.42442305
_cell_angle_alpha   90.00000000
_cell_angle_beta   90.00000000
_cell_angle_gamma   90.00000000
_symmetry_Int_Tables_number   1
_chemical_formula_structural   LiF
_chemical_formula_sum   'Li24 F24'
_cell_volume   373.05738766
_cell_formula_units_Z   24
loop_
 _symmetry_equiv_pos_site_id
 _symmetry_equiv_pos_as_xyz
  1  'x, y, z'
loop_
 _atom_site_type_symbol
 _atom_site_label
 _atom_site_symmetry_multiplicity
 _atom_site_fract_x
 _atom_site_fract_y
 _atom_site_fract_z
 _atom_site_occupancy
  F  F0  1  0.38415785  0.66486329  0.53064151  1
  F  F1  1  0.11584215  0.33513671  0.03064151  1
  F  F2  1  0.61584215  0.16486329  0.46935849  1
  F  F3  1  0.88415785  0.83513671  0.96935849  1
  F  F4  1  0.61584215  0.33513671  0.46935849  1
  F  F5  1  0.88415785  0.66486329  0.96935849  1
  F  F6  1  0.38415785  0.83513671  0.53064151  1
  F  F7  1  0.11584215  0.16486329  0.03064151  1
  F  F8  1  0.80407923  0.40941145  0.06103973  1
  F  F9  1  0.69592077  0.59058855  0.56103973  1
  F  F10  1  0.19592077  0.90941145  0.93896027  1
  F  F11  1  0.30407923  0.09058855  0.43896027  1
  F  F12  1  0.19592077  0.59058855  0.93896027  1
  F  F13  1  0.30407923  0.40941145  0.43896027  1
  F  F14  1  0.80407923  0.09058855  0.06103973  1
  F  F15  1  0.69592077  0.90941145  0.56103973  1
  F  F16  1  0.82128364  0.09605107  0.14196883  1
  F  F17  1  0.67871636  0.90394893  0.64196883  1
  F  F18  1  0.17871636  0.59605107  0.85803117  1
  F  F19  1  0.32128364  0.40394893  0.35803117  1
  F  F20  1  0.17871636  0.90394893  0.85803117  1
  F  F21  1  0.32128364  0.09605107  0.35803117  1
  F  F22  1  0.82128364  0.40394893  0.14196883  1
  F  F23  1  0.67871636  0.59605107  0.64196883  1
  Li  Li24  1  0.00000000  0.00000000  0.00000000  1
  Li  Li25  1  0.50000000  0.00000000  0.50000000  1
  Li  Li26  1  0.00000000  0.50000000  0.00000000  1
  Li  Li27  1  0.50000000  0.50000000  0.50000000  1
  Li  Li28  1  0.00000000  0.00000000  0.50000000  1
  Li  Li29  1  0.50000000  0.00000000  0.00000000  1
  Li  Li30  1  0.00000000  0.50000000  0.50000000  1
  Li  Li31  1  0.50000000  0.50000000  0.00000000  1
  Li  Li32  1  0.24070235  0.25000000  0.55553556  1
  Li  Li33  1  0.25929765  0.75000000  0.05553556  1
  Li  Li34  1  0.75929765  0.75000000  0.44446444  1
  Li  Li35  1  0.74070235  0.25000000  0.94446444  1
  Li  Li36  1  0.50760787  0.25000000  0.28006459  1
  Li  Li37  1  0.99239213  0.75000000  0.78006459  1
  Li  Li38  1  0.49239213  0.75000000  0.71993541  1
  Li  Li39  1  0.00760787  0.25000000  0.21993541  1
  Li  Li40  1  0.79320413  0.49937739  0.47192482  1
  Li  Li41  1  -0.29320413  -0.49937739  0.97192482  1
  Li  Li42  1  -0.79320413  0.99937739  -0.47192482  1
  Li  Li43  1  1.29320413  0.00062261  0.02807518  1
  Li  Li44  1  -0.79320413  -0.49937739  -0.47192482  1
  Li  Li45  1  1.29320413  0.49937739  0.02807518  1
  Li  Li46  1  0.79320413  0.00062261  0.47192482  1
  Li  Li47  1  -0.29320413  0.99937739  0.97192482  1
