# generated using pymatgen
data_Sr3Li4S4O
_symmetry_space_group_name_H-M   'P 1'
_cell_length_a   9.71634636
_cell_length_b   9.71634636
_cell_length_c   39.54457306
_cell_angle_alpha   90.00000000
_cell_angle_beta   90.00000000
_cell_angle_gamma   90.00000000
_symmetry_Int_Tables_number   1
_chemical_formula_structural   Sr3Li4S4O
_chemical_formula_sum   'Sr48 Li64 S64 O16'
_cell_volume   3733.29979463
_cell_formula_units_Z   16
loop_
 _symmetry_equiv_pos_site_id
 _symmetry_equiv_pos_as_xyz
  1  'x, y, z'
loop_
 _atom_site_type_symbol
 _atom_site_label
 _atom_site_symmetry_multiplicity
 _atom_site_fract_x
 _atom_site_fract_y
 _atom_site_fract_z
 _atom_site_occupancy
  Li  Li0  1  0.27667932  0.14110089  0.55739090  1
  Li  Li1  1  0.22332068  0.85889911  0.05739090  1
  Li  Li2  1  0.10889911  0.02667932  0.80739090  1
  Li  Li3  1  0.39110089  0.97332068  0.30739090  1
  Li  Li4  1  0.22332068  0.14110089  0.44260910  1
  Li  Li5  1  0.27667932  0.85889911  0.94260910  1
  Li  Li6  1  0.39110089  0.02667932  0.19260910  1
  Li  Li7  1  0.10889911  0.97332068  0.69260910  1
  Li  Li8  1  0.72332068  0.85889911  0.44260910  1
  Li  Li9  1  0.77667932  0.14110089  0.94260910  1
  Li  Li10  1  0.89110089  0.97332068  0.19260910  1
  Li  Li11  1  0.60889911  0.02667932  0.69260910  1
  Li  Li12  1  0.77667932  0.85889911  0.55739090  1
  Li  Li13  1  0.72332068  0.14110089  0.05739090  1
  Li  Li14  1  0.60889911  0.97332068  0.80739090  1
  Li  Li15  1  0.89110089  0.02667932  0.30739090  1
  Li  Li16  1  0.77667932  0.64110089  0.05739090  1
  Li  Li17  1  0.72332068  0.35889911  0.55739090  1
  Li  Li18  1  0.60889911  0.52667932  0.30739090  1
  Li  Li19  1  0.89110089  0.47332068  0.80739090  1
  Li  Li20  1  0.72332068  0.64110089  0.94260910  1
  Li  Li21  1  0.77667932  0.35889911  0.44260910  1
  Li  Li22  1  0.89110089  0.52667932  0.69260910  1
  Li  Li23  1  0.60889911  0.47332068  0.19260910  1
  Li  Li24  1  0.22332068  0.35889911  0.94260910  1
  Li  Li25  1  0.27667932  0.64110089  0.44260910  1
  Li  Li26  1  0.39110089  0.47332068  0.69260910  1
  Li  Li27  1  0.10889911  0.52667932  0.19260910  1
  Li  Li28  1  0.27667932  0.35889911  0.05739090  1
  Li  Li29  1  0.22332068  0.64110089  0.55739090  1
  Li  Li30  1  0.10889911  0.47332068  0.30739090  1
  Li  Li31  1  0.39110089  0.52667932  0.80739090  1
  Li  Li32  1  0.00000000  0.25000000  0.12500000  1
  Li  Li33  1  0.00000000  0.75000000  0.37500000  1
  Li  Li34  1  0.00000000  0.75000000  0.87500000  1
  Li  Li35  1  0.00000000  0.25000000  0.62500000  1
  Li  Li36  1  0.50000000  0.75000000  0.62500000  1
  Li  Li37  1  0.50000000  0.25000000  0.87500000  1
  Li  Li38  1  0.50000000  0.25000000  0.37500000  1
  Li  Li39  1  0.50000000  0.75000000  0.12500000  1
  Li  Li40  1  0.00000000  0.25000000  0.37500000  1
  Li  Li41  1  0.00000000  0.75000000  0.62500000  1
  Li  Li42  1  0.50000000  0.25000000  0.62500000  1
  Li  Li43  1  0.50000000  0.75000000  0.37500000  1
  Li  Li44  1  0.50000000  0.75000000  0.87500000  1
  Li  Li45  1  0.50000000  0.25000000  0.12500000  1
  Li  Li46  1  0.00000000  0.75000000  0.12500000  1
  Li  Li47  1  0.00000000  0.25000000  0.87500000  1
  Li  Li48  1  0.00000000  0.25000000  0.82684410  1
  Li  Li49  1  0.00000000  0.75000000  0.07684410  1
  Li  Li50  1  0.50000000  0.25000000  0.17315590  1
  Li  Li51  1  0.50000000  0.75000000  0.92315590  1
  Li  Li52  1  0.00000000  0.75000000  0.17315590  1
  Li  Li53  1  0.00000000  0.25000000  0.92315590  1
  Li  Li54  1  0.50000000  0.75000000  0.82684410  1
  Li  Li55  1  0.50000000  0.25000000  0.07684410  1
  Li  Li56  1  0.50000000  0.75000000  0.32684410  1
  Li  Li57  1  0.50000000  0.25000000  0.57684410  1
  Li  Li58  1  0.00000000  0.75000000  0.67315590  1
  Li  Li59  1  0.00000000  0.25000000  0.42315590  1
  Li  Li60  1  0.50000000  0.25000000  0.67315590  1
  Li  Li61  1  0.50000000  0.75000000  0.42315590  1
  Li  Li62  1  0.00000000  0.25000000  0.32684410  1
  Li  Li63  1  0.00000000  0.75000000  0.57684410  1
  O  O64  1  0.00000000  0.00000000  0.00000000  1
  O  O65  1  0.50000000  0.00000000  0.50000000  1
  O  O66  1  0.25000000  0.75000000  0.25000000  1
  O  O67  1  0.25000000  0.25000000  0.75000000  1
  O  O68  1  0.50000000  0.00000000  0.00000000  1
  O  O69  1  0.00000000  0.00000000  0.50000000  1
  O  O70  1  0.25000000  0.75000000  0.75000000  1
  O  O71  1  0.25000000  0.25000000  0.25000000  1
  O  O72  1  0.50000000  0.50000000  0.50000000  1
  O  O73  1  0.00000000  0.50000000  0.00000000  1
  O  O74  1  0.75000000  0.25000000  0.75000000  1
  O  O75  1  0.75000000  0.75000000  0.25000000  1
  O  O76  1  0.00000000  0.50000000  0.50000000  1
  O  O77  1  0.50000000  0.50000000  0.00000000  1
  O  O78  1  0.75000000  0.25000000  0.25000000  1
  O  O79  1  0.75000000  0.75000000  0.75000000  1
  S  S80  1  0.65907213  0.62274868  0.77143296  1
  S  S81  1  -0.15907213  -0.62274868  1.27143296  1
  S  S82  1  -0.37274868  1.40907213  1.02143296  1
  S  S83  1  0.87274868  -0.40907213  1.52143296  1
  S  S84  1  -0.15907213  0.62274868  -0.77143296  1
  S  S85  1  0.65907213  -0.62274868  -0.27143296  1
  S  S86  1  0.87274868  1.40907213  -0.02143296  1
  S  S87  1  -0.37274868  -0.40907213  -0.52143296  1
  S  S88  1  -0.65907213  -0.62274868  -0.77143296  1
  S  S89  1  1.15907213  0.62274868  -0.27143296  1
  S  S90  1  1.37274868  -0.40907213  -0.02143296  1
  S  S91  1  0.12725132  1.40907213  -0.52143296  1
  S  S92  1  1.15907213  -0.62274868  0.77143296  1
  S  S93  1  -0.65907213  0.62274868  1.27143296  1
  S  S94  1  0.12725132  -0.40907213  1.02143296  1
  S  S95  1  1.37274868  1.40907213  1.52143296  1
  S  S96  1  1.15907213  1.12274868  1.27143296  1
  S  S97  1  0.34092787  -0.12274868  1.77143296  1
  S  S98  1  0.12725132  1.90907213  1.52143296  1
  S  S99  1  1.37274868  0.09092787  2.02143296  1
  S  S100  1  0.34092787  1.12274868  -0.27143296  1
  S  S101  1  1.15907213  -0.12274868  0.22856704  1
  S  S102  1  1.37274868  1.90907213  0.47856704  1
  S  S103  1  0.12725132  0.09092787  -0.02143296  1
  S  S104  1  -0.15907213  -0.12274868  -0.27143296  1
  S  S105  1  1.65907213  1.12274868  0.22856704  1
  S  S106  1  1.87274868  0.09092787  0.47856704  1
  S  S107  1  0.62725132  1.90907213  -0.02143296  1
  S  S108  1  1.65907213  -0.12274868  1.27143296  1
  S  S109  1  -0.15907213  1.12274868  1.77143296  1
  S  S110  1  0.62725132  0.09092787  1.52143296  1
  S  S111  1  1.87274868  1.90907213  2.02143296  1
  S  S112  1  0.77910973  0.13255461  0.64200371  1
  S  S113  1  0.72089027  0.86744539  0.14200371  1
  S  S114  1  0.11744539  0.52910973  0.89200371  1
  S  S115  1  0.38255461  0.47089027  0.39200371  1
  S  S116  1  0.72089027  0.13255461  0.35799629  1
  S  S117  1  0.77910973  0.86744539  0.85799629  1
  S  S118  1  0.38255461  0.52910973  0.10799629  1
  S  S119  1  0.11744539  0.47089027  0.60799629  1
  S  S120  1  0.22089027  0.86744539  0.35799629  1
  S  S121  1  0.27910973  0.13255461  0.85799629  1
  S  S122  1  0.88255461  0.47089027  0.10799629  1
  S  S123  1  0.61744539  0.52910973  0.60799629  1
  S  S124  1  0.27910973  0.86744539  0.64200371  1
  S  S125  1  0.22089027  0.13255461  0.14200371  1
  S  S126  1  0.61744539  0.47089027  0.89200371  1
  S  S127  1  0.88255461  0.52910973  0.39200371  1
  S  S128  1  0.27910973  0.63255461  0.14200371  1
  S  S129  1  0.22089027  0.36744539  0.64200371  1
  S  S130  1  0.61744539  0.02910973  0.39200371  1
  S  S131  1  0.88255461  0.97089027  0.89200371  1
  S  S132  1  0.22089027  0.63255461  0.85799629  1
  S  S133  1  0.27910973  0.36744539  0.35799629  1
  S  S134  1  0.88255461  0.02910973  0.60799629  1
  S  S135  1  0.61744539  0.97089027  0.10799629  1
  S  S136  1  0.72089027  0.36744539  0.85799629  1
  S  S137  1  0.77910973  0.63255461  0.35799629  1
  S  S138  1  0.38255461  0.97089027  0.60799629  1
  S  S139  1  0.11744539  0.02910973  0.10799629  1
  S  S140  1  0.77910973  0.36744539  0.14200371  1
  S  S141  1  0.72089027  0.63255461  0.64200371  1
  S  S142  1  0.11744539  0.97089027  0.39200371  1
  S  S143  1  0.38255461  0.02910973  0.89200371  1
  Sr  Sr144  1  0.86210354  0.95705950  0.67353383  1
  Sr  Sr145  1  0.63789646  0.04294050  0.17353383  1
  Sr  Sr146  1  0.29294050  0.61210354  0.92353383  1
  Sr  Sr147  1  0.20705950  0.38789646  0.42353383  1
  Sr  Sr148  1  0.63789646  0.95705950  0.32646617  1
  Sr  Sr149  1  0.86210354  0.04294050  0.82646617  1
  Sr  Sr150  1  0.20705950  0.61210354  0.07646617  1
  Sr  Sr151  1  0.29294050  0.38789646  0.57646617  1
  Sr  Sr152  1  0.13789646  0.04294050  0.32646617  1
  Sr  Sr153  1  0.36210354  0.95705950  0.82646617  1
  Sr  Sr154  1  0.70705950  0.38789646  0.07646617  1
  Sr  Sr155  1  0.79294050  0.61210354  0.57646617  1
  Sr  Sr156  1  0.36210354  0.04294050  0.67353383  1
  Sr  Sr157  1  0.13789646  0.95705950  0.17353383  1
  Sr  Sr158  1  0.79294050  0.38789646  0.92353383  1
  Sr  Sr159  1  0.70705950  0.61210354  0.42353383  1
  Sr  Sr160  1  0.36210354  0.45705950  0.17353383  1
  Sr  Sr161  1  0.13789646  0.54294050  0.67353383  1
  Sr  Sr162  1  0.79294050  0.11210354  0.42353383  1
  Sr  Sr163  1  0.70705950  0.88789646  0.92353383  1
  Sr  Sr164  1  0.13789646  0.45705950  0.82646617  1
  Sr  Sr165  1  0.36210354  0.54294050  0.32646617  1
  Sr  Sr166  1  0.70705950  0.11210354  0.57646617  1
  Sr  Sr167  1  0.79294050  0.88789646  0.07646617  1
  Sr  Sr168  1  0.63789646  0.54294050  0.82646617  1
  Sr  Sr169  1  0.86210354  0.45705950  0.32646617  1
  Sr  Sr170  1  0.20705950  0.88789646  0.57646617  1
  Sr  Sr171  1  0.29294050  0.11210354  0.07646617  1
  Sr  Sr172  1  0.86210354  0.54294050  0.17353383  1
  Sr  Sr173  1  0.63789646  0.45705950  0.67353383  1
  Sr  Sr174  1  0.29294050  0.88789646  0.42353383  1
  Sr  Sr175  1  0.20705950  0.11210354  0.92353383  1
  Sr  Sr176  1  0.99294515  0.00000000  0.25000000  1
  Sr  Sr177  1  0.50705485  0.00000000  0.75000000  1
  Sr  Sr178  1  0.25000000  0.74294515  0.50000000  1
  Sr  Sr179  1  0.25000000  0.25705485  0.00000000  1
  Sr  Sr180  1  0.00705485  0.00000000  0.75000000  1
  Sr  Sr181  1  0.49294515  0.00000000  0.25000000  1
  Sr  Sr182  1  0.75000000  0.25705485  0.50000000  1
  Sr  Sr183  1  0.75000000  0.74294515  -0.00000000  1
  Sr  Sr184  1  0.49294515  0.50000000  0.75000000  1
  Sr  Sr185  1  0.00705485  0.50000000  0.25000000  1
  Sr  Sr186  1  0.75000000  0.24294515  -0.00000000  1
  Sr  Sr187  1  0.75000000  0.75705485  0.50000000  1
  Sr  Sr188  1  0.50705485  0.50000000  0.25000000  1
  Sr  Sr189  1  0.99294515  0.50000000  0.75000000  1
  Sr  Sr190  1  0.25000000  0.75705485  0.00000000  1
  Sr  Sr191  1  0.25000000  0.24294515  0.50000000  1
