# generated using pymatgen
data_LiF
_symmetry_space_group_name_H-M   'P 1'
_cell_length_a   11.06900238
_cell_length_b   11.06900238
_cell_length_c   4.48985975
_cell_angle_alpha   90.00000000
_cell_angle_beta   90.00000000
_cell_angle_gamma   120.00000000
_symmetry_Int_Tables_number   1
_chemical_formula_structural   LiF
_chemical_formula_sum   'Li14 F14'
_cell_volume   476.40945152
_cell_formula_units_Z   14
loop_
 _symmetry_equiv_pos_site_id
 _symmetry_equiv_pos_as_xyz
  1  'x, y, z'
loop_
 _atom_site_type_symbol
 _atom_site_label
 _atom_site_symmetry_multiplicity
 _atom_site_fract_x
 _atom_site_fract_y
 _atom_site_fract_z
 _atom_site_occupancy
  F  F0  1  0.47758754  0.07522048  0.29324177  1
  F  F1  1  0.92477952  0.40236706  0.29324177  1
  F  F2  1  0.59763294  0.52241246  0.29324177  1
  F  F3  1  0.92477952  0.52241246  0.70675823  1
  F  F4  1  0.59763294  0.07522048  0.70675823  1
  F  F5  1  0.47758754  0.40236706  0.70675823  1
  F  F6  1  0.79837093  0.20162907  0.50000000  1
  F  F7  1  0.79837093  0.59674186  0.50000000  1
  F  F8  1  0.40325814  0.20162907  0.50000000  1
  F  F9  1  0.73434682  0.26565318  0.50000000  1
  F  F10  1  0.73434682  0.46869365  0.50000000  1
  F  F11  1  0.53130635  0.26565318  0.50000000  1
  F  F12  1  0.00000000  0.00000000  0.28137891  1
  F  F13  1  0.00000000  0.00000000  0.71862109  1
  Li  Li14  1  0.94297121  0.92266694  0.13518695  1
  Li  Li15  1  -0.92266694  0.02030426  0.13518695  1
  Li  Li16  1  -0.02030426  -0.94297121  0.13518695  1
  Li  Li17  1  -0.92266694  -0.94297121  -0.13518695  1
  Li  Li18  1  -0.02030426  0.92266694  -0.13518695  1
  Li  Li19  1  0.94297121  0.02030426  -0.13518695  1
  Li  Li20  1  0.48419845  0.15519203  0.63662861  1
  Li  Li21  1  0.84480797  0.32900641  0.63662861  1
  Li  Li22  1  0.67099359  0.51580155  0.63662861  1
  Li  Li23  1  0.84480797  0.51580155  0.36337139  1
  Li  Li24  1  0.67099359  0.15519203  0.36337139  1
  Li  Li25  1  0.48419845  0.32900641  0.36337139  1
  Li  Li26  1  0.33333333  0.66666667  0.50000000  1
  Li  Li27  1  0.66666667  0.33333333  0.00000000  1
