# generated using pymatgen
data_LiF
_symmetry_space_group_name_H-M   'P 1'
_cell_length_a   12.82007747
_cell_length_b   7.84217326
_cell_length_c   6.93914661
_cell_angle_alpha   90.00000000
_cell_angle_beta   90.00000000
_cell_angle_gamma   90.00000000
_symmetry_Int_Tables_number   1
_chemical_formula_structural   LiF
_chemical_formula_sum   'Li24 F24'
_cell_volume   697.64284778
_cell_formula_units_Z   24
loop_
 _symmetry_equiv_pos_site_id
 _symmetry_equiv_pos_as_xyz
  1  'x, y, z'
loop_
 _atom_site_type_symbol
 _atom_site_label
 _atom_site_symmetry_multiplicity
 _atom_site_fract_x
 _atom_site_fract_y
 _atom_site_fract_z
 _atom_site_occupancy
  F  F0  1  0.35280506  0.03480669  0.95537153  1
  F  F1  1  -0.35280506  -0.03480669  0.95537153  1
  F  F2  1  0.14719494  0.53480669  -0.95537153  1
  F  F3  1  0.85280506  0.46519331  -0.95537153  1
  F  F4  1  -0.35280506  -0.03480669  -0.95537153  1
  F  F5  1  0.35280506  0.03480669  -0.95537153  1
  F  F6  1  0.85280506  0.46519331  0.95537153  1
  F  F7  1  0.14719494  0.53480669  0.95537153  1
  F  F8  1  0.00000000  0.00000000  0.00000000  1
  F  F9  1  0.50000000  0.50000000  0.00000000  1
  F  F10  1  0.36981484  0.82884635  0.50000000  1
  F  F11  1  0.63018516  0.17115365  0.50000000  1
  F  F12  1  0.13018516  0.32884635  0.50000000  1
  F  F13  1  0.86981484  0.67115365  0.50000000  1
  F  F14  1  0.26641424  0.43585597  0.10892147  1
  F  F15  1  0.73358576  0.56414403  0.10892147  1
  F  F16  1  0.23358576  0.93585597  0.89107853  1
  F  F17  1  0.76641424  0.06414403  0.89107853  1
  F  F18  1  0.73358576  0.56414403  0.89107853  1
  F  F19  1  0.26641424  0.43585597  0.89107853  1
  F  F20  1  0.76641424  0.06414403  0.10892147  1
  F  F21  1  0.23358576  0.93585597  0.10892147  1
  F  F22  1  0.00000000  0.50000000  0.50000000  1
  F  F23  1  0.50000000  0.00000000  0.50000000  1
  Li  Li24  1  0.84037668  0.46663234  0.50000000  1
  Li  Li25  1  0.15962332  0.53336766  0.50000000  1
  Li  Li26  1  0.65962332  0.96663234  0.50000000  1
  Li  Li27  1  0.34037668  0.03336766  0.50000000  1
  Li  Li28  1  0.51137050  0.65314329  0.00000000  1
  Li  Li29  1  0.48862950  0.34685671  -0.00000000  1
  Li  Li30  1  0.98862950  0.15314329  -0.00000000  1
  Li  Li31  1  0.01137050  0.84685671  0.00000000  1
  Li  Li32  1  0.45178194  0.29447387  0.50000000  1
  Li  Li33  1  0.54821806  0.70552613  0.50000000  1
  Li  Li34  1  0.04821806  0.79447387  0.50000000  1
  Li  Li35  1  0.95178194  0.20552613  0.50000000  1
  Li  Li36  1  0.87253517  0.61395869  0.66422589  1
  Li  Li37  1  0.12746483  0.38604131  0.66422589  1
  Li  Li38  1  0.62746483  0.11395869  0.33577411  1
  Li  Li39  1  0.37253517  0.88604131  0.33577411  1
  Li  Li40  1  0.12746483  0.38604131  0.33577411  1
  Li  Li41  1  0.87253517  0.61395869  0.33577411  1
  Li  Li42  1  0.37253517  0.88604131  0.66422589  1
  Li  Li43  1  0.62746483  0.11395869  0.66422589  1
  Li  Li44  1  0.00000000  0.00000000  0.71011951  1
  Li  Li45  1  0.50000000  0.50000000  0.28988049  1
  Li  Li46  1  0.00000000  0.00000000  0.28988049  1
  Li  Li47  1  0.50000000  0.50000000  0.71011951  1
