# generated using pymatgen
data_LiF
_symmetry_space_group_name_H-M   'P 1'
_cell_length_a   10.29808705
_cell_length_b   6.32089558
_cell_length_c   7.48300211
_cell_angle_alpha   90.00000000
_cell_angle_beta   90.00000000
_cell_angle_gamma   90.00000000
_symmetry_Int_Tables_number   1
_chemical_formula_structural   LiF
_chemical_formula_sum   'Li20 F20'
_cell_volume   487.09205068
_cell_formula_units_Z   20
loop_
 _symmetry_equiv_pos_site_id
 _symmetry_equiv_pos_as_xyz
  1  'x, y, z'
loop_
 _atom_site_type_symbol
 _atom_site_label
 _atom_site_symmetry_multiplicity
 _atom_site_fract_x
 _atom_site_fract_y
 _atom_site_fract_z
 _atom_site_occupancy
  F  F0  1  0.84563120  0.41353698  0.53567227  1
  F  F1  1  0.65436880  0.58646302  0.03567227  1
  F  F2  1  0.15436880  0.91353698  0.46432773  1
  F  F3  1  0.34563120  0.08646302  0.96432773  1
  F  F4  1  0.15436880  0.58646302  0.46432773  1
  F  F5  1  0.34563120  0.41353698  0.96432773  1
  F  F6  1  0.84563120  0.08646302  0.53567227  1
  F  F7  1  0.65436880  0.91353698  0.03567227  1
  F  F8  1  0.78843625  0.52706779  0.82212475  1
  F  F9  1  0.71156375  0.47293221  0.32212475  1
  F  F10  1  0.21156375  0.02706779  0.17787525  1
  F  F11  1  0.28843625  0.97293221  0.67787525  1
  F  F12  1  0.21156375  0.47293221  0.17787525  1
  F  F13  1  0.28843625  0.52706779  0.67787525  1
  F  F14  1  0.78843625  0.97293221  0.82212475  1
  F  F15  1  0.71156375  0.02706779  0.32212475  1
  F  F16  1  0.00000000  0.00000000  0.00000000  1
  F  F17  1  0.50000000  0.00000000  0.50000000  1
  F  F18  1  0.00000000  0.50000000  0.00000000  1
  F  F19  1  0.50000000  0.50000000  0.50000000  1
  Li  Li20  1  0.99909739  0.25000000  0.53174651  1
  Li  Li21  1  0.50090261  0.75000000  0.03174651  1
  Li  Li22  1  0.00090261  0.75000000  0.46825349  1
  Li  Li23  1  0.49909739  0.25000000  0.96825349  1
  Li  Li24  1  0.20963344  0.25000000  0.03705114  1
  Li  Li25  1  0.29036656  0.75000000  0.53705114  1
  Li  Li26  1  0.79036656  0.75000000  0.96294886  1
  Li  Li27  1  0.70963344  0.25000000  0.46294886  1
  Li  Li28  1  0.27681649  0.90446138  0.98487604  1
  Li  Li29  1  0.22318351  -0.90446138  1.48487604  1
  Li  Li30  1  -0.27681649  1.40446138  -0.98487604  1
  Li  Li31  1  0.77681649  -0.40446138  -0.48487604  1
  Li  Li32  1  -0.27681649  -0.90446138  -0.98487604  1
  Li  Li33  1  0.77681649  0.90446138  -0.48487604  1
  Li  Li34  1  0.27681649  -0.40446138  0.98487604  1
  Li  Li35  1  0.22318351  1.40446138  1.48487604  1
  Li  Li36  1  0.27730103  0.25000000  0.69950601  1
  Li  Li37  1  0.22269897  0.75000000  0.19950601  1
  Li  Li38  1  0.72269897  0.75000000  0.30049399  1
  Li  Li39  1  0.77730103  0.25000000  0.80049399  1
