# generated using pymatgen
data_LiF
_symmetry_space_group_name_H-M   'P 1'
_cell_length_a   9.45870393
_cell_length_b   9.45870393
_cell_length_c   6.77715630
_cell_angle_alpha   90.00000000
_cell_angle_beta   90.00000000
_cell_angle_gamma   120.00000000
_symmetry_Int_Tables_number   1
_chemical_formula_structural   LiF
_chemical_formula_sum   'Li20 F20'
_cell_volume   525.09924896
_cell_formula_units_Z   20
loop_
 _symmetry_equiv_pos_site_id
 _symmetry_equiv_pos_as_xyz
  1  'x, y, z'
loop_
 _atom_site_type_symbol
 _atom_site_label
 _atom_site_symmetry_multiplicity
 _atom_site_fract_x
 _atom_site_fract_y
 _atom_site_fract_z
 _atom_site_occupancy
  F  F0  1  0.66666667  0.33333333  0.25000000  1
  F  F1  1  0.33333333  0.66666667  0.75000000  1
  F  F2  1  0.99941011  0.17051075  0.97898196  1
  F  F3  1  -0.17051075  0.82889936  0.97898196  1
  F  F4  1  -0.82889936  -0.99941011  0.97898196  1
  F  F5  1  -0.99941011  -0.17051075  1.47898196  1
  F  F6  1  0.17051075  -0.82889936  1.47898196  1
  F  F7  1  0.82889936  0.99941011  1.47898196  1
  F  F8  1  -0.99941011  -0.17051075  -0.97898196  1
  F  F9  1  0.17051075  -0.82889936  -0.97898196  1
  F  F10  1  0.82889936  0.99941011  -0.97898196  1
  F  F11  1  0.99941011  0.17051075  -0.47898196  1
  F  F12  1  -0.17051075  0.82889936  -0.47898196  1
  F  F13  1  -0.82889936  -0.99941011  -0.47898196  1
  F  F14  1  0.60827790  0.70276210  0.25000000  1
  F  F15  1  0.29723790  0.90551579  0.25000000  1
  F  F16  1  0.09448421  0.39172210  0.25000000  1
  F  F17  1  0.39172210  0.29723790  0.75000000  1
  F  F18  1  0.70276210  0.09448421  0.75000000  1
  F  F19  1  0.90551579  0.60827790  0.75000000  1
  Li  Li20  1  0.00000000  0.00000000  0.00000000  1
  Li  Li21  1  0.00000000  0.00000000  0.50000000  1
  Li  Li22  1  0.33333333  0.66666667  0.14001616  1
  Li  Li23  1  0.66666667  0.33333333  0.64001616  1
  Li  Li24  1  0.66666667  0.33333333  0.85998384  1
  Li  Li25  1  0.33333333  0.66666667  0.35998384  1
  Li  Li26  1  0.00000000  0.00000000  0.25000000  1
  Li  Li27  1  0.00000000  0.00000000  0.75000000  1
  Li  Li28  1  0.66103417  0.06745920  0.10282422  1
  Li  Li29  1  0.93254080  0.59357498  0.10282422  1
  Li  Li30  1  0.40642502  0.33896583  0.10282422  1
  Li  Li31  1  0.33896583  0.93254080  0.60282422  1
  Li  Li32  1  0.06745920  0.40642502  0.60282422  1
  Li  Li33  1  0.59357498  0.66103417  0.60282422  1
  Li  Li34  1  0.33896583  0.93254080  0.89717578  1
  Li  Li35  1  0.06745920  0.40642502  0.89717578  1
  Li  Li36  1  0.59357498  0.66103417  0.89717578  1
  Li  Li37  1  0.66103417  0.06745920  0.39717578  1
  Li  Li38  1  0.93254080  0.59357498  0.39717578  1
  Li  Li39  1  0.40642502  0.33896583  0.39717578  1
