# generated using pymatgen
data_LiF
_symmetry_space_group_name_H-M   'P 1'
_cell_length_a   9.45090166
_cell_length_b   9.45090166
_cell_length_c   5.86269490
_cell_angle_alpha   90.00000000
_cell_angle_beta   90.00000000
_cell_angle_gamma   120.00000000
_symmetry_Int_Tables_number   1
_chemical_formula_structural   LiF
_chemical_formula_sum   'Li14 F14'
_cell_volume   453.49699530
_cell_formula_units_Z   14
loop_
 _symmetry_equiv_pos_site_id
 _symmetry_equiv_pos_as_xyz
  1  'x, y, z'
loop_
 _atom_site_type_symbol
 _atom_site_label
 _atom_site_symmetry_multiplicity
 _atom_site_fract_x
 _atom_site_fract_y
 _atom_site_fract_z
 _atom_site_occupancy
  F  F0  1  0.40626858  0.31188253  0.80430019  1
  F  F1  1  0.68811747  0.09438605  0.80430019  1
  F  F2  1  0.90561395  0.59373142  0.80430019  1
  F  F3  1  0.68811747  0.59373142  0.19569981  1
  F  F4  1  0.90561395  0.31188253  0.19569981  1
  F  F5  1  0.40626858  0.09438605  0.19569981  1
  F  F6  1  0.04611307  0.32850482  0.07955465  1
  F  F7  1  0.67149518  0.71760825  0.07955465  1
  F  F8  1  0.28239175  0.95388693  0.07955465  1
  F  F9  1  0.67149518  0.95388693  0.92044535  1
  F  F10  1  0.28239175  0.32850482  0.92044535  1
  F  F11  1  0.04611307  0.71760825  0.92044535  1
  F  F12  1  0.66666667  0.33333333  0.73248617  1
  F  F13  1  0.66666667  0.33333333  0.26751383  1
  Li  Li14  1  0.33333333  0.66666667  0.50000000  1
  Li  Li15  1  0.66666667  0.33333333  0.00000000  1
  Li  Li16  1  0.13824955  0.86175045  0.50000000  1
  Li  Li17  1  0.13824955  0.27649911  0.50000000  1
  Li  Li18  1  0.72350089  0.86175045  0.50000000  1
  Li  Li19  1  0.40490701  0.07057051  0.85754883  1
  Li  Li20  1  -0.07057051  0.33433649  0.85754883  1
  Li  Li21  1  -0.33433649  -0.40490701  0.85754883  1
  Li  Li22  1  -0.07057051  -0.40490701  -0.85754883  1
  Li  Li23  1  -0.33433649  0.07057051  -0.85754883  1
  Li  Li24  1  0.40490701  0.33433649  -0.85754883  1
  Li  Li25  1  0.66666667  0.33333333  0.50000000  1
  Li  Li26  1  0.00000000  0.00000000  0.50000000  1
  Li  Li27  1  0.33333333  0.66666667  0.00000000  1
