# generated using pymatgen
data_LiF
_symmetry_space_group_name_H-M   'P 1'
_cell_length_a   9.69770464
_cell_length_b   9.69770464
_cell_length_c   10.31254590
_cell_angle_alpha   90.00000000
_cell_angle_beta   90.00000000
_cell_angle_gamma   120.00000000
_symmetry_Int_Tables_number   1
_chemical_formula_structural   LiF
_chemical_formula_sum   'Li36 F36'
_cell_volume   839.91324941
_cell_formula_units_Z   36
loop_
 _symmetry_equiv_pos_site_id
 _symmetry_equiv_pos_as_xyz
  1  'x, y, z'
loop_
 _atom_site_type_symbol
 _atom_site_label
 _atom_site_symmetry_multiplicity
 _atom_site_fract_x
 _atom_site_fract_y
 _atom_site_fract_z
 _atom_site_occupancy
  F  F0  1  0.00000000  0.00000000  0.62568470  1
  F  F1  1  0.00000000  0.00000000  0.87431530  1
  F  F2  1  0.00000000  0.00000000  0.37431530  1
  F  F3  1  0.00000000  0.00000000  0.12568470  1
  F  F4  1  0.66666667  0.33333333  0.95901803  1
  F  F5  1  0.66666667  0.33333333  0.20764863  1
  F  F6  1  0.66666667  0.33333333  0.70764863  1
  F  F7  1  0.66666667  0.33333333  0.45901803  1
  F  F8  1  0.33333333  0.66666667  0.29235137  1
  F  F9  1  0.33333333  0.66666667  0.54098197  1
  F  F10  1  0.33333333  0.66666667  0.04098197  1
  F  F11  1  0.33333333  0.66666667  0.79235137  1
  F  F12  1  0.25443256  0.00000000  0.25000000  1
  F  F13  1  0.00000000  0.25443256  0.25000000  1
  F  F14  1  -0.25443256  -0.25443256  0.25000000  1
  F  F15  1  -0.25443256  -0.00000000  0.75000000  1
  F  F16  1  0.00000000  -0.25443256  0.75000000  1
  F  F17  1  0.25443256  0.25443256  0.75000000  1
  F  F18  1  0.92109923  0.33333333  0.58333333  1
  F  F19  1  0.66666667  0.58776590  0.58333333  1
  F  F20  1  0.41223410  0.07890077  0.58333333  1
  F  F21  1  0.41223410  0.33333333  1.08333333  1
  F  F22  1  0.66666667  0.07890077  1.08333333  1
  F  F23  1  0.92109923  0.58776590  1.08333333  1
  F  F24  1  0.58776590  0.66666667  0.91666667  1
  F  F25  1  0.33333333  0.92109923  0.91666667  1
  F  F26  1  0.07890077  0.41223410  0.91666667  1
  F  F27  1  0.07890077  0.66666667  1.41666667  1
  F  F28  1  0.33333333  0.41223410  1.41666667  1
  F  F29  1  0.58776590  0.92109923  1.41666667  1
  F  F30  1  0.00000000  0.00000000  0.25000000  1
  F  F31  1  0.00000000  0.00000000  0.75000000  1
  F  F32  1  0.66666667  0.33333333  0.58333333  1
  F  F33  1  0.66666667  0.33333333  0.08333333  1
  F  F34  1  0.33333333  0.66666667  0.91666667  1
  F  F35  1  0.33333333  0.66666667  0.41666667  1
  Li  Li36  1  0.11494357  0.00000000  0.25000000  1
  Li  Li37  1  0.00000000  0.11494357  0.25000000  1
  Li  Li38  1  0.88505643  0.88505643  0.25000000  1
  Li  Li39  1  0.88505643  -0.00000000  0.75000000  1
  Li  Li40  1  0.00000000  0.88505643  0.75000000  1
  Li  Li41  1  0.11494357  0.11494357  0.75000000  1
  Li  Li42  1  0.78161024  0.33333333  0.58333333  1
  Li  Li43  1  0.66666667  0.44827690  0.58333333  1
  Li  Li44  1  0.55172310  0.21838976  0.58333333  1
  Li  Li45  1  0.55172310  0.33333333  0.08333333  1
  Li  Li46  1  0.66666667  0.21838976  0.08333333  1
  Li  Li47  1  0.78161024  0.44827690  0.08333333  1
  Li  Li48  1  0.44827690  0.66666667  0.91666667  1
  Li  Li49  1  0.33333333  0.78161024  0.91666667  1
  Li  Li50  1  0.21838976  0.55172310  0.91666667  1
  Li  Li51  1  0.21838976  0.66666667  0.41666667  1
  Li  Li52  1  0.33333333  0.55172310  0.41666667  1
  Li  Li53  1  0.44827690  0.78161024  0.41666667  1
  Li  Li54  1  0.55179569  0.00000000  0.25000000  1
  Li  Li55  1  0.00000000  0.55179569  0.25000000  1
  Li  Li56  1  0.44820431  0.44820431  0.25000000  1
  Li  Li57  1  0.44820431  0.00000000  0.75000000  1
  Li  Li58  1  0.00000000  0.44820431  0.75000000  1
  Li  Li59  1  0.55179569  0.55179569  0.75000000  1
  Li  Li60  1  0.21846236  0.33333333  0.58333333  1
  Li  Li61  1  0.66666667  0.88512903  0.58333333  1
  Li  Li62  1  0.11487097  0.78153764  0.58333333  1
  Li  Li63  1  0.11487097  0.33333333  0.08333333  1
  Li  Li64  1  0.66666667  0.78153764  0.08333333  1
  Li  Li65  1  0.21846236  0.88512903  0.08333333  1
  Li  Li66  1  0.88512903  0.66666667  0.91666667  1
  Li  Li67  1  0.33333333  0.21846236  0.91666667  1
  Li  Li68  1  0.78153764  0.11487097  0.91666667  1
  Li  Li69  1  0.78153764  0.66666667  0.41666667  1
  Li  Li70  1  0.33333333  0.11487097  0.41666667  1
  Li  Li71  1  0.88512903  0.21846236  0.41666667  1
