# generated using pymatgen
data_LiF
_symmetry_space_group_name_H-M   'P 1'
_cell_length_a   9.07104169
_cell_length_b   7.10122137
_cell_length_c   9.36501806
_cell_angle_alpha   90.00000000
_cell_angle_beta   90.00000000
_cell_angle_gamma   90.00000000
_symmetry_Int_Tables_number   1
_chemical_formula_structural   LiF
_chemical_formula_sum   'Li24 F24'
_cell_volume   603.25208772
_cell_formula_units_Z   24
loop_
 _symmetry_equiv_pos_site_id
 _symmetry_equiv_pos_as_xyz
  1  'x, y, z'
loop_
 _atom_site_type_symbol
 _atom_site_label
 _atom_site_symmetry_multiplicity
 _atom_site_fract_x
 _atom_site_fract_y
 _atom_site_fract_z
 _atom_site_occupancy
  F  F0  1  0.98495994  0.87578651  0.61562992  1
  F  F1  1  0.51504006  0.12421349  0.11562992  1
  F  F2  1  0.01504006  0.37578651  0.38437008  1
  F  F3  1  0.48495994  0.62421349  0.88437008  1
  F  F4  1  0.01504006  0.12421349  0.38437008  1
  F  F5  1  0.48495994  0.87578651  0.88437008  1
  F  F6  1  0.98495994  0.62421349  0.61562992  1
  F  F7  1  0.51504006  0.37578651  0.11562992  1
  F  F8  1  0.01225796  0.95357854  0.88629210  1
  F  F9  1  0.48774204  0.04642146  0.38629210  1
  F  F10  1  0.98774204  0.45357854  0.11370790  1
  F  F11  1  0.51225796  0.54642146  0.61370790  1
  F  F12  1  0.98774204  0.04642146  0.11370790  1
  F  F13  1  0.51225796  0.95357854  0.61370790  1
  F  F14  1  0.01225796  0.54642146  0.88629210  1
  F  F15  1  0.48774204  0.45357854  0.38629210  1
  F  F16  1  0.44081864  0.95408148  0.37200038  1
  F  F17  1  0.05918136  0.04591852  0.87200038  1
  F  F18  1  0.55918136  0.45408148  0.62799962  1
  F  F19  1  0.94081864  0.54591852  0.12799962  1
  F  F20  1  0.55918136  0.04591852  0.62799962  1
  F  F21  1  0.94081864  0.95408148  0.12799962  1
  F  F22  1  0.44081864  0.54591852  0.37200038  1
  F  F23  1  0.05918136  0.45408148  0.87200038  1
  Li  Li24  1  0.00000000  0.00000000  0.50000000  1
  Li  Li25  1  0.50000000  0.00000000  0.00000000  1
  Li  Li26  1  0.00000000  0.50000000  0.50000000  1
  Li  Li27  1  0.50000000  0.50000000  0.00000000  1
  Li  Li28  1  0.00000000  0.00000000  0.00000000  1
  Li  Li29  1  0.50000000  0.00000000  0.50000000  1
  Li  Li30  1  0.00000000  0.50000000  0.00000000  1
  Li  Li31  1  0.50000000  0.50000000  0.50000000  1
  Li  Li32  1  0.24981247  0.25000000  0.92749943  1
  Li  Li33  1  0.25018753  0.75000000  0.42749943  1
  Li  Li34  1  0.75018753  0.75000000  0.07250057  1
  Li  Li35  1  0.74981247  0.25000000  0.57250057  1
  Li  Li36  1  0.41400052  0.25000000  0.14804426  1
  Li  Li37  1  0.08599948  0.75000000  0.64804426  1
  Li  Li38  1  0.58599948  0.75000000  0.85195574  1
  Li  Li39  1  0.91400052  0.25000000  0.35195574  1
  Li  Li40  1  0.74750118  0.35701359  0.17905405  1
  Li  Li41  1  -0.24750118  -0.35701359  0.67905405  1
  Li  Li42  1  -0.74750118  0.85701359  -0.17905405  1
  Li  Li43  1  1.24750118  0.14298641  0.32094595  1
  Li  Li44  1  -0.74750118  -0.35701359  -0.17905405  1
  Li  Li45  1  1.24750118  0.35701359  0.32094595  1
  Li  Li46  1  0.74750118  0.14298641  0.17905405  1
  Li  Li47  1  -0.24750118  0.85701359  0.67905405  1
