# generated using pymatgen
data_Li2Cu3P2
_symmetry_space_group_name_H-M   'P 1'
_cell_length_a   4.47046778
_cell_length_b   4.58866964
_cell_length_c   6.80448258
_cell_angle_alpha   95.59232196
_cell_angle_beta   101.93573653
_cell_angle_gamma   112.08076710
_symmetry_Int_Tables_number   1
_chemical_formula_structural   Li2Cu3P2
_chemical_formula_sum   'Li2 Cu3 P2'
_cell_volume   124.16430388
_cell_formula_units_Z   1
loop_
 _symmetry_equiv_pos_site_id
 _symmetry_equiv_pos_as_xyz
  1  'x, y, z'
loop_
 _atom_site_type_symbol
 _atom_site_label
 _atom_site_symmetry_multiplicity
 _atom_site_fract_x
 _atom_site_fract_y
 _atom_site_fract_z
 _atom_site_occupancy
  P  P0  1  0.00000000  0.00000000  0.00000000  1
  P  P1  1  0.50000000  0.50000000  0.50000000  1
  Li  Li2  1  0.50000000  0.50000000  0.00000000  1
  Li  Li3  1  0.50000000  0.00000000  0.50000000  1
  Cu  Cu4  1  0.00000000  0.50000000  0.50000000  1
  Cu  Cu5  1  0.75320745  0.67294431  0.60666179  1
  Cu  Cu6  1  0.75405329  0.51555697  0.86260042  1
