# generated using pymatgen
data_LiF
_symmetry_space_group_name_H-M   'P 1'
_cell_length_a   10.79767828
_cell_length_b   10.80083193
_cell_length_c   6.54575834
_cell_angle_alpha   90.00000000
_cell_angle_beta   90.00000000
_cell_angle_gamma   90.00000000
_symmetry_Int_Tables_number   1
_chemical_formula_structural   LiF
_chemical_formula_sum   'Li24 F24'
_cell_volume   763.39192063
_cell_formula_units_Z   24
loop_
 _symmetry_equiv_pos_site_id
 _symmetry_equiv_pos_as_xyz
  1  'x, y, z'
loop_
 _atom_site_type_symbol
 _atom_site_label
 _atom_site_symmetry_multiplicity
 _atom_site_fract_x
 _atom_site_fract_y
 _atom_site_fract_z
 _atom_site_occupancy
  F  F0  1  0.34028052  0.45700162  0.14934095  1
  F  F1  1  0.15971948  0.54299838  0.64934095  1
  F  F2  1  0.65971948  0.95700162  0.85065905  1
  F  F3  1  0.84028052  0.04299838  0.35065905  1
  F  F4  1  0.65971948  0.54299838  0.85065905  1
  F  F5  1  0.84028052  0.45700162  0.35065905  1
  F  F6  1  0.34028052  0.04299838  0.14934095  1
  F  F7  1  0.15971948  0.95700162  0.64934095  1
  F  F8  1  0.27633479  0.25000000  0.57923637  1
  F  F9  1  0.22366521  0.75000000  0.07923637  1
  F  F10  1  0.72366521  0.75000000  0.42076363  1
  F  F11  1  0.77633479  0.25000000  0.92076363  1
  F  F12  1  0.03864251  0.25000000  0.26388543  1
  F  F13  1  0.46135749  0.75000000  0.76388543  1
  F  F14  1  0.96135749  0.75000000  0.73611457  1
  F  F15  1  0.53864251  0.25000000  0.23611457  1
  F  F16  1  0.69321293  0.70094259  0.97642247  1
  F  F17  1  0.80678707  0.29905741  0.47642247  1
  F  F18  1  0.30678707  0.20094259  0.02357753  1
  F  F19  1  0.19321293  0.79905741  0.52357753  1
  F  F20  1  0.30678707  0.29905741  0.02357753  1
  F  F21  1  0.19321293  0.70094259  0.52357753  1
  F  F22  1  0.69321293  0.79905741  0.97642247  1
  F  F23  1  0.80678707  0.20094259  0.47642247  1
  Li  Li24  1  0.00000000  0.00000000  0.50000000  1
  Li  Li25  1  0.50000000  -0.00000000  0.00000000  1
  Li  Li26  1  0.00000000  0.50000000  0.50000000  1
  Li  Li27  1  0.50000000  0.50000000  0.00000000  1
  Li  Li28  1  0.00000000  0.00000000  0.00000000  1
  Li  Li29  1  0.50000000  -0.00000000  0.50000000  1
  Li  Li30  1  0.00000000  0.50000000  0.00000000  1
  Li  Li31  1  0.50000000  0.50000000  0.50000000  1
  Li  Li32  1  0.74190662  0.33819946  0.23586323  1
  Li  Li33  1  -0.24190662  -0.33819946  0.73586323  1
  Li  Li34  1  -0.74190662  0.83819946  -0.23586323  1
  Li  Li35  1  1.24190662  0.16180054  0.26413677  1
  Li  Li36  1  -0.74190662  -0.33819946  -0.23586323  1
  Li  Li37  1  1.24190662  0.33819946  0.26413677  1
  Li  Li38  1  0.74190662  0.16180054  0.23586323  1
  Li  Li39  1  -0.24190662  0.83819946  0.73586323  1
  Li  Li40  1  0.29699631  0.65043201  0.02179349  1
  Li  Li41  1  0.20300369  0.34956799  0.52179349  1
  Li  Li42  1  0.70300369  0.15043201  0.97820651  1
  Li  Li43  1  0.79699631  0.84956799  0.47820651  1
  Li  Li44  1  0.70300369  0.34956799  0.97820651  1
  Li  Li45  1  0.79699631  0.65043201  0.47820651  1
  Li  Li46  1  0.29699631  0.84956799  0.02179349  1
  Li  Li47  1  0.20300369  0.15043201  0.52179349  1
