# generated using pymatgen
data_LiF
_symmetry_space_group_name_H-M   'P 1'
_cell_length_a   8.29337492
_cell_length_b   14.76408384
_cell_length_c   6.07419177
_cell_angle_alpha   90.00000000
_cell_angle_beta   90.00000000
_cell_angle_gamma   90.00000000
_symmetry_Int_Tables_number   1
_chemical_formula_structural   LiF
_chemical_formula_sum   'Li24 F24'
_cell_volume   743.74883946
_cell_formula_units_Z   24
loop_
 _symmetry_equiv_pos_site_id
 _symmetry_equiv_pos_as_xyz
  1  'x, y, z'
loop_
 _atom_site_type_symbol
 _atom_site_label
 _atom_site_symmetry_multiplicity
 _atom_site_fract_x
 _atom_site_fract_y
 _atom_site_fract_z
 _atom_site_occupancy
  F  F0  1  0.91838671  0.14075771  0.90288253  1
  F  F1  1  0.58161329  0.85924229  0.40288253  1
  F  F2  1  0.08161329  0.64075771  0.09711747  1
  F  F3  1  0.41838671  0.35924229  0.59711747  1
  F  F4  1  0.08161329  0.85924229  0.09711747  1
  F  F5  1  0.41838671  0.14075771  0.59711747  1
  F  F6  1  0.91838671  0.35924229  0.90288253  1
  F  F7  1  0.58161329  0.64075771  0.40288253  1
  F  F8  1  0.82128243  0.60122443  0.07867244  1
  F  F9  1  0.67871757  0.39877557  0.57867244  1
  F  F10  1  0.17871757  0.10122443  0.92132756  1
  F  F11  1  0.32128243  0.89877557  0.42132756  1
  F  F12  1  0.17871757  0.39877557  0.92132756  1
  F  F13  1  0.32128243  0.60122443  0.42132756  1
  F  F14  1  0.82128243  0.89877557  0.07867244  1
  F  F15  1  0.67871757  0.10122443  0.57867244  1
  F  F16  1  0.00000000  0.00000000  0.00000000  1
  F  F17  1  0.50000000  0.00000000  0.50000000  1
  F  F18  1  0.00000000  0.50000000  -0.00000000  1
  F  F19  1  0.50000000  0.50000000  0.50000000  1
  F  F20  1  0.10580015  0.25000000  0.79617830  1
  F  F21  1  0.39419985  0.75000000  0.29617830  1
  F  F22  1  0.89419985  0.75000000  0.20382170  1
  F  F23  1  0.60580015  0.25000000  0.70382170  1
  Li  Li24  1  0.54524507  0.25000000  0.36460959  1
  Li  Li25  1  0.95475493  0.75000000  0.86460959  1
  Li  Li26  1  0.45475493  0.75000000  0.63539041  1
  Li  Li27  1  0.04524507  0.25000000  0.13539041  1
  Li  Li28  1  0.30470564  0.25000000  0.98536896  1
  Li  Li29  1  0.19529436  0.75000000  0.48536896  1
  Li  Li30  1  0.69529436  0.75000000  0.01463104  1
  Li  Li31  1  0.80470564  0.25000000  0.51463104  1
  Li  Li32  1  0.07505942  0.64362184  0.61670620  1
  Li  Li33  1  0.42494058  -0.64362184  1.11670620  1
  Li  Li34  1  -0.07505942  1.14362184  -0.61670620  1
  Li  Li35  1  0.57505942  -0.14362184  -0.11670620  1
  Li  Li36  1  -0.07505942  -0.64362184  -0.61670620  1
  Li  Li37  1  0.57505942  0.64362184  -0.11670620  1
  Li  Li38  1  0.07505942  -0.14362184  0.61670620  1
  Li  Li39  1  0.42494058  1.14362184  1.11670620  1
  Li  Li40  1  0.00000000  0.00000000  0.50000000  1
  Li  Li41  1  0.50000000  0.00000000  0.00000000  1
  Li  Li42  1  0.00000000  0.50000000  0.50000000  1
  Li  Li43  1  0.50000000  0.50000000  0.00000000  1
  Li  Li44  1  0.66758984  0.25000000  0.91828404  1
  Li  Li45  1  0.83241016  0.75000000  0.41828404  1
  Li  Li46  1  0.33241016  0.75000000  0.08171596  1
  Li  Li47  1  0.16758984  0.25000000  0.58171596  1
