# generated using pymatgen
data_LiF
_symmetry_space_group_name_H-M   'P 1'
_cell_length_a   17.43141579
_cell_length_b   17.43141579
_cell_length_c   5.91679386
_cell_angle_alpha   90.00000000
_cell_angle_beta   90.00000000
_cell_angle_gamma   120.00000000
_symmetry_Int_Tables_number   1
_chemical_formula_structural   LiF
_chemical_formula_sum   'Li72 F72'
_cell_volume   1556.97770742
_cell_formula_units_Z   72
loop_
 _symmetry_equiv_pos_site_id
 _symmetry_equiv_pos_as_xyz
  1  'x, y, z'
loop_
 _atom_site_type_symbol
 _atom_site_label
 _atom_site_symmetry_multiplicity
 _atom_site_fract_x
 _atom_site_fract_y
 _atom_site_fract_z
 _atom_site_occupancy
  F  F0  1  0.00000000  0.00000000  0.41848731  1
  F  F1  1  0.00000000  0.00000000  0.08151269  1
  F  F2  1  0.00000000  0.00000000  0.58151269  1
  F  F3  1  0.00000000  0.00000000  0.91848731  1
  F  F4  1  0.66666667  0.33333333  0.75182065  1
  F  F5  1  0.66666667  0.33333333  0.41484602  1
  F  F6  1  0.66666667  0.33333333  0.91484602  1
  F  F7  1  0.66666667  0.33333333  0.25182065  1
  F  F8  1  0.33333333  0.66666667  0.08515398  1
  F  F9  1  0.33333333  0.66666667  0.74817935  1
  F  F10  1  0.33333333  0.66666667  0.24817935  1
  F  F11  1  0.33333333  0.66666667  0.58515398  1
  F  F12  1  0.16739827  0.81719559  0.89500735  1
  F  F13  1  0.18280441  0.35020268  0.89500735  1
  F  F14  1  0.64979732  0.83260173  0.89500735  1
  F  F15  1  0.81719559  0.16739827  0.60499265  1
  F  F16  1  0.35020268  0.18280441  0.60499265  1
  F  F17  1  0.83260173  0.64979732  0.60499265  1
  F  F18  1  0.83260173  0.18280441  0.10499265  1
  F  F19  1  0.81719559  0.64979732  0.10499265  1
  F  F20  1  0.35020268  0.16739827  0.10499265  1
  F  F21  1  0.18280441  0.83260173  0.39500735  1
  F  F22  1  0.64979732  0.81719559  0.39500735  1
  F  F23  1  0.16739827  0.35020268  0.39500735  1
  F  F24  1  0.83406493  0.15052892  0.22834068  1
  F  F25  1  0.84947108  0.68353601  0.22834068  1
  F  F26  1  0.31646399  0.16593507  0.22834068  1
  F  F27  1  0.48386225  0.50073160  0.93832598  1
  F  F28  1  0.01686935  0.51613775  0.93832598  1
  F  F29  1  0.49926840  0.98313065  0.93832598  1
  F  F30  1  0.49926840  0.51613775  0.43832598  1
  F  F31  1  0.48386225  0.98313065  0.43832598  1
  F  F32  1  0.01686935  0.50073160  0.43832598  1
  F  F33  1  0.84947108  0.16593507  0.72834068  1
  F  F34  1  0.31646399  0.15052892  0.72834068  1
  F  F35  1  0.83406493  0.68353601  0.72834068  1
  F  F36  1  0.50073160  0.48386225  0.56167402  1
  F  F37  1  0.51613775  0.01686935  0.56167402  1
  F  F38  1  0.98313065  0.49926840  0.56167402  1
  F  F39  1  0.15052892  0.83406493  0.27165932  1
  F  F40  1  0.68353601  0.84947108  0.27165932  1
  F  F41  1  0.16593507  0.31646399  0.27165932  1
  F  F42  1  0.16593507  0.84947108  0.77165932  1
  F  F43  1  0.15052892  0.31646399  0.77165932  1
  F  F44  1  0.68353601  0.83406493  0.77165932  1
  F  F45  1  0.51613775  0.49926840  0.06167402  1
  F  F46  1  0.98313065  0.48386225  0.06167402  1
  F  F47  1  0.50073160  0.01686935  0.06167402  1
  F  F48  1  0.00000000  0.00000000  0.25000000  1
  F  F49  1  0.00000000  0.00000000  0.75000000  1
  F  F50  1  0.66666667  0.33333333  0.58333333  1
  F  F51  1  0.66666667  0.33333333  0.08333333  1
  F  F52  1  0.33333333  0.66666667  0.91666667  1
  F  F53  1  0.33333333  0.66666667  0.41666667  1
  F  F54  1  0.86317522  0.00000000  0.25000000  1
  F  F55  1  0.00000000  0.86317522  0.25000000  1
  F  F56  1  0.13682478  0.13682478  0.25000000  1
  F  F57  1  0.13682478  0.00000000  0.75000000  1
  F  F58  1  0.00000000  0.13682478  0.75000000  1
  F  F59  1  0.86317522  0.86317522  0.75000000  1
  F  F60  1  0.52984188  0.33333333  0.58333333  1
  F  F61  1  0.66666667  0.19650855  0.58333333  1
  F  F62  1  0.80349145  0.47015812  0.58333333  1
  F  F63  1  0.80349145  0.33333333  0.08333333  1
  F  F64  1  0.66666667  0.47015812  0.08333333  1
  F  F65  1  0.52984188  0.19650855  0.08333333  1
  F  F66  1  0.19650855  0.66666667  0.91666667  1
  F  F67  1  0.33333333  0.52984188  0.91666667  1
  F  F68  1  0.47015812  0.80349145  0.91666667  1
  F  F69  1  0.47015812  0.66666667  0.41666667  1
  F  F70  1  0.33333333  0.80349145  0.41666667  1
  F  F71  1  0.19650855  0.52984188  0.41666667  1
  Li  Li72  1  0.34125145  0.59315677  0.61996288  1
  Li  Li73  1  -0.59315677  -0.25190532  0.61996288  1
  Li  Li74  1  0.25190532  -0.34125145  0.61996288  1
  Li  Li75  1  0.59315677  0.34125145  -0.11996288  1
  Li  Li76  1  -0.25190532  -0.59315677  -0.11996288  1
  Li  Li77  1  -0.34125145  0.25190532  -0.11996288  1
  Li  Li78  1  -0.34125145  -0.59315677  -0.61996288  1
  Li  Li79  1  0.59315677  0.25190532  -0.61996288  1
  Li  Li80  1  -0.25190532  0.34125145  -0.61996288  1
  Li  Li81  1  -0.59315677  -0.34125145  1.11996288  1
  Li  Li82  1  0.25190532  0.59315677  1.11996288  1
  Li  Li83  1  0.34125145  -0.25190532  1.11996288  1
  Li  Li84  1  1.00791812  0.92649010  0.95329622  1
  Li  Li85  1  0.07350990  0.08142802  0.95329622  1
  Li  Li86  1  0.91857198  -0.00791812  0.95329622  1
  Li  Li87  1  1.25982343  0.67458478  0.21337045  1
  Li  Li88  1  0.41476135  -0.25982343  0.21337045  1
  Li  Li89  1  0.32541522  0.58523865  0.21337045  1
  Li  Li90  1  0.32541522  -0.25982343  -0.28662955  1
  Li  Li91  1  1.25982343  0.58523865  -0.28662955  1
  Li  Li92  1  0.41476135  0.67458478  -0.28662955  1
  Li  Li93  1  0.07350990  -0.00791812  1.45329622  1
  Li  Li94  1  0.91857198  0.92649010  1.45329622  1
  Li  Li95  1  1.00791812  0.08142802  1.45329622  1
  Li  Li96  1  0.67458478  1.25982343  1.28662955  1
  Li  Li97  1  -0.25982343  0.41476135  1.28662955  1
  Li  Li98  1  0.58523865  0.32541522  1.28662955  1
  Li  Li99  1  0.92649010  1.00791812  0.54670378  1
  Li  Li100  1  0.08142802  0.07350990  0.54670378  1
  Li  Li101  1  -0.00791812  0.91857198  0.54670378  1
  Li  Li102  1  -0.00791812  0.07350990  0.04670378  1
  Li  Li103  1  0.92649010  0.91857198  0.04670378  1
  Li  Li104  1  0.08142802  1.00791812  0.04670378  1
  Li  Li105  1  -0.25982343  0.32541522  1.78662955  1
  Li  Li106  1  0.58523865  1.25982343  1.78662955  1
  Li  Li107  1  0.67458478  0.41476135  1.78662955  1
  Li  Li108  1  0.93943804  0.63931894  0.74112985  1
  Li  Li109  1  0.36068106  0.30011910  0.74112985  1
  Li  Li110  1  0.69988090  0.06056196  0.74112985  1
  Li  Li111  1  0.63931894  0.93943804  0.75887015  1
  Li  Li112  1  0.30011910  0.36068106  0.75887015  1
  Li  Li113  1  0.06056196  0.69988090  0.75887015  1
  Li  Li114  1  0.06056196  0.36068106  0.25887015  1
  Li  Li115  1  0.63931894  0.69988090  0.25887015  1
  Li  Li116  1  0.30011910  0.93943804  0.25887015  1
  Li  Li117  1  0.36068106  0.06056196  0.24112985  1
  Li  Li118  1  0.69988090  0.63931894  0.24112985  1
  Li  Li119  1  0.93943804  0.30011910  0.24112985  1
  Li  Li120  1  0.60610471  0.97265228  0.07446318  1
  Li  Li121  1  0.02734772  0.63345243  0.07446318  1
  Li  Li122  1  0.36654757  0.39389529  0.07446318  1
  Li  Li123  1  0.30598561  0.27277137  0.09220349  1
  Li  Li124  1  0.96678576  0.69401439  0.09220349  1
  Li  Li125  1  0.72722863  0.03321424  0.09220349  1
  Li  Li126  1  0.72722863  0.69401439  0.59220349  1
  Li  Li127  1  0.30598561  0.03321424  0.59220349  1
  Li  Li128  1  0.96678576  0.27277137  0.59220349  1
  Li  Li129  1  0.02734772  0.39389529  0.57446318  1
  Li  Li130  1  0.36654757  0.97265228  0.57446318  1
  Li  Li131  1  0.60610471  0.63345243  0.57446318  1
  Li  Li132  1  0.27277137  0.30598561  0.40779651  1
  Li  Li133  1  0.69401439  0.96678576  0.40779651  1
  Li  Li134  1  0.03321424  0.72722863  0.40779651  1
  Li  Li135  1  0.97265228  0.60610471  0.42553682  1
  Li  Li136  1  0.63345243  0.02734772  0.42553682  1
  Li  Li137  1  0.39389529  0.36654757  0.42553682  1
  Li  Li138  1  0.39389529  0.02734772  0.92553682  1
  Li  Li139  1  0.97265228  0.36654757  0.92553682  1
  Li  Li140  1  0.63345243  0.60610471  0.92553682  1
  Li  Li141  1  0.69401439  0.72722863  0.90779651  1
  Li  Li142  1  0.03321424  0.30598561  0.90779651  1
  Li  Li143  1  0.27277137  0.96678576  0.90779651  1
