# generated using pymatgen
data_LiF
_symmetry_space_group_name_H-M   'P 1'
_cell_length_a   11.21079899
_cell_length_b   8.08020206
_cell_length_c   19.82074893
_cell_angle_alpha   90.00000000
_cell_angle_beta   90.00000000
_cell_angle_gamma   90.00000000
_symmetry_Int_Tables_number   1
_chemical_formula_structural   LiF
_chemical_formula_sum   'Li48 F48'
_cell_volume   1795.47287003
_cell_formula_units_Z   48
loop_
 _symmetry_equiv_pos_site_id
 _symmetry_equiv_pos_as_xyz
  1  'x, y, z'
loop_
 _atom_site_type_symbol
 _atom_site_label
 _atom_site_symmetry_multiplicity
 _atom_site_fract_x
 _atom_site_fract_y
 _atom_site_fract_z
 _atom_site_occupancy
  F  F0  1  0.83175274  0.25000000  0.09837478  1
  F  F1  1  0.66824726  0.75000000  0.59837478  1
  F  F2  1  0.16824726  0.75000000  0.90162522  1
  F  F3  1  0.33175274  0.25000000  0.40162522  1
  F  F4  1  0.63696489  0.96422100  0.12616552  1
  F  F5  1  0.86303511  0.03577900  0.62616552  1
  F  F6  1  0.36303511  0.46422100  0.87383448  1
  F  F7  1  0.13696489  0.53577900  0.37383448  1
  F  F8  1  0.36303511  0.03577900  0.87383448  1
  F  F9  1  0.13696489  0.96422100  0.37383448  1
  F  F10  1  0.63696489  0.53577900  0.12616552  1
  F  F11  1  0.86303511  0.46422100  0.62616552  1
  F  F12  1  0.37552295  0.79076842  0.11447864  1
  F  F13  1  0.12447705  0.20923158  0.61447864  1
  F  F14  1  0.62447705  0.29076842  0.88552136  1
  F  F15  1  0.87552295  0.70923158  0.38552136  1
  F  F16  1  0.62447705  0.20923158  0.88552136  1
  F  F17  1  0.87552295  0.79076842  0.38552136  1
  F  F18  1  0.37552295  0.70923158  0.11447864  1
  F  F19  1  0.12447705  0.29076842  0.61447864  1
  F  F20  1  0.60215595  0.25000000  0.65431283  1
  F  F21  1  0.89784405  0.75000000  0.15431283  1
  F  F22  1  0.39784405  0.75000000  0.34568717  1
  F  F23  1  0.10215595  0.25000000  0.84568717  1
  F  F24  1  0.00000000  0.00000000  0.00000000  1
  F  F25  1  0.50000000  0.00000000  0.50000000  1
  F  F26  1  0.00000000  0.50000000  0.00000000  1
  F  F27  1  0.50000000  0.50000000  0.50000000  1
  F  F28  1  0.97653854  0.19251683  0.95791199  1
  F  F29  1  0.52346146  0.80748317  0.45791199  1
  F  F30  1  0.02346146  0.69251683  0.04208801  1
  F  F31  1  0.47653854  0.30748317  0.54208801  1
  F  F32  1  0.02346146  0.80748317  0.04208801  1
  F  F33  1  0.47653854  0.19251683  0.54208801  1
  F  F34  1  0.97653854  0.30748317  0.95791199  1
  F  F35  1  0.52346146  0.69251683  0.45791199  1
  F  F36  1  0.17305294  0.20142090  0.72487245  1
  F  F37  1  0.32694706  0.79857910  0.22487245  1
  F  F38  1  0.82694706  0.70142090  0.27512755  1
  F  F39  1  0.67305294  0.29857910  0.77512755  1
  F  F40  1  0.82694706  0.79857910  0.27512755  1
  F  F41  1  0.67305294  0.20142090  0.77512755  1
  F  F42  1  0.17305294  0.29857910  0.72487245  1
  F  F43  1  0.32694706  0.70142090  0.22487245  1
  F  F44  1  0.41133640  0.25000000  0.75344556  1
  F  F45  1  0.08866360  0.75000000  0.25344556  1
  F  F46  1  0.58866360  0.75000000  0.24655444  1
  F  F47  1  0.91133640  0.25000000  0.74655444  1
  Li  Li48  1  0.13596200  0.15258068  0.01676038  1
  Li  Li49  1  0.36403800  -0.15258068  0.51676038  1
  Li  Li50  1  -0.13596200  0.65258068  -0.01676038  1
  Li  Li51  1  0.63596200  0.34741932  0.48323962  1
  Li  Li52  1  -0.13596200  -0.15258068  -0.01676038  1
  Li  Li53  1  0.63596200  0.15258068  0.48323962  1
  Li  Li54  1  0.13596200  0.34741932  0.01676038  1
  Li  Li55  1  0.36403800  0.65258068  0.51676038  1
  Li  Li56  1  0.18298848  0.06350862  0.27368588  1
  Li  Li57  1  0.31701152  0.93649138  0.77368588  1
  Li  Li58  1  0.81701152  0.56350862  0.72631412  1
  Li  Li59  1  0.68298848  0.43649138  0.22631412  1
  Li  Li60  1  0.81701152  0.93649138  0.72631412  1
  Li  Li61  1  0.68298848  0.06350862  0.22631412  1
  Li  Li62  1  0.18298848  0.43649138  0.27368588  1
  Li  Li63  1  0.31701152  0.56350862  0.77368588  1
  Li  Li64  1  0.48284495  0.25000000  0.93115333  1
  Li  Li65  1  0.01715505  0.75000000  0.43115333  1
  Li  Li66  1  0.51715505  0.75000000  0.06884667  1
  Li  Li67  1  0.98284495  0.25000000  0.56884667  1
  Li  Li68  1  0.77799150  0.12767250  0.64313098  1
  Li  Li69  1  0.72200850  0.87232750  0.14313098  1
  Li  Li70  1  0.22200850  0.62767250  0.35686902  1
  Li  Li71  1  0.27799150  0.37232750  0.85686902  1
  Li  Li72  1  0.22200850  0.87232750  0.35686902  1
  Li  Li73  1  0.27799150  0.12767250  0.85686902  1
  Li  Li74  1  0.77799150  0.37232750  0.64313098  1
  Li  Li75  1  0.72200850  0.62767250  0.14313098  1
  Li  Li76  1  0.29239116  0.25000000  0.34393577  1
  Li  Li77  1  0.20760884  0.75000000  0.84393577  1
  Li  Li78  1  0.70760884  0.75000000  0.65606423  1
  Li  Li79  1  0.79239116  0.25000000  0.15606423  1
  Li  Li80  1  0.00000000  0.00000000  0.50000000  1
  Li  Li81  1  0.50000000  0.00000000  0.00000000  1
  Li  Li82  1  0.00000000  0.50000000  0.50000000  1
  Li  Li83  1  0.50000000  0.50000000  0.00000000  1
  Li  Li84  1  0.95731538  0.25000000  0.28777332  1
  Li  Li85  1  0.54268462  0.75000000  0.78777332  1
  Li  Li86  1  0.04268462  0.75000000  0.71222668  1
  Li  Li87  1  0.45731538  0.25000000  0.21222668  1
  Li  Li88  1  0.13871173  0.25000000  0.21048913  1
  Li  Li89  1  0.36128827  0.75000000  0.71048913  1
  Li  Li90  1  0.86128827  0.75000000  0.78951087  1
  Li  Li91  1  0.63871173  0.25000000  0.28951087  1
  Li  Li92  1  0.42780053  0.25000000  0.50195826  1
  Li  Li93  1  0.07219947  0.75000000  0.00195826  1
  Li  Li94  1  0.57219947  0.75000000  0.49804174  1
  Li  Li95  1  0.92780053  0.25000000  0.99804174  1
