# generated using pymatgen
data_Li4TeF2
_symmetry_space_group_name_H-M   'P 1'
_cell_length_a   11.52462692
_cell_length_b   11.52462692
_cell_length_c   17.28851144
_cell_angle_alpha   90.00000000
_cell_angle_beta   90.00000000
_cell_angle_gamma   120.00000000
_symmetry_Int_Tables_number   1
_chemical_formula_structural   Li4TeF2
_chemical_formula_sum   'Li96 Te24 F48'
_cell_volume   1988.57503945
_cell_formula_units_Z   24
loop_
 _symmetry_equiv_pos_site_id
 _symmetry_equiv_pos_as_xyz
  1  'x, y, z'
loop_
 _atom_site_type_symbol
 _atom_site_label
 _atom_site_symmetry_multiplicity
 _atom_site_fract_x
 _atom_site_fract_y
 _atom_site_fract_z
 _atom_site_occupancy
  F  F0  1  0.83628615  0.55742837  0.40878192  1
  F  F1  1  -0.55742837  0.27885779  0.40878192  1
  F  F2  1  -0.27885779  -0.83628615  0.40878192  1
  F  F3  1  -0.83628615  -0.55742837  0.90878192  1
  F  F4  1  0.55742837  -0.27885779  0.90878192  1
  F  F5  1  0.27885779  0.83628615  0.90878192  1
  F  F6  1  -0.83628615  -0.55742837  -0.40878192  1
  F  F7  1  0.55742837  -0.27885779  -0.40878192  1
  F  F8  1  0.27885779  0.83628615  -0.40878192  1
  F  F9  1  0.83628615  0.55742837  0.09121808  1
  F  F10  1  -0.55742837  0.27885779  0.09121808  1
  F  F11  1  -0.27885779  -0.83628615  0.09121808  1
  F  F12  1  0.29492447  0.79514564  0.28450945  1
  F  F13  1  0.20485436  0.49977883  0.28450945  1
  F  F14  1  0.50022117  0.70507553  0.28450945  1
  F  F15  1  0.70507553  0.20485436  0.78450945  1
  F  F16  1  0.79514564  0.50022117  0.78450945  1
  F  F17  1  0.49977883  0.29492447  0.78450945  1
  F  F18  1  0.70507553  0.20485436  0.71549055  1
  F  F19  1  0.79514564  0.50022117  0.71549055  1
  F  F20  1  0.49977883  0.29492447  0.71549055  1
  F  F21  1  0.29492447  0.79514564  0.21549055  1
  F  F22  1  0.20485436  0.49977883  0.21549055  1
  F  F23  1  0.50022117  0.70507553  0.21549055  1
  F  F24  1  0.71171385  0.74697776  0.28444893  1
  F  F25  1  0.25302224  0.96473609  0.28444893  1
  F  F26  1  0.03526391  0.28828615  0.28444893  1
  F  F27  1  0.28828615  0.25302224  0.78444893  1
  F  F28  1  0.74697776  0.03526391  0.78444893  1
  F  F29  1  0.96473609  0.71171385  0.78444893  1
  F  F30  1  0.28828615  0.25302224  0.71555107  1
  F  F31  1  0.74697776  0.03526391  0.71555107  1
  F  F32  1  0.96473609  0.71171385  0.71555107  1
  F  F33  1  0.71171385  0.74697776  0.21555107  1
  F  F34  1  0.25302224  0.96473609  0.21555107  1
  F  F35  1  0.03526391  0.28828615  0.21555107  1
  F  F36  1  0.30852650  0.26432355  0.95281480  1
  F  F37  1  0.73567645  0.04420295  0.95281480  1
  F  F38  1  0.95579705  0.69147350  0.95281480  1
  F  F39  1  0.69147350  0.73567645  0.45281480  1
  F  F40  1  0.26432355  0.95579705  0.45281480  1
  F  F41  1  0.04420295  0.30852650  0.45281480  1
  F  F42  1  0.69147350  0.73567645  0.04718520  1
  F  F43  1  0.26432355  0.95579705  0.04718520  1
  F  F44  1  0.04420295  0.30852650  0.04718520  1
  F  F45  1  0.30852650  0.26432355  0.54718520  1
  F  F46  1  0.73567645  0.04420295  0.54718520  1
  F  F47  1  0.95579705  0.69147350  0.54718520  1
  Li  Li48  1  0.20339135  0.03336754  0.47238435  1
  Li  Li49  1  0.96663246  0.17002381  0.47238435  1
  Li  Li50  1  0.82997619  0.79660865  0.47238435  1
  Li  Li51  1  0.79660865  0.96663246  0.97238435  1
  Li  Li52  1  0.03336754  0.82997619  0.97238435  1
  Li  Li53  1  0.17002381  0.20339135  0.97238435  1
  Li  Li54  1  0.79660865  0.96663246  0.52761565  1
  Li  Li55  1  0.03336754  0.82997619  0.52761565  1
  Li  Li56  1  0.17002381  0.20339135  0.52761565  1
  Li  Li57  1  0.20339135  0.03336754  0.02761565  1
  Li  Li58  1  0.96663246  0.17002381  0.02761565  1
  Li  Li59  1  0.82997619  0.79660865  0.02761565  1
  Li  Li60  1  0.10541742  0.34917700  0.25000000  1
  Li  Li61  1  0.65082300  0.75624043  0.25000000  1
  Li  Li62  1  0.24375957  0.89458258  0.25000000  1
  Li  Li63  1  0.89458258  0.65082300  0.75000000  1
  Li  Li64  1  0.34917700  0.24375957  0.75000000  1
  Li  Li65  1  0.75624043  0.10541742  0.75000000  1
  Li  Li66  1  0.02893518  0.70154250  0.25000000  1
  Li  Li67  1  0.29845750  0.32739269  0.25000000  1
  Li  Li68  1  0.67260731  0.97106482  0.25000000  1
  Li  Li69  1  0.97106482  0.29845750  0.75000000  1
  Li  Li70  1  0.70154250  0.67260731  0.75000000  1
  Li  Li71  1  0.32739269  0.02893518  0.75000000  1
  Li  Li72  1  0.00000000  0.00000000  0.82605953  1
  Li  Li73  1  0.00000000  0.00000000  0.32605953  1
  Li  Li74  1  0.00000000  0.00000000  0.17394047  1
  Li  Li75  1  0.00000000  0.00000000  0.67394047  1
  Li  Li76  1  0.93443724  0.50857531  0.25000000  1
  Li  Li77  1  0.49142469  0.42586193  0.25000000  1
  Li  Li78  1  0.57413807  0.06556276  0.25000000  1
  Li  Li79  1  0.06556276  0.49142469  0.75000000  1
  Li  Li80  1  0.50857531  0.57413807  0.75000000  1
  Li  Li81  1  0.42586193  0.93443724  0.75000000  1
  Li  Li82  1  0.66666667  0.33333333  0.25000000  1
  Li  Li83  1  0.33333333  0.66666667  0.75000000  1
  Li  Li84  1  0.04487673  0.60181715  0.16798663  1
  Li  Li85  1  0.39818285  0.44305959  0.16798663  1
  Li  Li86  1  0.55694041  0.95512327  0.16798663  1
  Li  Li87  1  0.95512327  0.39818285  0.66798663  1
  Li  Li88  1  0.60181715  0.55694041  0.66798663  1
  Li  Li89  1  0.44305959  0.04487673  0.66798663  1
  Li  Li90  1  0.95512327  0.39818285  0.83201337  1
  Li  Li91  1  0.60181715  0.55694041  0.83201337  1
  Li  Li92  1  0.44305959  0.04487673  0.83201337  1
  Li  Li93  1  0.04487673  0.60181715  0.33201337  1
  Li  Li94  1  0.39818285  0.44305959  0.33201337  1
  Li  Li95  1  0.55694041  0.95512327  0.33201337  1
  Li  Li96  1  0.57948808  0.71829774  0.03701856  1
  Li  Li97  1  0.28170226  0.86119035  0.03701856  1
  Li  Li98  1  0.13880965  0.42051192  0.03701856  1
  Li  Li99  1  0.42051192  0.28170226  0.53701856  1
  Li  Li100  1  0.71829774  0.13880965  0.53701856  1
  Li  Li101  1  0.86119035  0.57948808  0.53701856  1
  Li  Li102  1  0.42051192  0.28170226  0.96298144  1
  Li  Li103  1  0.71829774  0.13880965  0.96298144  1
  Li  Li104  1  0.86119035  0.57948808  0.96298144  1
  Li  Li105  1  0.57948808  0.71829774  0.46298144  1
  Li  Li106  1  0.28170226  0.86119035  0.46298144  1
  Li  Li107  1  0.13880965  0.42051192  0.46298144  1
  Li  Li108  1  0.37793587  0.79646398  0.14183649  1
  Li  Li109  1  0.20353602  0.58147189  0.14183649  1
  Li  Li110  1  0.41852811  0.62206413  0.14183649  1
  Li  Li111  1  0.62206413  0.20353602  0.64183649  1
  Li  Li112  1  0.79646398  0.41852811  0.64183649  1
  Li  Li113  1  0.58147189  0.37793587  0.64183649  1
  Li  Li114  1  0.62206413  0.20353602  0.85816351  1
  Li  Li115  1  0.79646398  0.41852811  0.85816351  1
  Li  Li116  1  0.58147189  0.37793587  0.85816351  1
  Li  Li117  1  0.37793587  0.79646398  0.35816351  1
  Li  Li118  1  0.20353602  0.58147189  0.35816351  1
  Li  Li119  1  0.41852811  0.62206413  0.35816351  1
  Li  Li120  1  0.33333333  0.66666667  0.25000000  1
  Li  Li121  1  0.66666667  0.33333333  0.75000000  1
  Li  Li122  1  0.00000000  0.00000000  0.25000000  1
  Li  Li123  1  0.00000000  0.00000000  0.75000000  1
  Li  Li124  1  0.50000000  0.00000000  0.00000000  1
  Li  Li125  1  0.00000000  0.50000000  0.00000000  1
  Li  Li126  1  0.50000000  0.50000000  0.00000000  1
  Li  Li127  1  0.50000000  0.00000000  0.50000000  1
  Li  Li128  1  0.00000000  0.50000000  0.50000000  1
  Li  Li129  1  0.50000000  0.50000000  0.50000000  1
  Li  Li130  1  0.53196418  0.80224678  0.30356482  1
  Li  Li131  1  0.19775322  0.72971740  0.30356482  1
  Li  Li132  1  0.27028260  0.46803582  0.30356482  1
  Li  Li133  1  0.46803582  0.19775322  0.80356482  1
  Li  Li134  1  0.80224678  0.27028260  0.80356482  1
  Li  Li135  1  0.72971740  0.53196418  0.80356482  1
  Li  Li136  1  0.46803582  0.19775322  0.69643518  1
  Li  Li137  1  0.80224678  0.27028260  0.69643518  1
  Li  Li138  1  0.72971740  0.53196418  0.69643518  1
  Li  Li139  1  0.53196418  0.80224678  0.19643518  1
  Li  Li140  1  0.19775322  0.72971740  0.19643518  1
  Li  Li141  1  0.27028260  0.46803582  0.19643518  1
  Li  Li142  1  0.00000000  0.00000000  0.00000000  1
  Li  Li143  1  0.00000000  0.00000000  0.50000000  1
  Te  Te144  1  0.06776892  0.39302658  0.92393124  1
  Te  Te145  1  0.60697342  0.67474234  0.92393124  1
  Te  Te146  1  0.32525766  0.93223108  0.92393124  1
  Te  Te147  1  0.93223108  0.60697342  0.42393124  1
  Te  Te148  1  0.39302658  0.32525766  0.42393124  1
  Te  Te149  1  0.67474234  0.06776892  0.42393124  1
  Te  Te150  1  0.93223108  0.60697342  0.07606876  1
  Te  Te151  1  0.39302658  0.32525766  0.07606876  1
  Te  Te152  1  0.67474234  0.06776892  0.07606876  1
  Te  Te153  1  0.06776892  0.39302658  0.57606876  1
  Te  Te154  1  0.60697342  0.67474234  0.57606876  1
  Te  Te155  1  0.32525766  0.93223108  0.57606876  1
  Te  Te156  1  0.74757987  0.85387063  0.17582359  1
  Te  Te157  1  0.14612937  0.89370924  0.17582359  1
  Te  Te158  1  0.10629076  0.25242013  0.17582359  1
  Te  Te159  1  0.25242013  0.14612937  0.67582359  1
  Te  Te160  1  0.85387063  0.10629076  0.67582359  1
  Te  Te161  1  0.89370924  0.74757987  0.67582359  1
  Te  Te162  1  0.25242013  0.14612937  0.82417641  1
  Te  Te163  1  0.85387063  0.10629076  0.82417641  1
  Te  Te164  1  0.89370924  0.74757987  0.82417641  1
  Te  Te165  1  0.74757987  0.85387063  0.32417641  1
  Te  Te166  1  0.14612937  0.89370924  0.32417641  1
  Te  Te167  1  0.10629076  0.25242013  0.32417641  1
