# generated using pymatgen
data_LiF
_symmetry_space_group_name_H-M   'P 1'
_cell_length_a   6.64400807
_cell_length_b   8.80067684
_cell_length_c   9.81191517
_cell_angle_alpha   90.00000000
_cell_angle_beta   90.00000000
_cell_angle_gamma   90.00000000
_symmetry_Int_Tables_number   1
_chemical_formula_structural   LiF
_chemical_formula_sum   'Li24 F24'
_cell_volume   573.72002649
_cell_formula_units_Z   24
loop_
 _symmetry_equiv_pos_site_id
 _symmetry_equiv_pos_as_xyz
  1  'x, y, z'
loop_
 _atom_site_type_symbol
 _atom_site_label
 _atom_site_symmetry_multiplicity
 _atom_site_fract_x
 _atom_site_fract_y
 _atom_site_fract_z
 _atom_site_occupancy
  F  F0  1  0.00000000  0.00000000  0.00000000  1
  F  F1  1  0.50000000  0.00000000  0.50000000  1
  F  F2  1  0.00000000  0.50000000  -0.00000000  1
  F  F3  1  0.50000000  0.50000000  0.50000000  1
  F  F4  1  0.44196370  0.47360178  0.54369302  1
  F  F5  1  0.05803630  0.52639822  0.04369302  1
  F  F6  1  0.55803630  0.97360178  0.45630698  1
  F  F7  1  0.94196370  0.02639822  0.95630698  1
  F  F8  1  0.55803630  0.52639822  0.45630698  1
  F  F9  1  0.94196370  0.47360178  0.95630698  1
  F  F10  1  0.44196370  0.02639822  0.54369302  1
  F  F11  1  0.05803630  0.97360178  0.04369302  1
  F  F12  1  0.21599970  0.38888219  0.55226020  1
  F  F13  1  0.28400030  0.61111781  0.05226020  1
  F  F14  1  0.78400030  0.88888219  0.44773980  1
  F  F15  1  0.71599970  0.11111781  0.94773980  1
  F  F16  1  0.78400030  0.61111781  0.44773980  1
  F  F17  1  0.71599970  0.38888219  0.94773980  1
  F  F18  1  0.21599970  0.11111781  0.55226020  1
  F  F19  1  0.28400030  0.88888219  0.05226020  1
  F  F20  1  0.78985957  0.25000000  0.58587854  1
  F  F21  1  0.71014043  0.75000000  0.08587854  1
  F  F22  1  0.21014043  0.75000000  0.41412146  1
  F  F23  1  0.28985957  0.25000000  0.91412146  1
  Li  Li24  1  0.85067145  0.12410183  0.15983457  1
  Li  Li25  1  -0.35067145  -0.12410183  0.65983457  1
  Li  Li26  1  -0.85067145  0.62410183  -0.15983457  1
  Li  Li27  1  1.35067145  0.37589817  0.34016543  1
  Li  Li28  1  -0.85067145  -0.12410183  -0.15983457  1
  Li  Li29  1  1.35067145  0.12410183  0.34016543  1
  Li  Li30  1  0.85067145  0.37589817  0.15983457  1
  Li  Li31  1  -0.35067145  0.62410183  0.65983457  1
  Li  Li32  1  0.00000000  0.00000000  0.50000000  1
  Li  Li33  1  0.50000000  0.00000000  0.00000000  1
  Li  Li34  1  0.00000000  0.50000000  0.50000000  1
  Li  Li35  1  0.50000000  0.50000000  -0.00000000  1
  Li  Li36  1  0.46759082  0.25000000  0.52545406  1
  Li  Li37  1  0.03240918  0.75000000  0.02545406  1
  Li  Li38  1  0.53240918  0.75000000  0.47454594  1
  Li  Li39  1  0.96759082  0.25000000  0.97454594  1
  Li  Li40  1  0.39061996  0.25000000  0.80423493  1
  Li  Li41  1  0.10938004  0.75000000  0.30423493  1
  Li  Li42  1  0.60938004  0.75000000  0.19576507  1
  Li  Li43  1  0.89061996  0.25000000  0.69576507  1
  Li  Li44  1  0.50601646  0.25000000  0.16430074  1
  Li  Li45  1  0.99398354  0.75000000  0.66430074  1
  Li  Li46  1  0.49398354  0.75000000  0.83569926  1
  Li  Li47  1  0.00601646  0.25000000  0.33569926  1
