# generated using pymatgen
data_LiF
_symmetry_space_group_name_H-M   'P 1'
_cell_length_a   4.41248743
_cell_length_b   6.11023749
_cell_length_c   8.20289810
_cell_angle_alpha   90.00000000
_cell_angle_beta   90.00000000
_cell_angle_gamma   90.00000000
_symmetry_Int_Tables_number   1
_chemical_formula_structural   LiF
_chemical_formula_sum   'Li12 F12'
_cell_volume   221.16117484
_cell_formula_units_Z   12
loop_
 _symmetry_equiv_pos_site_id
 _symmetry_equiv_pos_as_xyz
  1  'x, y, z'
loop_
 _atom_site_type_symbol
 _atom_site_label
 _atom_site_symmetry_multiplicity
 _atom_site_fract_x
 _atom_site_fract_y
 _atom_site_fract_z
 _atom_site_occupancy
  F  F0  1  0.30556133  0.80829918  0.29983059  1
  F  F1  1  -0.30556133  -0.80829918  0.29983059  1
  F  F2  1  0.19443867  1.30829918  0.20016941  1
  F  F3  1  0.80556133  -0.30829918  0.20016941  1
  F  F4  1  -0.30556133  -0.80829918  -0.29983059  1
  F  F5  1  0.30556133  0.80829918  -0.29983059  1
  F  F6  1  0.80556133  -0.30829918  0.79983059  1
  F  F7  1  0.19443867  1.30829918  0.79983059  1
  F  F8  1  0.00000000  0.50000000  0.57986301  1
  F  F9  1  0.50000000  0.00000000  0.92013699  1
  F  F10  1  0.00000000  0.50000000  0.42013699  1
  F  F11  1  0.50000000  0.00000000  0.07986301  1
  Li  Li12  1  0.79208367  0.98139332  0.86795287  1
  Li  Li13  1  0.20791633  0.01860668  0.86795287  1
  Li  Li14  1  0.70791633  0.48139332  0.63204713  1
  Li  Li15  1  0.29208367  0.51860668  0.63204713  1
  Li  Li16  1  0.20791633  0.01860668  0.13204713  1
  Li  Li17  1  0.79208367  0.98139332  0.13204713  1
  Li  Li18  1  0.29208367  0.51860668  0.36795287  1
  Li  Li19  1  0.70791633  0.48139332  0.36795287  1
  Li  Li20  1  0.00000000  0.00000000  0.50000000  1
  Li  Li21  1  0.50000000  0.50000000  0.00000000  1
  Li  Li22  1  0.00000000  0.00000000  0.00000000  1
  Li  Li23  1  0.50000000  0.50000000  0.50000000  1
