# generated using pymatgen
data_Li2Si4Te3F12
_symmetry_space_group_name_H-M   'P 1'
_cell_length_a   9.09210719
_cell_length_b   11.08989304
_cell_length_c   11.07681220
_cell_angle_alpha   90.00000000
_cell_angle_beta   90.00000000
_cell_angle_gamma   90.00000000
_symmetry_Int_Tables_number   1
_chemical_formula_structural   Li2Si4Te3F12
_chemical_formula_sum   'Li8 Si16 Te12 F48'
_cell_volume   1116.88047130
_cell_formula_units_Z   4
loop_
 _symmetry_equiv_pos_site_id
 _symmetry_equiv_pos_as_xyz
  1  'x, y, z'
loop_
 _atom_site_type_symbol
 _atom_site_label
 _atom_site_symmetry_multiplicity
 _atom_site_fract_x
 _atom_site_fract_y
 _atom_site_fract_z
 _atom_site_occupancy
  F  F0  1  0.05056260  0.36429802  0.50000000  1
  F  F1  1  0.94943740  0.63570198  0.50000000  1
  F  F2  1  0.44943740  0.86429802  0.50000000  1
  F  F3  1  0.55056260  0.13570198  0.50000000  1
  F  F4  1  0.30504379  0.70134135  0.70295196  1
  F  F5  1  0.69495621  0.29865865  0.70295196  1
  F  F6  1  0.19495621  0.20134135  0.29704804  1
  F  F7  1  0.80504379  0.79865865  0.29704804  1
  F  F8  1  0.69495621  0.29865865  0.29704804  1
  F  F9  1  0.30504379  0.70134135  0.29704804  1
  F  F10  1  0.80504379  0.79865865  0.70295196  1
  F  F11  1  0.19495621  0.20134135  0.70295196  1
  F  F12  1  0.30603861  0.06165458  0.53335949  1
  F  F13  1  0.69396139  0.93834542  0.53335949  1
  F  F14  1  0.19396139  0.56165458  0.46664051  1
  F  F15  1  0.80603861  0.43834542  0.46664051  1
  F  F16  1  0.69396139  0.93834542  0.46664051  1
  F  F17  1  0.30603861  0.06165458  0.46664051  1
  F  F18  1  0.80603861  0.43834542  0.53335949  1
  F  F19  1  0.19396139  0.56165458  0.53335949  1
  F  F20  1  0.36774934  0.19088148  0.81784682  1
  F  F21  1  0.63225066  0.80911852  0.81784682  1
  F  F22  1  0.13225066  0.69088148  0.18215318  1
  F  F23  1  0.86774934  0.30911852  0.18215318  1
  F  F24  1  0.63225066  0.80911852  0.18215318  1
  F  F25  1  0.36774934  0.19088148  0.18215318  1
  F  F26  1  0.86774934  0.30911852  0.81784682  1
  F  F27  1  0.13225066  0.69088148  0.81784682  1
  F  F28  1  0.00000000  0.50000000  0.00000000  1
  F  F29  1  0.50000000  0.00000000  0.00000000  1
  F  F30  1  0.83901614  0.35872387  0.65923553  1
  F  F31  1  0.16098386  0.64127613  0.65923553  1
  F  F32  1  0.66098386  0.85872387  0.34076447  1
  F  F33  1  0.33901614  0.14127613  0.34076447  1
  F  F34  1  0.16098386  0.64127613  0.34076447  1
  F  F35  1  0.83901614  0.35872387  0.34076447  1
  F  F36  1  0.33901614  0.14127613  0.65923553  1
  F  F37  1  0.66098386  0.85872387  0.65923553  1
  F  F38  1  0.00000000  0.50000000  0.91654957  1
  F  F39  1  0.50000000  0.00000000  0.08345043  1
  F  F40  1  0.00000000  0.50000000  0.08345043  1
  F  F41  1  0.50000000  0.00000000  0.91654957  1
  F  F42  1  0.00000000  0.00000000  0.19421728  1
  F  F43  1  0.50000000  0.50000000  0.80578272  1
  F  F44  1  0.00000000  0.00000000  0.80578272  1
  F  F45  1  0.50000000  0.50000000  0.19421728  1
  F  F46  1  0.00000000  0.50000000  0.50000000  1
  F  F47  1  0.50000000  0.00000000  0.50000000  1
  Li  Li48  1  0.54811355  0.37732522  0.35317607  1
  Li  Li49  1  0.45188645  0.62267478  0.35317607  1
  Li  Li50  1  0.95188645  0.87732522  0.64682393  1
  Li  Li51  1  0.04811355  0.12267478  0.64682393  1
  Li  Li52  1  0.45188645  0.62267478  0.64682393  1
  Li  Li53  1  0.54811355  0.37732522  0.64682393  1
  Li  Li54  1  0.04811355  0.12267478  0.35317607  1
  Li  Li55  1  0.95188645  0.87732522  0.35317607  1
  Si  Si56  1  0.77514197  0.41204453  0.39201753  1
  Si  Si57  1  0.22485803  0.58795547  0.39201753  1
  Si  Si58  1  0.72485803  0.91204453  0.60798247  1
  Si  Si59  1  0.27514197  0.08795547  0.60798247  1
  Si  Si60  1  0.22485803  0.58795547  0.60798247  1
  Si  Si61  1  0.77514197  0.41204453  0.60798247  1
  Si  Si62  1  0.27514197  0.08795547  0.39201753  1
  Si  Si63  1  0.72485803  0.91204453  0.39201753  1
  Si  Si64  1  0.33167113  0.07991861  0.00000000  1
  Si  Si65  1  0.66832887  0.92008139  0.00000000  1
  Si  Si66  1  0.16832887  0.57991861  0.00000000  1
  Si  Si67  1  0.83167113  0.42008139  0.00000000  1
  Si  Si68  1  0.00000000  0.50000000  0.21770257  1
  Si  Si69  1  0.50000000  0.00000000  0.78229743  1
  Si  Si70  1  0.00000000  0.50000000  0.78229743  1
  Si  Si71  1  0.50000000  0.00000000  0.21770257  1
  Te  Te72  1  0.15899958  0.19369576  0.50000000  1
  Te  Te73  1  0.84100042  0.80630424  0.50000000  1
  Te  Te74  1  0.34100042  0.69369576  0.50000000  1
  Te  Te75  1  0.65899958  0.30630424  0.50000000  1
  Te  Te76  1  0.99606103  0.79193521  0.83950853  1
  Te  Te77  1  -0.99606103  -0.79193521  0.83950853  1
  Te  Te78  1  -0.49606103  1.29193521  -0.83950853  1
  Te  Te79  1  1.49606103  -0.29193521  -0.83950853  1
  Te  Te80  1  -0.99606103  -0.79193521  -0.83950853  1
  Te  Te81  1  0.99606103  0.79193521  -0.83950853  1
  Te  Te82  1  1.49606103  -0.29193521  0.83950853  1
  Te  Te83  1  -0.49606103  1.29193521  0.83950853  1
