# generated using pymatgen
data_Li3MgS2Cl
_symmetry_space_group_name_H-M   'P 1'
_cell_length_a   8.99473017
_cell_length_b   8.99473017
_cell_length_c   8.99473017
_cell_angle_alpha   90.00000000
_cell_angle_beta   90.00000000
_cell_angle_gamma   90.00000000
_symmetry_Int_Tables_number   1
_chemical_formula_structural   Li3MgS2Cl
_chemical_formula_sum   'Li24 Mg8 S16 Cl8'
_cell_volume   727.72018082
_cell_formula_units_Z   8
loop_
 _symmetry_equiv_pos_site_id
 _symmetry_equiv_pos_as_xyz
  1  'x, y, z'
loop_
 _atom_site_type_symbol
 _atom_site_label
 _atom_site_symmetry_multiplicity
 _atom_site_fract_x
 _atom_site_fract_y
 _atom_site_fract_z
 _atom_site_occupancy
  Cl  Cl0  1  0.25000000  0.25000000  0.25000000  1
  Cl  Cl1  1  0.25000000  0.75000000  0.75000000  1
  Cl  Cl2  1  0.75000000  0.25000000  0.75000000  1
  Cl  Cl3  1  0.75000000  0.75000000  0.25000000  1
  Cl  Cl4  1  0.75000000  0.75000000  0.75000000  1
  Cl  Cl5  1  0.75000000  0.25000000  0.25000000  1
  Cl  Cl6  1  0.25000000  0.75000000  0.25000000  1
  Cl  Cl7  1  0.25000000  0.25000000  0.75000000  1
  Li  Li8  1  0.66211456  0.00000000  0.00000000  1
  Li  Li9  1  -0.66211456  0.00000000  0.00000000  1
  Li  Li10  1  0.00000000  0.66211456  0.00000000  1
  Li  Li11  1  0.00000000  -0.66211456  0.00000000  1
  Li  Li12  1  0.00000000  0.00000000  0.66211456  1
  Li  Li13  1  0.00000000  0.00000000  -0.66211456  1
  Li  Li14  1  0.66211456  0.50000000  0.50000000  1
  Li  Li15  1  -0.66211456  0.50000000  0.50000000  1
  Li  Li16  1  0.00000000  1.16211456  0.50000000  1
  Li  Li17  1  0.00000000  -0.16211456  0.50000000  1
  Li  Li18  1  0.00000000  0.50000000  1.16211456  1
  Li  Li19  1  0.00000000  0.50000000  -0.16211456  1
  Li  Li20  1  1.16211456  -0.00000000  0.50000000  1
  Li  Li21  1  -0.16211456  0.00000000  0.50000000  1
  Li  Li22  1  0.50000000  0.66211456  0.50000000  1
  Li  Li23  1  0.50000000  -0.66211456  0.50000000  1
  Li  Li24  1  0.50000000  0.00000000  1.16211456  1
  Li  Li25  1  0.50000000  0.00000000  -0.16211456  1
  Li  Li26  1  1.16211456  0.50000000  -0.00000000  1
  Li  Li27  1  -0.16211456  0.50000000  0.00000000  1
  Li  Li28  1  0.50000000  1.16211456  -0.00000000  1
  Li  Li29  1  0.50000000  -0.16211456  0.00000000  1
  Li  Li30  1  0.50000000  0.50000000  0.66211456  1
  Li  Li31  1  0.50000000  0.50000000  -0.66211456  1
  Mg  Mg32  1  0.00000000  0.00000000  0.00000000  1
  Mg  Mg33  1  0.00000000  0.50000000  0.50000000  1
  Mg  Mg34  1  0.50000000  0.00000000  0.50000000  1
  Mg  Mg35  1  0.50000000  0.50000000  0.00000000  1
  Mg  Mg36  1  0.50000000  0.50000000  0.50000000  1
  Mg  Mg37  1  0.50000000  0.00000000  0.00000000  1
  Mg  Mg38  1  0.00000000  0.50000000  0.00000000  1
  Mg  Mg39  1  0.00000000  0.00000000  0.50000000  1
  S  S40  1  0.32774718  0.32774718  0.32774718  1
  S  S41  1  0.67225282  0.67225282  0.32774718  1
  S  S42  1  0.67225282  0.32774718  0.67225282  1
  S  S43  1  0.32774718  0.67225282  0.67225282  1
  S  S44  1  0.32774718  0.82774718  0.82774718  1
  S  S45  1  0.67225282  0.17225282  0.82774718  1
  S  S46  1  0.67225282  0.82774718  0.17225282  1
  S  S47  1  0.32774718  0.17225282  0.17225282  1
  S  S48  1  0.82774718  0.32774718  0.82774718  1
  S  S49  1  0.17225282  0.67225282  0.82774718  1
  S  S50  1  0.17225282  0.32774718  0.17225282  1
  S  S51  1  0.82774718  0.67225282  0.17225282  1
  S  S52  1  0.82774718  0.82774718  0.32774718  1
  S  S53  1  0.17225282  0.17225282  0.32774718  1
  S  S54  1  0.17225282  0.82774718  0.67225282  1
  S  S55  1  0.82774718  0.17225282  0.67225282  1
