# generated using pymatgen
data_LiSb2(Te2P)2
_symmetry_space_group_name_H-M   'P 1'
_cell_length_a   4.42110052
_cell_length_b   4.56843217
_cell_length_c   6.40209300
_cell_angle_alpha   95.77599781
_cell_angle_beta   100.37636073
_cell_angle_gamma   107.89804264
_symmetry_Int_Tables_number   1
_chemical_formula_structural   LiSb2(Te2P)2
_chemical_formula_sum   'Li1 Sb2 Te4 P2'
_cell_volume   119.34353709
_cell_formula_units_Z   1
loop_
 _symmetry_equiv_pos_site_id
 _symmetry_equiv_pos_as_xyz
  1  'x, y, z'
loop_
 _atom_site_type_symbol
 _atom_site_label
 _atom_site_symmetry_multiplicity
 _atom_site_fract_x
 _atom_site_fract_y
 _atom_site_fract_z
 _atom_site_occupancy
  Te  Te0  1  0.12500000  0.00000000  0.25000000  1
  Te  Te1  1  0.00000000  0.00000000  0.00000000  1
  Te  Te2  1  0.37500000  0.00000000  0.25000000  1
  Te  Te3  1  0.25000000  0.25000000  0.25000000  1
  P  P4  1  0.00000000  0.25000000  0.12500000  1
  P  P5  1  0.08696056  0.97083555  0.07160676  1
  Li  Li6  1  0.74074078  0.85383305  0.11149896  1
  Sb  Sb7  1  0.98207600  0.86064790  0.82030187  1
  Sb  Sb8  1  0.25746506  0.03542036  0.85612318  1
