# generated using pymatgen
data_Li4TeF2
_symmetry_space_group_name_H-M   'P 1'
_cell_length_a   13.93126285
_cell_length_b   13.93126285
_cell_length_c   13.93126285
_cell_angle_alpha   90.00000000
_cell_angle_beta   90.00000000
_cell_angle_gamma   90.00000000
_symmetry_Int_Tables_number   1
_chemical_formula_structural   Li4TeF2
_chemical_formula_sum   'Li96 Te24 F48'
_cell_volume   2703.78067312
_cell_formula_units_Z   24
loop_
 _symmetry_equiv_pos_site_id
 _symmetry_equiv_pos_as_xyz
  1  'x, y, z'
loop_
 _atom_site_type_symbol
 _atom_site_label
 _atom_site_symmetry_multiplicity
 _atom_site_fract_x
 _atom_site_fract_y
 _atom_site_fract_z
 _atom_site_occupancy
  F  F0  1  0.00941447  0.34178615  0.71345797  1
  F  F1  1  0.49058553  -0.34178615  1.21345797  1
  F  F2  1  -0.00941447  0.84178615  -0.21345797  1
  F  F3  1  0.50941447  0.15821385  -0.71345797  1
  F  F4  1  0.71345797  0.00941447  0.34178615  1
  F  F5  1  1.21345797  0.49058553  -0.34178615  1
  F  F6  1  -0.21345797  -0.00941447  0.84178615  1
  F  F7  1  -0.71345797  0.50941447  0.15821385  1
  F  F8  1  0.34178615  0.71345797  0.00941447  1
  F  F9  1  -0.34178615  1.21345797  0.49058553  1
  F  F10  1  0.84178615  -0.21345797  -0.00941447  1
  F  F11  1  0.15821385  -0.71345797  0.50941447  1
  F  F12  1  1.09178615  0.25941447  -0.46345797  1
  F  F13  1  0.40821385  0.74058553  0.03654203  1
  F  F14  1  0.59178615  0.24058553  1.46345797  1
  F  F15  1  -0.09178615  0.75941447  0.96345797  1
  F  F16  1  0.75941447  0.96345797  -0.09178615  1
  F  F17  1  0.24058553  1.46345797  0.59178615  1
  F  F18  1  0.74058553  0.03654203  0.40821385  1
  F  F19  1  0.25941447  -0.46345797  1.09178615  1
  F  F20  1  1.46345797  0.59178615  0.24058553  1
  F  F21  1  0.96345797  -0.09178615  0.75941447  1
  F  F22  1  -0.46345797  1.09178615  0.25941447  1
  F  F23  1  0.03654203  0.40821385  0.74058553  1
  F  F24  1  0.50941447  0.84178615  1.21345797  1
  F  F25  1  0.99058553  0.15821385  1.71345797  1
  F  F26  1  0.49058553  1.34178615  0.28654203  1
  F  F27  1  1.00941447  0.65821385  -0.21345797  1
  F  F28  1  1.21345797  0.50941447  0.84178615  1
  F  F29  1  1.71345797  0.99058553  0.15821385  1
  F  F30  1  0.28654203  0.49058553  1.34178615  1
  F  F31  1  -0.21345797  1.00941447  0.65821385  1
  F  F32  1  0.84178615  1.21345797  0.50941447  1
  F  F33  1  0.15821385  1.71345797  0.99058553  1
  F  F34  1  1.34178615  0.28654203  0.49058553  1
  F  F35  1  0.65821385  -0.21345797  1.00941447  1
  F  F36  1  1.59178615  0.75941447  0.03654203  1
  F  F37  1  0.90821385  1.24058553  0.53654203  1
  F  F38  1  1.09178615  0.74058553  1.96345797  1
  F  F39  1  0.40821385  1.25941447  1.46345797  1
  F  F40  1  1.25941447  1.46345797  0.40821385  1
  F  F41  1  0.74058553  1.96345797  1.09178615  1
  F  F42  1  1.24058553  0.53654203  0.90821385  1
  F  F43  1  0.75941447  0.03654203  1.59178615  1
  F  F44  1  1.96345797  1.09178615  0.74058553  1
  F  F45  1  1.46345797  0.40821385  1.25941447  1
  F  F46  1  0.03654203  1.59178615  0.75941447  1
  F  F47  1  0.53654203  0.90821385  1.24058553  1
  Li  Li48  1  0.18380454  0.18380454  0.18380454  1
  Li  Li49  1  0.31619546  0.81619546  0.68380454  1
  Li  Li50  1  0.81619546  0.68380454  0.31619546  1
  Li  Li51  1  0.68380454  0.31619546  0.81619546  1
  Li  Li52  1  0.93380454  0.43380454  0.06619546  1
  Li  Li53  1  0.56619546  0.56619546  0.56619546  1
  Li  Li54  1  0.43380454  0.06619546  0.93380454  1
  Li  Li55  1  0.06619546  0.93380454  0.43380454  1
  Li  Li56  1  0.68380454  0.68380454  0.68380454  1
  Li  Li57  1  0.81619546  0.31619546  0.18380454  1
  Li  Li58  1  0.31619546  0.18380454  0.81619546  1
  Li  Li59  1  0.18380454  0.81619546  0.31619546  1
  Li  Li60  1  0.43380454  0.93380454  0.56619546  1
  Li  Li61  1  0.06619546  0.06619546  0.06619546  1
  Li  Li62  1  0.93380454  0.56619546  0.43380454  1
  Li  Li63  1  0.56619546  0.43380454  0.93380454  1
  Li  Li64  1  0.29378590  0.29378590  0.29378590  1
  Li  Li65  1  0.20621410  0.70621410  0.79378590  1
  Li  Li66  1  0.70621410  0.79378590  0.20621410  1
  Li  Li67  1  0.79378590  0.20621410  0.70621410  1
  Li  Li68  1  0.04378590  0.54378590  0.95621410  1
  Li  Li69  1  0.45621410  0.45621410  0.45621410  1
  Li  Li70  1  0.54378590  0.95621410  0.04378590  1
  Li  Li71  1  0.95621410  0.04378590  0.54378590  1
  Li  Li72  1  0.79378590  0.79378590  0.79378590  1
  Li  Li73  1  0.70621410  0.20621410  0.29378590  1
  Li  Li74  1  0.20621410  0.29378590  0.70621410  1
  Li  Li75  1  0.29378590  0.70621410  0.20621410  1
  Li  Li76  1  0.54378590  0.04378590  0.45621410  1
  Li  Li77  1  0.95621410  0.95621410  0.95621410  1
  Li  Li78  1  0.04378590  0.45621410  0.54378590  1
  Li  Li79  1  0.45621410  0.54378590  0.04378590  1
  Li  Li80  1  0.68116256  0.00846338  0.58783279  1
  Li  Li81  1  0.81883744  0.99153662  0.08783279  1
  Li  Li82  1  0.31883744  0.50846338  0.91216721  1
  Li  Li83  1  0.18116256  0.49153662  0.41216721  1
  Li  Li84  1  0.58783279  0.68116256  0.00846338  1
  Li  Li85  1  0.08783279  0.81883744  0.99153662  1
  Li  Li86  1  0.91216721  0.31883744  0.50846338  1
  Li  Li87  1  0.41216721  0.18116256  0.49153662  1
  Li  Li88  1  0.00846338  0.58783279  0.68116256  1
  Li  Li89  1  0.99153662  0.08783279  0.81883744  1
  Li  Li90  1  0.50846338  0.91216721  0.31883744  1
  Li  Li91  1  0.49153662  0.41216721  0.18116256  1
  Li  Li92  1  0.75846338  0.93116256  0.66216721  1
  Li  Li93  1  0.74153662  0.06883744  0.16216721  1
  Li  Li94  1  0.25846338  0.56883744  0.33783279  1
  Li  Li95  1  0.24153662  0.43116256  0.83783279  1
  Li  Li96  1  0.43116256  0.83783279  0.24153662  1
  Li  Li97  1  0.56883744  0.33783279  0.25846338  1
  Li  Li98  1  0.06883744  0.16216721  0.74153662  1
  Li  Li99  1  0.93116256  0.66216721  0.75846338  1
  Li  Li100  1  0.33783279  0.25846338  0.56883744  1
  Li  Li101  1  0.83783279  0.24153662  0.43116256  1
  Li  Li102  1  0.66216721  0.75846338  0.93116256  1
  Li  Li103  1  0.16216721  0.74153662  0.06883744  1
  Li  Li104  1  0.18116256  0.50846338  0.08783279  1
  Li  Li105  1  0.31883744  0.49153662  0.58783279  1
  Li  Li106  1  0.81883744  0.00846338  0.41216721  1
  Li  Li107  1  0.68116256  0.99153662  0.91216721  1
  Li  Li108  1  0.08783279  0.18116256  0.50846338  1
  Li  Li109  1  0.58783279  0.31883744  0.49153662  1
  Li  Li110  1  0.41216721  0.81883744  0.00846338  1
  Li  Li111  1  0.91216721  0.68116256  0.99153662  1
  Li  Li112  1  0.50846338  0.08783279  0.18116256  1
  Li  Li113  1  0.49153662  0.58783279  0.31883744  1
  Li  Li114  1  0.00846338  0.41216721  0.81883744  1
  Li  Li115  1  0.99153662  0.91216721  0.68116256  1
  Li  Li116  1  0.25846338  0.43116256  0.16216721  1
  Li  Li117  1  0.24153662  0.56883744  0.66216721  1
  Li  Li118  1  0.75846338  0.06883744  0.83783279  1
  Li  Li119  1  0.74153662  0.93116256  0.33783279  1
  Li  Li120  1  0.93116256  0.33783279  0.74153662  1
  Li  Li121  1  0.06883744  0.83783279  0.75846338  1
  Li  Li122  1  0.56883744  0.66216721  0.24153662  1
  Li  Li123  1  0.43116256  0.16216721  0.25846338  1
  Li  Li124  1  0.83783279  0.75846338  0.06883744  1
  Li  Li125  1  0.33783279  0.74153662  0.93116256  1
  Li  Li126  1  0.16216721  0.25846338  0.43116256  1
  Li  Li127  1  0.66216721  0.24153662  0.56883744  1
  Li  Li128  1  0.87500000  0.87500000  0.87500000  1
  Li  Li129  1  0.62500000  0.12500000  0.37500000  1
  Li  Li130  1  0.12500000  0.37500000  0.62500000  1
  Li  Li131  1  0.37500000  0.62500000  0.12500000  1
  Li  Li132  1  0.37500000  0.37500000  0.37500000  1
  Li  Li133  1  0.12500000  0.62500000  0.87500000  1
  Li  Li134  1  0.62500000  0.87500000  0.12500000  1
  Li  Li135  1  0.87500000  0.12500000  0.62500000  1
  Li  Li136  1  0.12500000  0.12500000  0.12500000  1
  Li  Li137  1  0.37500000  0.87500000  0.62500000  1
  Li  Li138  1  0.87500000  0.62500000  0.37500000  1
  Li  Li139  1  0.62500000  0.37500000  0.87500000  1
  Li  Li140  1  0.62500000  0.62500000  0.62500000  1
  Li  Li141  1  0.87500000  0.37500000  0.12500000  1
  Li  Li142  1  0.37500000  0.12500000  0.87500000  1
  Li  Li143  1  0.12500000  0.87500000  0.37500000  1
  Te  Te144  1  0.88840889  0.00000000  0.25000000  1
  Te  Te145  1  0.61159111  -0.00000000  0.75000000  1
  Te  Te146  1  0.25000000  0.88840889  0.00000000  1
  Te  Te147  1  0.75000000  0.61159111  -0.00000000  1
  Te  Te148  1  0.00000000  0.25000000  0.88840889  1
  Te  Te149  1  0.00000000  0.75000000  0.61159111  1
  Te  Te150  1  0.75000000  0.13840889  -0.00000000  1
  Te  Te151  1  0.75000000  0.86159111  0.50000000  1
  Te  Te152  1  0.63840889  0.50000000  0.25000000  1
  Te  Te153  1  0.36159111  -0.00000000  0.25000000  1
  Te  Te154  1  0.00000000  0.25000000  0.36159111  1
  Te  Te155  1  0.50000000  0.25000000  0.63840889  1
  Te  Te156  1  0.38840889  0.50000000  0.75000000  1
  Te  Te157  1  0.11159111  0.50000000  0.25000000  1
  Te  Te158  1  0.75000000  0.38840889  0.50000000  1
  Te  Te159  1  0.25000000  0.11159111  0.50000000  1
  Te  Te160  1  0.50000000  0.75000000  0.38840889  1
  Te  Te161  1  0.50000000  0.25000000  0.11159111  1
  Te  Te162  1  0.25000000  0.63840889  0.50000000  1
  Te  Te163  1  0.25000000  0.36159111  -0.00000000  1
  Te  Te164  1  0.13840889  -0.00000000  0.75000000  1
  Te  Te165  1  0.86159111  0.50000000  0.75000000  1
  Te  Te166  1  0.50000000  0.75000000  0.86159111  1
  Te  Te167  1  0.00000000  0.75000000  0.13840889  1
