# generated using pymatgen
data_LiY2(Te2P)2
_symmetry_space_group_name_H-M   'P 1'
_cell_length_a   4.68454065
_cell_length_b   4.81802075
_cell_length_c   6.76404187
_cell_angle_alpha   95.14787472
_cell_angle_beta   100.40868891
_cell_angle_gamma   109.41872920
_symmetry_Int_Tables_number   1
_chemical_formula_structural   LiY2(Te2P)2
_chemical_formula_sum   'Li1 Y2 Te4 P2'
_cell_volume   139.75333137
_cell_formula_units_Z   1
loop_
 _symmetry_equiv_pos_site_id
 _symmetry_equiv_pos_as_xyz
  1  'x, y, z'
loop_
 _atom_site_type_symbol
 _atom_site_label
 _atom_site_symmetry_multiplicity
 _atom_site_fract_x
 _atom_site_fract_y
 _atom_site_fract_z
 _atom_site_occupancy
  Te  Te0  1  0.00000000  0.00000000  0.00000000  1
  Te  Te1  1  0.33300000  0.66700000  0.25000000  1
  Te  Te2  1  0.66700000  0.33300000  0.50000000  1
  Te  Te3  1  0.00000000  0.00000000  0.75000000  1
  P  P4  1  0.29691975  0.85778547  0.20744131  1
  P  P5  1  0.65962626  0.46455326  0.53255334  1
  Li  Li6  1  0.80074347  0.59452371  0.65998135  1
  Y  Y7  1  0.55315778  0.42029126  0.13458697  1
  Y  Y8  1  0.36714285  0.73541705  0.97563406  1
