# generated using pymatgen
data_LiF
_symmetry_space_group_name_H-M   'P 1'
_cell_length_a   10.86323794
_cell_length_b   10.86323794
_cell_length_c   14.56531962
_cell_angle_alpha   90.00000000
_cell_angle_beta   90.00000000
_cell_angle_gamma   120.00000000
_symmetry_Int_Tables_number   1
_chemical_formula_structural   LiF
_chemical_formula_sum   'Li36 F36'
_cell_volume   1488.56990630
_cell_formula_units_Z   36
loop_
 _symmetry_equiv_pos_site_id
 _symmetry_equiv_pos_as_xyz
  1  'x, y, z'
loop_
 _atom_site_type_symbol
 _atom_site_label
 _atom_site_symmetry_multiplicity
 _atom_site_fract_x
 _atom_site_fract_y
 _atom_site_fract_z
 _atom_site_occupancy
  F  F0  1  0.00000000  0.00000000  0.00000000  1
  F  F1  1  0.00000000  0.00000000  0.50000000  1
  F  F2  1  0.66666667  0.33333333  0.33333333  1
  F  F3  1  0.66666667  0.33333333  0.83333333  1
  F  F4  1  0.33333333  0.66666667  0.66666667  1
  F  F5  1  0.33333333  0.66666667  0.16666667  1
  F  F6  1  0.50000000  0.00000000  0.00000000  1
  F  F7  1  0.00000000  0.50000000  0.00000000  1
  F  F8  1  0.50000000  0.50000000  0.00000000  1
  F  F9  1  0.00000000  0.50000000  0.50000000  1
  F  F10  1  0.50000000  0.00000000  0.50000000  1
  F  F11  1  0.50000000  0.50000000  0.50000000  1
  F  F12  1  0.16666667  0.33333333  0.33333333  1
  F  F13  1  0.66666667  0.83333333  0.33333333  1
  F  F14  1  0.16666667  0.83333333  0.33333333  1
  F  F15  1  0.66666667  0.83333333  0.83333333  1
  F  F16  1  0.16666667  0.33333333  0.83333333  1
  F  F17  1  0.16666667  0.83333333  0.83333333  1
  F  F18  1  0.83333333  0.66666667  0.66666667  1
  F  F19  1  0.33333333  0.16666667  0.66666667  1
  F  F20  1  0.83333333  0.16666667  0.66666667  1
  F  F21  1  0.33333333  0.16666667  0.16666667  1
  F  F22  1  0.83333333  0.66666667  0.16666667  1
  F  F23  1  0.83333333  0.16666667  0.16666667  1
  F  F24  1  0.00000000  0.00000000  0.06552326  1
  F  F25  1  0.00000000  0.00000000  0.43447674  1
  F  F26  1  0.00000000  0.00000000  0.93447674  1
  F  F27  1  0.00000000  0.00000000  0.56552326  1
  F  F28  1  0.66666667  0.33333333  0.39885660  1
  F  F29  1  0.66666667  0.33333333  0.76781007  1
  F  F30  1  0.66666667  0.33333333  0.26781007  1
  F  F31  1  0.66666667  0.33333333  0.89885660  1
  F  F32  1  0.33333333  0.66666667  0.73218993  1
  F  F33  1  0.33333333  0.66666667  0.10114340  1
  F  F34  1  0.33333333  0.66666667  0.60114340  1
  F  F35  1  0.33333333  0.66666667  0.23218993  1
  Li  Li36  1  0.16741648  0.89671123  0.97402691  1
  Li  Li37  1  -0.89671123  -0.72929475  0.97402691  1
  Li  Li38  1  0.72929475  -0.16741648  0.97402691  1
  Li  Li39  1  0.89671123  0.16741648  -0.47402691  1
  Li  Li40  1  -0.72929475  -0.89671123  -0.47402691  1
  Li  Li41  1  -0.16741648  0.72929475  -0.47402691  1
  Li  Li42  1  -0.16741648  -0.89671123  -0.97402691  1
  Li  Li43  1  0.89671123  0.72929475  -0.97402691  1
  Li  Li44  1  -0.72929475  0.16741648  -0.97402691  1
  Li  Li45  1  -0.89671123  -0.16741648  1.47402691  1
  Li  Li46  1  0.72929475  0.89671123  1.47402691  1
  Li  Li47  1  0.16741648  -0.72929475  1.47402691  1
  Li  Li48  1  0.83408314  1.23004456  1.30736024  1
  Li  Li49  1  -0.23004456  -0.39596142  1.30736024  1
  Li  Li50  1  1.39596142  0.16591686  1.30736024  1
  Li  Li51  1  1.56337789  0.50074981  -0.14069358  1
  Li  Li52  1  -0.06262809  -0.56337789  -0.14069358  1
  Li  Li53  1  0.49925019  1.06262809  -0.14069358  1
  Li  Li54  1  0.49925019  -0.56337789  -0.64069358  1
  Li  Li55  1  1.56337789  1.06262809  -0.64069358  1
  Li  Li56  1  -0.06262809  0.50074981  -0.64069358  1
  Li  Li57  1  -0.23004456  0.16591686  1.80736024  1
  Li  Li58  1  1.39596142  1.23004456  1.80736024  1
  Li  Li59  1  0.83408314  -0.39596142  1.80736024  1
  Li  Li60  1  0.50074981  1.56337789  1.64069358  1
  Li  Li61  1  -0.56337789  -0.06262809  1.64069358  1
  Li  Li62  1  1.06262809  0.49925019  1.64069358  1
  Li  Li63  1  1.23004456  0.83408314  0.19263976  1
  Li  Li64  1  -0.39596142  -0.23004456  0.19263976  1
  Li  Li65  1  0.16591686  1.39596142  0.19263976  1
  Li  Li66  1  0.16591686  -0.23004456  -0.30736024  1
  Li  Li67  1  1.23004456  1.39596142  -0.30736024  1
  Li  Li68  1  -0.39596142  0.83408314  -0.30736024  1
  Li  Li69  1  -0.56337789  0.49925019  2.14069358  1
  Li  Li70  1  1.06262809  1.56337789  2.14069358  1
  Li  Li71  1  0.50074981  -0.06262809  2.14069358  1
