# generated using pymatgen
data_LiYP2Se
_symmetry_space_group_name_H-M   'P 1'
_cell_length_a   4.68552781
_cell_length_b   4.99425364
_cell_length_c   7.06661938
_cell_angle_alpha   95.27495310
_cell_angle_beta   101.48775120
_cell_angle_gamma   111.18739009
_symmetry_Int_Tables_number   1
_chemical_formula_structural   LiYP2Se
_chemical_formula_sum   'Li2 Y2 P4 Se2'
_cell_volume   148.64598632
_cell_formula_units_Z   2
loop_
 _symmetry_equiv_pos_site_id
 _symmetry_equiv_pos_as_xyz
  1  'x, y, z'
loop_
 _atom_site_type_symbol
 _atom_site_label
 _atom_site_symmetry_multiplicity
 _atom_site_fract_x
 _atom_site_fract_y
 _atom_site_fract_z
 _atom_site_occupancy
  Se  Se0  1  0.12500000  0.12500000  0.12500000  1
  Se  Se1  1  0.50000000  0.50000000  0.50000000  1
  Y  Y2  1  0.25000000  0.25000000  0.25000000  1
  Y  Y3  1  0.75000000  0.75000000  0.75000000  1
  P  P4  1  0.54039739  0.26626949  0.08594474  1
  P  P5  1  0.60032395  0.76809886  0.70646735  1
  P  P6  1  0.87345203  0.16553235  0.42300104  1
  P  P7  1  0.83001788  0.46232806  0.54088546  1
  Li  Li8  1  0.89928939  0.20873991  0.47005366  1
  Li  Li9  1  0.00319963  0.72738027  0.81274722  1
