# generated using pymatgen
data_LiF
_symmetry_space_group_name_H-M   'P 1'
_cell_length_a   9.25029439
_cell_length_b   13.47021554
_cell_length_c   9.34642540
_cell_angle_alpha   90.00000000
_cell_angle_beta   90.00000000
_cell_angle_gamma   90.00000000
_symmetry_Int_Tables_number   1
_chemical_formula_structural   LiF
_chemical_formula_sum   'Li48 F48'
_cell_volume   1164.59693701
_cell_formula_units_Z   48
loop_
 _symmetry_equiv_pos_site_id
 _symmetry_equiv_pos_as_xyz
  1  'x, y, z'
loop_
 _atom_site_type_symbol
 _atom_site_label
 _atom_site_symmetry_multiplicity
 _atom_site_fract_x
 _atom_site_fract_y
 _atom_site_fract_z
 _atom_site_occupancy
  F  F0  1  0.00000000  0.00000000  0.50000000  1
  F  F1  1  0.50000000  0.50000000  0.50000000  1
  F  F2  1  0.10974645  0.98495976  0.91590039  1
  F  F3  1  -0.10974645  -0.98495976  0.91590039  1
  F  F4  1  0.39025355  1.48495976  -0.91590039  1
  F  F5  1  0.60974645  -0.48495976  -0.91590039  1
  F  F6  1  -0.10974645  -0.98495976  -0.91590039  1
  F  F7  1  0.10974645  0.98495976  -0.91590039  1
  F  F8  1  0.60974645  -0.48495976  0.91590039  1
  F  F9  1  0.39025355  1.48495976  0.91590039  1
  F  F10  1  0.39431226  0.11976224  0.87386771  1
  F  F11  1  0.60568774  0.88023776  0.87386771  1
  F  F12  1  0.10568774  0.61976224  0.12613229  1
  F  F13  1  0.89431226  0.38023776  0.12613229  1
  F  F14  1  0.60568774  0.88023776  0.12613229  1
  F  F15  1  0.39431226  0.11976224  0.12613229  1
  F  F16  1  0.89431226  0.38023776  0.87386771  1
  F  F17  1  0.10568774  0.61976224  0.87386771  1
  F  F18  1  0.00000000  0.50000000  0.73260136  1
  F  F19  1  0.50000000  0.00000000  0.26739864  1
  F  F20  1  0.00000000  0.50000000  0.26739864  1
  F  F21  1  0.50000000  0.00000000  0.73260136  1
  F  F22  1  0.08140978  0.90065053  -0.00000000  1
  F  F23  1  0.91859022  0.09934947  0.00000000  1
  F  F24  1  0.41859022  0.40065053  0.00000000  1
  F  F25  1  0.58140978  0.59934947  0.00000000  1
  F  F26  1  0.32993753  0.05524799  0.16179244  1
  F  F27  1  0.67006247  0.94475201  0.16179244  1
  F  F28  1  0.17006247  0.55524799  0.83820756  1
  F  F29  1  0.82993753  0.44475201  0.83820756  1
  F  F30  1  0.67006247  0.94475201  0.83820756  1
  F  F31  1  0.32993753  0.05524799  0.83820756  1
  F  F32  1  0.82993753  0.44475201  0.16179244  1
  F  F33  1  0.17006247  0.55524799  0.16179244  1
  F  F34  1  0.00000000  0.50000000  0.50000000  1
  F  F35  1  0.50000000  0.00000000  0.50000000  1
  F  F36  1  0.84734652  0.85770267  0.55988191  1
  F  F37  1  0.15265348  0.14229733  0.55988191  1
  F  F38  1  0.65265348  0.35770267  0.44011809  1
  F  F39  1  0.34734652  0.64229733  0.44011809  1
  F  F40  1  0.15265348  0.14229733  0.44011809  1
  F  F41  1  0.84734652  0.85770267  0.44011809  1
  F  F42  1  0.34734652  0.64229733  0.55988191  1
  F  F43  1  0.65265348  0.35770267  0.55988191  1
  F  F44  1  0.82069469  0.96605778  0.50000000  1
  F  F45  1  0.17930531  0.03394222  0.50000000  1
  F  F46  1  0.67930531  0.46605778  0.50000000  1
  F  F47  1  0.32069469  0.53394222  0.50000000  1
  Li  Li48  1  0.28308828  0.84706363  0.62988870  1
  Li  Li49  1  0.71691172  0.15293637  0.62988870  1
  Li  Li50  1  0.21691172  0.34706363  0.37011130  1
  Li  Li51  1  0.78308828  0.65293637  0.37011130  1
  Li  Li52  1  0.71691172  0.15293637  0.37011130  1
  Li  Li53  1  0.28308828  0.84706363  0.37011130  1
  Li  Li54  1  0.78308828  0.65293637  0.62988870  1
  Li  Li55  1  0.21691172  0.34706363  0.62988870  1
  Li  Li56  1  0.66844057  0.29279764  0.00000000  1
  Li  Li57  1  0.33155943  0.70720236  0.00000000  1
  Li  Li58  1  0.83155943  0.79279764  -0.00000000  1
  Li  Li59  1  0.16844057  0.20720236  -0.00000000  1
  Li  Li60  1  0.34236295  0.73991834  0.63862014  1
  Li  Li61  1  0.65763705  0.26008166  0.63862014  1
  Li  Li62  1  0.15763705  0.23991834  0.36137986  1
  Li  Li63  1  0.84236295  0.76008166  0.36137986  1
  Li  Li64  1  0.65763705  0.26008166  0.36137986  1
  Li  Li65  1  0.34236295  0.73991834  0.36137986  1
  Li  Li66  1  0.84236295  0.76008166  0.63862014  1
  Li  Li67  1  0.15763705  0.23991834  0.63862014  1
  Li  Li68  1  0.51091940  0.24967454  0.00000000  1
  Li  Li69  1  0.48908060  0.75032546  0.00000000  1
  Li  Li70  1  0.98908060  0.74967454  -0.00000000  1
  Li  Li71  1  0.01091940  0.25032546  0.00000000  1
  Li  Li72  1  0.59457352  0.60005091  0.27070449  1
  Li  Li73  1  0.40542648  0.39994909  0.27070449  1
  Li  Li74  1  0.90542648  0.10005091  0.72929551  1
  Li  Li75  1  0.09457352  0.89994909  0.72929551  1
  Li  Li76  1  0.40542648  0.39994909  0.72929551  1
  Li  Li77  1  0.59457352  0.60005091  0.72929551  1
  Li  Li78  1  0.09457352  0.89994909  0.27070449  1
  Li  Li79  1  0.90542648  0.10005091  0.27070449  1
  Li  Li80  1  0.37733641  0.50786592  0.27850443  1
  Li  Li81  1  0.62266359  0.49213408  0.27850443  1
  Li  Li82  1  0.12266359  0.00786592  0.72149557  1
  Li  Li83  1  0.87733641  0.99213408  0.72149557  1
  Li  Li84  1  0.62266359  0.49213408  0.72149557  1
  Li  Li85  1  0.37733641  0.50786592  0.72149557  1
  Li  Li86  1  0.87733641  0.99213408  0.27850443  1
  Li  Li87  1  0.12266359  0.00786592  0.27850443  1
  Li  Li88  1  0.98293524  0.76808143  0.79699640  1
  Li  Li89  1  0.01706476  0.23191857  0.79699640  1
  Li  Li90  1  0.51706476  0.26808143  0.20300360  1
  Li  Li91  1  0.48293524  0.73191857  0.20300360  1
  Li  Li92  1  0.01706476  0.23191857  0.20300360  1
  Li  Li93  1  0.98293524  0.76808143  0.20300360  1
  Li  Li94  1  0.48293524  0.73191857  0.79699640  1
  Li  Li95  1  0.51706476  0.26808143  0.79699640  1
