# generated using pymatgen
data_Li2Si4Te3F12
_symmetry_space_group_name_H-M   'P 1'
_cell_length_a   14.53911570
_cell_length_b   11.68611644
_cell_length_c   6.36344810
_cell_angle_alpha   90.00000000
_cell_angle_beta   90.00000000
_cell_angle_gamma   90.00000000
_symmetry_Int_Tables_number   1
_chemical_formula_structural   Li2Si4Te3F12
_chemical_formula_sum   'Li8 Si16 Te12 F48'
_cell_volume   1081.18673342
_cell_formula_units_Z   4
loop_
 _symmetry_equiv_pos_site_id
 _symmetry_equiv_pos_as_xyz
  1  'x, y, z'
loop_
 _atom_site_type_symbol
 _atom_site_label
 _atom_site_symmetry_multiplicity
 _atom_site_fract_x
 _atom_site_fract_y
 _atom_site_fract_z
 _atom_site_occupancy
  F  F0  1  0.00000000  0.00000000  0.00000000  1
  F  F1  1  0.50000000  0.50000000  -0.00000000  1
  F  F2  1  0.14928501  0.67110033  0.60127463  1
  F  F3  1  0.85071499  0.32889967  0.60127463  1
  F  F4  1  0.35071499  0.17110033  0.39872537  1
  F  F5  1  0.64928501  0.82889967  0.39872537  1
  F  F6  1  0.85071499  0.32889967  0.39872537  1
  F  F7  1  0.14928501  0.67110033  0.39872537  1
  F  F8  1  0.64928501  0.82889967  0.60127463  1
  F  F9  1  0.35071499  0.17110033  0.60127463  1
  F  F10  1  0.23874423  0.76922625  0.91404285  1
  F  F11  1  0.76125577  0.23077375  0.91404285  1
  F  F12  1  0.26125577  0.26922625  0.08595715  1
  F  F13  1  0.73874423  0.73077375  0.08595715  1
  F  F14  1  0.76125577  0.23077375  0.08595715  1
  F  F15  1  0.23874423  0.76922625  0.08595715  1
  F  F16  1  0.73874423  0.73077375  0.91404285  1
  F  F17  1  0.26125577  0.26922625  0.91404285  1
  F  F18  1  0.00000000  0.00000000  0.50000000  1
  F  F19  1  0.50000000  0.50000000  0.50000000  1
  F  F20  1  0.00000000  0.00000000  0.33587852  1
  F  F21  1  0.50000000  0.50000000  0.66412148  1
  F  F22  1  0.00000000  0.00000000  0.66412148  1
  F  F23  1  0.50000000  0.50000000  0.33587852  1
  F  F24  1  0.39234923  0.02517532  0.07251842  1
  F  F25  1  0.60765077  0.97482468  0.07251842  1
  F  F26  1  0.10765077  0.52517532  0.92748158  1
  F  F27  1  0.89234923  0.47482468  0.92748158  1
  F  F28  1  0.60765077  0.97482468  0.92748158  1
  F  F29  1  0.39234923  0.02517532  0.92748158  1
  F  F30  1  0.89234923  0.47482468  0.07251842  1
  F  F31  1  0.10765077  0.52517532  0.07251842  1
  F  F32  1  0.63869088  0.42776017  -0.00000000  1
  F  F33  1  0.36130912  0.57223983  0.00000000  1
  F  F34  1  0.86130912  0.92776017  0.00000000  1
  F  F35  1  0.13869088  0.07223983  -0.00000000  1
  F  F36  1  0.69095660  0.12799201  0.00000000  1
  F  F37  1  0.30904340  0.87200799  0.00000000  1
  F  F38  1  0.80904340  0.62799201  -0.00000000  1
  F  F39  1  0.19095660  0.37200799  0.00000000  1
  F  F40  1  0.09818529  0.37479847  0.10300193  1
  F  F41  1  0.90181471  0.62520153  0.10300193  1
  F  F42  1  0.40181471  0.87479847  0.89699807  1
  F  F43  1  0.59818529  0.12520153  0.89699807  1
  F  F44  1  0.90181471  0.62520153  0.89699807  1
  F  F45  1  0.09818529  0.37479847  0.89699807  1
  F  F46  1  0.59818529  0.12520153  0.10300193  1
  F  F47  1  0.40181471  0.87479847  0.10300193  1
  Li  Li48  1  0.23563816  0.53434562  0.85359840  1
  Li  Li49  1  0.76436184  0.46565438  0.85359840  1
  Li  Li50  1  0.26436184  0.03434562  0.14640160  1
  Li  Li51  1  0.73563816  0.96565438  0.14640160  1
  Li  Li52  1  0.76436184  0.46565438  0.14640160  1
  Li  Li53  1  0.23563816  0.53434562  0.14640160  1
  Li  Li54  1  0.73563816  0.96565438  0.85359840  1
  Li  Li55  1  0.26436184  0.03434562  0.85359840  1
  Si  Si56  1  0.47258523  0.60861357  0.77863760  1
  Si  Si57  1  -0.47258523  -0.60861357  0.77863760  1
  Si  Si58  1  0.02741477  1.10861357  -0.77863760  1
  Si  Si59  1  0.97258523  -0.10861357  -0.77863760  1
  Si  Si60  1  -0.47258523  -0.60861357  -0.77863760  1
  Si  Si61  1  0.47258523  0.60861357  -0.77863760  1
  Si  Si62  1  0.97258523  -0.10861357  0.77863760  1
  Si  Si63  1  0.02741477  1.10861357  0.77863760  1
  Si  Si64  1  0.61026227  0.83542875  0.00000000  1
  Si  Si65  1  0.38973773  0.16457125  -0.00000000  1
  Si  Si66  1  0.88973773  0.33542875  0.00000000  1
  Si  Si67  1  0.11026227  0.66457125  0.00000000  1
  Si  Si68  1  0.00000000  0.50000000  0.50000000  1
  Si  Si69  1  0.50000000  0.00000000  0.50000000  1
  Si  Si70  1  0.00000000  0.50000000  0.00000000  1
  Si  Si71  1  0.50000000  0.00000000  0.00000000  1
  Te  Te72  1  0.42957478  0.45279119  0.00000000  1
  Te  Te73  1  0.57042522  0.54720881  0.00000000  1
  Te  Te74  1  0.07042522  0.95279119  0.00000000  1
  Te  Te75  1  0.92957478  0.04720881  0.00000000  1
  Te  Te76  1  0.04665887  0.28983880  0.16383489  1
  Te  Te77  1  0.95334113  0.71016120  0.16383489  1
  Te  Te78  1  0.45334113  0.78983880  0.83616511  1
  Te  Te79  1  0.54665887  0.21016120  0.83616511  1
  Te  Te80  1  0.95334113  0.71016120  0.83616511  1
  Te  Te81  1  0.04665887  0.28983880  0.83616511  1
  Te  Te82  1  0.54665887  0.21016120  0.16383489  1
  Te  Te83  1  0.45334113  0.78983880  0.16383489  1
