# generated using pymatgen
data_LiF
_symmetry_space_group_name_H-M   'P 1'
_cell_length_a   17.81817636
_cell_length_b   17.81817636
_cell_length_c   4.13128366
_cell_angle_alpha   90.00000000
_cell_angle_beta   90.00000000
_cell_angle_gamma   120.00000000
_symmetry_Int_Tables_number   1
_chemical_formula_structural   LiF
_chemical_formula_sum   'Li30 F30'
_cell_volume   1135.90537065
_cell_formula_units_Z   30
loop_
 _symmetry_equiv_pos_site_id
 _symmetry_equiv_pos_as_xyz
  1  'x, y, z'
loop_
 _atom_site_type_symbol
 _atom_site_label
 _atom_site_symmetry_multiplicity
 _atom_site_fract_x
 _atom_site_fract_y
 _atom_site_fract_z
 _atom_site_occupancy
  F  F0  1  0.94790931  0.00227382  0.25000000  1
  F  F1  1  0.99772618  0.94563550  0.25000000  1
  F  F2  1  0.05436450  0.05209069  0.25000000  1
  F  F3  1  0.05209069  0.99772618  0.75000000  1
  F  F4  1  0.00227382  0.05436450  0.75000000  1
  F  F5  1  0.94563550  0.94790931  0.75000000  1
  F  F6  1  0.00227382  0.94790931  0.75000000  1
  F  F7  1  0.94563550  0.99772618  0.75000000  1
  F  F8  1  0.05209069  0.05436450  0.75000000  1
  F  F9  1  0.99772618  0.05209069  0.25000000  1
  F  F10  1  0.05436450  0.00227382  0.25000000  1
  F  F11  1  0.94790931  0.94563550  0.25000000  1
  F  F12  1  0.82651193  0.86011467  0.25000000  1
  F  F13  1  0.13988533  0.96639726  0.25000000  1
  F  F14  1  0.03360274  0.17348807  0.25000000  1
  F  F15  1  0.17348807  0.13988533  0.75000000  1
  F  F16  1  0.86011467  0.03360274  0.75000000  1
  F  F17  1  0.96639726  0.82651193  0.75000000  1
  F  F18  1  0.86011467  0.82651193  0.75000000  1
  F  F19  1  0.96639726  0.13988533  0.75000000  1
  F  F20  1  0.17348807  0.03360274  0.75000000  1
  F  F21  1  0.13988533  0.17348807  0.25000000  1
  F  F22  1  0.03360274  0.86011467  0.25000000  1
  F  F23  1  0.82651193  0.96639726  0.25000000  1
  F  F24  1  0.55391698  0.10783396  0.25000000  1
  F  F25  1  0.89216604  0.44608302  0.25000000  1
  F  F26  1  0.55391698  0.44608302  0.25000000  1
  F  F27  1  0.44608302  0.89216604  0.75000000  1
  F  F28  1  0.10783396  0.55391698  0.75000000  1
  F  F29  1  0.44608302  0.55391698  0.75000000  1
  Li  Li30  1  0.95224438  0.33568671  0.25000000  1
  Li  Li31  1  -0.33568671  0.61655767  0.25000000  1
  Li  Li32  1  -0.61655767  -0.95224438  0.25000000  1
  Li  Li33  1  -0.95224438  -0.33568671  0.75000000  1
  Li  Li34  1  0.33568671  -0.61655767  0.75000000  1
  Li  Li35  1  0.61655767  0.95224438  0.75000000  1
  Li  Li36  1  0.33568671  0.95224438  0.75000000  1
  Li  Li37  1  0.61655767  -0.33568671  0.75000000  1
  Li  Li38  1  -0.95224438  -0.61655767  0.75000000  1
  Li  Li39  1  -0.33568671  -0.95224438  0.25000000  1
  Li  Li40  1  -0.61655767  0.33568671  0.25000000  1
  Li  Li41  1  0.95224438  0.61655767  0.25000000  1
  Li  Li42  1  0.33333333  0.66666667  0.25000000  1
  Li  Li43  1  0.66666667  0.33333333  0.75000000  1
  Li  Li44  1  0.26688351  0.00000000  -0.00000000  1
  Li  Li45  1  0.00000000  0.26688351  0.00000000  1
  Li  Li46  1  0.73311649  0.73311649  -0.00000000  1
  Li  Li47  1  0.73311649  0.00000000  0.50000000  1
  Li  Li48  1  0.00000000  0.73311649  0.50000000  1
  Li  Li49  1  0.26688351  0.26688351  0.50000000  1
  Li  Li50  1  0.73311649  0.00000000  -0.00000000  1
  Li  Li51  1  0.00000000  0.73311649  0.00000000  1
  Li  Li52  1  0.26688351  0.26688351  0.00000000  1
  Li  Li53  1  0.26688351  0.00000000  0.50000000  1
  Li  Li54  1  0.00000000  0.26688351  0.50000000  1
  Li  Li55  1  0.73311649  0.73311649  0.50000000  1
  Li  Li56  1  0.00000000  0.00000000  0.25000000  1
  Li  Li57  1  0.00000000  0.00000000  0.75000000  1
  Li  Li58  1  0.33333333  0.66666667  0.75000000  1
  Li  Li59  1  0.66666667  0.33333333  0.25000000  1
