# generated using pymatgen
data_LiF
_symmetry_space_group_name_H-M   'P 1'
_cell_length_a   8.41880076
_cell_length_b   8.41880076
_cell_length_c   15.68112373
_cell_angle_alpha   90.00000000
_cell_angle_beta   90.00000000
_cell_angle_gamma   90.00000000
_symmetry_Int_Tables_number   1
_chemical_formula_structural   LiF
_chemical_formula_sum   'Li42 F42'
_cell_volume   1111.41855865
_cell_formula_units_Z   42
loop_
 _symmetry_equiv_pos_site_id
 _symmetry_equiv_pos_as_xyz
  1  'x, y, z'
loop_
 _atom_site_type_symbol
 _atom_site_label
 _atom_site_symmetry_multiplicity
 _atom_site_fract_x
 _atom_site_fract_y
 _atom_site_fract_z
 _atom_site_occupancy
  F  F0  1  0.28509746  -0.00000000  0.00000000  1
  F  F1  1  0.71490254  -0.00000000  0.00000000  1
  F  F2  1  0.00000000  0.28509746  0.00000000  1
  F  F3  1  0.00000000  0.71490254  0.00000000  1
  F  F4  1  0.84826799  0.84826799  0.24147308  1
  F  F5  1  0.15173201  0.15173201  0.24147308  1
  F  F6  1  0.15173201  0.84826799  0.24147308  1
  F  F7  1  0.84826799  0.15173201  0.24147308  1
  F  F8  1  0.15173201  0.84826799  0.75852692  1
  F  F9  1  0.84826799  0.15173201  0.75852692  1
  F  F10  1  0.84826799  0.84826799  0.75852692  1
  F  F11  1  0.15173201  0.15173201  0.75852692  1
  F  F12  1  0.75410253  0.75410253  0.64896896  1
  F  F13  1  0.24589747  0.24589747  0.64896896  1
  F  F14  1  0.24589747  0.75410253  0.64896896  1
  F  F15  1  0.75410253  0.24589747  0.64896896  1
  F  F16  1  0.24589747  0.75410253  0.35103104  1
  F  F17  1  0.75410253  0.24589747  0.35103104  1
  F  F18  1  0.75410253  0.75410253  0.35103104  1
  F  F19  1  0.24589747  0.24589747  0.35103104  1
  F  F20  1  0.50000000  0.50000000  0.25746758  1
  F  F21  1  0.50000000  0.50000000  0.74253242  1
  F  F22  1  0.18332988  0.96133891  0.44432513  1
  F  F23  1  0.81667012  0.03866109  0.44432513  1
  F  F24  1  0.03866109  0.18332988  0.44432513  1
  F  F25  1  0.96133891  0.81667012  0.44432513  1
  F  F26  1  0.81667012  0.96133891  0.55567487  1
  F  F27  1  0.18332988  0.03866109  0.55567487  1
  F  F28  1  0.96133891  0.18332988  0.55567487  1
  F  F29  1  0.03866109  0.81667012  0.55567487  1
  F  F30  1  0.81667012  0.03866109  0.55567487  1
  F  F31  1  0.18332988  0.96133891  0.55567487  1
  F  F32  1  0.96133891  0.81667012  0.55567487  1
  F  F33  1  0.03866109  0.18332988  0.55567487  1
  F  F34  1  0.18332988  0.03866109  0.44432513  1
  F  F35  1  0.81667012  0.96133891  0.44432513  1
  F  F36  1  0.03866109  0.81667012  0.44432513  1
  F  F37  1  0.96133891  0.18332988  0.44432513  1
  F  F38  1  0.00000000  0.00000000  0.46873595  1
  F  F39  1  0.00000000  0.00000000  0.53126405  1
  F  F40  1  0.00000000  0.00000000  0.85049698  1
  F  F41  1  0.00000000  0.00000000  0.14950302  1
  Li  Li42  1  0.67499236  0.89901298  0.23356819  1
  Li  Li43  1  -0.67499236  -0.89901298  0.23356819  1
  Li  Li44  1  -0.89901298  0.67499236  0.23356819  1
  Li  Li45  1  0.89901298  -0.67499236  0.23356819  1
  Li  Li46  1  -0.67499236  0.89901298  -0.23356819  1
  Li  Li47  1  0.67499236  -0.89901298  -0.23356819  1
  Li  Li48  1  0.89901298  0.67499236  -0.23356819  1
  Li  Li49  1  -0.89901298  -0.67499236  -0.23356819  1
  Li  Li50  1  -0.67499236  -0.89901298  -0.23356819  1
  Li  Li51  1  0.67499236  0.89901298  -0.23356819  1
  Li  Li52  1  0.89901298  -0.67499236  -0.23356819  1
  Li  Li53  1  -0.89901298  0.67499236  -0.23356819  1
  Li  Li54  1  0.67499236  -0.89901298  0.23356819  1
  Li  Li55  1  -0.67499236  0.89901298  0.23356819  1
  Li  Li56  1  -0.89901298  -0.67499236  0.23356819  1
  Li  Li57  1  0.89901298  0.67499236  0.23356819  1
  Li  Li58  1  0.68718968  0.83336676  0.37527715  1
  Li  Li59  1  0.31281032  0.16663324  0.37527715  1
  Li  Li60  1  0.16663324  0.68718968  0.37527715  1
  Li  Li61  1  0.83336676  0.31281032  0.37527715  1
  Li  Li62  1  0.31281032  0.83336676  0.62472285  1
  Li  Li63  1  0.68718968  0.16663324  0.62472285  1
  Li  Li64  1  0.83336676  0.68718968  0.62472285  1
  Li  Li65  1  0.16663324  0.31281032  0.62472285  1
  Li  Li66  1  0.31281032  0.16663324  0.62472285  1
  Li  Li67  1  0.68718968  0.83336676  0.62472285  1
  Li  Li68  1  0.83336676  0.31281032  0.62472285  1
  Li  Li69  1  0.16663324  0.68718968  0.62472285  1
  Li  Li70  1  0.68718968  0.16663324  0.37527715  1
  Li  Li71  1  0.31281032  0.83336676  0.37527715  1
  Li  Li72  1  0.16663324  0.31281032  0.37527715  1
  Li  Li73  1  0.83336676  0.68718968  0.37527715  1
  Li  Li74  1  0.34028901  0.50000000  0.43444593  1
  Li  Li75  1  0.65971099  0.50000000  0.43444593  1
  Li  Li76  1  0.50000000  0.34028901  0.43444593  1
  Li  Li77  1  0.50000000  0.65971099  0.43444593  1
  Li  Li78  1  0.65971099  0.50000000  0.56555407  1
  Li  Li79  1  0.34028901  0.50000000  0.56555407  1
  Li  Li80  1  0.50000000  0.34028901  0.56555407  1
  Li  Li81  1  0.50000000  0.65971099  0.56555407  1
  Li  Li82  1  0.50000000  0.50000000  0.00000000  1
  Li  Li83  1  0.00000000  0.00000000  0.00000000  1
