# generated using pymatgen
data_LiF
_symmetry_space_group_name_H-M   'P 1'
_cell_length_a   13.26825083
_cell_length_b   13.26825083
_cell_length_c   2.53579783
_cell_angle_alpha   90.00000000
_cell_angle_beta   90.00000000
_cell_angle_gamma   120.00000000
_symmetry_Int_Tables_number   1
_chemical_formula_structural   LiF
_chemical_formula_sum   'Li15 F15'
_cell_volume   386.60957328
_cell_formula_units_Z   15
loop_
 _symmetry_equiv_pos_site_id
 _symmetry_equiv_pos_as_xyz
  1  'x, y, z'
loop_
 _atom_site_type_symbol
 _atom_site_label
 _atom_site_symmetry_multiplicity
 _atom_site_fract_x
 _atom_site_fract_y
 _atom_site_fract_z
 _atom_site_occupancy
  F  F0  1  0.71725439  0.83389276  0.20000502  1
  F  F1  1  0.16610724  0.88336163  0.20000502  1
  F  F2  1  0.11663837  0.28274561  0.20000502  1
  F  F3  1  0.16610724  0.28274561  0.79999498  1
  F  F4  1  0.11663837  0.83389276  0.79999498  1
  F  F5  1  0.71725439  0.88336163  0.79999498  1
  F  F6  1  0.06491351  0.17965204  0.56939004  1
  F  F7  1  0.82034796  0.88526147  0.56939004  1
  F  F8  1  0.11473853  0.93508649  0.56939004  1
  F  F9  1  0.82034796  0.93508649  0.43060996  1
  F  F10  1  0.11473853  0.17965204  0.43060996  1
  F  F11  1  0.06491351  0.88526147  0.43060996  1
  F  F12  1  0.56325570  0.43674430  0.50000000  1
  F  F13  1  0.56325570  0.12651140  0.50000000  1
  F  F14  1  0.87348860  0.43674430  0.50000000  1
  Li  Li15  1  0.92780321  0.60998145  0.91218955  1
  Li  Li16  1  -0.60998145  0.31782176  0.91218955  1
  Li  Li17  1  -0.31782176  -0.92780321  0.91218955  1
  Li  Li18  1  -0.60998145  -0.92780321  -0.91218955  1
  Li  Li19  1  -0.31782176  0.60998145  -0.91218955  1
  Li  Li20  1  0.92780321  0.31782176  -0.91218955  1
  Li  Li21  1  0.00000000  0.00000000  0.00000000  1
  Li  Li22  1  0.33333333  0.66666667  -0.00000000  1
  Li  Li23  1  0.95786990  0.04213010  0.50000000  1
  Li  Li24  1  0.95786990  0.91573980  0.50000000  1
  Li  Li25  1  0.08426020  0.04213010  0.50000000  1
  Li  Li26  1  0.70453830  0.29546170  -0.00000000  1
  Li  Li27  1  0.70453830  0.40907660  -0.00000000  1
  Li  Li28  1  0.59092340  0.29546170  -0.00000000  1
  Li  Li29  1  0.66666667  0.33333333  0.50000000  1
