# generated using pymatgen
data_LiF
_symmetry_space_group_name_H-M   'P 1'
_cell_length_a   15.19443051
_cell_length_b   15.19443051
_cell_length_c   5.78944903
_cell_angle_alpha   90.00000000
_cell_angle_beta   90.00000000
_cell_angle_gamma   120.00000000
_symmetry_Int_Tables_number   1
_chemical_formula_structural   LiF
_chemical_formula_sum   'Li51 F51'
_cell_volume   1157.54190238
_cell_formula_units_Z   51
loop_
 _symmetry_equiv_pos_site_id
 _symmetry_equiv_pos_as_xyz
  1  'x, y, z'
loop_
 _atom_site_type_symbol
 _atom_site_label
 _atom_site_symmetry_multiplicity
 _atom_site_fract_x
 _atom_site_fract_y
 _atom_site_fract_z
 _atom_site_occupancy
  F  F0  1  0.16166092  0.11502326  0.20809857  1
  F  F1  1  0.88497674  0.04663766  0.20809857  1
  F  F2  1  0.95336234  0.83833908  0.20809857  1
  F  F3  1  0.88497674  0.83833908  0.79190143  1
  F  F4  1  0.95336234  0.11502326  0.79190143  1
  F  F5  1  0.16166092  0.04663766  0.79190143  1
  F  F6  1  0.71864953  0.88664183  0.49310473  1
  F  F7  1  0.11335817  0.83200769  0.49310473  1
  F  F8  1  0.16799231  0.28135047  0.49310473  1
  F  F9  1  0.11335817  0.28135047  0.50689527  1
  F  F10  1  0.16799231  0.88664183  0.50689527  1
  F  F11  1  0.71864953  0.83200769  0.50689527  1
  F  F12  1  0.96880703  0.39525428  0.81101754  1
  F  F13  1  0.60474572  0.57355275  0.81101754  1
  F  F14  1  0.42644725  0.03119297  0.81101754  1
  F  F15  1  0.60474572  0.03119297  0.18898246  1
  F  F16  1  0.42644725  0.39525428  0.18898246  1
  F  F17  1  0.96880703  0.57355275  0.18898246  1
  F  F18  1  0.11094060  0.88905940  0.00000000  1
  F  F19  1  0.11094060  0.22188119  0.00000000  1
  F  F20  1  0.77811881  0.88905940  0.00000000  1
  F  F21  1  0.81967651  0.30232811  0.63422064  1
  F  F22  1  0.69767189  0.51734840  0.63422064  1
  F  F23  1  0.48265160  0.18032349  0.63422064  1
  F  F24  1  0.69767189  0.18032349  0.36577936  1
  F  F25  1  0.48265160  0.30232811  0.36577936  1
  F  F26  1  0.81967651  0.51734840  0.36577936  1
  F  F27  1  0.73237416  0.67497330  0.09892833  1
  F  F28  1  0.32502670  0.05740086  0.09892833  1
  F  F29  1  0.94259914  0.26762584  0.09892833  1
  F  F30  1  0.32502670  0.26762584  0.90107167  1
  F  F31  1  0.94259914  0.67497330  0.90107167  1
  F  F32  1  0.73237416  0.05740086  0.90107167  1
  F  F33  1  0.49766706  0.50233294  0.00000000  1
  F  F34  1  0.49766706  0.99533413  0.00000000  1
  F  F35  1  0.00466587  0.50233294  0.00000000  1
  F  F36  1  0.39474978  0.83777000  0.87131667  1
  F  F37  1  0.16223000  0.55697978  0.87131667  1
  F  F38  1  0.44302022  0.60525022  0.87131667  1
  F  F39  1  0.16223000  0.60525022  0.12868333  1
  F  F40  1  0.44302022  0.83777000  0.12868333  1
  F  F41  1  0.39474978  0.55697978  0.12868333  1
  F  F42  1  0.84548083  0.67666851  0.38515888  1
  F  F43  1  0.32333149  0.16881232  0.38515888  1
  F  F44  1  0.83118768  0.15451917  0.38515888  1
  F  F45  1  0.32333149  0.15451917  0.61484112  1
  F  F46  1  0.83118768  0.67666851  0.61484112  1
  F  F47  1  0.84548083  0.16881232  0.61484112  1
  F  F48  1  0.37741984  0.62258016  0.50000000  1
  F  F49  1  0.37741984  0.75483967  0.50000000  1
  F  F50  1  0.24516033  0.62258016  0.50000000  1
  Li  Li51  1  0.33333333  0.66666667  0.50000000  1
  Li  Li52  1  0.57280122  0.07779156  0.31153460  1
  Li  Li53  1  -0.07779156  0.49500966  0.31153460  1
  Li  Li54  1  -0.49500966  -0.57280122  0.31153460  1
  Li  Li55  1  -0.07779156  -0.57280122  -0.31153460  1
  Li  Li56  1  -0.49500966  0.07779156  -0.31153460  1
  Li  Li57  1  0.57280122  0.49500966  -0.31153460  1
  Li  Li58  1  0.64326358  0.60158064  0.46807809  1
  Li  Li59  1  0.39841936  0.04168294  0.46807809  1
  Li  Li60  1  0.95831706  0.35673642  0.46807809  1
  Li  Li61  1  0.39841936  0.35673642  0.53192191  1
  Li  Li62  1  0.95831706  0.60158064  0.53192191  1
  Li  Li63  1  0.64326358  0.04168294  0.53192191  1
  Li  Li64  1  0.66666667  0.33333333  0.50000000  1
  Li  Li65  1  0.33333333  0.66666667  0.00000000  1
  Li  Li66  1  0.01847660  0.30893073  0.05194394  1
  Li  Li67  1  0.69106927  0.70954586  0.05194394  1
  Li  Li68  1  0.29045414  0.98152340  0.05194394  1
  Li  Li69  1  0.69106927  0.98152340  0.94805606  1
  Li  Li70  1  0.29045414  0.30893073  0.94805606  1
  Li  Li71  1  0.01847660  0.70954586  0.94805606  1
  Li  Li72  1  0.02162627  0.54272028  0.85781410  1
  Li  Li73  1  0.45727972  0.47890598  0.85781410  1
  Li  Li74  1  0.52109402  0.97837373  0.85781410  1
  Li  Li75  1  0.45727972  0.97837373  0.14218590  1
  Li  Li76  1  0.52109402  0.54272028  0.14218590  1
  Li  Li77  1  0.02162627  0.47890598  0.14218590  1
  Li  Li78  1  0.04643288  0.51150473  0.35560722  1
  Li  Li79  1  0.48849527  0.53492814  0.35560722  1
  Li  Li80  1  0.46507186  0.95356712  0.35560722  1
  Li  Li81  1  0.48849527  0.95356712  0.64439278  1
  Li  Li82  1  0.46507186  0.51150473  0.64439278  1
  Li  Li83  1  0.04643288  0.53492814  0.64439278  1
  Li  Li84  1  0.26821123  0.73178877  0.00000000  1
  Li  Li85  1  0.26821123  0.53642246  0.00000000  1
  Li  Li86  1  0.46357754  0.73178877  0.00000000  1
  Li  Li87  1  0.00000000  0.00000000  0.00000000  1
  Li  Li88  1  0.01570511  0.91085397  0.79288244  1
  Li  Li89  1  0.08914603  0.10485114  0.79288244  1
  Li  Li90  1  0.89514886  0.98429489  0.79288244  1
  Li  Li91  1  0.08914603  0.98429489  0.20711756  1
  Li  Li92  1  0.89514886  0.91085397  0.20711756  1
  Li  Li93  1  0.01570511  0.10485114  0.20711756  1
  Li  Li94  1  0.37949579  0.14046390  0.70348191  1
  Li  Li95  1  0.85953610  0.23903189  0.70348191  1
  Li  Li96  1  0.76096811  0.62050421  0.70348191  1
  Li  Li97  1  0.85953610  0.62050421  0.29651809  1
  Li  Li98  1  0.76096811  0.14046390  0.29651809  1
  Li  Li99  1  0.37949579  0.23903189  0.29651809  1
  Li  Li100  1  0.66666667  0.33333333  0.85821426  1
  Li  Li101  1  0.66666667  0.33333333  0.14178574  1
