# generated using pymatgen
data_Li2Ca3F8
_symmetry_space_group_name_H-M   'P 1'
_cell_length_a   10.85000507
_cell_length_b   10.85000507
_cell_length_c   16.08898587
_cell_angle_alpha   90.00000000
_cell_angle_beta   90.00000000
_cell_angle_gamma   120.00000000
_symmetry_Int_Tables_number   1
_chemical_formula_structural   Li2Ca3F8
_chemical_formula_sum   'Li16 Ca24 F64'
_cell_volume   1640.28451245
_cell_formula_units_Z   8
loop_
 _symmetry_equiv_pos_site_id
 _symmetry_equiv_pos_as_xyz
  1  'x, y, z'
loop_
 _atom_site_type_symbol
 _atom_site_label
 _atom_site_symmetry_multiplicity
 _atom_site_fract_x
 _atom_site_fract_y
 _atom_site_fract_z
 _atom_site_occupancy
  Ca  Ca0  1  0.72918120  0.97467582  0.06945834  1
  Ca  Ca1  1  0.02532418  0.75450538  0.06945834  1
  Ca  Ca2  1  0.24549462  0.27081880  0.06945834  1
  Ca  Ca3  1  0.02532418  0.27081880  0.93054166  1
  Ca  Ca4  1  0.24549462  0.97467582  0.93054166  1
  Ca  Ca5  1  0.72918120  0.75450538  0.93054166  1
  Ca  Ca6  1  0.62289128  0.55450733  0.59802544  1
  Ca  Ca7  1  0.44549267  0.06838395  0.59802544  1
  Ca  Ca8  1  0.93161605  0.37710872  0.59802544  1
  Ca  Ca9  1  0.44549267  0.37710872  0.40197456  1
  Ca  Ca10  1  0.93161605  0.55450733  0.40197456  1
  Ca  Ca11  1  0.62289128  0.06838395  0.40197456  1
  Ca  Ca12  1  0.39008835  0.43828844  0.69627257  1
  Ca  Ca13  1  0.56171156  0.95179991  0.69627257  1
  Ca  Ca14  1  0.04820009  0.60991165  0.69627257  1
  Ca  Ca15  1  0.56171156  0.60991165  0.30372743  1
  Ca  Ca16  1  0.04820009  0.43828844  0.30372743  1
  Ca  Ca17  1  0.39008835  0.95179991  0.30372743  1
  Ca  Ca18  1  0.86542311  0.83235865  0.24026743  1
  Ca  Ca19  1  0.16764135  0.03306446  0.24026743  1
  Ca  Ca20  1  0.96693554  0.13457689  0.24026743  1
  Ca  Ca21  1  0.16764135  0.13457689  0.75973257  1
  Ca  Ca22  1  0.96693554  0.83235865  0.75973257  1
  Ca  Ca23  1  0.86542311  0.03306446  0.75973257  1
  F  F24  1  0.25007635  0.76040062  0.68438521  1
  F  F25  1  -0.76040062  -0.51032426  0.68438521  1
  F  F26  1  0.51032426  -0.25007635  0.68438521  1
  F  F27  1  -0.76040062  -0.25007635  -0.68438521  1
  F  F28  1  0.51032426  0.76040062  -0.68438521  1
  F  F29  1  0.25007635  -0.51032426  -0.68438521  1
  F  F30  1  0.33333333  0.66666667  0.50000000  1
  F  F31  1  0.26245531  0.33689364  0.92700318  1
  F  F32  1  0.66310636  0.92556167  0.92700318  1
  F  F33  1  0.07443833  0.73754469  0.92700318  1
  F  F34  1  0.66310636  0.73754469  0.07299682  1
  F  F35  1  0.07443833  0.33689364  0.07299682  1
  F  F36  1  0.26245531  0.92556167  0.07299682  1
  F  F37  1  0.33333333  0.66666667  0.63887224  1
  F  F38  1  0.33333333  0.66666667  0.36112776  1
  F  F39  1  0.21362148  0.36327537  0.34877752  1
  F  F40  1  0.63672463  0.85034611  0.34877752  1
  F  F41  1  0.14965389  0.78637852  0.34877752  1
  F  F42  1  0.63672463  0.78637852  0.65122248  1
  F  F43  1  0.14965389  0.36327537  0.65122248  1
  F  F44  1  0.21362148  0.85034611  0.65122248  1
  F  F45  1  0.72351759  0.27648241  -0.00000000  1
  F  F46  1  0.72351759  0.44703517  -0.00000000  1
  F  F47  1  0.55296483  0.27648241  0.00000000  1
  F  F48  1  0.66666667  0.33333333  0.50000000  1
  F  F49  1  0.00000000  0.00000000  0.46587838  1
  F  F50  1  0.00000000  0.00000000  0.53412162  1
  F  F51  1  0.40992266  0.59007734  0.00000000  1
  F  F52  1  0.40992266  0.81984533  0.00000000  1
  F  F53  1  0.18015467  0.59007734  -0.00000000  1
  F  F54  1  0.37746749  0.04299517  0.80805449  1
  F  F55  1  0.95700483  0.33447232  0.80805449  1
  F  F56  1  0.66552768  0.62253251  0.80805449  1
  F  F57  1  0.95700483  0.62253251  0.19194551  1
  F  F58  1  0.66552768  0.04299517  0.19194551  1
  F  F59  1  0.37746749  0.33447232  0.19194551  1
  F  F60  1  0.69153737  0.48779055  0.97633106  1
  F  F61  1  0.51220945  0.20374682  0.97633106  1
  F  F62  1  0.79625318  0.30846263  0.97633106  1
  F  F63  1  0.51220945  0.30846263  0.02366894  1
  F  F64  1  0.79625318  0.48779055  0.02366894  1
  F  F65  1  0.69153737  0.20374682  0.02366894  1
  F  F66  1  0.21074650  0.06496491  0.16861242  1
  F  F67  1  0.93503509  0.14578159  0.16861242  1
  F  F68  1  0.85421841  0.78925350  0.16861242  1
  F  F69  1  0.93503509  0.78925350  0.83138758  1
  F  F70  1  0.85421841  0.06496491  0.83138758  1
  F  F71  1  0.21074650  0.14578159  0.83138758  1
  F  F72  1  0.71852786  0.70205467  0.41388964  1
  F  F73  1  0.29794533  0.01647319  0.41388964  1
  F  F74  1  0.98352681  0.28147214  0.41388964  1
  F  F75  1  0.29794533  0.28147214  0.58611036  1
  F  F76  1  0.98352681  0.70205467  0.58611036  1
  F  F77  1  0.71852786  0.01647319  0.58611036  1
  F  F78  1  0.55338096  0.97553133  0.81838336  1
  F  F79  1  0.02446867  0.57784963  0.81838336  1
  F  F80  1  0.42215037  0.44661904  0.81838336  1
  F  F81  1  0.02446867  0.44661904  0.18161664  1
  F  F82  1  0.42215037  0.97553133  0.18161664  1
  F  F83  1  0.55338096  0.57784963  0.18161664  1
  F  F84  1  0.04132135  0.95867865  0.50000000  1
  F  F85  1  0.04132135  0.08264269  0.50000000  1
  F  F86  1  0.91735731  0.95867865  0.50000000  1
  F  F87  1  0.33333333  0.66666667  0.00000000  1
  Li  Li88  1  0.00000000  0.00000000  0.00000000  1
  Li  Li89  1  0.67753918  0.00830448  0.28069685  1
  Li  Li90  1  0.99169552  0.66923470  0.28069685  1
  Li  Li91  1  0.33076530  0.32246082  0.28069685  1
  Li  Li92  1  0.99169552  0.32246082  0.71930315  1
  Li  Li93  1  0.33076530  0.00830448  0.71930315  1
  Li  Li94  1  0.67753918  0.66923470  0.71930315  1
  Li  Li95  1  0.47155864  0.52844136  0.50000000  1
  Li  Li96  1  0.47155864  0.94311729  0.50000000  1
  Li  Li97  1  0.05688271  0.52844136  0.50000000  1
  Li  Li98  1  0.89285907  0.52599603  0.49994442  1
  Li  Li99  1  0.47400397  0.36686303  0.49994442  1
  Li  Li100  1  0.63313697  0.10714093  0.49994442  1
  Li  Li101  1  0.47400397  0.10714093  0.50005558  1
  Li  Li102  1  0.63313697  0.52599603  0.50005558  1
  Li  Li103  1  0.89285907  0.36686303  0.50005558  1
