# generated using pymatgen
data_LiF
_symmetry_space_group_name_H-M   'P 1'
_cell_length_a   13.64139447
_cell_length_b   13.64139447
_cell_length_c   4.09194852
_cell_angle_alpha   90.00000000
_cell_angle_beta   90.00000000
_cell_angle_gamma   120.00000000
_symmetry_Int_Tables_number   1
_chemical_formula_structural   LiF
_chemical_formula_sum   'Li24 F24'
_cell_volume   659.44461872
_cell_formula_units_Z   24
loop_
 _symmetry_equiv_pos_site_id
 _symmetry_equiv_pos_as_xyz
  1  'x, y, z'
loop_
 _atom_site_type_symbol
 _atom_site_label
 _atom_site_symmetry_multiplicity
 _atom_site_fract_x
 _atom_site_fract_y
 _atom_site_fract_z
 _atom_site_occupancy
  F  F0  1  0.00000000  0.00000000  0.00000000  1
  F  F1  1  0.44868873  0.49796181  0.96303134  1
  F  F2  1  0.50203819  0.95072692  0.96303134  1
  F  F3  1  0.04927308  0.55131127  0.96303134  1
  F  F4  1  0.50203819  0.55131127  0.03696866  1
  F  F5  1  0.04927308  0.49796181  0.03696866  1
  F  F6  1  0.44868873  0.95072692  0.03696866  1
  F  F7  1  0.33333333  0.66666667  0.13022875  1
  F  F8  1  0.33333333  0.66666667  0.86977125  1
  F  F9  1  0.10859961  0.89140039  0.50000000  1
  F  F10  1  0.10859961  0.21719922  0.50000000  1
  F  F11  1  0.78280078  0.89140039  0.50000000  1
  F  F12  1  0.61698662  0.02555294  0.98636932  1
  F  F13  1  0.97444706  0.59143367  0.98636932  1
  F  F14  1  0.40856633  0.38301338  0.98636932  1
  F  F15  1  0.97444706  0.38301338  0.01363068  1
  F  F16  1  0.40856633  0.02555294  0.01363068  1
  F  F17  1  0.61698662  0.59143367  0.01363068  1
  F  F18  1  0.42037413  0.95524806  0.63207784  1
  F  F19  1  0.04475194  0.46512607  0.63207784  1
  F  F20  1  0.53487393  0.57962587  0.63207784  1
  F  F21  1  0.04475194  0.57962587  0.36792216  1
  F  F22  1  0.53487393  0.95524806  0.36792216  1
  F  F23  1  0.42037413  0.46512607  0.36792216  1
  Li  Li24  1  0.66666667  0.33333333  0.50000000  1
  Li  Li25  1  0.76096078  0.40647566  0.19247942  1
  Li  Li26  1  -0.40647566  0.35448512  0.19247942  1
  Li  Li27  1  -0.35448512  -0.76096078  0.19247942  1
  Li  Li28  1  -0.40647566  -0.76096078  -0.19247942  1
  Li  Li29  1  -0.35448512  0.40647566  -0.19247942  1
  Li  Li30  1  0.76096078  0.35448512  -0.19247942  1
  Li  Li31  1  0.39908160  0.60091840  0.50000000  1
  Li  Li32  1  0.39908160  0.79816320  0.50000000  1
  Li  Li33  1  0.20183680  0.60091840  0.50000000  1
  Li  Li34  1  0.66666667  0.33333333  -0.00000000  1
  Li  Li35  1  0.00000000  0.00000000  0.50000000  1
  Li  Li36  1  0.20522382  0.34651920  0.69880046  1
  Li  Li37  1  0.65348080  0.85870462  0.69880046  1
  Li  Li38  1  0.14129538  0.79477618  0.69880046  1
  Li  Li39  1  0.65348080  0.79477618  0.30119954  1
  Li  Li40  1  0.14129538  0.34651920  0.30119954  1
  Li  Li41  1  0.20522382  0.85870462  0.30119954  1
  Li  Li42  1  0.06449641  0.68872530  0.50158176  1
  Li  Li43  1  0.31127470  0.37577112  0.50158176  1
  Li  Li44  1  0.62422888  0.93550359  0.50158176  1
  Li  Li45  1  0.31127470  0.93550359  0.49841824  1
  Li  Li46  1  0.62422888  0.68872530  0.49841824  1
  Li  Li47  1  0.06449641  0.37577112  0.49841824  1
