# generated using pymatgen
data_Li2Y2MoP3Se
_symmetry_space_group_name_H-M   'P 1'
_cell_length_a   4.67293429
_cell_length_b   5.06867346
_cell_length_c   6.27471401
_cell_angle_alpha   92.50306513
_cell_angle_beta   97.02354907
_cell_angle_gamma   101.95239317
_symmetry_Int_Tables_number   1
_chemical_formula_structural   Li2Y2MoP3Se
_chemical_formula_sum   'Li2 Y2 Mo1 P3 Se1'
_cell_volume   143.94228645
_cell_formula_units_Z   1
loop_
 _symmetry_equiv_pos_site_id
 _symmetry_equiv_pos_as_xyz
  1  'x, y, z'
loop_
 _atom_site_type_symbol
 _atom_site_label
 _atom_site_symmetry_multiplicity
 _atom_site_fract_x
 _atom_site_fract_y
 _atom_site_fract_z
 _atom_site_occupancy
  Se  Se0  1  0.12500000  0.00000000  0.25000000  1
  Y  Y1  1  0.00000000  0.00000000  0.00000000  1
  Y  Y2  1  0.37500000  0.00000000  0.25000000  1
  P  P3  1  0.25000000  0.25000000  0.25000000  1
  P  P4  1  0.00000000  0.25000000  0.12500000  1
  P  P5  1  0.63180671  0.48735508  0.78845636  1
  Mo  Mo6  1  0.51578870  0.87163599  0.73280858  1
  Li  Li7  1  0.98167419  0.32065750  0.28369259  1
  Li  Li8  1  0.49042304  0.02965763  0.59702613  1
