# generated using pymatgen
data_LiF
_symmetry_space_group_name_H-M   'P 1'
_cell_length_a   10.38937941
_cell_length_b   6.09678974
_cell_length_c   7.65692542
_cell_angle_alpha   90.00000000
_cell_angle_beta   90.00000000
_cell_angle_gamma   90.00000000
_symmetry_Int_Tables_number   1
_chemical_formula_structural   LiF
_chemical_formula_sum   'Li24 F24'
_cell_volume   485.00391152
_cell_formula_units_Z   24
loop_
 _symmetry_equiv_pos_site_id
 _symmetry_equiv_pos_as_xyz
  1  'x, y, z'
loop_
 _atom_site_type_symbol
 _atom_site_label
 _atom_site_symmetry_multiplicity
 _atom_site_fract_x
 _atom_site_fract_y
 _atom_site_fract_z
 _atom_site_occupancy
  F  F0  1  0.95374864  0.35443254  0.13276311  1
  F  F1  1  -0.95374864  -0.35443254  0.13276311  1
  F  F2  1  -0.45374864  0.85443254  0.36723689  1
  F  F3  1  1.45374864  0.14556746  0.36723689  1
  F  F4  1  -0.95374864  -0.35443254  -0.13276311  1
  F  F5  1  0.95374864  0.35443254  -0.13276311  1
  F  F6  1  1.45374864  0.14556746  0.63276311  1
  F  F7  1  -0.45374864  0.85443254  0.63276311  1
  F  F8  1  0.69431552  0.13786512  0.37312536  1
  F  F9  1  0.30568448  0.86213488  0.37312536  1
  F  F10  1  0.80568448  0.63786512  0.12687464  1
  F  F11  1  0.19431552  0.36213488  0.12687464  1
  F  F12  1  0.30568448  0.86213488  0.62687464  1
  F  F13  1  0.69431552  0.13786512  0.62687464  1
  F  F14  1  0.19431552  0.36213488  0.87312536  1
  F  F15  1  0.80568448  0.63786512  0.87312536  1
  F  F16  1  0.06382336  0.71340278  -0.00000000  1
  F  F17  1  0.93617664  0.28659722  0.00000000  1
  F  F18  1  0.43617664  0.21340278  0.50000000  1
  F  F19  1  0.56382336  0.78659722  0.50000000  1
  F  F20  1  0.00000000  0.00000000  0.00000000  1
  F  F21  1  0.50000000  0.50000000  0.50000000  1
  F  F22  1  0.00000000  0.50000000  -0.00000000  1
  F  F23  1  0.50000000  0.00000000  0.50000000  1
  Li  Li24  1  0.63452674  0.42816055  -0.00000000  1
  Li  Li25  1  0.36547326  0.57183945  -0.00000000  1
  Li  Li26  1  0.86547326  0.92816055  0.50000000  1
  Li  Li27  1  0.13452674  0.07183945  0.50000000  1
  Li  Li28  1  0.00000000  0.00000000  0.17890597  1
  Li  Li29  1  0.50000000  0.50000000  0.32109403  1
  Li  Li30  1  0.00000000  0.00000000  0.82109403  1
  Li  Li31  1  0.50000000  0.50000000  0.67890597  1
  Li  Li32  1  0.92809295  0.71190045  -0.00000000  1
  Li  Li33  1  0.07190705  0.28809955  0.00000000  1
  Li  Li34  1  0.57190705  0.21190045  0.50000000  1
  Li  Li35  1  0.42809295  0.78809955  0.50000000  1
  Li  Li36  1  0.56530177  0.84664633  0.08451615  1
  Li  Li37  1  0.43469823  0.15335367  0.08451615  1
  Li  Li38  1  0.93469823  0.34664633  0.41548385  1
  Li  Li39  1  0.06530177  0.65335367  0.41548385  1
  Li  Li40  1  0.43469823  0.15335367  0.91548385  1
  Li  Li41  1  0.56530177  0.84664633  0.91548385  1
  Li  Li42  1  0.06530177  0.65335367  0.58451615  1
  Li  Li43  1  0.93469823  0.34664633  0.58451615  1
  Li  Li44  1  0.00000000  0.00000000  0.50000000  1
  Li  Li45  1  0.50000000  0.50000000  -0.00000000  1
  Li  Li46  1  0.00000000  0.50000000  0.50000000  1
  Li  Li47  1  0.50000000  0.00000000  0.00000000  1
