# generated using pymatgen
data_Li4TeF2
_symmetry_space_group_name_H-M   'P 1'
_cell_length_a   15.59481611
_cell_length_b   15.59481611
_cell_length_c   15.59481611
_cell_angle_alpha   90.00000000
_cell_angle_beta   90.00000000
_cell_angle_gamma   90.00000000
_symmetry_Int_Tables_number   1
_chemical_formula_structural   Li4TeF2
_chemical_formula_sum   'Li96 Te24 F48'
_cell_volume   3792.63259964
_cell_formula_units_Z   24
loop_
 _symmetry_equiv_pos_site_id
 _symmetry_equiv_pos_as_xyz
  1  'x, y, z'
loop_
 _atom_site_type_symbol
 _atom_site_label
 _atom_site_symmetry_multiplicity
 _atom_site_fract_x
 _atom_site_fract_y
 _atom_site_fract_z
 _atom_site_occupancy
  F  F0  1  0.96162570  0.21894027  0.27114313  1
  F  F1  1  -0.46162570  -0.21894027  0.77114313  1
  F  F2  1  -0.96162570  0.71894027  0.22885687  1
  F  F3  1  1.46162570  0.28105973  -0.27114313  1
  F  F4  1  0.27114313  0.96162570  0.21894027  1
  F  F5  1  0.77114313  -0.46162570  -0.21894027  1
  F  F6  1  0.22885687  -0.96162570  0.71894027  1
  F  F7  1  -0.27114313  1.46162570  0.28105973  1
  F  F8  1  0.21894027  0.27114313  0.96162570  1
  F  F9  1  -0.21894027  0.77114313  -0.46162570  1
  F  F10  1  0.71894027  0.22885687  -0.96162570  1
  F  F11  1  0.28105973  -0.27114313  1.46162570  1
  F  F12  1  0.96894027  1.21162570  -0.02114313  1
  F  F13  1  0.53105973  -0.21162570  0.47885687  1
  F  F14  1  0.46894027  -0.71162570  1.02114313  1
  F  F15  1  0.03105973  1.71162570  0.52114313  1
  F  F16  1  1.71162570  0.52114313  0.03105973  1
  F  F17  1  -0.71162570  1.02114313  0.46894027  1
  F  F18  1  -0.21162570  0.47885687  0.53105973  1
  F  F19  1  1.21162570  -0.02114313  0.96894027  1
  F  F20  1  1.02114313  0.46894027  -0.71162570  1
  F  F21  1  0.52114313  0.03105973  1.71162570  1
  F  F22  1  -0.02114313  0.96894027  1.21162570  1
  F  F23  1  0.47885687  0.53105973  -0.21162570  1
  F  F24  1  1.46162570  0.71894027  0.77114313  1
  F  F25  1  0.03837430  0.28105973  1.27114313  1
  F  F26  1  -0.46162570  1.21894027  0.72885687  1
  F  F27  1  1.96162570  0.78105973  0.22885687  1
  F  F28  1  0.77114313  1.46162570  0.71894027  1
  F  F29  1  1.27114313  0.03837430  0.28105973  1
  F  F30  1  0.72885687  -0.46162570  1.21894027  1
  F  F31  1  0.22885687  1.96162570  0.78105973  1
  F  F32  1  0.71894027  0.77114313  1.46162570  1
  F  F33  1  0.28105973  1.27114313  0.03837430  1
  F  F34  1  1.21894027  0.72885687  -0.46162570  1
  F  F35  1  0.78105973  0.22885687  1.96162570  1
  F  F36  1  1.46894027  1.71162570  0.47885687  1
  F  F37  1  1.03105973  0.28837430  0.97885687  1
  F  F38  1  0.96894027  -0.21162570  1.52114313  1
  F  F39  1  0.53105973  2.21162570  1.02114313  1
  F  F40  1  2.21162570  1.02114313  0.53105973  1
  F  F41  1  -0.21162570  1.52114313  0.96894027  1
  F  F42  1  0.28837430  0.97885687  1.03105973  1
  F  F43  1  1.71162570  0.47885687  1.46894027  1
  F  F44  1  1.52114313  0.96894027  -0.21162570  1
  F  F45  1  1.02114313  0.53105973  2.21162570  1
  F  F46  1  0.47885687  1.46894027  1.71162570  1
  F  F47  1  0.97885687  1.03105973  0.28837430  1
  Li  Li48  1  0.85705758  0.80607226  0.72074730  1
  Li  Li49  1  0.64294242  0.19392774  0.22074730  1
  Li  Li50  1  0.14294242  0.30607226  0.77925270  1
  Li  Li51  1  0.35705758  0.69392774  0.27925270  1
  Li  Li52  1  0.72074730  0.85705758  0.80607226  1
  Li  Li53  1  0.22074730  0.64294242  0.19392774  1
  Li  Li54  1  0.77925270  0.14294242  0.30607226  1
  Li  Li55  1  0.27925270  0.35705758  0.69392774  1
  Li  Li56  1  0.80607226  0.72074730  0.85705758  1
  Li  Li57  1  0.19392774  0.22074730  0.64294242  1
  Li  Li58  1  0.30607226  0.77925270  0.14294242  1
  Li  Li59  1  0.69392774  0.27925270  0.35705758  1
  Li  Li60  1  0.55607226  0.10705758  0.52925270  1
  Li  Li61  1  0.94392774  0.89294242  0.02925270  1
  Li  Li62  1  0.05607226  0.39294242  0.47074730  1
  Li  Li63  1  0.44392774  0.60705758  0.97074730  1
  Li  Li64  1  0.60705758  0.97074730  0.44392774  1
  Li  Li65  1  0.39294242  0.47074730  0.05607226  1
  Li  Li66  1  0.89294242  0.02925270  0.94392774  1
  Li  Li67  1  0.10705758  0.52925270  0.55607226  1
  Li  Li68  1  0.47074730  0.05607226  0.39294242  1
  Li  Li69  1  0.97074730  0.44392774  0.60705758  1
  Li  Li70  1  0.52925270  0.55607226  0.10705758  1
  Li  Li71  1  0.02925270  0.94392774  0.89294242  1
  Li  Li72  1  0.35705758  0.30607226  0.22074730  1
  Li  Li73  1  0.14294242  0.69392774  0.72074730  1
  Li  Li74  1  0.64294242  0.80607226  0.27925270  1
  Li  Li75  1  0.85705758  0.19392774  0.77925270  1
  Li  Li76  1  0.22074730  0.35705758  0.30607226  1
  Li  Li77  1  0.72074730  0.14294242  0.69392774  1
  Li  Li78  1  0.27925270  0.64294242  0.80607226  1
  Li  Li79  1  0.77925270  0.85705758  0.19392774  1
  Li  Li80  1  0.30607226  0.22074730  0.35705758  1
  Li  Li81  1  0.69392774  0.72074730  0.14294242  1
  Li  Li82  1  0.80607226  0.27925270  0.64294242  1
  Li  Li83  1  0.19392774  0.77925270  0.85705758  1
  Li  Li84  1  0.05607226  0.60705758  0.02925270  1
  Li  Li85  1  0.44392774  0.39294242  0.52925270  1
  Li  Li86  1  0.55607226  0.89294242  0.97074730  1
  Li  Li87  1  0.94392774  0.10705758  0.47074730  1
  Li  Li88  1  0.10705758  0.47074730  0.94392774  1
  Li  Li89  1  0.89294242  0.97074730  0.55607226  1
  Li  Li90  1  0.39294242  0.52925270  0.44392774  1
  Li  Li91  1  0.60705758  0.02925270  0.05607226  1
  Li  Li92  1  0.97074730  0.55607226  0.89294242  1
  Li  Li93  1  0.47074730  0.94392774  0.10705758  1
  Li  Li94  1  0.02925270  0.05607226  0.60705758  1
  Li  Li95  1  0.52925270  0.44392774  0.39294242  1
  Li  Li96  1  0.12500000  0.18915624  0.43915624  1
  Li  Li97  1  0.37500000  0.81084376  0.93915624  1
  Li  Li98  1  0.87500000  0.68915624  0.06084376  1
  Li  Li99  1  0.62500000  0.31084376  0.56084376  1
  Li  Li100  1  0.43915624  0.12500000  0.18915624  1
  Li  Li101  1  0.93915624  0.37500000  0.81084376  1
  Li  Li102  1  0.06084376  0.87500000  0.68915624  1
  Li  Li103  1  0.56084376  0.62500000  0.31084376  1
  Li  Li104  1  0.18915624  0.43915624  0.12500000  1
  Li  Li105  1  0.81084376  0.93915624  0.37500000  1
  Li  Li106  1  0.68915624  0.06084376  0.87500000  1
  Li  Li107  1  0.31084376  0.56084376  0.62500000  1
  Li  Li108  1  0.62500000  0.68915624  0.93915624  1
  Li  Li109  1  0.87500000  0.31084376  0.43915624  1
  Li  Li110  1  0.37500000  0.18915624  0.56084376  1
  Li  Li111  1  0.12500000  0.81084376  0.06084376  1
  Li  Li112  1  0.93915624  0.62500000  0.68915624  1
  Li  Li113  1  0.43915624  0.87500000  0.31084376  1
  Li  Li114  1  0.56084376  0.37500000  0.18915624  1
  Li  Li115  1  0.06084376  0.12500000  0.81084376  1
  Li  Li116  1  0.68915624  0.93915624  0.62500000  1
  Li  Li117  1  0.31084376  0.43915624  0.87500000  1
  Li  Li118  1  0.18915624  0.56084376  0.37500000  1
  Li  Li119  1  0.81084376  0.06084376  0.12500000  1
  Li  Li120  1  0.62500000  -0.00000000  0.25000000  1
  Li  Li121  1  0.87500000  0.00000000  0.75000000  1
  Li  Li122  1  0.25000000  0.62500000  -0.00000000  1
  Li  Li123  1  0.75000000  0.87500000  0.00000000  1
  Li  Li124  1  0.00000000  0.25000000  0.62500000  1
  Li  Li125  1  0.00000000  0.75000000  0.87500000  1
  Li  Li126  1  0.12500000  0.50000000  0.75000000  1
  Li  Li127  1  0.37500000  0.50000000  0.25000000  1
  Li  Li128  1  0.75000000  0.12500000  0.50000000  1
  Li  Li129  1  0.25000000  0.37500000  0.50000000  1
  Li  Li130  1  0.50000000  0.75000000  0.12500000  1
  Li  Li131  1  0.50000000  0.25000000  0.37500000  1
  Li  Li132  1  0.12500000  0.00000000  0.25000000  1
  Li  Li133  1  0.37500000  -0.00000000  0.75000000  1
  Li  Li134  1  0.25000000  0.12500000  -0.00000000  1
  Li  Li135  1  0.75000000  0.37500000  -0.00000000  1
  Li  Li136  1  0.00000000  0.25000000  0.12500000  1
  Li  Li137  1  0.00000000  0.75000000  0.37500000  1
  Li  Li138  1  0.62500000  0.50000000  0.75000000  1
  Li  Li139  1  0.87500000  0.50000000  0.25000000  1
  Li  Li140  1  0.75000000  0.62500000  0.50000000  1
  Li  Li141  1  0.25000000  0.87500000  0.50000000  1
  Li  Li142  1  0.50000000  0.75000000  0.62500000  1
  Li  Li143  1  0.50000000  0.25000000  0.87500000  1
  Te  Te144  1  0.87500000  0.87500000  0.87500000  1
  Te  Te145  1  0.62500000  0.12500000  0.37500000  1
  Te  Te146  1  0.12500000  0.37500000  0.62500000  1
  Te  Te147  1  0.37500000  0.62500000  0.12500000  1
  Te  Te148  1  0.37500000  0.37500000  0.37500000  1
  Te  Te149  1  0.12500000  0.62500000  0.87500000  1
  Te  Te150  1  0.62500000  0.87500000  0.12500000  1
  Te  Te151  1  0.87500000  0.12500000  0.62500000  1
  Te  Te152  1  0.09546122  0.09546122  0.09546122  1
  Te  Te153  1  0.40453878  0.90453878  0.59546122  1
  Te  Te154  1  0.90453878  0.59546122  0.40453878  1
  Te  Te155  1  0.59546122  0.40453878  0.90453878  1
  Te  Te156  1  0.84546122  0.34546122  0.15453878  1
  Te  Te157  1  0.65453878  0.65453878  0.65453878  1
  Te  Te158  1  0.34546122  0.15453878  0.84546122  1
  Te  Te159  1  0.15453878  0.84546122  0.34546122  1
  Te  Te160  1  0.59546122  0.59546122  0.59546122  1
  Te  Te161  1  0.90453878  0.40453878  0.09546122  1
  Te  Te162  1  0.40453878  0.09546122  0.90453878  1
  Te  Te163  1  0.09546122  0.90453878  0.40453878  1
  Te  Te164  1  0.34546122  0.84546122  0.65453878  1
  Te  Te165  1  0.15453878  0.15453878  0.15453878  1
  Te  Te166  1  0.84546122  0.65453878  0.34546122  1
  Te  Te167  1  0.65453878  0.34546122  0.84546122  1
