# generated using pymatgen
data_LiF
_symmetry_space_group_name_H-M   'P 1'
_cell_length_a   13.40220042
_cell_length_b   13.40220042
_cell_length_c   17.78690054
_cell_angle_alpha   90.00000000
_cell_angle_beta   90.00000000
_cell_angle_gamma   120.00000000
_symmetry_Int_Tables_number   1
_chemical_formula_structural   LiF
_chemical_formula_sum   'Li86 F86'
_cell_volume   2766.83413226
_cell_formula_units_Z   86
loop_
 _symmetry_equiv_pos_site_id
 _symmetry_equiv_pos_as_xyz
  1  'x, y, z'
loop_
 _atom_site_type_symbol
 _atom_site_label
 _atom_site_symmetry_multiplicity
 _atom_site_fract_x
 _atom_site_fract_y
 _atom_site_fract_z
 _atom_site_occupancy
  F  F0  1  0.76300008  0.66518775  0.46220202  1
  F  F1  1  0.33481225  0.09781233  0.46220202  1
  F  F2  1  0.90218767  0.23699992  0.46220202  1
  F  F3  1  0.33481225  0.23699992  0.53779798  1
  F  F4  1  0.90218767  0.66518775  0.53779798  1
  F  F5  1  0.76300008  0.09781233  0.53779798  1
  F  F6  1  0.15350154  0.54751135  0.30409471  1
  F  F7  1  0.45248865  0.60599019  0.30409471  1
  F  F8  1  0.39400981  0.84649846  0.30409471  1
  F  F9  1  0.45248865  0.84649846  0.69590529  1
  F  F10  1  0.39400981  0.54751135  0.69590529  1
  F  F11  1  0.15350154  0.60599019  0.69590529  1
  F  F12  1  0.16707932  0.90575644  0.78537924  1
  F  F13  1  0.09424356  0.26132288  0.78537924  1
  F  F14  1  0.73867712  0.83292068  0.78537924  1
  F  F15  1  0.09424356  0.83292068  0.21462076  1
  F  F16  1  0.73867712  0.90575644  0.21462076  1
  F  F17  1  0.16707932  0.26132288  0.21462076  1
  F  F18  1  0.88674543  0.70536978  0.79914053  1
  F  F19  1  0.29463022  0.18137565  0.79914053  1
  F  F20  1  0.81862435  0.11325457  0.79914053  1
  F  F21  1  0.29463022  0.11325457  0.20085947  1
  F  F22  1  0.81862435  0.70536978  0.20085947  1
  F  F23  1  0.88674543  0.18137565  0.20085947  1
  F  F24  1  0.47450007  0.21641581  0.45923970  1
  F  F25  1  0.78358419  0.25808426  0.45923970  1
  F  F26  1  0.74191574  0.52549993  0.45923970  1
  F  F27  1  0.78358419  0.52549993  0.54076030  1
  F  F28  1  0.74191574  0.21641581  0.54076030  1
  F  F29  1  0.47450007  0.25808426  0.54076030  1
  F  F30  1  0.41031668  0.43637594  0.85883034  1
  F  F31  1  0.56362406  0.97394074  0.85883034  1
  F  F32  1  0.02605926  0.58968332  0.85883034  1
  F  F33  1  0.56362406  0.58968332  0.14116966  1
  F  F34  1  0.02605926  0.43637594  0.14116966  1
  F  F35  1  0.41031668  0.97394074  0.14116966  1
  F  F36  1  0.73474277  0.26381330  0.06800225  1
  F  F37  1  0.73618670  0.47092948  0.06800225  1
  F  F38  1  0.52907052  0.26525723  0.06800225  1
  F  F39  1  0.73618670  0.26525723  0.93199775  1
  F  F40  1  0.52907052  0.26381330  0.93199775  1
  F  F41  1  0.73474277  0.47092948  0.93199775  1
  F  F42  1  0.06423777  0.66219162  0.82493949  1
  F  F43  1  0.33780838  0.40204614  0.82493949  1
  F  F44  1  0.59795386  0.93576223  0.82493949  1
  F  F45  1  0.33780838  0.93576223  0.17506051  1
  F  F46  1  0.59795386  0.66219162  0.17506051  1
  F  F47  1  0.06423777  0.40204614  0.17506051  1
  F  F48  1  0.00949138  0.56620129  0.94668923  1
  F  F49  1  0.43379871  0.44329009  0.94668923  1
  F  F50  1  0.55670991  0.99050862  0.94668923  1
  F  F51  1  0.43379871  0.99050862  0.05331077  1
  F  F52  1  0.55670991  0.56620129  0.05331077  1
  F  F53  1  0.00949138  0.44329009  0.05331077  1
  F  F54  1  0.37218527  0.73176153  0.38880025  1
  F  F55  1  0.26823847  0.64042373  0.38880025  1
  F  F56  1  0.35957627  0.62781473  0.38880025  1
  F  F57  1  0.26823847  0.62781473  0.61119975  1
  F  F58  1  0.35957627  0.73176153  0.61119975  1
  F  F59  1  0.37218527  0.64042373  0.61119975  1
  F  F60  1  0.28386271  0.16754811  0.73637342  1
  F  F61  1  0.83245189  0.11631459  0.73637342  1
  F  F62  1  0.88368541  0.71613729  0.73637342  1
  F  F63  1  0.83245189  0.71613729  0.26362658  1
  F  F64  1  0.88368541  0.16754811  0.26362658  1
  F  F65  1  0.28386271  0.11631459  0.26362658  1
  F  F66  1  0.10102533  0.29702476  0.67237815  1
  F  F67  1  0.70297524  0.80400057  0.67237815  1
  F  F68  1  0.19599943  0.89897467  0.67237815  1
  F  F69  1  0.70297524  0.89897467  0.32762185  1
  F  F70  1  0.19599943  0.29702476  0.32762185  1
  F  F71  1  0.10102533  0.80400057  0.32762185  1
  F  F72  1  0.00000000  0.00000000  0.70429904  1
  F  F73  1  0.00000000  0.00000000  0.29570096  1
  F  F74  1  0.57016425  0.91822848  0.45337844  1
  F  F75  1  0.08177152  0.65193578  0.45337844  1
  F  F76  1  0.34806422  0.42983575  0.45337844  1
  F  F77  1  0.08177152  0.42983575  0.54662156  1
  F  F78  1  0.34806422  0.91822848  0.54662156  1
  F  F79  1  0.57016425  0.65193578  0.54662156  1
  F  F80  1  0.07597745  0.75789824  0.47701175  1
  F  F81  1  0.24210176  0.31807921  0.47701175  1
  F  F82  1  0.68192079  0.92402255  0.47701175  1
  F  F83  1  0.24210176  0.92402255  0.52298825  1
  F  F84  1  0.68192079  0.75789824  0.52298825  1
  F  F85  1  0.07597745  0.31807921  0.52298825  1
  Li  Li86  1  0.89374922  0.97510616  0.30428802  1
  Li  Li87  1  -0.97510616  -0.08135694  0.30428802  1
  Li  Li88  1  0.08135694  -0.89374922  0.30428802  1
  Li  Li89  1  -0.97510616  -0.89374922  -0.30428802  1
  Li  Li90  1  0.08135694  0.97510616  -0.30428802  1
  Li  Li91  1  0.89374922  -0.08135694  -0.30428802  1
  Li  Li92  1  0.90867709  0.09132291  0.50000000  1
  Li  Li93  1  0.90867709  0.81735419  0.50000000  1
  Li  Li94  1  0.18264581  0.09132291  0.50000000  1
  Li  Li95  1  0.66666667  0.33333333  0.50000000  1
  Li  Li96  1  0.33333333  0.66666667  0.65719841  1
  Li  Li97  1  0.33333333  0.66666667  0.34280159  1
  Li  Li98  1  0.00000000  0.00000000  0.00000000  1
  Li  Li99  1  0.32575344  0.32204271  0.96655479  1
  Li  Li100  1  0.67795729  0.00371073  0.96655479  1
  Li  Li101  1  0.99628927  0.67424656  0.96655479  1
  Li  Li102  1  0.67795729  0.67424656  0.03344521  1
  Li  Li103  1  0.99628927  0.32204271  0.03344521  1
  Li  Li104  1  0.32575344  0.00371073  0.03344521  1
  Li  Li105  1  0.30490789  0.04823631  0.41580986  1
  Li  Li106  1  0.95176369  0.25667158  0.41580986  1
  Li  Li107  1  0.74332842  0.69509211  0.41580986  1
  Li  Li108  1  0.95176369  0.69509211  0.58419014  1
  Li  Li109  1  0.74332842  0.04823631  0.58419014  1
  Li  Li110  1  0.30490789  0.25667158  0.58419014  1
  Li  Li111  1  0.33333333  0.66666667  -0.00000000  1
  Li  Li112  1  0.00000000  0.00000000  0.50000000  1
  Li  Li113  1  0.46910623  0.13823719  0.21479983  1
  Li  Li114  1  0.86176281  0.33086904  0.21479983  1
  Li  Li115  1  0.66913096  0.53089377  0.21479983  1
  Li  Li116  1  0.86176281  0.53089377  0.78520017  1
  Li  Li117  1  0.66913096  0.13823719  0.78520017  1
  Li  Li118  1  0.46910623  0.33086904  0.78520017  1
  Li  Li119  1  0.33333333  0.66666667  0.50000000  1
  Li  Li120  1  0.25461680  0.52921386  0.91350140  1
  Li  Li121  1  0.47078614  0.72540295  0.91350140  1
  Li  Li122  1  0.27459705  0.74538320  0.91350140  1
  Li  Li123  1  0.47078614  0.74538320  0.08649860  1
  Li  Li124  1  0.27459705  0.52921386  0.08649860  1
  Li  Li125  1  0.25461680  0.72540295  0.08649860  1
  Li  Li126  1  0.66666667  0.33333333  -0.00000000  1
  Li  Li127  1  0.65033119  0.58516564  0.77993940  1
  Li  Li128  1  0.41483436  0.06516555  0.77993940  1
  Li  Li129  1  0.93483445  0.34966881  0.77993940  1
  Li  Li130  1  0.41483436  0.34966881  0.22006060  1
  Li  Li131  1  0.93483445  0.58516564  0.22006060  1
  Li  Li132  1  0.65033119  0.06516555  0.22006060  1
  Li  Li133  1  0.10487004  0.20012206  0.43784872  1
  Li  Li134  1  0.79987794  0.90474798  0.43784872  1
  Li  Li135  1  0.09525202  0.89512996  0.43784872  1
  Li  Li136  1  0.79987794  0.89512996  0.56215128  1
  Li  Li137  1  0.09525202  0.20012206  0.56215128  1
  Li  Li138  1  0.10487004  0.90474798  0.56215128  1
  Li  Li139  1  0.99205556  0.31484422  0.89950248  1
  Li  Li140  1  0.68515578  0.67721134  0.89950248  1
  Li  Li141  1  0.32278866  0.00794444  0.89950248  1
  Li  Li142  1  0.68515578  0.00794444  0.10049752  1
  Li  Li143  1  0.32278866  0.31484422  0.10049752  1
  Li  Li144  1  0.99205556  0.67721134  0.10049752  1
  Li  Li145  1  0.62794147  0.71902434  0.60797835  1
  Li  Li146  1  0.28097566  0.90891713  0.60797835  1
  Li  Li147  1  0.09108287  0.37205853  0.60797835  1
  Li  Li148  1  0.28097566  0.37205853  0.39202165  1
  Li  Li149  1  0.09108287  0.71902434  0.39202165  1
  Li  Li150  1  0.62794147  0.90891713  0.39202165  1
  Li  Li151  1  0.47712650  0.61254553  0.84786253  1
  Li  Li152  1  0.38745447  0.86458097  0.84786253  1
  Li  Li153  1  0.13541903  0.52287350  0.84786253  1
  Li  Li154  1  0.38745447  0.52287350  0.15213747  1
  Li  Li155  1  0.13541903  0.61254553  0.15213747  1
  Li  Li156  1  0.47712650  0.86458097  0.15213747  1
  Li  Li157  1  0.55708726  0.44291274  0.50000000  1
  Li  Li158  1  0.55708726  0.11417452  0.50000000  1
  Li  Li159  1  0.88582548  0.44291274  0.50000000  1
  Li  Li160  1  0.13313246  0.20876283  0.04820227  1
  Li  Li161  1  0.79123717  0.92436963  0.04820227  1
  Li  Li162  1  0.07563037  0.86686754  0.04820227  1
  Li  Li163  1  0.79123717  0.86686754  0.95179773  1
  Li  Li164  1  0.07563037  0.20876283  0.95179773  1
  Li  Li165  1  0.13313246  0.92436963  0.95179773  1
  Li  Li166  1  0.07619721  0.00853932  0.05392893  1
  Li  Li167  1  0.99146068  0.06765789  0.05392893  1
  Li  Li168  1  0.93234211  0.92380279  0.05392893  1
  Li  Li169  1  0.99146068  0.92380279  0.94607107  1
  Li  Li170  1  0.93234211  0.00853932  0.94607107  1
  Li  Li171  1  0.07619721  0.06765789  0.94607107  1
