# generated using pymatgen
data_LiF
_symmetry_space_group_name_H-M   'P 1'
_cell_length_a   8.88590243
_cell_length_b   8.88590243
_cell_length_c   9.07376925
_cell_angle_alpha   90.00000000
_cell_angle_beta   90.00000000
_cell_angle_gamma   120.00000000
_symmetry_Int_Tables_number   1
_chemical_formula_structural   LiF
_chemical_formula_sum   'Li20 F20'
_cell_volume   620.47093662
_cell_formula_units_Z   20
loop_
 _symmetry_equiv_pos_site_id
 _symmetry_equiv_pos_as_xyz
  1  'x, y, z'
loop_
 _atom_site_type_symbol
 _atom_site_label
 _atom_site_symmetry_multiplicity
 _atom_site_fract_x
 _atom_site_fract_y
 _atom_site_fract_z
 _atom_site_occupancy
  F  F0  1  0.14599672  0.68890001  0.18002670  1
  F  F1  1  -0.68890001  -0.54290329  0.18002670  1
  F  F2  1  0.54290329  -0.14599672  0.18002670  1
  F  F3  1  0.14599672  0.68890001  -0.18002670  1
  F  F4  1  -0.68890001  -0.54290329  -0.18002670  1
  F  F5  1  0.54290329  -0.14599672  -0.18002670  1
  F  F6  1  0.68890001  0.14599672  -0.18002670  1
  F  F7  1  -0.54290329  -0.68890001  -0.18002670  1
  F  F8  1  -0.14599672  0.54290329  -0.18002670  1
  F  F9  1  0.68890001  0.14599672  0.18002670  1
  F  F10  1  -0.54290329  -0.68890001  0.18002670  1
  F  F11  1  -0.14599672  0.54290329  0.18002670  1
  F  F12  1  0.92884766  0.00000000  0.00000000  1
  F  F13  1  0.00000000  0.92884766  0.00000000  1
  F  F14  1  0.07115234  0.07115234  0.00000000  1
  F  F15  1  0.00000000  0.00000000  0.69465690  1
  F  F16  1  0.00000000  0.00000000  0.30534310  1
  F  F17  1  0.66554556  0.00000000  -0.00000000  1
  F  F18  1  0.00000000  0.66554556  -0.00000000  1
  F  F19  1  0.33445444  0.33445444  0.00000000  1
  Li  Li20  1  0.74497022  0.00000000  0.16915750  1
  Li  Li21  1  0.00000000  0.74497022  0.16915750  1
  Li  Li22  1  0.25502978  0.25502978  0.16915750  1
  Li  Li23  1  0.74497022  0.00000000  0.83084250  1
  Li  Li24  1  0.00000000  0.74497022  0.83084250  1
  Li  Li25  1  0.25502978  0.25502978  0.83084250  1
  Li  Li26  1  0.00000000  0.00000000  0.50000000  1
  Li  Li27  1  0.33333333  0.66666667  0.00000000  1
  Li  Li28  1  0.66666667  0.33333333  0.00000000  1
  Li  Li29  1  0.16025680  0.00000000  0.00000000  1
  Li  Li30  1  0.00000000  0.16025680  -0.00000000  1
  Li  Li31  1  0.83974320  0.83974320  0.00000000  1
  Li  Li32  1  0.84619152  0.08976372  0.50000000  1
  Li  Li33  1  0.91023628  0.75642779  0.50000000  1
  Li  Li34  1  0.24357221  0.15380848  0.50000000  1
  Li  Li35  1  0.08976372  0.84619152  0.50000000  1
  Li  Li36  1  0.75642779  0.91023628  0.50000000  1
  Li  Li37  1  0.15380848  0.24357221  0.50000000  1
  Li  Li38  1  0.00000000  0.00000000  0.91007867  1
  Li  Li39  1  0.00000000  0.00000000  0.08992133  1
