# generated using pymatgen
data_Li2Cu3As2P3Se
_symmetry_space_group_name_H-M   'P 1'
_cell_length_a   4.26031258
_cell_length_b   4.53085030
_cell_length_c   6.45201239
_cell_angle_alpha   95.53879052
_cell_angle_beta   101.07038415
_cell_angle_gamma   109.08228931
_symmetry_Int_Tables_number   1
_chemical_formula_structural   Li2Cu3As2P3Se
_chemical_formula_sum   'Li2 Cu3 As2 P3 Se1'
_cell_volume   113.79199766
_cell_formula_units_Z   1
loop_
 _symmetry_equiv_pos_site_id
 _symmetry_equiv_pos_as_xyz
  1  'x, y, z'
loop_
 _atom_site_type_symbol
 _atom_site_label
 _atom_site_symmetry_multiplicity
 _atom_site_fract_x
 _atom_site_fract_y
 _atom_site_fract_z
 _atom_site_occupancy
  Se  Se0  1  0.00000000  0.00000000  0.00000000  1
  Cu  Cu1  1  0.50000000  0.50000000  0.50000000  1
  Cu  Cu2  1  0.50000000  0.50000000  0.00000000  1
  Cu  Cu3  1  0.50000000  0.00000000  0.50000000  1
  P  P4  1  0.00000000  0.50000000  0.50000000  1
  P  P5  1  0.52648404  0.80145375  0.37401619  1
  P  P6  1  0.72474375  0.04800532  0.65605084  1
  As  As7  1  0.70892157  0.60298909  0.34332611  1
  As  As8  1  0.05997912  0.98385796  0.69682435  1
  Li  Li9  1  0.74116805  0.62904175  0.96892719  1
  Li  Li10  1  0.09862642  0.85439459  0.82810049  1
