# generated using pymatgen
data_LiF
_symmetry_space_group_name_H-M   'P 1'
_cell_length_a   5.91735390
_cell_length_b   13.12789681
_cell_length_c   10.01905885
_cell_angle_alpha   90.00000000
_cell_angle_beta   90.00000000
_cell_angle_gamma   90.00000000
_symmetry_Int_Tables_number   1
_chemical_formula_structural   LiF
_chemical_formula_sum   'Li24 F24'
_cell_volume   778.30465134
_cell_formula_units_Z   24
loop_
 _symmetry_equiv_pos_site_id
 _symmetry_equiv_pos_as_xyz
  1  'x, y, z'
loop_
 _atom_site_type_symbol
 _atom_site_label
 _atom_site_symmetry_multiplicity
 _atom_site_fract_x
 _atom_site_fract_y
 _atom_site_fract_z
 _atom_site_occupancy
  F  F0  1  0.78122422  0.25000000  0.94632684  1
  F  F1  1  0.71877578  0.75000000  0.44632684  1
  F  F2  1  0.21877578  0.75000000  0.05367316  1
  F  F3  1  0.28122422  0.25000000  0.55367316  1
  F  F4  1  0.00000000  0.00000000  0.00000000  1
  F  F5  1  0.50000000  -0.00000000  0.50000000  1
  F  F6  1  0.00000000  0.50000000  0.00000000  1
  F  F7  1  0.50000000  0.50000000  0.50000000  1
  F  F8  1  0.20097635  0.51322649  0.56521565  1
  F  F9  1  0.29902365  0.48677351  0.06521565  1
  F  F10  1  0.79902365  0.01322649  0.43478435  1
  F  F11  1  0.70097635  0.98677351  0.93478435  1
  F  F12  1  0.79902365  0.48677351  0.43478435  1
  F  F13  1  0.70097635  0.51322649  0.93478435  1
  F  F14  1  0.20097635  0.98677351  0.56521565  1
  F  F15  1  0.29902365  0.01322649  0.06521565  1
  F  F16  1  0.61747106  0.51853258  0.03694358  1
  F  F17  1  0.88252894  0.48146742  0.53694358  1
  F  F18  1  0.38252894  0.01853258  0.96305642  1
  F  F19  1  0.11747106  0.98146742  0.46305642  1
  F  F20  1  0.38252894  0.48146742  0.96305642  1
  F  F21  1  0.11747106  0.51853258  0.46305642  1
  F  F22  1  0.61747106  0.98146742  0.03694358  1
  F  F23  1  0.88252894  0.01853258  0.53694358  1
  Li  Li24  1  0.37944226  0.64379290  0.64787907  1
  Li  Li25  1  0.12055774  -0.64379290  1.14787907  1
  Li  Li26  1  -0.37944226  1.14379290  -0.64787907  1
  Li  Li27  1  0.87944226  -0.14379290  -0.14787907  1
  Li  Li28  1  -0.37944226  -0.64379290  -0.64787907  1
  Li  Li29  1  0.87944226  0.64379290  -0.14787907  1
  Li  Li30  1  0.37944226  -0.14379290  0.64787907  1
  Li  Li31  1  0.12055774  1.14379290  1.14787907  1
  Li  Li32  1  0.16939331  0.25000000  0.29373621  1
  Li  Li33  1  0.33060669  0.75000000  0.79373621  1
  Li  Li34  1  0.83060669  0.75000000  0.70626379  1
  Li  Li35  1  0.66939331  0.25000000  0.20626379  1
  Li  Li36  1  0.88234137  0.25000000  0.29912017  1
  Li  Li37  1  0.61765863  0.75000000  0.79912017  1
  Li  Li38  1  0.11765863  0.75000000  0.70087983  1
  Li  Li39  1  0.38234137  0.25000000  0.20087983  1
  Li  Li40  1  0.31987458  0.16947200  0.48410346  1
  Li  Li41  1  0.18012542  0.83052800  0.98410346  1
  Li  Li42  1  0.68012542  0.66947200  0.51589654  1
  Li  Li43  1  0.81987458  0.33052800  0.01589654  1
  Li  Li44  1  0.68012542  0.83052800  0.51589654  1
  Li  Li45  1  0.81987458  0.16947200  0.01589654  1
  Li  Li46  1  0.31987458  0.33052800  0.48410346  1
  Li  Li47  1  0.18012542  0.66947200  0.98410346  1
