# generated using pymatgen
data_LiF
_symmetry_space_group_name_H-M   'P 1'
_cell_length_a   8.36694419
_cell_length_b   8.36694419
_cell_length_c   5.01073140
_cell_angle_alpha   90.00000000
_cell_angle_beta   90.00000000
_cell_angle_gamma   120.00000000
_symmetry_Int_Tables_number   1
_chemical_formula_structural   LiF
_chemical_formula_sum   'Li11 F11'
_cell_volume   303.78442171
_cell_formula_units_Z   11
loop_
 _symmetry_equiv_pos_site_id
 _symmetry_equiv_pos_as_xyz
  1  'x, y, z'
loop_
 _atom_site_type_symbol
 _atom_site_label
 _atom_site_symmetry_multiplicity
 _atom_site_fract_x
 _atom_site_fract_y
 _atom_site_fract_z
 _atom_site_occupancy
  F  F0  1  0.81280206  0.35958326  0.77554169  1
  F  F1  1  0.64041674  0.45321880  0.77554169  1
  F  F2  1  0.54678120  0.18719794  0.77554169  1
  F  F3  1  0.64041674  0.18719794  0.22445831  1
  F  F4  1  0.54678120  0.35958326  0.22445831  1
  F  F5  1  0.81280206  0.45321880  0.22445831  1
  F  F6  1  0.86101588  0.13898412  0.50000000  1
  F  F7  1  0.86101588  0.72203176  0.50000000  1
  F  F8  1  0.27796824  0.13898412  0.50000000  1
  F  F9  1  0.66666667  0.33333333  0.70038160  1
  F  F10  1  0.66666667  0.33333333  0.29961840  1
  Li  Li11  1  0.02318189  0.49394588  0.73002752  1
  Li  Li12  1  -0.49394588  -0.47076399  0.73002752  1
  Li  Li13  1  0.47076399  -0.02318189  0.73002752  1
  Li  Li14  1  -0.49394588  -0.02318189  -0.73002752  1
  Li  Li15  1  0.47076399  0.49394588  -0.73002752  1
  Li  Li16  1  0.02318189  -0.47076399  -0.73002752  1
  Li  Li17  1  0.20841943  0.79158057  0.00000000  1
  Li  Li18  1  0.20841943  0.41683886  0.00000000  1
  Li  Li19  1  0.58316114  0.79158057  -0.00000000  1
  Li  Li20  1  0.00000000  0.00000000  0.12906255  1
  Li  Li21  1  0.00000000  0.00000000  0.87093745  1
