# generated using pymatgen
data_KLiCaS2
_symmetry_space_group_name_H-M   'P 1'
_cell_length_a   13.88920612
_cell_length_b   8.41138171
_cell_length_c   10.15521375
_cell_angle_alpha   90.00000000
_cell_angle_beta   90.00000000
_cell_angle_gamma   90.00000000
_symmetry_Int_Tables_number   1
_chemical_formula_structural   KLiCaS2
_chemical_formula_sum   'K8 Li8 Ca8 S16'
_cell_volume   1186.40736484
_cell_formula_units_Z   8
loop_
 _symmetry_equiv_pos_site_id
 _symmetry_equiv_pos_as_xyz
  1  'x, y, z'
loop_
 _atom_site_type_symbol
 _atom_site_label
 _atom_site_symmetry_multiplicity
 _atom_site_fract_x
 _atom_site_fract_y
 _atom_site_fract_z
 _atom_site_occupancy
  Ca  Ca0  1  0.00000000  0.00000000  0.50000000  1
  Ca  Ca1  1  0.50000000  0.00000000  0.00000000  1
  Ca  Ca2  1  0.00000000  0.50000000  0.50000000  1
  Ca  Ca3  1  0.50000000  0.50000000  0.00000000  1
  Ca  Ca4  1  0.72508621  0.25000000  0.25336252  1
  Ca  Ca5  1  0.77491379  0.75000000  0.75336252  1
  Ca  Ca6  1  0.27491379  0.75000000  0.74663748  1
  Ca  Ca7  1  0.22508621  0.25000000  0.24663748  1
  K  K8  1  0.10330332  0.25000000  0.90102198  1
  K  K9  1  0.39669668  0.75000000  0.40102198  1
  K  K10  1  0.89669668  0.75000000  0.09897802  1
  K  K11  1  0.60330332  0.25000000  0.59897802  1
  K  K12  1  0.21543205  0.25000000  0.05503356  1
  K  K13  1  0.28456795  0.75000000  0.55503356  1
  K  K14  1  0.78456795  0.75000000  0.94496644  1
  K  K15  1  0.71543205  0.25000000  0.44496644  1
  Li  Li16  1  0.48151771  0.11714831  0.57469010  1
  Li  Li17  1  0.01848229  0.88285169  0.07469010  1
  Li  Li18  1  0.51848229  0.61714831  0.42530990  1
  Li  Li19  1  0.98151771  0.38285169  0.92530990  1
  Li  Li20  1  0.51848229  0.88285169  0.42530990  1
  Li  Li21  1  0.98151771  0.11714831  0.92530990  1
  Li  Li22  1  0.48151771  0.38285169  0.57469010  1
  Li  Li23  1  0.01848229  0.61714831  0.07469010  1
  S  S24  1  0.00000000  0.00000000  0.00000000  1
  S  S25  1  0.50000000  0.00000000  0.50000000  1
  S  S26  1  0.00000000  0.50000000  0.00000000  1
  S  S27  1  0.50000000  0.50000000  0.50000000  1
  S  S28  1  0.50781523  0.25000000  0.42695141  1
  S  S29  1  0.99218477  0.75000000  0.92695141  1
  S  S30  1  0.49218477  0.75000000  0.57304859  1
  S  S31  1  0.00781523  0.25000000  0.07304859  1
  S  S32  1  0.77606313  0.97347323  0.28668309  1
  S  S33  1  -0.27606313  -0.97347323  0.78668309  1
  S  S34  1  -0.77606313  1.47347323  -0.28668309  1
  S  S35  1  1.27606313  -0.47347323  0.21331691  1
  S  S36  1  -0.77606313  -0.97347323  -0.28668309  1
  S  S37  1  1.27606313  0.97347323  0.21331691  1
  S  S38  1  0.77606313  -0.47347323  0.28668309  1
  S  S39  1  -0.27606313  1.47347323  0.78668309  1
