# generated using pymatgen
data_LiF
_symmetry_space_group_name_H-M   'P 1'
_cell_length_a   12.76453983
_cell_length_b   12.76453983
_cell_length_c   20.53458351
_cell_angle_alpha   90.00000000
_cell_angle_beta   90.00000000
_cell_angle_gamma   120.00000000
_symmetry_Int_Tables_number   1
_chemical_formula_structural   LiF
_chemical_formula_sum   'Li87 F87'
_cell_volume   2897.52275930
_cell_formula_units_Z   87
loop_
 _symmetry_equiv_pos_site_id
 _symmetry_equiv_pos_as_xyz
  1  'x, y, z'
loop_
 _atom_site_type_symbol
 _atom_site_label
 _atom_site_symmetry_multiplicity
 _atom_site_fract_x
 _atom_site_fract_y
 _atom_site_fract_z
 _atom_site_occupancy
  F  F0  1  0.00000000  0.00000000  0.50000000  1
  F  F1  1  0.03663064  0.96336936  0.50000000  1
  F  F2  1  0.03663064  0.07326128  0.50000000  1
  F  F3  1  0.92673872  0.96336936  0.50000000  1
  F  F4  1  0.46655922  0.25718047  0.02983557  1
  F  F5  1  0.74281953  0.20937876  0.02983557  1
  F  F6  1  0.79062124  0.53344078  0.02983557  1
  F  F7  1  0.74281953  0.53344078  0.97016443  1
  F  F8  1  0.79062124  0.25718047  0.97016443  1
  F  F9  1  0.46655922  0.20937876  0.97016443  1
  F  F10  1  0.87815351  0.79171267  0.18492829  1
  F  F11  1  0.20828733  0.08644085  0.18492829  1
  F  F12  1  0.91355915  0.12184649  0.18492829  1
  F  F13  1  0.20828733  0.12184649  0.81507171  1
  F  F14  1  0.91355915  0.79171267  0.81507171  1
  F  F15  1  0.87815351  0.08644085  0.81507171  1
  F  F16  1  0.72009790  0.23979551  0.36552831  1
  F  F17  1  0.76020449  0.48030239  0.36552831  1
  F  F18  1  0.51969761  0.27990210  0.36552831  1
  F  F19  1  0.76020449  0.27990210  0.63447169  1
  F  F20  1  0.51969761  0.23979551  0.63447169  1
  F  F21  1  0.72009790  0.48030239  0.63447169  1
  F  F22  1  0.11313768  0.88686232  0.50000000  1
  F  F23  1  0.11313768  0.22627535  0.50000000  1
  F  F24  1  0.77372465  0.88686232  0.50000000  1
  F  F25  1  0.93707714  0.33916299  0.09193155  1
  F  F26  1  0.66083701  0.59791415  0.09193155  1
  F  F27  1  0.40208585  0.06292286  0.09193155  1
  F  F28  1  0.66083701  0.06292286  0.90806845  1
  F  F29  1  0.40208585  0.33916299  0.90806845  1
  F  F30  1  0.93707714  0.59791415  0.90806845  1
  F  F31  1  0.06633655  0.50252300  0.35631251  1
  F  F32  1  0.49747700  0.56381355  0.35631251  1
  F  F33  1  0.43618645  0.93366345  0.35631251  1
  F  F34  1  0.49747700  0.93366345  0.64368749  1
  F  F35  1  0.43618645  0.50252300  0.64368749  1
  F  F36  1  0.06633655  0.56381355  0.64368749  1
  F  F37  1  0.49840651  0.79587756  0.57370800  1
  F  F38  1  0.20412244  0.70252895  0.57370800  1
  F  F39  1  0.29747105  0.50159349  0.57370800  1
  F  F40  1  0.20412244  0.50159349  0.42629200  1
  F  F41  1  0.29747105  0.79587756  0.42629200  1
  F  F42  1  0.49840651  0.70252895  0.42629200  1
  F  F43  1  0.11177232  0.84017738  0.12632842  1
  F  F44  1  0.15982262  0.27159494  0.12632842  1
  F  F45  1  0.72840506  0.88822768  0.12632842  1
  F  F46  1  0.15982262  0.88822768  0.87367158  1
  F  F47  1  0.72840506  0.84017738  0.87367158  1
  F  F48  1  0.11177232  0.27159494  0.87367158  1
  F  F49  1  0.83669699  0.48748686  0.82840597  1
  F  F50  1  0.51251314  0.34921013  0.82840597  1
  F  F51  1  0.65078987  0.16330301  0.82840597  1
  F  F52  1  0.51251314  0.16330301  0.17159403  1
  F  F53  1  0.65078987  0.48748686  0.17159403  1
  F  F54  1  0.83669699  0.34921013  0.17159403  1
  F  F55  1  0.18727436  0.07792348  0.43196937  1
  F  F56  1  0.92207652  0.10935088  0.43196937  1
  F  F57  1  0.89064912  0.81272564  0.43196937  1
  F  F58  1  0.92207652  0.81272564  0.56803063  1
  F  F59  1  0.89064912  0.07792348  0.56803063  1
  F  F60  1  0.18727436  0.10935088  0.56803063  1
  F  F61  1  0.42932175  0.09221338  0.38623152  1
  F  F62  1  0.90778662  0.33710837  0.38623152  1
  F  F63  1  0.66289163  0.57067825  0.38623152  1
  F  F64  1  0.90778662  0.57067825  0.61376848  1
  F  F65  1  0.66289163  0.09221338  0.61376848  1
  F  F66  1  0.42932175  0.33710837  0.61376848  1
  F  F67  1  0.82354401  0.92893582  0.86367578  1
  F  F68  1  0.07106418  0.89460819  0.86367578  1
  F  F69  1  0.10539181  0.17645599  0.86367578  1
  F  F70  1  0.07106418  0.17645599  0.13632422  1
  F  F71  1  0.10539181  0.92893582  0.13632422  1
  F  F72  1  0.82354401  0.89460819  0.13632422  1
  F  F73  1  0.06318493  0.64391424  0.76773639  1
  F  F74  1  0.35608576  0.41927069  0.76773639  1
  F  F75  1  0.58072931  0.93681507  0.76773639  1
  F  F76  1  0.35608576  0.93681507  0.23226361  1
  F  F77  1  0.58072931  0.64391424  0.23226361  1
  F  F78  1  0.06318493  0.41927069  0.23226361  1
  F  F79  1  0.75166619  0.29692840  0.38662388  1
  F  F80  1  0.70307160  0.45473779  0.38662388  1
  F  F81  1  0.54526221  0.24833381  0.38662388  1
  F  F82  1  0.70307160  0.24833381  0.61337612  1
  F  F83  1  0.54526221  0.29692840  0.61337612  1
  F  F84  1  0.75166619  0.45473779  0.61337612  1
  F  F85  1  0.00000000  0.00000000  0.29748058  1
  F  F86  1  0.00000000  0.00000000  0.70251942  1
  Li  Li87  1  0.80124543  0.68525593  0.77713120  1
  Li  Li88  1  -0.68525593  0.11598950  0.77713120  1
  Li  Li89  1  -0.11598950  -0.80124543  0.77713120  1
  Li  Li90  1  -0.68525593  -0.80124543  -0.77713120  1
  Li  Li91  1  -0.11598950  0.68525593  -0.77713120  1
  Li  Li92  1  0.80124543  0.11598950  -0.77713120  1
  Li  Li93  1  0.00000000  0.00000000  0.77266022  1
  Li  Li94  1  0.00000000  0.00000000  0.22733978  1
  Li  Li95  1  0.66666667  0.33333333  0.36014848  1
  Li  Li96  1  0.66666667  0.33333333  0.63985152  1
  Li  Li97  1  0.63062735  0.36937265  0.50000000  1
  Li  Li98  1  0.63062735  0.26125470  0.50000000  1
  Li  Li99  1  0.73874530  0.36937265  0.50000000  1
  Li  Li100  1  0.89211717  0.33059612  0.79092471  1
  Li  Li101  1  0.66940388  0.56152104  0.79092471  1
  Li  Li102  1  0.43847896  0.10788283  0.79092471  1
  Li  Li103  1  0.66940388  0.10788283  0.20907529  1
  Li  Li104  1  0.43847896  0.33059612  0.20907529  1
  Li  Li105  1  0.89211717  0.56152104  0.20907529  1
  Li  Li106  1  0.42830655  0.96761933  0.79860889  1
  Li  Li107  1  0.03238067  0.46068722  0.79860889  1
  Li  Li108  1  0.53931278  0.57169345  0.79860889  1
  Li  Li109  1  0.03238067  0.57169345  0.20139111  1
  Li  Li110  1  0.53931278  0.96761933  0.20139111  1
  Li  Li111  1  0.42830655  0.46068722  0.20139111  1
  Li  Li112  1  0.25202269  0.74797731  0.50000000  1
  Li  Li113  1  0.25202269  0.50404537  0.50000000  1
  Li  Li114  1  0.49595463  0.74797731  0.50000000  1
  Li  Li115  1  0.66666667  0.33333333  0.05852925  1
  Li  Li116  1  0.66666667  0.33333333  0.94147075  1
  Li  Li117  1  0.33333333  0.66666667  -0.00000000  1
  Li  Li118  1  0.53317576  0.05999809  0.56885959  1
  Li  Li119  1  0.94000191  0.47317767  0.56885959  1
  Li  Li120  1  0.52682233  0.46682424  0.56885959  1
  Li  Li121  1  0.94000191  0.46682424  0.43114041  1
  Li  Li122  1  0.52682233  0.05999809  0.43114041  1
  Li  Li123  1  0.53317576  0.47317767  0.43114041  1
  Li  Li124  1  0.09750970  0.23768631  0.74470613  1
  Li  Li125  1  0.76231369  0.85982339  0.74470613  1
  Li  Li126  1  0.14017661  0.90249030  0.74470613  1
  Li  Li127  1  0.76231369  0.90249030  0.25529387  1
  Li  Li128  1  0.14017661  0.23768631  0.25529387  1
  Li  Li129  1  0.09750970  0.85982339  0.25529387  1
  Li  Li130  1  0.00000000  0.00000000  0.00000000  1
  Li  Li131  1  0.00000000  0.00000000  0.87557185  1
  Li  Li132  1  0.00000000  0.00000000  0.12442815  1
  Li  Li133  1  0.15957327  0.50418408  0.65726664  1
  Li  Li134  1  0.49581592  0.65538919  0.65726664  1
  Li  Li135  1  0.34461081  0.84042673  0.65726664  1
  Li  Li136  1  0.49581592  0.84042673  0.34273336  1
  Li  Li137  1  0.34461081  0.50418408  0.34273336  1
  Li  Li138  1  0.15957327  0.65538919  0.34273336  1
  Li  Li139  1  0.93916520  0.52556143  0.83956867  1
  Li  Li140  1  0.47443857  0.41360378  0.83956867  1
  Li  Li141  1  0.58639622  0.06083480  0.83956867  1
  Li  Li142  1  0.47443857  0.06083480  0.16043133  1
  Li  Li143  1  0.58639622  0.52556143  0.16043133  1
  Li  Li144  1  0.93916520  0.41360378  0.16043133  1
  Li  Li145  1  0.13307038  0.71320476  0.19046106  1
  Li  Li146  1  0.28679524  0.41986562  0.19046106  1
  Li  Li147  1  0.58013438  0.86692962  0.19046106  1
  Li  Li148  1  0.28679524  0.86692962  0.80953894  1
  Li  Li149  1  0.58013438  0.71320476  0.80953894  1
  Li  Li150  1  0.13307038  0.41986562  0.80953894  1
  Li  Li151  1  0.07822057  0.68297794  0.60774836  1
  Li  Li152  1  0.31702206  0.39524263  0.60774836  1
  Li  Li153  1  0.60475737  0.92177943  0.60774836  1
  Li  Li154  1  0.31702206  0.92177943  0.39225164  1
  Li  Li155  1  0.60475737  0.68297794  0.39225164  1
  Li  Li156  1  0.07822057  0.39524263  0.39225164  1
  Li  Li157  1  0.12875760  0.65289377  0.11255392  1
  Li  Li158  1  0.34710623  0.47586383  0.11255392  1
  Li  Li159  1  0.52413617  0.87124240  0.11255392  1
  Li  Li160  1  0.34710623  0.87124240  0.88744608  1
  Li  Li161  1  0.52413617  0.65289377  0.88744608  1
  Li  Li162  1  0.12875760  0.47586383  0.88744608  1
  Li  Li163  1  0.25061858  0.56063962  0.13732071  1
  Li  Li164  1  0.43936038  0.68997895  0.13732071  1
  Li  Li165  1  0.31002105  0.74938142  0.13732071  1
  Li  Li166  1  0.43936038  0.74938142  0.86267929  1
  Li  Li167  1  0.31002105  0.56063962  0.86267929  1
  Li  Li168  1  0.25061858  0.68997895  0.86267929  1
  Li  Li169  1  0.14017571  0.85982429  0.00000000  1
  Li  Li170  1  0.14017571  0.28035142  0.00000000  1
  Li  Li171  1  0.71964858  0.85982429  0.00000000  1
  Li  Li172  1  0.66666667  0.33333333  0.77694185  1
  Li  Li173  1  0.66666667  0.33333333  0.22305815  1
