# generated using pymatgen
data_LiCaF3
_symmetry_space_group_name_H-M   'P 1'
_cell_length_a   10.87721996
_cell_length_b   10.87721996
_cell_length_c   11.46114580
_cell_angle_alpha   90.00000000
_cell_angle_beta   90.00000000
_cell_angle_gamma   120.00000000
_symmetry_Int_Tables_number   1
_chemical_formula_structural   LiCaF3
_chemical_formula_sum   'Li18 Ca18 F54'
_cell_volume   1174.34172355
_cell_formula_units_Z   18
loop_
 _symmetry_equiv_pos_site_id
 _symmetry_equiv_pos_as_xyz
  1  'x, y, z'
loop_
 _atom_site_type_symbol
 _atom_site_label
 _atom_site_symmetry_multiplicity
 _atom_site_fract_x
 _atom_site_fract_y
 _atom_site_fract_z
 _atom_site_occupancy
  Ca  Ca0  1  0.50000000  0.00000000  0.00000000  1
  Ca  Ca1  1  0.00000000  0.50000000  0.00000000  1
  Ca  Ca2  1  0.50000000  0.50000000  0.00000000  1
  Ca  Ca3  1  0.00000000  0.50000000  0.50000000  1
  Ca  Ca4  1  0.50000000  0.00000000  0.50000000  1
  Ca  Ca5  1  0.50000000  0.50000000  0.50000000  1
  Ca  Ca6  1  0.16666667  0.33333333  0.33333333  1
  Ca  Ca7  1  0.66666667  0.83333333  0.33333333  1
  Ca  Ca8  1  0.16666667  0.83333333  0.33333333  1
  Ca  Ca9  1  0.66666667  0.83333333  0.83333333  1
  Ca  Ca10  1  0.16666667  0.33333333  0.83333333  1
  Ca  Ca11  1  0.16666667  0.83333333  0.83333333  1
  Ca  Ca12  1  0.83333333  0.66666667  0.66666667  1
  Ca  Ca13  1  0.33333333  0.16666667  0.66666667  1
  Ca  Ca14  1  0.83333333  0.16666667  0.66666667  1
  Ca  Ca15  1  0.33333333  0.16666667  0.16666667  1
  Ca  Ca16  1  0.83333333  0.66666667  0.16666667  1
  Ca  Ca17  1  0.83333333  0.16666667  0.16666667  1
  F  F18  1  0.90368609  0.52787728  0.94055124  1
  F  F19  1  -0.52787728  0.37580881  0.94055124  1
  F  F20  1  -0.37580881  -0.90368609  0.94055124  1
  F  F21  1  0.52787728  0.90368609  -0.44055124  1
  F  F22  1  0.37580881  -0.52787728  -0.44055124  1
  F  F23  1  -0.90368609  -0.37580881  -0.44055124  1
  F  F24  1  -0.90368609  -0.52787728  -0.94055124  1
  F  F25  1  0.52787728  -0.37580881  -0.94055124  1
  F  F26  1  0.37580881  0.90368609  -0.94055124  1
  F  F27  1  -0.52787728  -0.90368609  1.44055124  1
  F  F28  1  -0.37580881  0.52787728  1.44055124  1
  F  F29  1  0.90368609  0.37580881  1.44055124  1
  F  F30  1  1.57035276  0.86121061  1.27388457  1
  F  F31  1  0.13878939  0.70914214  1.27388457  1
  F  F32  1  0.29085786  -0.57035276  1.27388457  1
  F  F33  1  1.19454394  1.23701942  -0.10721790  1
  F  F34  1  1.04247548  -0.19454394  -0.10721790  1
  F  F35  1  -0.23701942  -0.04247548  -0.10721790  1
  F  F36  1  -0.23701942  -0.19454394  -0.60721790  1
  F  F37  1  1.19454394  -0.04247548  -0.60721790  1
  F  F38  1  1.04247548  1.23701942  -0.60721790  1
  F  F39  1  0.13878939  -0.57035276  1.77388457  1
  F  F40  1  0.29085786  0.86121061  1.77388457  1
  F  F41  1  1.57035276  0.70914214  1.77388457  1
  F  F42  1  1.23701942  1.19454394  1.60721790  1
  F  F43  1  -0.19454394  1.04247548  1.60721790  1
  F  F44  1  -0.04247548  -0.23701942  1.60721790  1
  F  F45  1  0.86121061  1.57035276  0.22611543  1
  F  F46  1  0.70914214  0.13878939  0.22611543  1
  F  F47  1  -0.57035276  0.29085786  0.22611543  1
  F  F48  1  -0.57035276  0.13878939  -0.27388457  1
  F  F49  1  0.86121061  0.29085786  -0.27388457  1
  F  F50  1  0.70914214  1.57035276  -0.27388457  1
  F  F51  1  -0.19454394  -0.23701942  2.10721790  1
  F  F52  1  -0.04247548  1.19454394  2.10721790  1
  F  F53  1  1.23701942  1.04247548  2.10721790  1
  F  F54  1  0.00000000  0.00000000  0.88549274  1
  F  F55  1  0.00000000  0.00000000  0.61450726  1
  F  F56  1  0.00000000  0.00000000  0.11450726  1
  F  F57  1  0.00000000  0.00000000  0.38549274  1
  F  F58  1  0.66666667  0.33333333  0.21882607  1
  F  F59  1  0.66666667  0.33333333  0.94784059  1
  F  F60  1  0.66666667  0.33333333  0.44784059  1
  F  F61  1  0.66666667  0.33333333  0.71882607  1
  F  F62  1  0.33333333  0.66666667  0.55215941  1
  F  F63  1  0.33333333  0.66666667  0.28117393  1
  F  F64  1  0.33333333  0.66666667  0.78117393  1
  F  F65  1  0.33333333  0.66666667  0.05215941  1
  F  F66  1  0.00000000  0.00000000  0.00000000  1
  F  F67  1  0.00000000  0.00000000  0.50000000  1
  F  F68  1  0.66666667  0.33333333  0.33333333  1
  F  F69  1  0.66666667  0.33333333  0.83333333  1
  F  F70  1  0.33333333  0.66666667  0.66666667  1
  F  F71  1  0.33333333  0.66666667  0.16666667  1
  Li  Li72  1  0.88161996  0.00000000  0.25000000  1
  Li  Li73  1  0.00000000  0.88161996  0.25000000  1
  Li  Li74  1  0.11838004  0.11838004  0.25000000  1
  Li  Li75  1  0.11838004  0.00000000  0.75000000  1
  Li  Li76  1  0.00000000  0.11838004  0.75000000  1
  Li  Li77  1  0.88161996  0.88161996  0.75000000  1
  Li  Li78  1  0.54828662  0.33333333  0.58333333  1
  Li  Li79  1  0.66666667  0.21495329  0.58333333  1
  Li  Li80  1  0.78504671  0.45171338  0.58333333  1
  Li  Li81  1  0.78504671  0.33333333  0.08333333  1
  Li  Li82  1  0.66666667  0.45171338  0.08333333  1
  Li  Li83  1  0.54828662  0.21495329  0.08333333  1
  Li  Li84  1  0.21495329  0.66666667  0.91666667  1
  Li  Li85  1  0.33333333  0.54828662  0.91666667  1
  Li  Li86  1  0.45171338  0.78504671  0.91666667  1
  Li  Li87  1  0.45171338  0.66666667  0.41666667  1
  Li  Li88  1  0.33333333  0.78504671  0.41666667  1
  Li  Li89  1  0.21495329  0.54828662  0.41666667  1
