# generated using pymatgen
data_LiF
_symmetry_space_group_name_H-M   'P 1'
_cell_length_a   6.57698128
_cell_length_b   12.06909282
_cell_length_c   8.96049071
_cell_angle_alpha   90.00000000
_cell_angle_beta   90.00000000
_cell_angle_gamma   90.00000000
_symmetry_Int_Tables_number   1
_chemical_formula_structural   LiF
_chemical_formula_sum   'Li34 F34'
_cell_volume   711.26760221
_cell_formula_units_Z   34
loop_
 _symmetry_equiv_pos_site_id
 _symmetry_equiv_pos_as_xyz
  1  'x, y, z'
loop_
 _atom_site_type_symbol
 _atom_site_label
 _atom_site_symmetry_multiplicity
 _atom_site_fract_x
 _atom_site_fract_y
 _atom_site_fract_z
 _atom_site_occupancy
  F  F0  1  0.00000000  0.00000000  0.50000000  1
  F  F1  1  0.50000000  0.50000000  0.50000000  1
  F  F2  1  0.59941044  0.75781702  -0.00000000  1
  F  F3  1  0.40058956  0.24218298  0.00000000  1
  F  F4  1  0.90058956  0.25781702  0.00000000  1
  F  F5  1  0.09941044  0.74218298  0.00000000  1
  F  F6  1  0.07269287  0.64146964  0.88340761  1
  F  F7  1  0.92730713  0.35853036  0.88340761  1
  F  F8  1  0.42730713  0.14146964  0.11659239  1
  F  F9  1  0.57269287  0.85853036  0.11659239  1
  F  F10  1  0.92730713  0.35853036  0.11659239  1
  F  F11  1  0.07269287  0.64146964  0.11659239  1
  F  F12  1  0.57269287  0.85853036  0.88340761  1
  F  F13  1  0.42730713  0.14146964  0.88340761  1
  F  F14  1  0.69465510  0.12150980  0.21782067  1
  F  F15  1  0.30534490  0.87849020  0.21782067  1
  F  F16  1  0.80534490  0.62150980  0.78217933  1
  F  F17  1  0.19465510  0.37849020  0.78217933  1
  F  F18  1  0.30534490  0.87849020  0.78217933  1
  F  F19  1  0.69465510  0.12150980  0.78217933  1
  F  F20  1  0.19465510  0.37849020  0.21782067  1
  F  F21  1  0.80534490  0.62150980  0.21782067  1
  F  F22  1  0.86615212  0.66840453  0.43674983  1
  F  F23  1  0.13384788  0.33159547  0.43674983  1
  F  F24  1  0.63384788  0.16840453  0.56325017  1
  F  F25  1  0.36615212  0.83159547  0.56325017  1
  F  F26  1  0.13384788  0.33159547  0.56325017  1
  F  F27  1  0.86615212  0.66840453  0.56325017  1
  F  F28  1  0.36615212  0.83159547  0.43674983  1
  F  F29  1  0.63384788  0.16840453  0.43674983  1
  F  F30  1  0.00000000  0.00000000  0.72160076  1
  F  F31  1  0.50000000  0.50000000  0.27839924  1
  F  F32  1  0.00000000  0.00000000  0.27839924  1
  F  F33  1  0.50000000  0.50000000  0.72160076  1
  Li  Li34  1  0.00000000  0.50000000  0.00000000  1
  Li  Li35  1  0.50000000  0.00000000  0.00000000  1
  Li  Li36  1  0.39083095  0.56502525  0.50000000  1
  Li  Li37  1  0.60916905  0.43497475  0.50000000  1
  Li  Li38  1  0.10916905  0.06502525  0.50000000  1
  Li  Li39  1  0.89083095  0.93497475  0.50000000  1
  Li  Li40  1  0.44221031  0.14098597  0.62431479  1
  Li  Li41  1  -0.44221031  -0.14098597  0.62431479  1
  Li  Li42  1  0.05778969  0.64098597  -0.62431479  1
  Li  Li43  1  0.94221031  0.35901403  -0.62431479  1
  Li  Li44  1  -0.44221031  -0.14098597  -0.62431479  1
  Li  Li45  1  0.44221031  0.14098597  -0.62431479  1
  Li  Li46  1  0.94221031  0.35901403  0.62431479  1
  Li  Li47  1  0.05778969  0.64098597  0.62431479  1
  Li  Li48  1  0.60847910  0.71540162  0.74869704  1
  Li  Li49  1  0.39152090  0.28459838  0.74869704  1
  Li  Li50  1  0.89152090  0.21540162  0.25130296  1
  Li  Li51  1  0.10847910  0.78459838  0.25130296  1
  Li  Li52  1  0.39152090  0.28459838  0.25130296  1
  Li  Li53  1  0.60847910  0.71540162  0.25130296  1
  Li  Li54  1  0.10847910  0.78459838  0.74869704  1
  Li  Li55  1  0.89152090  0.21540162  0.74869704  1
  Li  Li56  1  0.00000000  0.50000000  0.50000000  1
  Li  Li57  1  0.50000000  0.00000000  0.50000000  1
  Li  Li58  1  0.00000000  0.00000000  0.00000000  1
  Li  Li59  1  0.50000000  0.50000000  0.00000000  1
  Li  Li60  1  0.00000000  0.50000000  0.31917288  1
  Li  Li61  1  0.50000000  0.00000000  0.68082712  1
  Li  Li62  1  0.00000000  0.50000000  0.68082712  1
  Li  Li63  1  0.50000000  0.00000000  0.31917288  1
  Li  Li64  1  0.30156055  0.33568000  0.50000000  1
  Li  Li65  1  0.69843945  0.66432000  0.50000000  1
  Li  Li66  1  0.19843945  0.83568000  0.50000000  1
  Li  Li67  1  0.80156055  0.16432000  0.50000000  1
