# generated using pymatgen
data_LiAlOF
_symmetry_space_group_name_H-M   'P 1'
_cell_length_a   3.30158547
_cell_length_b   2.82967744
_cell_length_c   5.18757709
_cell_angle_alpha   99.28220299
_cell_angle_beta   97.66033809
_cell_angle_gamma   93.00174249
_symmetry_Int_Tables_number   1
_chemical_formula_structural   LiAlOF
_chemical_formula_sum   'Li1 Al1 O1 F1'
_cell_volume   47.26771024
_cell_formula_units_Z   1
loop_
 _symmetry_equiv_pos_site_id
 _symmetry_equiv_pos_as_xyz
  1  'x, y, z'
loop_
 _atom_site_type_symbol
 _atom_site_label
 _atom_site_symmetry_multiplicity
 _atom_site_fract_x
 _atom_site_fract_y
 _atom_site_fract_z
 _atom_site_occupancy
  F  F0  1  0.12500000  0.00000000  0.25000000  1
  Al  Al1  1  0.00000000  0.00000000  0.00000000  1
  Li  Li2  1  0.37500000  0.00000000  0.25000000  1
  O  O3  1  0.25000000  0.25000000  0.25000000  1
