# generated using pymatgen
data_LiF
_symmetry_space_group_name_H-M   'P 1'
_cell_length_a   13.56226391
_cell_length_b   5.27828025
_cell_length_c   8.28504789
_cell_angle_alpha   90.00000000
_cell_angle_beta   90.00000000
_cell_angle_gamma   90.00000000
_symmetry_Int_Tables_number   1
_chemical_formula_structural   LiF
_chemical_formula_sum   'Li24 F24'
_cell_volume   593.08871395
_cell_formula_units_Z   24
loop_
 _symmetry_equiv_pos_site_id
 _symmetry_equiv_pos_as_xyz
  1  'x, y, z'
loop_
 _atom_site_type_symbol
 _atom_site_label
 _atom_site_symmetry_multiplicity
 _atom_site_fract_x
 _atom_site_fract_y
 _atom_site_fract_z
 _atom_site_occupancy
  F  F0  1  0.00072013  0.36106420  0.39195550  1
  F  F1  1  0.49927987  0.63893580  0.89195550  1
  F  F2  1  0.99927987  0.86106420  0.60804450  1
  F  F3  1  0.50072013  0.13893580  0.10804450  1
  F  F4  1  0.99927987  0.63893580  0.60804450  1
  F  F5  1  0.50072013  0.36106420  0.10804450  1
  F  F6  1  0.00072013  0.13893580  0.39195550  1
  F  F7  1  0.49927987  0.86106420  0.89195550  1
  F  F8  1  0.64086521  0.37267077  0.93935732  1
  F  F9  1  0.85913479  0.62732923  0.43935732  1
  F  F10  1  0.35913479  0.87267077  0.06064268  1
  F  F11  1  0.14086521  0.12732923  0.56064268  1
  F  F12  1  0.35913479  0.62732923  0.06064268  1
  F  F13  1  0.14086521  0.37267077  0.56064268  1
  F  F14  1  0.64086521  0.12732923  0.93935732  1
  F  F15  1  0.85913479  0.87267077  0.43935732  1
  F  F16  1  0.66112063  0.91631124  0.85482869  1
  F  F17  1  0.83887937  0.08368876  0.35482869  1
  F  F18  1  0.33887937  0.41631124  0.14517131  1
  F  F19  1  0.16112063  0.58368876  0.64517131  1
  F  F20  1  0.33887937  0.08368876  0.14517131  1
  F  F21  1  0.16112063  0.91631124  0.64517131  1
  F  F22  1  0.66112063  0.58368876  0.85482869  1
  F  F23  1  0.83887937  0.41631124  0.35482869  1
  Li  Li24  1  0.67856545  0.25000000  0.67241954  1
  Li  Li25  1  0.82143455  0.75000000  0.17241954  1
  Li  Li26  1  0.32143455  0.75000000  0.32758046  1
  Li  Li27  1  0.17856545  0.25000000  0.82758046  1
  Li  Li28  1  0.00000000  0.00000000  0.00000000  1
  Li  Li29  1  0.50000000  0.00000000  0.50000000  1
  Li  Li30  1  0.00000000  0.50000000  0.00000000  1
  Li  Li31  1  0.50000000  0.50000000  0.50000000  1
  Li  Li32  1  0.85256968  0.09061368  0.59591743  1
  Li  Li33  1  -0.35256968  -0.09061368  1.09591743  1
  Li  Li34  1  -0.85256968  0.59061368  -0.59591743  1
  Li  Li35  1  1.35256968  0.40938632  -0.09591743  1
  Li  Li36  1  -0.85256968  -0.09061368  -0.59591743  1
  Li  Li37  1  1.35256968  0.09061368  -0.09591743  1
  Li  Li38  1  0.85256968  0.40938632  0.59591743  1
  Li  Li39  1  -0.35256968  0.59061368  1.09591743  1
  Li  Li40  1  0.00000000  0.00000000  0.50000000  1
  Li  Li41  1  0.50000000  0.00000000  0.00000000  1
  Li  Li42  1  0.00000000  0.50000000  0.50000000  1
  Li  Li43  1  0.50000000  0.50000000  -0.00000000  1
  Li  Li44  1  0.18452504  0.25000000  0.36037291  1
  Li  Li45  1  0.31547496  0.75000000  0.86037291  1
  Li  Li46  1  0.81547496  0.75000000  0.63962709  1
  Li  Li47  1  0.68452504  0.25000000  0.13962709  1
