# generated using pymatgen
data_LiPO3
_symmetry_space_group_name_H-M   'P 1'
_cell_length_a   16.93101749
_cell_length_b   16.93101749
_cell_length_c   7.70181992
_cell_angle_alpha   90.00000000
_cell_angle_beta   90.00000000
_cell_angle_gamma   120.00000000
_symmetry_Int_Tables_number   1
_chemical_formula_structural   LiPO3
_chemical_formula_sum   'Li24 P24 O72'
_cell_volume   1912.00977485
_cell_formula_units_Z   24
loop_
 _symmetry_equiv_pos_site_id
 _symmetry_equiv_pos_as_xyz
  1  'x, y, z'
loop_
 _atom_site_type_symbol
 _atom_site_label
 _atom_site_symmetry_multiplicity
 _atom_site_fract_x
 _atom_site_fract_y
 _atom_site_fract_z
 _atom_site_occupancy
  Li  Li0  1  0.46920060  0.00775206  0.27661358  1
  Li  Li1  1  0.99224794  0.46144855  0.27661358  1
  Li  Li2  1  0.53855145  0.53079940  0.27661358  1
  Li  Li3  1  0.99224794  0.53079940  0.72338642  1
  Li  Li4  1  0.53855145  0.00775206  0.72338642  1
  Li  Li5  1  0.46920060  0.46144855  0.72338642  1
  Li  Li6  1  0.31829330  0.70424231  0.37818764  1
  Li  Li7  1  0.29575769  0.61405098  0.37818764  1
  Li  Li8  1  0.38594902  0.68170670  0.37818764  1
  Li  Li9  1  0.29575769  0.68170670  0.62181236  1
  Li  Li10  1  0.38594902  0.70424231  0.62181236  1
  Li  Li11  1  0.31829330  0.61405098  0.62181236  1
  Li  Li12  1  0.20957033  0.79042967  0.00000000  1
  Li  Li13  1  0.20957033  0.41914065  0.00000000  1
  Li  Li14  1  0.58085935  0.79042967  0.00000000  1
  Li  Li15  1  0.30845094  0.89946605  0.87972985  1
  Li  Li16  1  0.10053395  0.40898489  0.87972985  1
  Li  Li17  1  0.59101511  0.69154906  0.87972985  1
  Li  Li18  1  0.10053395  0.69154906  0.12027015  1
  Li  Li19  1  0.59101511  0.89946605  0.12027015  1
  Li  Li20  1  0.30845094  0.40898489  0.12027015  1
  Li  Li21  1  0.76163087  0.23836913  0.50000000  1
  Li  Li22  1  0.76163087  0.52326174  0.50000000  1
  Li  Li23  1  0.47673826  0.23836913  0.50000000  1
  O  O24  1  0.66666667  0.33333333  0.50000000  1
  O  O25  1  0.66666667  0.33333333  0.00000000  1
  O  O26  1  0.46682963  0.33362912  0.48613185  1
  O  O27  1  0.66637088  0.13320051  0.48613185  1
  O  O28  1  0.86679949  0.53317037  0.48613185  1
  O  O29  1  0.66637088  0.53317037  0.51386815  1
  O  O30  1  0.86679949  0.33362912  0.51386815  1
  O  O31  1  0.46682963  0.13320051  0.51386815  1
  O  O32  1  0.29472721  0.40671040  0.40459205  1
  O  O33  1  0.59328960  0.88801681  0.40459205  1
  O  O34  1  0.11198319  0.70527279  0.40459205  1
  O  O35  1  0.59328960  0.70527279  0.59540795  1
  O  O36  1  0.11198319  0.40671040  0.59540795  1
  O  O37  1  0.29472721  0.88801681  0.59540795  1
  O  O38  1  0.66666667  0.33333333  0.36591801  1
  O  O39  1  0.66666667  0.33333333  0.63408199  1
  O  O40  1  0.68506151  0.07550466  0.10495815  1
  O  O41  1  0.92449534  0.60955685  0.10495815  1
  O  O42  1  0.39044315  0.31493849  0.10495815  1
  O  O43  1  0.92449534  0.31493849  0.89504185  1
  O  O44  1  0.39044315  0.07550466  0.89504185  1
  O  O45  1  0.68506151  0.60955685  0.89504185  1
  O  O46  1  0.03216119  0.37480775  0.41547416  1
  O  O47  1  0.62519225  0.65735344  0.41547416  1
  O  O48  1  0.34264656  0.96783881  0.41547416  1
  O  O49  1  0.62519225  0.96783881  0.58452584  1
  O  O50  1  0.34264656  0.37480775  0.58452584  1
  O  O51  1  0.03216119  0.65735344  0.58452584  1
  O  O52  1  0.55673203  0.61681172  0.33230873  1
  O  O53  1  0.38318828  0.93992030  0.33230873  1
  O  O54  1  0.06007970  0.44326797  0.33230873  1
  O  O55  1  0.38318828  0.44326797  0.66769127  1
  O  O56  1  0.06007970  0.61681172  0.66769127  1
  O  O57  1  0.55673203  0.93992030  0.66769127  1
  O  O58  1  0.93656901  0.29393852  0.04393776  1
  O  O59  1  0.70606148  0.64263049  0.04393776  1
  O  O60  1  0.35736951  0.06343099  0.04393776  1
  O  O61  1  0.70606148  0.06343099  0.95606224  1
  O  O62  1  0.35736951  0.29393852  0.95606224  1
  O  O63  1  0.93656901  0.64263049  0.95606224  1
  O  O64  1  0.57331336  0.36095912  0.12566585  1
  O  O65  1  0.63904088  0.21235424  0.12566585  1
  O  O66  1  0.78764576  0.42668664  0.12566585  1
  O  O67  1  0.63904088  0.42668664  0.87433415  1
  O  O68  1  0.78764576  0.36095912  0.87433415  1
  O  O69  1  0.57331336  0.21235424  0.87433415  1
  O  O70  1  0.26594248  0.82983641  0.89782627  1
  O  O71  1  0.17016359  0.43610607  0.89782627  1
  O  O72  1  0.56389393  0.73405752  0.89782627  1
  O  O73  1  0.17016359  0.73405752  0.10217373  1
  O  O74  1  0.56389393  0.82983641  0.10217373  1
  O  O75  1  0.26594248  0.43610607  0.10217373  1
  O  O76  1  0.82561047  0.75874802  0.95454933  1
  O  O77  1  0.24125198  0.06686244  0.95454933  1
  O  O78  1  0.93313756  0.17438953  0.95454933  1
  O  O79  1  0.24125198  0.17438953  0.04545067  1
  O  O80  1  0.93313756  0.75874802  0.04545067  1
  O  O81  1  0.82561047  0.06686244  0.04545067  1
  O  O82  1  0.30056533  0.69943467  0.00000000  1
  O  O83  1  0.30056533  0.60113066  0.00000000  1
  O  O84  1  0.39886934  0.69943467  0.00000000  1
  O  O85  1  0.43651473  0.64749374  0.59618035  1
  O  O86  1  0.35250626  0.78902098  0.59618035  1
  O  O87  1  0.21097902  0.56348527  0.59618035  1
  O  O88  1  0.35250626  0.56348527  0.40381965  1
  O  O89  1  0.21097902  0.64749374  0.40381965  1
  O  O90  1  0.43651473  0.78902098  0.40381965  1
  O  O91  1  0.40759083  0.59240917  0.50000000  1
  O  O92  1  0.40759083  0.81518167  0.50000000  1
  O  O93  1  0.18481833  0.59240917  0.50000000  1
  O  O94  1  0.33333333  0.66666667  0.70857861  1
  O  O95  1  0.33333333  0.66666667  0.29142139  1
  P  P96  1  0.33333333  0.66666667  0.00000000  1
  P  P97  1  0.00000000  0.00000000  0.50000000  1
  P  P98  1  0.55511270  0.68301215  0.74368852  1
  P  P99  1  -0.68301215  -0.12789945  0.74368852  1
  P  P100  1  0.12789945  -0.55511270  0.74368852  1
  P  P101  1  -0.68301215  -0.55511270  -0.74368852  1
  P  P102  1  0.12789945  0.68301215  -0.74368852  1
  P  P103  1  0.55511270  -0.12789945  -0.74368852  1
  P  P104  1  0.26797629  0.45510252  0.83399542  1
  P  P105  1  0.54489748  0.81287377  0.83399542  1
  P  P106  1  0.18712623  0.73202371  0.83399542  1
  P  P107  1  0.54489748  0.73202371  0.16600458  1
  P  P108  1  0.18712623  0.45510252  0.16600458  1
  P  P109  1  0.26797629  0.81287377  0.16600458  1
  P  P110  1  0.49550671  0.50449329  0.00000000  1
  P  P111  1  0.49550671  0.99101342  0.00000000  1
  P  P112  1  0.00898658  0.50449329  0.00000000  1
  P  P113  1  0.01982463  0.86764021  0.68248859  1
  P  P114  1  0.13235979  0.15218442  0.68248859  1
  P  P115  1  0.84781558  0.98017537  0.68248859  1
  P  P116  1  0.13235979  0.98017537  0.31751141  1
  P  P117  1  0.84781558  0.86764021  0.31751141  1
  P  P118  1  0.01982463  0.15218442  0.31751141  1
  P  P119  1  0.33333333  0.66666667  0.50000000  1
