# generated using pymatgen
data_Li2Y2Cu3P2Se
_symmetry_space_group_name_H-M   'P 1'
_cell_length_a   5.14374657
_cell_length_b   5.49294454
_cell_length_c   6.89860665
_cell_angle_alpha   94.39949864
_cell_angle_beta   98.23272222
_cell_angle_gamma   104.42509659
_symmetry_Int_Tables_number   1
_chemical_formula_structural   Li2Y2Cu3P2Se
_chemical_formula_sum   'Li2 Y2 Cu3 P2 Se1'
_cell_volume   185.53656542
_cell_formula_units_Z   1
loop_
 _symmetry_equiv_pos_site_id
 _symmetry_equiv_pos_as_xyz
  1  'x, y, z'
loop_
 _atom_site_type_symbol
 _atom_site_label
 _atom_site_symmetry_multiplicity
 _atom_site_fract_x
 _atom_site_fract_y
 _atom_site_fract_z
 _atom_site_occupancy
  Se  Se0  1  0.00000000  0.00000000  0.00000000  1
  Cu  Cu1  1  0.50000000  0.50000000  0.50000000  1
  Cu  Cu2  1  0.50000000  0.50000000  0.00000000  1
  Cu  Cu3  1  0.50000000  0.00000000  0.50000000  1
  Y  Y4  1  0.00000000  0.50000000  0.50000000  1
  Y  Y5  1  0.05494418  0.19436611  0.94102074  1
  P  P6  1  0.13715147  0.81895788  0.57849055  1
  P  P7  1  0.09081623  0.28645940  0.55292247  1
  Li  Li8  1  0.58558038  0.13026767  0.26420650  1
  Li  Li9  1  0.21203976  0.19829214  0.86496561  1
