# generated using pymatgen
data_Li2Y2P3Se2
_symmetry_space_group_name_H-M   'P 1'
_cell_length_a   4.08229485
_cell_length_b   4.36769858
_cell_length_c   6.81572945
_cell_angle_alpha   96.38125782
_cell_angle_beta   103.89705289
_cell_angle_gamma   115.63097647
_symmetry_Int_Tables_number   1
_chemical_formula_structural   Li2Y2P3Se2
_chemical_formula_sum   'Li2 Y2 P3 Se2'
_cell_volume   103.10018008
_cell_formula_units_Z   1
loop_
 _symmetry_equiv_pos_site_id
 _symmetry_equiv_pos_as_xyz
  1  'x, y, z'
loop_
 _atom_site_type_symbol
 _atom_site_label
 _atom_site_symmetry_multiplicity
 _atom_site_fract_x
 _atom_site_fract_y
 _atom_site_fract_z
 _atom_site_occupancy
  Y  Y0  1  0.12500000  0.12500000  0.12500000  1
  Y  Y1  1  0.50000000  0.50000000  0.50000000  1
  P  P2  1  0.25000000  0.25000000  0.25000000  1
  P  P3  1  0.75000000  0.75000000  0.75000000  1
  P  P4  1  0.84283453  0.19817403  0.02487409  1
  Se  Se5  1  0.47819140  0.68361140  0.11549747  1
  Se  Se6  1  0.25574525  0.62972390  0.31754029  1
  Li  Li7  1  0.27841770  0.45965948  0.22495502  1
  Li  Li8  1  0.21857144  0.38413443  0.60566057  1
