# generated using pymatgen
data_LiF
_symmetry_space_group_name_H-M   'P 1'
_cell_length_a   20.59318300
_cell_length_b   20.59318300
_cell_length_c   2.83728380
_cell_angle_alpha   90.00000000
_cell_angle_beta   90.00000000
_cell_angle_gamma   120.00000000
_symmetry_Int_Tables_number   1
_chemical_formula_structural   LiF
_chemical_formula_sum   'Li38 F38'
_cell_volume   1042.03034680
_cell_formula_units_Z   38
loop_
 _symmetry_equiv_pos_site_id
 _symmetry_equiv_pos_as_xyz
  1  'x, y, z'
loop_
 _atom_site_type_symbol
 _atom_site_label
 _atom_site_symmetry_multiplicity
 _atom_site_fract_x
 _atom_site_fract_y
 _atom_site_fract_z
 _atom_site_occupancy
  F  F0  1  0.72660865  0.31955891  0.25000000  1
  F  F1  1  0.68044109  0.40704975  0.25000000  1
  F  F2  1  0.59295025  0.27339135  0.25000000  1
  F  F3  1  0.27339135  0.68044109  0.75000000  1
  F  F4  1  0.31955891  0.59295025  0.75000000  1
  F  F5  1  0.40704975  0.72660865  0.75000000  1
  F  F6  1  0.31955891  0.72660865  0.75000000  1
  F  F7  1  0.40704975  0.68044109  0.75000000  1
  F  F8  1  0.27339135  0.59295025  0.75000000  1
  F  F9  1  0.68044109  0.27339135  0.25000000  1
  F  F10  1  0.59295025  0.31955891  0.25000000  1
  F  F11  1  0.72660865  0.40704975  0.25000000  1
  F  F12  1  0.43770087  0.87540174  0.61566540  1
  F  F13  1  0.12459826  0.56229913  0.61566540  1
  F  F14  1  0.43770087  0.56229913  0.61566540  1
  F  F15  1  0.56229913  0.12459826  0.11566540  1
  F  F16  1  0.87540174  0.43770087  0.11566540  1
  F  F17  1  0.56229913  0.43770087  0.11566540  1
  F  F18  1  0.87540174  0.43770087  0.38433460  1
  F  F19  1  0.56229913  0.12459826  0.38433460  1
  F  F20  1  0.56229913  0.43770087  0.38433460  1
  F  F21  1  0.12459826  0.56229913  0.88433460  1
  F  F22  1  0.43770087  0.87540174  0.88433460  1
  F  F23  1  0.43770087  0.56229913  0.88433460  1
  F  F24  1  0.33333333  0.66666667  0.25000000  1
  F  F25  1  0.66666667  0.33333333  0.75000000  1
  F  F26  1  0.75843429  0.43002133  0.25000000  1
  F  F27  1  0.56997867  0.32841297  0.25000000  1
  F  F28  1  0.67158703  0.24156571  0.25000000  1
  F  F29  1  0.24156571  0.56997867  0.75000000  1
  F  F30  1  0.43002133  0.67158703  0.75000000  1
  F  F31  1  0.32841297  0.75843429  0.75000000  1
  F  F32  1  0.43002133  0.75843429  0.75000000  1
  F  F33  1  0.32841297  0.56997867  0.75000000  1
  F  F34  1  0.24156571  0.67158703  0.75000000  1
  F  F35  1  0.56997867  0.24156571  0.25000000  1
  F  F36  1  0.67158703  0.43002133  0.25000000  1
  F  F37  1  0.75843429  0.32841297  0.25000000  1
  Li  Li38  1  0.20514994  0.97443636  0.25000000  1
  Li  Li39  1  -0.97443636  -0.76928642  0.25000000  1
  Li  Li40  1  0.76928642  -0.20514994  0.25000000  1
  Li  Li41  1  -0.20514994  -0.97443636  0.75000000  1
  Li  Li42  1  0.97443636  0.76928642  0.75000000  1
  Li  Li43  1  -0.76928642  0.20514994  0.75000000  1
  Li  Li44  1  0.97443636  0.20514994  0.75000000  1
  Li  Li45  1  -0.76928642  -0.97443636  0.75000000  1
  Li  Li46  1  -0.20514994  0.76928642  0.75000000  1
  Li  Li47  1  -0.97443636  -0.20514994  0.25000000  1
  Li  Li48  1  0.76928642  0.97443636  0.25000000  1
  Li  Li49  1  0.20514994  -0.76928642  0.25000000  1
  Li  Li50  1  0.24489012  0.18401670  0.25000000  1
  Li  Li51  1  0.81598330  0.06087343  0.25000000  1
  Li  Li52  1  0.93912657  0.75510988  0.25000000  1
  Li  Li53  1  0.75510988  0.81598330  0.75000000  1
  Li  Li54  1  0.18401670  0.93912657  0.75000000  1
  Li  Li55  1  0.06087343  0.24489012  0.75000000  1
  Li  Li56  1  0.18401670  0.24489012  0.75000000  1
  Li  Li57  1  0.06087343  0.81598330  0.75000000  1
  Li  Li58  1  0.75510988  0.93912657  0.75000000  1
  Li  Li59  1  0.81598330  0.75510988  0.25000000  1
  Li  Li60  1  0.93912657  0.18401670  0.25000000  1
  Li  Li61  1  0.24489012  0.06087343  0.25000000  1
  Li  Li62  1  0.87525811  0.84903251  0.25000000  1
  Li  Li63  1  0.15096749  0.02622560  0.25000000  1
  Li  Li64  1  0.97377440  0.12474189  0.25000000  1
  Li  Li65  1  0.12474189  0.15096749  0.75000000  1
  Li  Li66  1  0.84903251  0.97377440  0.75000000  1
  Li  Li67  1  0.02622560  0.87525811  0.75000000  1
  Li  Li68  1  0.84903251  0.87525811  0.75000000  1
  Li  Li69  1  0.02622560  0.15096749  0.75000000  1
  Li  Li70  1  0.12474189  0.97377440  0.75000000  1
  Li  Li71  1  0.15096749  0.12474189  0.25000000  1
  Li  Li72  1  0.97377440  0.84903251  0.25000000  1
  Li  Li73  1  0.87525811  0.02622560  0.25000000  1
  Li  Li74  1  0.00000000  0.00000000  0.25000000  1
  Li  Li75  1  0.00000000  0.00000000  0.75000000  1
