# generated using pymatgen
data_LiF
_symmetry_space_group_name_H-M   'P 1'
_cell_length_a   11.69946525
_cell_length_b   13.94063308
_cell_length_c   13.99254247
_cell_angle_alpha   90.00000000
_cell_angle_beta   90.00000000
_cell_angle_gamma   90.00000000
_symmetry_Int_Tables_number   1
_chemical_formula_structural   LiF
_chemical_formula_sum   'Li80 F80'
_cell_volume   2282.15502456
_cell_formula_units_Z   80
loop_
 _symmetry_equiv_pos_site_id
 _symmetry_equiv_pos_as_xyz
  1  'x, y, z'
loop_
 _atom_site_type_symbol
 _atom_site_label
 _atom_site_symmetry_multiplicity
 _atom_site_fract_x
 _atom_site_fract_y
 _atom_site_fract_z
 _atom_site_occupancy
  F  F0  1  0.00000000  0.00000000  0.50000000  1
  F  F1  1  0.50000000  -0.00000000  -0.00000000  1
  F  F2  1  0.00000000  0.50000000  0.50000000  1
  F  F3  1  0.50000000  0.50000000  0.00000000  1
  F  F4  1  0.95615054  0.96837571  0.36597126  1
  F  F5  1  0.54384946  0.03162429  0.86597126  1
  F  F6  1  0.04384946  0.46837571  0.63402874  1
  F  F7  1  0.45615054  0.53162429  0.13402874  1
  F  F8  1  0.04384946  0.03162429  0.63402874  1
  F  F9  1  0.45615054  0.96837571  0.13402874  1
  F  F10  1  0.95615054  0.53162429  0.36597126  1
  F  F11  1  0.54384946  0.46837571  0.86597126  1
  F  F12  1  0.74562272  0.50896567  0.53522843  1
  F  F13  1  0.75437728  0.49103433  0.03522843  1
  F  F14  1  0.25437728  0.00896567  0.46477157  1
  F  F15  1  0.24562272  0.99103433  0.96477157  1
  F  F16  1  0.25437728  0.49103433  0.46477157  1
  F  F17  1  0.24562272  0.50896567  0.96477157  1
  F  F18  1  0.74562272  0.99103433  0.53522843  1
  F  F19  1  0.75437728  0.00896567  0.03522843  1
  F  F20  1  0.22925509  0.25000000  0.98069870  1
  F  F21  1  0.27074491  0.75000000  0.48069870  1
  F  F22  1  0.77074491  0.75000000  0.01930130  1
  F  F23  1  0.72925509  0.25000000  0.51930130  1
  F  F24  1  0.04152917  0.86664640  0.38425527  1
  F  F25  1  0.45847083  0.13335360  0.88425527  1
  F  F26  1  0.95847083  0.36664640  0.61574473  1
  F  F27  1  0.54152917  0.63335360  0.11574473  1
  F  F28  1  0.95847083  0.13335360  0.61574473  1
  F  F29  1  0.54152917  0.86664640  0.11574473  1
  F  F30  1  0.04152917  0.63335360  0.38425527  1
  F  F31  1  0.45847083  0.36664640  0.88425527  1
  F  F32  1  0.83555985  0.70428521  0.40700805  1
  F  F33  1  0.66444015  0.29571479  0.90700805  1
  F  F34  1  0.16444015  0.20428521  0.59299195  1
  F  F35  1  0.33555985  0.79571479  0.09299195  1
  F  F36  1  0.16444015  0.29571479  0.59299195  1
  F  F37  1  0.33555985  0.70428521  0.09299195  1
  F  F38  1  0.83555985  0.79571479  0.40700805  1
  F  F39  1  0.66444015  0.20428521  0.90700805  1
  F  F40  1  0.89560684  0.06765704  0.50952169  1
  F  F41  1  0.60439316  0.93234296  0.00952169  1
  F  F42  1  0.10439316  0.56765704  0.49047831  1
  F  F43  1  0.39560684  0.43234296  0.99047831  1
  F  F44  1  0.10439316  0.93234296  0.49047831  1
  F  F45  1  0.39560684  0.06765704  0.99047831  1
  F  F46  1  0.89560684  0.43234296  0.50952169  1
  F  F47  1  0.60439316  0.56765704  0.00952169  1
  F  F48  1  0.47458082  0.87788364  0.42906635  1
  F  F49  1  0.02541918  0.12211636  0.92906635  1
  F  F50  1  0.52541918  0.37788364  0.57093365  1
  F  F51  1  0.97458082  0.62211636  0.07093365  1
  F  F52  1  0.52541918  0.12211636  0.57093365  1
  F  F53  1  0.97458082  0.87788364  0.07093365  1
  F  F54  1  0.47458082  0.62211636  0.42906635  1
  F  F55  1  0.02541918  0.37788364  0.92906635  1
  F  F56  1  0.06870506  0.81870897  0.41663608  1
  F  F57  1  0.43129494  0.18129103  0.91663608  1
  F  F58  1  0.93129494  0.31870897  0.58336392  1
  F  F59  1  0.56870506  0.68129103  0.08336392  1
  F  F60  1  0.93129494  0.18129103  0.58336392  1
  F  F61  1  0.56870506  0.81870897  0.08336392  1
  F  F62  1  0.06870506  0.68129103  0.41663608  1
  F  F63  1  0.43129494  0.31870897  0.91663608  1
  F  F64  1  0.91312403  0.09722592  0.54861860  1
  F  F65  1  0.58687597  0.90277408  0.04861860  1
  F  F66  1  0.08687597  0.59722592  0.45138140  1
  F  F67  1  0.41312403  0.40277408  0.95138140  1
  F  F68  1  0.08687597  0.90277408  0.45138140  1
  F  F69  1  0.41312403  0.09722592  0.95138140  1
  F  F70  1  0.91312403  0.40277408  0.54861860  1
  F  F71  1  0.58687597  0.59722592  0.04861860  1
  F  F72  1  0.76924294  0.31387916  0.71475544  1
  F  F73  1  0.73075706  0.68612084  0.21475544  1
  F  F74  1  0.23075706  0.81387916  0.28524456  1
  F  F75  1  0.26924294  0.18612084  0.78524456  1
  F  F76  1  0.23075706  0.68612084  0.28524456  1
  F  F77  1  0.26924294  0.31387916  0.78524456  1
  F  F78  1  0.76924294  0.18612084  0.71475544  1
  F  F79  1  0.73075706  0.81387916  0.21475544  1
  Li  Li80  1  0.69226027  0.49557621  0.17531497  1
  Li  Li81  1  -0.19226027  -0.49557621  0.67531497  1
  Li  Li82  1  -0.69226027  0.99557621  -0.17531497  1
  Li  Li83  1  1.19226027  0.00442379  0.32468503  1
  Li  Li84  1  -0.69226027  -0.49557621  -0.17531497  1
  Li  Li85  1  1.19226027  0.49557621  0.32468503  1
  Li  Li86  1  0.69226027  0.00442379  0.17531497  1
  Li  Li87  1  -0.19226027  0.99557621  0.67531497  1
  Li  Li88  1  0.18217613  0.15136855  0.04361841  1
  Li  Li89  1  0.31782387  0.84863145  0.54361841  1
  Li  Li90  1  0.81782387  0.65136855  0.95638159  1
  Li  Li91  1  0.68217613  0.34863145  0.45638159  1
  Li  Li92  1  0.81782387  0.84863145  0.95638159  1
  Li  Li93  1  0.68217613  0.15136855  0.45638159  1
  Li  Li94  1  0.18217613  0.34863145  0.04361841  1
  Li  Li95  1  0.31782387  0.65136855  0.54361841  1
  Li  Li96  1  0.61926637  0.93729702  0.48477848  1
  Li  Li97  1  0.88073363  0.06270298  0.98477848  1
  Li  Li98  1  0.38073363  0.43729702  0.51522152  1
  Li  Li99  1  0.11926637  0.56270298  0.01522152  1
  Li  Li100  1  0.38073363  0.06270298  0.51522152  1
  Li  Li101  1  0.11926637  0.93729702  0.01522152  1
  Li  Li102  1  0.61926637  0.56270298  0.48477848  1
  Li  Li103  1  0.88073363  0.43729702  0.98477848  1
  Li  Li104  1  0.77268711  0.66054161  0.39522021  1
  Li  Li105  1  0.72731289  0.33945839  0.89522021  1
  Li  Li106  1  0.22731289  0.16054161  0.60477979  1
  Li  Li107  1  0.27268711  0.83945839  0.10477979  1
  Li  Li108  1  0.22731289  0.33945839  0.60477979  1
  Li  Li109  1  0.27268711  0.66054161  0.10477979  1
  Li  Li110  1  0.77268711  0.83945839  0.39522021  1
  Li  Li111  1  0.72731289  0.16054161  0.89522021  1
  Li  Li112  1  0.32552750  0.33981191  0.65190387  1
  Li  Li113  1  0.17447250  0.66018809  0.15190387  1
  Li  Li114  1  0.67447250  0.83981191  0.34809613  1
  Li  Li115  1  0.82552750  0.16018809  0.84809613  1
  Li  Li116  1  0.67447250  0.66018809  0.34809613  1
  Li  Li117  1  0.82552750  0.33981191  0.84809613  1
  Li  Li118  1  0.32552750  0.16018809  0.65190387  1
  Li  Li119  1  0.17447250  0.83981191  0.15190387  1
  Li  Li120  1  0.40038311  0.25000000  0.72679508  1
  Li  Li121  1  0.09961689  0.75000000  0.22679508  1
  Li  Li122  1  0.59961689  0.75000000  0.27320492  1
  Li  Li123  1  0.90038311  0.25000000  0.77320492  1
  Li  Li124  1  0.63529954  0.25000000  0.31185877  1
  Li  Li125  1  0.86470046  0.75000000  0.81185877  1
  Li  Li126  1  0.36470046  0.75000000  0.68814123  1
  Li  Li127  1  0.13529954  0.25000000  0.18814123  1
  Li  Li128  1  0.32928703  0.05493522  0.42750039  1
  Li  Li129  1  0.17071297  0.94506478  0.92750039  1
  Li  Li130  1  0.67071297  0.55493522  0.57249961  1
  Li  Li131  1  0.82928703  0.44506478  0.07249961  1
  Li  Li132  1  0.67071297  0.94506478  0.57249961  1
  Li  Li133  1  0.82928703  0.05493522  0.07249961  1
  Li  Li134  1  0.32928703  0.44506478  0.42750039  1
  Li  Li135  1  0.17071297  0.55493522  0.92750039  1
  Li  Li136  1  0.35968891  0.55431477  0.27422031  1
  Li  Li137  1  0.14031109  0.44568523  0.77422031  1
  Li  Li138  1  0.64031109  0.05431477  0.72577969  1
  Li  Li139  1  0.85968891  0.94568523  0.22577969  1
  Li  Li140  1  0.64031109  0.44568523  0.72577969  1
  Li  Li141  1  0.85968891  0.55431477  0.22577969  1
  Li  Li142  1  0.35968891  0.94568523  0.27422031  1
  Li  Li143  1  0.14031109  0.05431477  0.77422031  1
  Li  Li144  1  0.02942592  0.30343335  0.45659524  1
  Li  Li145  1  0.47057408  0.69656665  0.95659524  1
  Li  Li146  1  0.97057408  0.80343335  0.54340476  1
  Li  Li147  1  0.52942592  0.19656665  0.04340476  1
  Li  Li148  1  0.97057408  0.69656665  0.54340476  1
  Li  Li149  1  0.52942592  0.30343335  0.04340476  1
  Li  Li150  1  0.02942592  0.19656665  0.45659524  1
  Li  Li151  1  0.47057408  0.80343335  0.95659524  1
  Li  Li152  1  0.70386655  0.25000000  0.12395101  1
  Li  Li153  1  0.79613345  0.75000000  0.62395101  1
  Li  Li154  1  0.29613345  0.75000000  0.87604899  1
  Li  Li155  1  0.20386655  0.25000000  0.37604899  1
  Li  Li156  1  0.00000000  0.00000000  0.00000000  1
  Li  Li157  1  0.50000000  -0.00000000  0.50000000  1
  Li  Li158  1  0.00000000  0.50000000  0.00000000  1
  Li  Li159  1  0.50000000  0.50000000  0.50000000  1
