# generated using pymatgen
data_Li3TiP2O3
_symmetry_space_group_name_H-M   'P 1'
_cell_length_a   8.33865425
_cell_length_b   7.68212174
_cell_length_c   7.57211738
_cell_angle_alpha   90.00000000
_cell_angle_beta   90.00000000
_cell_angle_gamma   90.00000000
_symmetry_Int_Tables_number   1
_chemical_formula_structural   Li3TiP2O3
_chemical_formula_sum   'Li3 Ti1 P2 O3'
_cell_volume   485.05891335
_cell_formula_units_Z   1
loop_
 _symmetry_equiv_pos_site_id
 _symmetry_equiv_pos_as_xyz
  1  'x, y, z'
loop_
 _atom_site_type_symbol
 _atom_site_label
 _atom_site_symmetry_multiplicity
 _atom_site_fract_x
 _atom_site_fract_y
 _atom_site_fract_z
 _atom_site_occupancy
  P  P0  1  0.00000000  0.00000000  0.00000000  1
  P  P1  1  0.50000000  0.50000000  0.50000000  1
  Ti  Ti2  1  0.25000000  0.25000000  0.25000000  1
  O  O3  1  0.75000000  0.25000000  0.00000000  1
  O  O4  1  0.25000000  0.75000000  0.50000000  1
  O  O5  1  0.02375856  0.25023384  0.18457497  1
  Li  Li6  1  0.06597802  0.35530379  0.21009931  1
  Li  Li7  1  0.73503177  0.67566964  0.63327457  1
  Li  Li8  1  0.12963622  0.37218649  0.99167548  1
