# generated using pymatgen
data_LiF
_symmetry_space_group_name_H-M   'P 1'
_cell_length_a   8.02427468
_cell_length_b   8.02427468
_cell_length_c   19.88119455
_cell_angle_alpha   90.00000000
_cell_angle_beta   90.00000000
_cell_angle_gamma   120.00000000
_symmetry_Int_Tables_number   1
_chemical_formula_structural   LiF
_chemical_formula_sum   'Li42 F42'
_cell_volume   1108.62503049
_cell_formula_units_Z   42
loop_
 _symmetry_equiv_pos_site_id
 _symmetry_equiv_pos_as_xyz
  1  'x, y, z'
loop_
 _atom_site_type_symbol
 _atom_site_label
 _atom_site_symmetry_multiplicity
 _atom_site_fract_x
 _atom_site_fract_y
 _atom_site_fract_z
 _atom_site_occupancy
  F  F0  1  0.68650518  0.88527413  0.28999357  1
  F  F1  1  0.11472587  0.80123106  0.28999357  1
  F  F2  1  0.19876894  0.31349482  0.28999357  1
  F  F3  1  0.88527413  0.68650518  0.21000643  1
  F  F4  1  0.80123106  0.11472587  0.21000643  1
  F  F5  1  0.31349482  0.19876894  0.21000643  1
  F  F6  1  0.31349482  0.11472587  0.71000643  1
  F  F7  1  0.88527413  0.19876894  0.71000643  1
  F  F8  1  0.80123106  0.68650518  0.71000643  1
  F  F9  1  0.11472587  0.31349482  0.78999357  1
  F  F10  1  0.19876894  0.88527413  0.78999357  1
  F  F11  1  0.68650518  0.80123106  0.78999357  1
  F  F12  1  0.35317185  0.21860746  0.62332690  1
  F  F13  1  0.78139254  0.13456439  0.62332690  1
  F  F14  1  0.86543561  0.64682815  0.62332690  1
  F  F15  1  0.55194079  0.01983852  0.54333976  1
  F  F16  1  0.46789772  0.44805921  0.54333976  1
  F  F17  1  0.98016148  0.53210228  0.54333976  1
  F  F18  1  0.98016148  0.44805921  0.04333976  1
  F  F19  1  0.55194079  0.53210228  0.04333976  1
  F  F20  1  0.46789772  0.01983852  0.04333976  1
  F  F21  1  0.78139254  0.64682815  0.12332690  1
  F  F22  1  0.86543561  0.21860746  0.12332690  1
  F  F23  1  0.35317185  0.13456439  0.12332690  1
  F  F24  1  0.01983852  0.55194079  0.95666024  1
  F  F25  1  0.44805921  0.46789772  0.95666024  1
  F  F26  1  0.53210228  0.98016148  0.95666024  1
  F  F27  1  0.21860746  0.35317185  0.87667310  1
  F  F28  1  0.13456439  0.78139254  0.87667310  1
  F  F29  1  0.64682815  0.86543561  0.87667310  1
  F  F30  1  0.64682815  0.78139254  0.37667310  1
  F  F31  1  0.21860746  0.86543561  0.37667310  1
  F  F32  1  0.13456439  0.35317185  0.37667310  1
  F  F33  1  0.44805921  0.98016148  0.45666024  1
  F  F34  1  0.53210228  0.55194079  0.45666024  1
  F  F35  1  0.01983852  0.46789772  0.45666024  1
  F  F36  1  0.00000000  0.00000000  0.00000000  1
  F  F37  1  0.00000000  0.00000000  0.50000000  1
  F  F38  1  0.66666667  0.33333333  0.33333333  1
  F  F39  1  0.66666667  0.33333333  0.83333333  1
  F  F40  1  0.33333333  0.66666667  0.66666667  1
  F  F41  1  0.33333333  0.66666667  0.16666667  1
  Li  Li42  1  0.94087047  0.25557998  0.49791751  1
  Li  Li43  1  -0.25557998  0.68529050  0.49791751  1
  Li  Li44  1  -0.68529050  -0.94087047  0.49791751  1
  Li  Li45  1  0.25557998  0.94087047  0.00208249  1
  Li  Li46  1  0.68529050  -0.25557998  0.00208249  1
  Li  Li47  1  -0.94087047  -0.68529050  0.00208249  1
  Li  Li48  1  -0.94087047  -0.25557998  -0.49791751  1
  Li  Li49  1  0.25557998  -0.68529050  -0.49791751  1
  Li  Li50  1  0.68529050  0.94087047  -0.49791751  1
  Li  Li51  1  -0.25557998  -0.94087047  0.99791751  1
  Li  Li52  1  -0.68529050  0.25557998  0.99791751  1
  Li  Li53  1  0.94087047  0.68529050  0.99791751  1
  Li  Li54  1  1.60753714  0.58891331  0.83125084  1
  Li  Li55  1  0.41108669  1.01862383  0.83125084  1
  Li  Li56  1  -0.01862383  -0.60753714  0.83125084  1
  Li  Li57  1  0.92224664  1.27420381  0.33541582  1
  Li  Li58  1  1.35195716  0.07775336  0.33541582  1
  Li  Li59  1  -0.27420381  -0.35195716  0.33541582  1
  Li  Li60  1  -0.27420381  0.07775336  -0.16458418  1
  Li  Li61  1  0.92224664  -0.35195716  -0.16458418  1
  Li  Li62  1  1.35195716  1.27420381  -0.16458418  1
  Li  Li63  1  0.41108669  -0.60753714  1.33125084  1
  Li  Li64  1  -0.01862383  0.58891331  1.33125084  1
  Li  Li65  1  1.60753714  1.01862383  1.33125084  1
  Li  Li66  1  1.27420381  0.92224664  1.16458418  1
  Li  Li67  1  0.07775336  1.35195716  1.16458418  1
  Li  Li68  1  -0.35195716  -0.27420381  1.16458418  1
  Li  Li69  1  0.58891331  1.60753714  0.66874916  1
  Li  Li70  1  1.01862383  0.41108669  0.66874916  1
  Li  Li71  1  -0.60753714  -0.01862383  0.66874916  1
  Li  Li72  1  -0.60753714  0.41108669  0.16874916  1
  Li  Li73  1  0.58891331  -0.01862383  0.16874916  1
  Li  Li74  1  1.01862383  1.60753714  0.16874916  1
  Li  Li75  1  0.07775336  -0.27420381  1.66458418  1
  Li  Li76  1  -0.35195716  0.92224664  1.66458418  1
  Li  Li77  1  1.27420381  1.35195716  1.66458418  1
  Li  Li78  1  0.00000000  0.00000000  0.25000000  1
  Li  Li79  1  0.00000000  0.00000000  0.75000000  1
  Li  Li80  1  0.66666667  0.33333333  0.58333333  1
  Li  Li81  1  0.66666667  0.33333333  0.08333333  1
  Li  Li82  1  0.33333333  0.66666667  0.91666667  1
  Li  Li83  1  0.33333333  0.66666667  0.41666667  1
