# generated using pymatgen
data_LiF
_symmetry_space_group_name_H-M   'P 1'
_cell_length_a   7.70762786
_cell_length_b   7.70762786
_cell_length_c   24.23574809
_cell_angle_alpha   90.00000000
_cell_angle_beta   90.00000000
_cell_angle_gamma   120.00000000
_symmetry_Int_Tables_number   1
_chemical_formula_structural   LiF
_chemical_formula_sum   'Li36 F36'
_cell_volume   1246.89113605
_cell_formula_units_Z   36
loop_
 _symmetry_equiv_pos_site_id
 _symmetry_equiv_pos_as_xyz
  1  'x, y, z'
loop_
 _atom_site_type_symbol
 _atom_site_label
 _atom_site_symmetry_multiplicity
 _atom_site_fract_x
 _atom_site_fract_y
 _atom_site_fract_z
 _atom_site_occupancy
  F  F0  1  0.00000000  0.00000000  0.00000000  1
  F  F1  1  0.00000000  0.00000000  0.50000000  1
  F  F2  1  0.66666667  0.33333333  0.33333333  1
  F  F3  1  0.66666667  0.33333333  0.83333333  1
  F  F4  1  0.33333333  0.66666667  0.66666667  1
  F  F5  1  0.33333333  0.66666667  0.16666667  1
  F  F6  1  0.50000000  0.00000000  -0.00000000  1
  F  F7  1  0.00000000  0.50000000  0.00000000  1
  F  F8  1  0.50000000  0.50000000  -0.00000000  1
  F  F9  1  0.00000000  0.50000000  0.50000000  1
  F  F10  1  0.50000000  0.00000000  0.50000000  1
  F  F11  1  0.50000000  0.50000000  0.50000000  1
  F  F12  1  0.16666667  0.33333333  0.33333333  1
  F  F13  1  0.66666667  0.83333333  0.33333333  1
  F  F14  1  0.16666667  0.83333333  0.33333333  1
  F  F15  1  0.66666667  0.83333333  0.83333333  1
  F  F16  1  0.16666667  0.33333333  0.83333333  1
  F  F17  1  0.16666667  0.83333333  0.83333333  1
  F  F18  1  0.83333333  0.66666667  0.66666667  1
  F  F19  1  0.33333333  0.16666667  0.66666667  1
  F  F20  1  0.83333333  0.16666667  0.66666667  1
  F  F21  1  0.33333333  0.16666667  0.16666667  1
  F  F22  1  0.83333333  0.66666667  0.16666667  1
  F  F23  1  0.83333333  0.16666667  0.16666667  1
  F  F24  1  0.00000000  0.00000000  0.91841054  1
  F  F25  1  0.00000000  0.00000000  0.58158946  1
  F  F26  1  0.00000000  0.00000000  0.08158946  1
  F  F27  1  0.00000000  0.00000000  0.41841054  1
  F  F28  1  0.66666667  0.33333333  0.25174387  1
  F  F29  1  0.66666667  0.33333333  0.91492279  1
  F  F30  1  0.66666667  0.33333333  0.41492279  1
  F  F31  1  0.66666667  0.33333333  0.75174387  1
  F  F32  1  0.33333333  0.66666667  0.58507721  1
  F  F33  1  0.33333333  0.66666667  0.24825613  1
  F  F34  1  0.33333333  0.66666667  0.74825613  1
  F  F35  1  0.33333333  0.66666667  0.08507721  1
  Li  Li36  1  0.09478985  0.16714727  0.62892470  1
  Li  Li37  1  -0.16714727  -0.07235742  0.62892470  1
  Li  Li38  1  0.07235742  -0.09478985  0.62892470  1
  Li  Li39  1  0.16714727  0.09478985  -0.12892470  1
  Li  Li40  1  -0.07235742  -0.16714727  -0.12892470  1
  Li  Li41  1  -0.09478985  0.07235742  -0.12892470  1
  Li  Li42  1  -0.09478985  -0.16714727  -0.62892470  1
  Li  Li43  1  0.16714727  0.07235742  -0.62892470  1
  Li  Li44  1  -0.07235742  0.09478985  -0.62892470  1
  Li  Li45  1  -0.16714727  -0.09478985  1.12892470  1
  Li  Li46  1  0.07235742  0.16714727  1.12892470  1
  Li  Li47  1  0.09478985  -0.07235742  1.12892470  1
  Li  Li48  1  0.76145652  0.50048060  0.96225803  1
  Li  Li49  1  0.49951940  0.26097592  0.96225803  1
  Li  Li50  1  0.73902408  0.23854348  0.96225803  1
  Li  Li51  1  0.83381393  0.42812318  0.20440864  1
  Li  Li52  1  0.59430925  0.16618607  0.20440864  1
  Li  Li53  1  0.57187682  0.40569075  0.20440864  1
  Li  Li54  1  0.57187682  0.16618607  -0.29559136  1
  Li  Li55  1  0.83381393  0.40569075  -0.29559136  1
  Li  Li56  1  0.59430925  0.42812318  -0.29559136  1
  Li  Li57  1  0.49951940  0.23854348  1.46225803  1
  Li  Li58  1  0.73902408  0.50048060  1.46225803  1
  Li  Li59  1  0.76145652  0.26097592  1.46225803  1
  Li  Li60  1  0.42812318  0.83381393  1.29559136  1
  Li  Li61  1  0.16618607  0.59430925  1.29559136  1
  Li  Li62  1  0.40569075  0.57187682  1.29559136  1
  Li  Li63  1  0.50048060  0.76145652  0.53774197  1
  Li  Li64  1  0.26097592  0.49951940  0.53774197  1
  Li  Li65  1  0.23854348  0.73902408  0.53774197  1
  Li  Li66  1  0.23854348  0.49951940  0.03774197  1
  Li  Li67  1  0.50048060  0.73902408  0.03774197  1
  Li  Li68  1  0.26097592  0.76145652  0.03774197  1
  Li  Li69  1  0.16618607  0.57187682  1.79559136  1
  Li  Li70  1  0.40569075  0.83381393  1.79559136  1
  Li  Li71  1  0.42812318  0.59430925  1.79559136  1
