# generated using pymatgen
data_Li2YP2Se
_symmetry_space_group_name_H-M   'P 1'
_cell_length_a   5.63142516
_cell_length_b   5.62179919
_cell_length_c   7.43534461
_cell_angle_alpha   94.67635556
_cell_angle_beta   99.64837740
_cell_angle_gamma   107.91833820
_symmetry_Int_Tables_number   1
_chemical_formula_structural   Li2YP2Se
_chemical_formula_sum   'Li2 Y1 P2 Se1'
_cell_volume   218.57412292
_cell_formula_units_Z   1
loop_
 _symmetry_equiv_pos_site_id
 _symmetry_equiv_pos_as_xyz
  1  'x, y, z'
loop_
 _atom_site_type_symbol
 _atom_site_label
 _atom_site_symmetry_multiplicity
 _atom_site_fract_x
 _atom_site_fract_y
 _atom_site_fract_z
 _atom_site_occupancy
  P  P0  1  0.12500000  0.12500000  0.12500000  1
  P  P1  1  0.50000000  0.50000000  0.50000000  1
  Se  Se2  1  0.25000000  0.25000000  0.25000000  1
  Li  Li3  1  0.75000000  0.75000000  0.75000000  1
  Li  Li4  1  0.27731172  0.98651469  0.65554339  1
  Y  Y5  1  0.14583427  0.03505936  0.48811187  1
