# generated using pymatgen
data_LiY2(Te2P)2
_symmetry_space_group_name_H-M   'P 1'
_cell_length_a   3.92338203
_cell_length_b   4.16145989
_cell_length_c   6.65294123
_cell_angle_alpha   96.57350859
_cell_angle_beta   103.86695158
_cell_angle_gamma   115.69936008
_symmetry_Int_Tables_number   1
_chemical_formula_structural   LiY2(Te2P)2
_chemical_formula_sum   'Li1 Y2 Te4 P2'
_cell_volume   92.01598164
_cell_formula_units_Z   1
loop_
 _symmetry_equiv_pos_site_id
 _symmetry_equiv_pos_as_xyz
  1  'x, y, z'
loop_
 _atom_site_type_symbol
 _atom_site_label
 _atom_site_symmetry_multiplicity
 _atom_site_fract_x
 _atom_site_fract_y
 _atom_site_fract_z
 _atom_site_occupancy
  P  P0  1  0.00000000  0.00000000  0.00000000  1
  P  P1  1  0.50000000  0.50000000  0.50000000  1
  Te  Te2  1  0.25000000  0.25000000  0.25000000  1
  Te  Te3  1  0.75000000  0.25000000  0.00000000  1
  Te  Te4  1  0.25000000  0.75000000  0.50000000  1
  Te  Te5  1  0.88190814  0.09105111  0.77324066  1
  Li  Li6  1  0.73416238  0.72129188  0.60836426  1
  Y  Y7  1  0.39089920  0.47876228  0.09398872  1
  Y  Y8  1  0.47829267  0.71861015  0.31993527  1
