# generated using pymatgen
data_LiF
_symmetry_space_group_name_H-M   'P 1'
_cell_length_a   9.67728073
_cell_length_b   5.07732565
_cell_length_c   9.43826192
_cell_angle_alpha   90.00000000
_cell_angle_beta   90.00000000
_cell_angle_gamma   90.00000000
_symmetry_Int_Tables_number   1
_chemical_formula_structural   LiF
_chemical_formula_sum   'Li26 F26'
_cell_volume   463.74622152
_cell_formula_units_Z   26
loop_
 _symmetry_equiv_pos_site_id
 _symmetry_equiv_pos_as_xyz
  1  'x, y, z'
loop_
 _atom_site_type_symbol
 _atom_site_label
 _atom_site_symmetry_multiplicity
 _atom_site_fract_x
 _atom_site_fract_y
 _atom_site_fract_z
 _atom_site_occupancy
  F  F0  1  0.65041883  0.52079450  0.29117007  1
  F  F1  1  -0.65041883  -0.52079450  0.29117007  1
  F  F2  1  -0.15041883  1.02079450  0.20882993  1
  F  F3  1  1.15041883  -0.02079450  0.20882993  1
  F  F4  1  -0.65041883  -0.52079450  -0.29117007  1
  F  F5  1  0.65041883  0.52079450  -0.29117007  1
  F  F6  1  1.15041883  -0.02079450  0.79117007  1
  F  F7  1  -0.15041883  1.02079450  0.79117007  1
  F  F8  1  0.40441874  0.89710276  0.53800076  1
  F  F9  1  0.59558126  0.10289724  0.53800076  1
  F  F10  1  0.09558126  0.39710276  0.96199924  1
  F  F11  1  0.90441874  0.60289724  0.96199924  1
  F  F12  1  0.59558126  0.10289724  0.46199924  1
  F  F13  1  0.40441874  0.89710276  0.46199924  1
  F  F14  1  0.90441874  0.60289724  0.03800076  1
  F  F15  1  0.09558126  0.39710276  0.03800076  1
  F  F16  1  0.07642069  0.80533842  0.24867646  1
  F  F17  1  0.92357931  0.19466158  0.24867646  1
  F  F18  1  0.42357931  0.30533842  0.25132354  1
  F  F19  1  0.57642069  0.69466158  0.25132354  1
  F  F20  1  0.92357931  0.19466158  0.75132354  1
  F  F21  1  0.07642069  0.80533842  0.75132354  1
  F  F22  1  0.57642069  0.69466158  0.74867646  1
  F  F23  1  0.42357931  0.30533842  0.74867646  1
  F  F24  1  0.00000000  0.00000000  0.00000000  1
  F  F25  1  0.50000000  0.50000000  0.50000000  1
  Li  Li26  1  0.26718587  0.90464400  0.00000000  1
  Li  Li27  1  0.73281413  0.09535600  -0.00000000  1
  Li  Li28  1  0.23281413  0.40464400  0.50000000  1
  Li  Li29  1  0.76718587  0.59535600  0.50000000  1
  Li  Li30  1  0.08303626  0.98613648  0.41084617  1
  Li  Li31  1  0.91696374  0.01386352  0.41084617  1
  Li  Li32  1  0.41696374  0.48613648  0.08915383  1
  Li  Li33  1  0.58303626  0.51386352  0.08915383  1
  Li  Li34  1  0.91696374  0.01386352  0.58915383  1
  Li  Li35  1  0.08303626  0.98613648  0.58915383  1
  Li  Li36  1  0.58303626  0.51386352  0.91084617  1
  Li  Li37  1  0.41696374  0.48613648  0.91084617  1
  Li  Li38  1  0.76566476  0.85662715  0.58667507  1
  Li  Li39  1  0.23433524  0.14337285  0.58667507  1
  Li  Li40  1  0.73433524  0.35662715  0.91332493  1
  Li  Li41  1  0.26566476  0.64337285  0.91332493  1
  Li  Li42  1  0.23433524  0.14337285  0.41332493  1
  Li  Li43  1  0.76566476  0.85662715  0.41332493  1
  Li  Li44  1  0.26566476  0.64337285  0.08667507  1
  Li  Li45  1  0.73433524  0.35662715  0.08667507  1
  Li  Li46  1  0.00000000  0.50000000  0.88976340  1
  Li  Li47  1  0.50000000  0.00000000  0.61023660  1
  Li  Li48  1  0.00000000  0.50000000  0.11023660  1
  Li  Li49  1  0.50000000  0.00000000  0.38976340  1
  Li  Li50  1  0.00000000  0.50000000  0.50000000  1
  Li  Li51  1  0.50000000  0.00000000  0.00000000  1
