# generated using pymatgen
data_LiF
_symmetry_space_group_name_H-M   'P 1'
_cell_length_a   16.95365673
_cell_length_b   4.31993294
_cell_length_c   5.16451268
_cell_angle_alpha   90.00000000
_cell_angle_beta   90.00000000
_cell_angle_gamma   90.00000000
_symmetry_Int_Tables_number   1
_chemical_formula_structural   LiF
_chemical_formula_sum   'Li22 F22'
_cell_volume   378.24198881
_cell_formula_units_Z   22
loop_
 _symmetry_equiv_pos_site_id
 _symmetry_equiv_pos_as_xyz
  1  'x, y, z'
loop_
 _atom_site_type_symbol
 _atom_site_label
 _atom_site_symmetry_multiplicity
 _atom_site_fract_x
 _atom_site_fract_y
 _atom_site_fract_z
 _atom_site_occupancy
  F  F0  1  0.77488805  0.22218776  0.31018811  1
  F  F1  1  -0.77488805  -0.22218776  0.31018811  1
  F  F2  1  -0.27488805  0.72218776  0.18981189  1
  F  F3  1  1.27488805  0.27781224  0.18981189  1
  F  F4  1  -0.77488805  -0.22218776  -0.31018811  1
  F  F5  1  0.77488805  0.22218776  -0.31018811  1
  F  F6  1  1.27488805  0.27781224  0.81018811  1
  F  F7  1  -0.27488805  0.72218776  0.81018811  1
  F  F8  1  0.58019424  0.98304177  0.33787748  1
  F  F9  1  0.41980576  0.01695823  0.33787748  1
  F  F10  1  0.91980576  0.48304177  0.16212252  1
  F  F11  1  0.08019424  0.51695823  0.16212252  1
  F  F12  1  0.41980576  0.01695823  0.66212252  1
  F  F13  1  0.58019424  0.98304177  0.66212252  1
  F  F14  1  0.08019424  0.51695823  0.83787748  1
  F  F15  1  0.91980576  0.48304177  0.83787748  1
  F  F16  1  0.00000000  0.50000000  0.32493453  1
  F  F17  1  0.50000000  0.00000000  0.17506547  1
  F  F18  1  0.00000000  0.50000000  0.67506547  1
  F  F19  1  0.50000000  0.00000000  0.82493453  1
  F  F20  1  0.00000000  0.50000000  0.00000000  1
  F  F21  1  0.50000000  0.00000000  0.50000000  1
  Li  Li22  1  0.76793345  0.84869296  0.63197274  1
  Li  Li23  1  0.23206655  0.15130704  0.63197274  1
  Li  Li24  1  0.73206655  0.34869296  0.86802726  1
  Li  Li25  1  0.26793345  0.65130704  0.86802726  1
  Li  Li26  1  0.23206655  0.15130704  0.36802726  1
  Li  Li27  1  0.76793345  0.84869296  0.36802726  1
  Li  Li28  1  0.26793345  0.65130704  0.13197274  1
  Li  Li29  1  0.73206655  0.34869296  0.13197274  1
  Li  Li30  1  0.78392658  0.62901179  0.00000000  1
  Li  Li31  1  0.21607342  0.37098821  0.00000000  1
  Li  Li32  1  0.71607342  0.12901179  0.50000000  1
  Li  Li33  1  0.28392658  0.87098821  0.50000000  1
  Li  Li34  1  0.53651007  0.70904393  0.24034682  1
  Li  Li35  1  0.46348993  0.29095607  0.24034682  1
  Li  Li36  1  0.96348993  0.20904393  0.25965318  1
  Li  Li37  1  0.03651007  0.79095607  0.25965318  1
  Li  Li38  1  0.46348993  0.29095607  0.75965318  1
  Li  Li39  1  0.53651007  0.70904393  0.75965318  1
  Li  Li40  1  0.03651007  0.79095607  0.74034682  1
  Li  Li41  1  0.96348993  0.20904393  0.74034682  1
  Li  Li42  1  0.00000000  0.00000000  0.00000000  1
  Li  Li43  1  0.50000000  0.50000000  0.50000000  1
