# generated using pymatgen
data_Li2Y2As4P2Se
_symmetry_space_group_name_H-M   'P 1'
_cell_length_a   5.91404664
_cell_length_b   6.10206049
_cell_length_c   6.95998784
_cell_angle_alpha   92.08090331
_cell_angle_beta   94.22868959
_cell_angle_gamma   97.72204068
_symmetry_Int_Tables_number   1
_chemical_formula_structural   Li2Y2As4P2Se
_chemical_formula_sum   'Li2 Y2 As4 P2 Se1'
_cell_volume   247.94423410
_cell_formula_units_Z   1
loop_
 _symmetry_equiv_pos_site_id
 _symmetry_equiv_pos_as_xyz
  1  'x, y, z'
loop_
 _atom_site_type_symbol
 _atom_site_label
 _atom_site_symmetry_multiplicity
 _atom_site_fract_x
 _atom_site_fract_y
 _atom_site_fract_z
 _atom_site_occupancy
  Se  Se0  1  0.12500000  0.00000000  0.25000000  1
  P  P1  1  0.00000000  0.00000000  0.00000000  1
  P  P2  1  0.37500000  0.00000000  0.25000000  1
  As  As3  1  0.25000000  0.25000000  0.25000000  1
  As  As4  1  0.00000000  0.25000000  0.12500000  1
  As  As5  1  0.79775951  0.49823589  0.00093091  1
  As  As6  1  0.45150643  0.17584138  0.99152032  1
  Li  Li7  1  0.02937246  0.18479213  0.83039153  1
  Li  Li8  1  0.23807468  0.87894582  0.22532653  1
  Y  Y9  1  0.14233628  0.95000710  0.64751195  1
  Y  Y10  1  0.03966053  0.24042118  0.88078957  1
