# generated using pymatgen
data_LiF
_symmetry_space_group_name_H-M   'P 1'
_cell_length_a   8.26993287
_cell_length_b   6.17796351
_cell_length_c   14.23188049
_cell_angle_alpha   90.00000000
_cell_angle_beta   90.00000000
_cell_angle_gamma   90.00000000
_symmetry_Int_Tables_number   1
_chemical_formula_structural   LiF
_chemical_formula_sum   'Li24 F24'
_cell_volume   727.12589439
_cell_formula_units_Z   24
loop_
 _symmetry_equiv_pos_site_id
 _symmetry_equiv_pos_as_xyz
  1  'x, y, z'
loop_
 _atom_site_type_symbol
 _atom_site_label
 _atom_site_symmetry_multiplicity
 _atom_site_fract_x
 _atom_site_fract_y
 _atom_site_fract_z
 _atom_site_occupancy
  F  F0  1  0.03759007  0.94490907  0.31625470  1
  F  F1  1  0.46240993  -0.94490907  0.81625470  1
  F  F2  1  -0.03759007  1.44490907  -0.31625470  1
  F  F3  1  0.53759007  -0.44490907  0.18374530  1
  F  F4  1  -0.03759007  -0.94490907  -0.31625470  1
  F  F5  1  0.53759007  0.94490907  0.18374530  1
  F  F6  1  0.03759007  -0.44490907  0.31625470  1
  F  F7  1  0.46240993  1.44490907  0.81625470  1
  F  F8  1  0.73043987  0.48967930  0.78832053  1
  F  F9  1  0.76956013  0.51032070  0.28832053  1
  F  F10  1  0.26956013  0.98967930  0.21167947  1
  F  F11  1  0.23043987  0.01032070  0.71167947  1
  F  F12  1  0.26956013  0.51032070  0.21167947  1
  F  F13  1  0.23043987  0.48967930  0.71167947  1
  F  F14  1  0.73043987  0.01032070  0.78832053  1
  F  F15  1  0.76956013  0.98967930  0.28832053  1
  F  F16  1  0.01224536  0.36707908  0.95884391  1
  F  F17  1  0.48775464  0.63292092  0.45884391  1
  F  F18  1  0.98775464  0.86707908  0.04115609  1
  F  F19  1  0.51224536  0.13292092  0.54115609  1
  F  F20  1  0.98775464  0.63292092  0.04115609  1
  F  F21  1  0.51224536  0.36707908  0.54115609  1
  F  F22  1  0.01224536  0.13292092  0.95884391  1
  F  F23  1  0.48775464  0.86707908  0.45884391  1
  Li  Li24  1  0.00000000  0.00000000  0.50000000  1
  Li  Li25  1  0.50000000  0.00000000  0.00000000  1
  Li  Li26  1  0.00000000  0.50000000  0.50000000  1
  Li  Li27  1  0.50000000  0.50000000  0.00000000  1
  Li  Li28  1  0.53905966  0.25000000  0.01965777  1
  Li  Li29  1  0.96094034  0.75000000  0.51965777  1
  Li  Li30  1  0.46094034  0.75000000  0.98034223  1
  Li  Li31  1  0.03905966  0.25000000  0.48034223  1
  Li  Li32  1  0.00000000  0.00000000  0.00000000  1
  Li  Li33  1  0.50000000  0.00000000  0.50000000  1
  Li  Li34  1  0.00000000  0.50000000  0.00000000  1
  Li  Li35  1  0.50000000  0.50000000  0.50000000  1
  Li  Li36  1  0.50236583  0.25000000  0.25862354  1
  Li  Li37  1  0.99763417  0.75000000  0.75862354  1
  Li  Li38  1  0.49763417  0.75000000  0.74137646  1
  Li  Li39  1  0.00236583  0.25000000  0.24137646  1
  Li  Li40  1  0.91403599  0.25000000  0.14032258  1
  Li  Li41  1  0.58596401  0.75000000  0.64032258  1
  Li  Li42  1  0.08596401  0.75000000  0.85967742  1
  Li  Li43  1  0.41403599  0.25000000  0.35967742  1
  Li  Li44  1  0.75621949  0.25000000  0.19631793  1
  Li  Li45  1  0.74378051  0.75000000  0.69631793  1
  Li  Li46  1  0.24378051  0.75000000  0.80368207  1
  Li  Li47  1  0.25621949  0.25000000  0.30368207  1
