# generated using pymatgen
data_LiF
_symmetry_space_group_name_H-M   'P 1'
_cell_length_a   11.56626968
_cell_length_b   9.03529996
_cell_length_c   8.15091092
_cell_angle_alpha   90.00000000
_cell_angle_beta   90.00000000
_cell_angle_gamma   90.00000000
_symmetry_Int_Tables_number   1
_chemical_formula_structural   LiF
_chemical_formula_sum   'Li24 F24'
_cell_volume   851.80863107
_cell_formula_units_Z   24
loop_
 _symmetry_equiv_pos_site_id
 _symmetry_equiv_pos_as_xyz
  1  'x, y, z'
loop_
 _atom_site_type_symbol
 _atom_site_label
 _atom_site_symmetry_multiplicity
 _atom_site_fract_x
 _atom_site_fract_y
 _atom_site_fract_z
 _atom_site_occupancy
  F  F0  1  0.00000000  0.00000000  0.50000000  1
  F  F1  1  0.50000000  0.00000000  0.00000000  1
  F  F2  1  0.00000000  0.50000000  0.50000000  1
  F  F3  1  0.50000000  0.50000000  -0.00000000  1
  F  F4  1  0.94324013  0.35610309  0.42743355  1
  F  F5  1  0.55675987  0.64389691  0.92743355  1
  F  F6  1  0.05675987  0.85610309  0.57256645  1
  F  F7  1  0.44324013  0.14389691  0.07256645  1
  F  F8  1  0.05675987  0.64389691  0.57256645  1
  F  F9  1  0.44324013  0.35610309  0.07256645  1
  F  F10  1  0.94324013  0.14389691  0.42743355  1
  F  F11  1  0.55675987  0.85610309  0.92743355  1
  F  F12  1  0.45800231  0.45474990  0.86281247  1
  F  F13  1  0.04199769  0.54525010  0.36281247  1
  F  F14  1  0.54199769  0.95474990  0.13718753  1
  F  F15  1  0.95800231  0.04525010  0.63718753  1
  F  F16  1  0.54199769  0.54525010  0.13718753  1
  F  F17  1  0.95800231  0.45474990  0.63718753  1
  F  F18  1  0.45800231  0.04525010  0.86281247  1
  F  F19  1  0.04199769  0.95474990  0.36281247  1
  F  F20  1  0.03598389  0.25000000  0.19157904  1
  F  F21  1  0.46401611  0.75000000  0.69157904  1
  F  F22  1  0.96401611  0.75000000  0.80842096  1
  F  F23  1  0.53598389  0.25000000  0.30842096  1
  Li  Li24  1  0.11759305  0.25000000  0.52509691  1
  Li  Li25  1  0.38240695  0.75000000  0.02509691  1
  Li  Li26  1  0.88240695  0.75000000  0.47490309  1
  Li  Li27  1  0.61759305  0.25000000  0.97490309  1
  Li  Li28  1  0.71722753  0.96004588  0.77955959  1
  Li  Li29  1  -0.21722753  -0.96004588  1.27955959  1
  Li  Li30  1  -0.71722753  1.46004588  -0.77955959  1
  Li  Li31  1  1.21722753  -0.46004588  -0.27955959  1
  Li  Li32  1  -0.71722753  -0.96004588  -0.77955959  1
  Li  Li33  1  1.21722753  0.96004588  -0.27955959  1
  Li  Li34  1  0.71722753  -0.46004588  0.77955959  1
  Li  Li35  1  -0.21722753  1.46004588  1.27955959  1
  Li  Li36  1  0.95666486  0.83811556  0.19082113  1
  Li  Li37  1  0.54333514  0.16188444  0.69082113  1
  Li  Li38  1  0.04333514  0.33811556  0.80917887  1
  Li  Li39  1  0.45666486  0.66188444  0.30917887  1
  Li  Li40  1  0.04333514  0.16188444  0.80917887  1
  Li  Li41  1  0.45666486  0.83811556  0.30917887  1
  Li  Li42  1  0.95666486  0.66188444  0.19082113  1
  Li  Li43  1  0.54333514  0.33811556  0.69082113  1
  Li  Li44  1  0.00000000  0.00000000  0.00000000  1
  Li  Li45  1  0.50000000  0.00000000  0.50000000  1
  Li  Li46  1  0.00000000  0.50000000  0.00000000  1
  Li  Li47  1  0.50000000  0.50000000  0.50000000  1
