# generated using pymatgen
data_Na3Li2Se2F
_symmetry_space_group_name_H-M   'P 1'
_cell_length_a   10.27389476
_cell_length_b   6.39980747
_cell_length_c   13.71486671
_cell_angle_alpha   90.00000000
_cell_angle_beta   90.00000000
_cell_angle_gamma   90.00000000
_symmetry_Int_Tables_number   1
_chemical_formula_structural   Na3Li2Se2F
_chemical_formula_sum   'Na12 Li8 Se8 F4'
_cell_volume   901.76549286
_cell_formula_units_Z   4
loop_
 _symmetry_equiv_pos_site_id
 _symmetry_equiv_pos_as_xyz
  1  'x, y, z'
loop_
 _atom_site_type_symbol
 _atom_site_label
 _atom_site_symmetry_multiplicity
 _atom_site_fract_x
 _atom_site_fract_y
 _atom_site_fract_z
 _atom_site_occupancy
  F  F0  1  0.00000000  0.50000000  0.00000000  1
  F  F1  1  0.50000000  0.00000000  0.50000000  1
  F  F2  1  0.00000000  0.00000000  0.00000000  1
  F  F3  1  0.50000000  0.50000000  0.50000000  1
  Li  Li4  1  0.16851586  0.65198409  0.45218189  1
  Li  Li5  1  0.83148414  0.34801591  0.45218189  1
  Li  Li6  1  0.33148414  0.15198409  0.04781811  1
  Li  Li7  1  0.66851586  0.84801591  0.04781811  1
  Li  Li8  1  0.83148414  0.34801591  0.54781811  1
  Li  Li9  1  0.16851586  0.65198409  0.54781811  1
  Li  Li10  1  0.66851586  0.84801591  0.95218189  1
  Li  Li11  1  0.33148414  0.15198409  0.95218189  1
  Na  Na12  1  0.57512214  0.30371489  0.60758826  1
  Na  Na13  1  -0.57512214  -0.30371489  0.60758826  1
  Na  Na14  1  -0.07512214  0.80371489  -0.10758826  1
  Na  Na15  1  1.07512214  0.19628511  -0.10758826  1
  Na  Na16  1  -0.57512214  -0.30371489  -0.60758826  1
  Na  Na17  1  0.57512214  0.30371489  -0.60758826  1
  Na  Na18  1  1.07512214  0.19628511  1.10758826  1
  Na  Na19  1  -0.07512214  0.80371489  1.10758826  1
  Na  Na20  1  0.00000000  0.00000000  0.29588244  1
  Na  Na21  1  0.50000000  0.50000000  0.20411756  1
  Na  Na22  1  0.00000000  0.00000000  0.70411756  1
  Na  Na23  1  0.50000000  0.50000000  0.79588244  1
  Se  Se24  1  0.00000000  0.50000000  0.50000000  1
  Se  Se25  1  0.50000000  0.00000000  0.00000000  1
  Se  Se26  1  0.00000000  0.50000000  0.26383622  1
  Se  Se27  1  0.50000000  0.00000000  0.23616378  1
  Se  Se28  1  0.00000000  0.50000000  0.73616378  1
  Se  Se29  1  0.50000000  0.00000000  0.76383622  1
  Se  Se30  1  0.00000000  0.00000000  0.50000000  1
  Se  Se31  1  0.50000000  0.50000000  0.00000000  1
