# generated using pymatgen
data_Li3TiSb4P2O
_symmetry_space_group_name_H-M   'P 1'
_cell_length_a   7.94067188
_cell_length_b   7.84522407
_cell_length_c   7.94835504
_cell_angle_alpha   90.00000000
_cell_angle_beta   90.00000000
_cell_angle_gamma   90.00000000
_symmetry_Int_Tables_number   1
_chemical_formula_structural   Li3TiSb4P2O
_chemical_formula_sum   'Li3 Ti1 Sb4 P2 O1'
_cell_volume   495.15350895
_cell_formula_units_Z   1
loop_
 _symmetry_equiv_pos_site_id
 _symmetry_equiv_pos_as_xyz
  1  'x, y, z'
loop_
 _atom_site_type_symbol
 _atom_site_label
 _atom_site_symmetry_multiplicity
 _atom_site_fract_x
 _atom_site_fract_y
 _atom_site_fract_z
 _atom_site_occupancy
  P  P0  1  0.12500000  0.00000000  0.25000000  1
  P  P1  1  0.00000000  0.00000000  0.00000000  1
  Ti  Ti2  1  0.37500000  0.00000000  0.25000000  1
  O  O3  1  0.25000000  0.25000000  0.25000000  1
  Li  Li4  1  0.00000000  0.25000000  0.12500000  1
  Li  Li5  1  0.97008586  0.33784264  0.48088838  1
  Li  Li6  1  0.23527799  0.72879585  0.84063148  1
  Sb  Sb7  1  0.69085528  0.71117599  0.14371158  1
  Sb  Sb8  1  0.93329438  0.14030315  0.80723706  1
  Sb  Sb9  1  0.16724056  0.68589195  0.74435241  1
  Sb  Sb10  1  0.17882787  0.55816255  0.24902475  1
