# generated using pymatgen
data_Li2B4Se(SO2)2
_symmetry_space_group_name_H-M   'P 1'
_cell_length_a   15.60141375
_cell_length_b   12.99567436
_cell_length_c   7.28858318
_cell_angle_alpha   90.00000000
_cell_angle_beta   90.00000000
_cell_angle_gamma   90.00000000
_symmetry_Int_Tables_number   1
_chemical_formula_structural   Li2B4Se(SO2)2
_chemical_formula_sum   'Li16 B32 Se8 S16 O32'
_cell_volume   1477.76674521
_cell_formula_units_Z   8
loop_
 _symmetry_equiv_pos_site_id
 _symmetry_equiv_pos_as_xyz
  1  'x, y, z'
loop_
 _atom_site_type_symbol
 _atom_site_label
 _atom_site_symmetry_multiplicity
 _atom_site_fract_x
 _atom_site_fract_y
 _atom_site_fract_z
 _atom_site_occupancy
  B  B0  1  0.00000000  0.50000000  0.33642093  1
  B  B1  1  0.50000000  0.00000000  0.66357907  1
  B  B2  1  0.00000000  0.50000000  0.66357907  1
  B  B3  1  0.50000000  0.00000000  0.33642093  1
  B  B4  1  0.24742305  0.31407332  0.91440230  1
  B  B5  1  -0.24742305  -0.31407332  0.91440230  1
  B  B6  1  0.25257695  0.81407332  -0.91440230  1
  B  B7  1  0.74742305  0.18592668  -0.91440230  1
  B  B8  1  -0.24742305  -0.31407332  -0.91440230  1
  B  B9  1  0.24742305  0.31407332  -0.91440230  1
  B  B10  1  0.74742305  0.18592668  0.91440230  1
  B  B11  1  0.25257695  0.81407332  0.91440230  1
  B  B12  1  0.71093109  0.52173546  0.36338565  1
  B  B13  1  0.28906891  0.47826454  0.36338565  1
  B  B14  1  0.78906891  0.02173546  0.63661435  1
  B  B15  1  0.21093109  0.97826454  0.63661435  1
  B  B16  1  0.28906891  0.47826454  0.63661435  1
  B  B17  1  0.71093109  0.52173546  0.63661435  1
  B  B18  1  0.21093109  0.97826454  0.36338565  1
  B  B19  1  0.78906891  0.02173546  0.36338565  1
  B  B20  1  0.93330487  0.95210714  0.58221710  1
  B  B21  1  0.06669513  0.04789286  0.58221710  1
  B  B22  1  0.56669513  0.45210714  0.41778290  1
  B  B23  1  0.43330487  0.54789286  0.41778290  1
  B  B24  1  0.06669513  0.04789286  0.41778290  1
  B  B25  1  0.93330487  0.95210714  0.41778290  1
  B  B26  1  0.43330487  0.54789286  0.58221710  1
  B  B27  1  0.56669513  0.45210714  0.58221710  1
  B  B28  1  0.00000000  0.00000000  0.00000000  1
  B  B29  1  0.50000000  0.50000000  0.00000000  1
  B  B30  1  0.00000000  0.00000000  0.50000000  1
  B  B31  1  0.50000000  0.50000000  0.50000000  1
  Li  Li32  1  0.24703323  0.04604267  -0.00000000  1
  Li  Li33  1  0.75296677  0.95395733  0.00000000  1
  Li  Li34  1  0.25296677  0.54604267  0.00000000  1
  Li  Li35  1  0.74703323  0.45395733  -0.00000000  1
  Li  Li36  1  0.00000000  0.00000000  0.17581971  1
  Li  Li37  1  0.50000000  0.50000000  0.82418029  1
  Li  Li38  1  0.00000000  0.00000000  0.82418029  1
  Li  Li39  1  0.50000000  0.50000000  0.17581971  1
  Li  Li40  1  0.01392052  0.35789053  0.50000000  1
  Li  Li41  1  0.98607948  0.64210947  0.50000000  1
  Li  Li42  1  0.48607948  0.85789053  0.50000000  1
  Li  Li43  1  0.51392052  0.14210947  0.50000000  1
  Li  Li44  1  0.40803580  0.57768701  0.00000000  1
  Li  Li45  1  0.59196420  0.42231299  0.00000000  1
  Li  Li46  1  0.09196420  0.07768701  0.00000000  1
  Li  Li47  1  0.90803580  0.92231299  0.00000000  1
  O  O48  1  0.32490675  0.72840855  0.36665219  1
  O  O49  1  0.67509325  0.27159145  0.36665219  1
  O  O50  1  0.17509325  0.22840855  0.63334781  1
  O  O51  1  0.82490675  0.77159145  0.63334781  1
  O  O52  1  0.67509325  0.27159145  0.63334781  1
  O  O53  1  0.32490675  0.72840855  0.63334781  1
  O  O54  1  0.82490675  0.77159145  0.36665219  1
  O  O55  1  0.17509325  0.22840855  0.36665219  1
  O  O56  1  0.21031260  0.59933029  0.17752448  1
  O  O57  1  0.78968740  0.40066971  0.17752448  1
  O  O58  1  0.28968740  0.09933029  0.82247552  1
  O  O59  1  0.71031260  0.90066971  0.82247552  1
  O  O60  1  0.78968740  0.40066971  0.82247552  1
  O  O61  1  0.21031260  0.59933029  0.82247552  1
  O  O62  1  0.71031260  0.90066971  0.17752448  1
  O  O63  1  0.28968740  0.09933029  0.17752448  1
  O  O64  1  0.45224435  0.88887821  0.82025590  1
  O  O65  1  0.54775565  0.11112179  0.82025590  1
  O  O66  1  0.04775565  0.38887821  0.17974410  1
  O  O67  1  0.95224435  0.61112179  0.17974410  1
  O  O68  1  0.54775565  0.11112179  0.17974410  1
  O  O69  1  0.45224435  0.88887821  0.17974410  1
  O  O70  1  0.95224435  0.61112179  0.82025590  1
  O  O71  1  0.04775565  0.38887821  0.82025590  1
  O  O72  1  0.00000000  0.00000000  0.31888253  1
  O  O73  1  0.50000000  0.50000000  0.68111747  1
  O  O74  1  0.00000000  0.00000000  0.68111747  1
  O  O75  1  0.50000000  0.50000000  0.31888253  1
  O  O76  1  0.78789615  0.87563542  0.50000000  1
  O  O77  1  0.21210385  0.12436458  0.50000000  1
  O  O78  1  0.71210385  0.37563542  0.50000000  1
  O  O79  1  0.28789615  0.62436458  0.50000000  1
  S  S80  1  0.00000000  0.50000000  0.00000000  1
  S  S81  1  0.50000000  0.00000000  0.00000000  1
  S  S82  1  0.00000000  0.50000000  0.50000000  1
  S  S83  1  0.50000000  0.00000000  0.50000000  1
  S  S84  1  0.79037533  0.21842160  0.73799918  1
  S  S85  1  0.20962467  0.78157840  0.73799918  1
  S  S86  1  0.70962467  0.71842160  0.26200082  1
  S  S87  1  0.29037533  0.28157840  0.26200082  1
  S  S88  1  0.20962467  0.78157840  0.26200082  1
  S  S89  1  0.79037533  0.21842160  0.26200082  1
  S  S90  1  0.29037533  0.28157840  0.73799918  1
  S  S91  1  0.70962467  0.71842160  0.73799918  1
  S  S92  1  0.17349256  0.31430891  0.00000000  1
  S  S93  1  0.82650744  0.68569109  0.00000000  1
  S  S94  1  0.32650744  0.81430891  0.00000000  1
  S  S95  1  0.67349256  0.18569109  0.00000000  1
  Se  Se96  1  0.19931468  0.32832939  0.50000000  1
  Se  Se97  1  0.80068532  0.67167061  0.50000000  1
  Se  Se98  1  0.30068532  0.82832939  0.50000000  1
  Se  Se99  1  0.69931468  0.17167061  0.50000000  1
  Se  Se100  1  0.35571133  0.70202545  0.00000000  1
  Se  Se101  1  0.64428867  0.29797455  0.00000000  1
  Se  Se102  1  0.14428867  0.20202545  0.00000000  1
  Se  Se103  1  0.85571133  0.79797455  -0.00000000  1
