# generated using pymatgen
data_Li2Ca3F8
_symmetry_space_group_name_H-M   'P 1'
_cell_length_a   13.55431456
_cell_length_b   13.55431456
_cell_length_c   12.35764170
_cell_angle_alpha   90.00000000
_cell_angle_beta   90.00000000
_cell_angle_gamma   90.00000000
_symmetry_Int_Tables_number   1
_chemical_formula_structural   Li2Ca3F8
_chemical_formula_sum   'Li16 Ca24 F64'
_cell_volume   2270.33905066
_cell_formula_units_Z   8
loop_
 _symmetry_equiv_pos_site_id
 _symmetry_equiv_pos_as_xyz
  1  'x, y, z'
loop_
 _atom_site_type_symbol
 _atom_site_label
 _atom_site_symmetry_multiplicity
 _atom_site_fract_x
 _atom_site_fract_y
 _atom_site_fract_z
 _atom_site_occupancy
  Ca  Ca0  1  0.22516457  0.12238634  0.50000000  1
  Ca  Ca1  1  0.77483543  0.87761366  0.50000000  1
  Ca  Ca2  1  0.87761366  0.22516457  0.50000000  1
  Ca  Ca3  1  0.12238634  0.77483543  0.50000000  1
  Ca  Ca4  1  0.77483543  0.12238634  0.50000000  1
  Ca  Ca5  1  0.22516457  0.87761366  0.50000000  1
  Ca  Ca6  1  0.12238634  0.22516457  0.50000000  1
  Ca  Ca7  1  0.87761366  0.77483543  0.50000000  1
  Ca  Ca8  1  0.12882681  0.12882681  0.00000000  1
  Ca  Ca9  1  0.87117319  0.87117319  0.00000000  1
  Ca  Ca10  1  0.87117319  0.12882681  0.00000000  1
  Ca  Ca11  1  0.12882681  0.87117319  0.00000000  1
  Ca  Ca12  1  0.00000000  0.00000000  0.27166690  1
  Ca  Ca13  1  0.00000000  0.00000000  0.72833310  1
  Ca  Ca14  1  0.36367422  0.36367422  0.00000000  1
  Ca  Ca15  1  0.63632578  0.63632578  0.00000000  1
  Ca  Ca16  1  0.63632578  0.36367422  0.00000000  1
  Ca  Ca17  1  0.36367422  0.63632578  0.00000000  1
  Ca  Ca18  1  0.50000000  0.50000000  0.50000000  1
  Ca  Ca19  1  0.14993779  0.00000000  0.50000000  1
  Ca  Ca20  1  0.85006221  0.00000000  0.50000000  1
  Ca  Ca21  1  0.00000000  0.14993779  0.50000000  1
  Ca  Ca22  1  0.00000000  0.85006221  0.50000000  1
  Ca  Ca23  1  0.50000000  0.50000000  0.00000000  1
  F  F24  1  0.00000000  0.50000000  0.50000000  1
  F  F25  1  0.50000000  0.00000000  0.50000000  1
  F  F26  1  0.45577643  0.88672933  0.00000000  1
  F  F27  1  0.54422357  0.11327067  -0.00000000  1
  F  F28  1  0.11327067  0.45577643  0.00000000  1
  F  F29  1  0.88672933  0.54422357  0.00000000  1
  F  F30  1  0.54422357  0.88672933  0.00000000  1
  F  F31  1  0.45577643  0.11327067  0.00000000  1
  F  F32  1  0.88672933  0.45577643  0.00000000  1
  F  F33  1  0.11327067  0.54422357  0.00000000  1
  F  F34  1  0.96516633  0.59096079  0.24638593  1
  F  F35  1  -0.96516633  -0.59096079  0.24638593  1
  F  F36  1  -0.59096079  0.96516633  0.24638593  1
  F  F37  1  0.59096079  -0.96516633  0.24638593  1
  F  F38  1  -0.96516633  0.59096079  -0.24638593  1
  F  F39  1  0.96516633  -0.59096079  -0.24638593  1
  F  F40  1  0.59096079  0.96516633  -0.24638593  1
  F  F41  1  -0.59096079  -0.96516633  -0.24638593  1
  F  F42  1  -0.96516633  -0.59096079  -0.24638593  1
  F  F43  1  0.96516633  0.59096079  -0.24638593  1
  F  F44  1  0.59096079  -0.96516633  -0.24638593  1
  F  F45  1  -0.59096079  0.96516633  -0.24638593  1
  F  F46  1  0.96516633  -0.59096079  0.24638593  1
  F  F47  1  -0.96516633  0.59096079  0.24638593  1
  F  F48  1  -0.59096079  -0.96516633  0.24638593  1
  F  F49  1  0.59096079  0.96516633  0.24638593  1
  F  F50  1  0.32807075  0.32807075  0.39075126  1
  F  F51  1  0.67192925  0.67192925  0.39075126  1
  F  F52  1  0.67192925  0.32807075  0.39075126  1
  F  F53  1  0.32807075  0.67192925  0.39075126  1
  F  F54  1  0.67192925  0.32807075  0.60924874  1
  F  F55  1  0.32807075  0.67192925  0.60924874  1
  F  F56  1  0.32807075  0.32807075  0.60924874  1
  F  F57  1  0.67192925  0.67192925  0.60924874  1
  F  F58  1  0.50000000  0.50000000  0.89695266  1
  F  F59  1  0.50000000  0.50000000  0.10304734  1
  F  F60  1  0.41845408  0.00000000  0.00000000  1
  F  F61  1  0.58154592  0.00000000  0.00000000  1
  F  F62  1  0.00000000  0.41845408  0.00000000  1
  F  F63  1  0.00000000  0.58154592  0.00000000  1
  F  F64  1  0.09823466  0.44683001  0.52335149  1
  F  F65  1  0.90176534  0.55316999  0.52335149  1
  F  F66  1  0.55316999  0.09823466  0.52335149  1
  F  F67  1  0.44683001  0.90176534  0.52335149  1
  F  F68  1  0.90176534  0.44683001  0.47664851  1
  F  F69  1  0.09823466  0.55316999  0.47664851  1
  F  F70  1  0.44683001  0.09823466  0.47664851  1
  F  F71  1  0.55316999  0.90176534  0.47664851  1
  F  F72  1  0.90176534  0.55316999  0.47664851  1
  F  F73  1  0.09823466  0.44683001  0.47664851  1
  F  F74  1  0.44683001  0.90176534  0.47664851  1
  F  F75  1  0.55316999  0.09823466  0.47664851  1
  F  F76  1  0.09823466  0.55316999  0.52335149  1
  F  F77  1  0.90176534  0.44683001  0.52335149  1
  F  F78  1  0.55316999  0.90176534  0.52335149  1
  F  F79  1  0.44683001  0.09823466  0.52335149  1
  F  F80  1  0.36362885  0.00000000  0.28148124  1
  F  F81  1  0.63637115  0.00000000  0.28148124  1
  F  F82  1  0.00000000  0.36362885  0.28148124  1
  F  F83  1  0.00000000  0.63637115  0.28148124  1
  F  F84  1  0.63637115  0.00000000  0.71851876  1
  F  F85  1  0.36362885  0.00000000  0.71851876  1
  F  F86  1  0.00000000  0.36362885  0.71851876  1
  F  F87  1  0.00000000  0.63637115  0.71851876  1
  Li  Li88  1  0.00000000  0.00000000  0.00000000  1
  Li  Li89  1  0.00000000  0.00000000  0.50000000  1
  Li  Li90  1  0.85526580  0.00000000  0.26959781  1
  Li  Li91  1  0.14473420  0.00000000  0.26959781  1
  Li  Li92  1  0.00000000  0.85526580  0.26959781  1
  Li  Li93  1  0.00000000  0.14473420  0.26959781  1
  Li  Li94  1  0.14473420  0.00000000  0.73040219  1
  Li  Li95  1  0.85526580  0.00000000  0.73040219  1
  Li  Li96  1  0.00000000  0.85526580  0.73040219  1
  Li  Li97  1  0.00000000  0.14473420  0.73040219  1
  Li  Li98  1  0.00000000  0.50000000  0.00000000  1
  Li  Li99  1  0.50000000  0.00000000  0.00000000  1
  Li  Li100  1  0.32958378  0.00000000  0.00000000  1
  Li  Li101  1  0.67041622  0.00000000  0.00000000  1
  Li  Li102  1  0.00000000  0.32958378  0.00000000  1
  Li  Li103  1  0.00000000  0.67041622  0.00000000  1
