# generated using pymatgen
data_LiAlSe2
_symmetry_space_group_name_H-M   'P 1'
_cell_length_a   13.75568329
_cell_length_b   13.75568329
_cell_length_c   13.75568329
_cell_angle_alpha   90.00000000
_cell_angle_beta   90.00000000
_cell_angle_gamma   90.00000000
_symmetry_Int_Tables_number   1
_chemical_formula_structural   LiAlSe2
_chemical_formula_sum   'Li24 Al24 Se48'
_cell_volume   2602.83419939
_cell_formula_units_Z   24
loop_
 _symmetry_equiv_pos_site_id
 _symmetry_equiv_pos_as_xyz
  1  'x, y, z'
loop_
 _atom_site_type_symbol
 _atom_site_label
 _atom_site_symmetry_multiplicity
 _atom_site_fract_x
 _atom_site_fract_y
 _atom_site_fract_z
 _atom_site_occupancy
  Al  Al0  1  0.04685920  0.00000000  0.25000000  1
  Al  Al1  1  0.45314080  0.00000000  0.75000000  1
  Al  Al2  1  0.25000000  0.04685920  0.00000000  1
  Al  Al3  1  0.75000000  0.45314080  0.00000000  1
  Al  Al4  1  0.00000000  0.25000000  0.04685920  1
  Al  Al5  1  0.00000000  0.75000000  0.45314080  1
  Al  Al6  1  0.75000000  0.29685920  0.00000000  1
  Al  Al7  1  0.75000000  0.70314080  0.50000000  1
  Al  Al8  1  0.79685920  0.50000000  0.25000000  1
  Al  Al9  1  0.20314080  0.00000000  0.25000000  1
  Al  Al10  1  0.00000000  0.25000000  0.20314080  1
  Al  Al11  1  0.50000000  0.25000000  0.79685920  1
  Al  Al12  1  0.54685920  0.50000000  0.75000000  1
  Al  Al13  1  0.95314080  0.50000000  1.25000000  1
  Al  Al14  1  0.75000000  0.54685920  0.50000000  1
  Al  Al15  1  1.25000000  0.95314080  0.50000000  1
  Al  Al16  1  0.50000000  0.75000000  0.54685920  1
  Al  Al17  1  0.50000000  1.25000000  0.95314080  1
  Al  Al18  1  1.25000000  0.79685920  0.50000000  1
  Al  Al19  1  1.25000000  1.20314080  1.00000000  1
  Al  Al20  1  1.29685920  1.00000000  0.75000000  1
  Al  Al21  1  0.70314080  0.50000000  0.75000000  1
  Al  Al22  1  0.50000000  0.75000000  0.70314080  1
  Al  Al23  1  1.00000000  0.75000000  1.29685920  1
  Li  Li24  1  0.12500000  0.71468060  0.53531940  1
  Li  Li25  1  0.37500000  0.28531940  0.03531940  1
  Li  Li26  1  0.87500000  0.21468060  0.96468060  1
  Li  Li27  1  0.62500000  0.78531940  0.46468060  1
  Li  Li28  1  0.53531940  0.12500000  0.71468060  1
  Li  Li29  1  0.03531940  0.37500000  0.28531940  1
  Li  Li30  1  0.96468060  0.87500000  0.21468060  1
  Li  Li31  1  0.46468060  0.62500000  0.78531940  1
  Li  Li32  1  0.71468060  0.53531940  0.12500000  1
  Li  Li33  1  0.28531940  0.03531940  0.37500000  1
  Li  Li34  1  0.21468060  0.96468060  0.87500000  1
  Li  Li35  1  0.78531940  0.46468060  0.62500000  1
  Li  Li36  1  0.62500000  0.21468060  0.03531940  1
  Li  Li37  1  0.87500000  0.78531940  0.53531940  1
  Li  Li38  1  0.37500000  0.71468060  0.46468060  1
  Li  Li39  1  0.12500000  0.28531940  0.96468060  1
  Li  Li40  1  0.03531940  0.62500000  0.21468060  1
  Li  Li41  1  0.53531940  0.87500000  0.78531940  1
  Li  Li42  1  0.46468060  0.37500000  0.71468060  1
  Li  Li43  1  0.96468060  0.12500000  0.28531940  1
  Li  Li44  1  0.21468060  0.03531940  0.62500000  1
  Li  Li45  1  0.78531940  0.53531940  0.87500000  1
  Li  Li46  1  0.71468060  0.46468060  0.37500000  1
  Li  Li47  1  0.28531940  0.96468060  0.12500000  1
  Se  Se48  1  0.76452751  0.00000000  0.25000000  1
  Se  Se49  1  0.73547249  0.00000000  0.75000000  1
  Se  Se50  1  0.25000000  0.76452751  0.00000000  1
  Se  Se51  1  0.75000000  0.73547249  0.00000000  1
  Se  Se52  1  0.00000000  0.25000000  0.76452751  1
  Se  Se53  1  0.00000000  0.75000000  0.73547249  1
  Se  Se54  1  0.75000000  0.01452751  0.00000000  1
  Se  Se55  1  0.75000000  0.98547249  0.50000000  1
  Se  Se56  1  0.51452751  0.50000000  0.25000000  1
  Se  Se57  1  0.48547249  0.00000000  0.25000000  1
  Se  Se58  1  0.00000000  0.25000000  0.48547249  1
  Se  Se59  1  0.50000000  0.25000000  0.51452751  1
  Se  Se60  1  0.26452751  0.50000000  0.75000000  1
  Se  Se61  1  0.23547249  0.50000000  0.25000000  1
  Se  Se62  1  0.75000000  0.26452751  0.50000000  1
  Se  Se63  1  0.25000000  0.23547249  0.50000000  1
  Se  Se64  1  0.50000000  0.75000000  0.26452751  1
  Se  Se65  1  0.50000000  0.25000000  0.23547249  1
  Se  Se66  1  0.25000000  0.51452751  0.50000000  1
  Se  Se67  1  0.25000000  0.48547249  0.00000000  1
  Se  Se68  1  0.01452751  0.00000000  0.75000000  1
  Se  Se69  1  0.98547249  0.50000000  0.75000000  1
  Se  Se70  1  0.50000000  0.75000000  0.98547249  1
  Se  Se71  1  0.00000000  0.75000000  0.01452751  1
  Se  Se72  1  0.12500000  0.12500000  0.12500000  1
  Se  Se73  1  0.37500000  0.87500000  0.62500000  1
  Se  Se74  1  0.87500000  0.62500000  0.37500000  1
  Se  Se75  1  0.62500000  0.37500000  0.87500000  1
  Se  Se76  1  0.62500000  0.62500000  0.62500000  1
  Se  Se77  1  0.87500000  0.37500000  0.12500000  1
  Se  Se78  1  0.37500000  0.12500000  0.87500000  1
  Se  Se79  1  0.12500000  0.87500000  0.37500000  1
  Se  Se80  1  0.53461733  0.53461733  0.53461733  1
  Se  Se81  1  0.96538267  0.46538267  0.03461733  1
  Se  Se82  1  0.46538267  0.03461733  0.96538267  1
  Se  Se83  1  0.03461733  0.96538267  0.46538267  1
  Se  Se84  1  0.28461733  0.78461733  0.71538267  1
  Se  Se85  1  0.21538267  0.21538267  0.21538267  1
  Se  Se86  1  0.78461733  0.71538267  0.28461733  1
  Se  Se87  1  0.71538267  0.28461733  0.78461733  1
  Se  Se88  1  0.03461733  0.03461733  0.03461733  1
  Se  Se89  1  0.46538267  0.96538267  0.53461733  1
  Se  Se90  1  0.96538267  0.53461733  0.46538267  1
  Se  Se91  1  0.53461733  0.46538267  0.96538267  1
  Se  Se92  1  0.78461733  0.28461733  0.21538267  1
  Se  Se93  1  0.71538267  0.71538267  0.71538267  1
  Se  Se94  1  0.28461733  0.21538267  0.78461733  1
  Se  Se95  1  0.21538267  0.78461733  0.28461733  1
