# generated using pymatgen
data_LiF
_symmetry_space_group_name_H-M   'P 1'
_cell_length_a   4.80914094
_cell_length_b   4.80914094
_cell_length_c   27.17141863
_cell_angle_alpha   90.00000000
_cell_angle_beta   90.00000000
_cell_angle_gamma   120.00000000
_symmetry_Int_Tables_number   1
_chemical_formula_structural   LiF
_chemical_formula_sum   'Li14 F14'
_cell_volume   544.22433203
_cell_formula_units_Z   14
loop_
 _symmetry_equiv_pos_site_id
 _symmetry_equiv_pos_as_xyz
  1  'x, y, z'
loop_
 _atom_site_type_symbol
 _atom_site_label
 _atom_site_symmetry_multiplicity
 _atom_site_fract_x
 _atom_site_fract_y
 _atom_site_fract_z
 _atom_site_occupancy
  F  F0  1  0.42261919  0.15108190  0.53076744  1
  F  F1  1  0.84891810  0.27153730  0.53076744  1
  F  F2  1  0.72846270  0.57738081  0.53076744  1
  F  F3  1  0.84891810  0.57738081  0.46923256  1
  F  F4  1  0.72846270  0.15108190  0.46923256  1
  F  F5  1  0.42261919  0.27153730  0.46923256  1
  F  F6  1  0.00000000  0.00000000  0.32682893  1
  F  F7  1  0.00000000  0.00000000  0.67317107  1
  F  F8  1  0.61197400  0.08394954  0.59069496  1
  F  F9  1  0.91605046  0.52802447  0.59069496  1
  F  F10  1  0.47197553  0.38802600  0.59069496  1
  F  F11  1  0.91605046  0.38802600  0.40930504  1
  F  F12  1  0.47197553  0.08394954  0.40930504  1
  F  F13  1  0.61197400  0.52802447  0.40930504  1
  Li  Li14  1  0.21692615  0.43388772  0.37238623  1
  Li  Li15  1  -0.43388772  -0.21696157  0.37238623  1
  Li  Li16  1  0.21696157  -0.21692615  0.37238623  1
  Li  Li17  1  -0.43388772  -0.21692615  -0.37238623  1
  Li  Li18  1  0.21696157  0.43388772  -0.37238623  1
  Li  Li19  1  0.21692615  -0.21696157  -0.37238623  1
  Li  Li20  1  0.33333333  0.66666667  -0.00000000  1
  Li  Li21  1  0.17665119  0.18139809  0.86420694  1
  Li  Li22  1  0.81860191  0.99525311  0.86420694  1
  Li  Li23  1  0.00474689  0.82334881  0.86420694  1
  Li  Li24  1  0.81860191  0.82334881  0.13579306  1
  Li  Li25  1  0.00474689  0.18139809  0.13579306  1
  Li  Li26  1  0.17665119  0.99525311  0.13579306  1
  Li  Li27  1  0.33333333  0.66666667  0.50000000  1
