# generated using pymatgen
data_LiF
_symmetry_space_group_name_H-M   'P 1'
_cell_length_a   9.25525108
_cell_length_b   9.25525108
_cell_length_c   8.56509776
_cell_angle_alpha   90.00000000
_cell_angle_beta   90.00000000
_cell_angle_gamma   120.00000000
_symmetry_Int_Tables_number   1
_chemical_formula_structural   LiF
_chemical_formula_sum   'Li21 F21'
_cell_volume   635.38852397
_cell_formula_units_Z   21
loop_
 _symmetry_equiv_pos_site_id
 _symmetry_equiv_pos_as_xyz
  1  'x, y, z'
loop_
 _atom_site_type_symbol
 _atom_site_label
 _atom_site_symmetry_multiplicity
 _atom_site_fract_x
 _atom_site_fract_y
 _atom_site_fract_z
 _atom_site_occupancy
  F  F0  1  0.71885236  0.85439723  0.85746584  1
  F  F1  1  0.14560277  0.86445513  0.85746584  1
  F  F2  1  0.13554487  0.28114764  0.85746584  1
  F  F3  1  0.14560277  0.28114764  0.14253416  1
  F  F4  1  0.13554487  0.85439723  0.14253416  1
  F  F5  1  0.71885236  0.86445513  0.14253416  1
  F  F6  1  0.42318978  0.35579652  0.48440383  1
  F  F7  1  0.64420348  0.06739326  0.48440383  1
  F  F8  1  0.93260674  0.57681022  0.48440383  1
  F  F9  1  0.64420348  0.57681022  0.51559617  1
  F  F10  1  0.93260674  0.35579652  0.51559617  1
  F  F11  1  0.42318978  0.06739326  0.51559617  1
  F  F12  1  0.23386959  0.84476097  0.04046931  1
  F  F13  1  0.15523903  0.38910862  0.04046931  1
  F  F14  1  0.61089138  0.76613041  0.04046931  1
  F  F15  1  0.15523903  0.76613041  0.95953069  1
  F  F16  1  0.61089138  0.84476097  0.95953069  1
  F  F17  1  0.23386959  0.38910862  0.95953069  1
  F  F18  1  0.00000000  0.00000000  0.93097854  1
  F  F19  1  0.00000000  0.00000000  0.06902146  1
  F  F20  1  0.66666667  0.33333333  -0.00000000  1
  Li  Li21  1  0.55726292  0.11103800  0.29860564  1
  Li  Li22  1  -0.11103800  0.44622492  0.29860564  1
  Li  Li23  1  -0.44622492  -0.55726292  0.29860564  1
  Li  Li24  1  -0.11103800  -0.55726292  -0.29860564  1
  Li  Li25  1  -0.44622492  0.11103800  -0.29860564  1
  Li  Li26  1  0.55726292  0.44622492  -0.29860564  1
  Li  Li27  1  0.33333333  0.66666667  0.64805521  1
  Li  Li28  1  0.33333333  0.66666667  0.35194479  1
  Li  Li29  1  0.33333333  0.66666667  -0.00000000  1
  Li  Li30  1  0.12269226  0.87730774  0.00000000  1
  Li  Li31  1  0.12269226  0.24538452  0.00000000  1
  Li  Li32  1  0.75461548  0.87730774  -0.00000000  1
  Li  Li33  1  0.88258449  0.63807148  0.04009552  1
  Li  Li34  1  0.36192852  0.24451301  0.04009552  1
  Li  Li35  1  0.75548699  0.11741551  0.04009552  1
  Li  Li36  1  0.36192852  0.11741551  0.95990448  1
  Li  Li37  1  0.75548699  0.63807148  0.95990448  1
  Li  Li38  1  0.88258449  0.24451301  0.95990448  1
  Li  Li39  1  0.09968580  0.90031420  0.50000000  1
  Li  Li40  1  0.09968580  0.19937159  0.50000000  1
  Li  Li41  1  0.80062841  0.90031420  0.50000000  1
