# generated using pymatgen
data_Li2Ti3Al2O2
_symmetry_space_group_name_H-M   'P 1'
_cell_length_a   6.19501408
_cell_length_b   6.25216510
_cell_length_c   7.73116224
_cell_angle_alpha   98.21516415
_cell_angle_beta   99.97374689
_cell_angle_gamma   90.09393459
_symmetry_Int_Tables_number   1
_chemical_formula_structural   Li2Ti3Al2O2
_chemical_formula_sum   'Li2 Ti3 Al2 O2'
_cell_volume   291.78655657
_cell_formula_units_Z   1
loop_
 _symmetry_equiv_pos_site_id
 _symmetry_equiv_pos_as_xyz
  1  'x, y, z'
loop_
 _atom_site_type_symbol
 _atom_site_label
 _atom_site_symmetry_multiplicity
 _atom_site_fract_x
 _atom_site_fract_y
 _atom_site_fract_z
 _atom_site_occupancy
  Al  Al0  1  0.12500000  0.00000000  0.25000000  1
  Al  Al1  1  0.00000000  0.00000000  0.00000000  1
  Ti  Ti2  1  0.37500000  0.00000000  0.25000000  1
  Ti  Ti3  1  0.25000000  0.25000000  0.25000000  1
  Ti  Ti4  1  0.00000000  0.25000000  0.12500000  1
  O  O5  1  0.77981746  0.44562395  0.86340036  1
  O  O6  1  0.99619576  0.60815143  0.52789339  1
  Li  Li7  1  0.57729487  0.13518473  0.71432590  1
  Li  Li8  1  0.81216242  0.96539964  0.69329473  1
