# generated using pymatgen
data_LiF
_symmetry_space_group_name_H-M   'P 1'
_cell_length_a   8.43488280
_cell_length_b   8.43488280
_cell_length_c   23.57140782
_cell_angle_alpha   90.00000000
_cell_angle_beta   90.00000000
_cell_angle_gamma   120.00000000
_symmetry_Int_Tables_number   1
_chemical_formula_structural   LiF
_chemical_formula_sum   'Li42 F42'
_cell_volume   1452.35993104
_cell_formula_units_Z   42
loop_
 _symmetry_equiv_pos_site_id
 _symmetry_equiv_pos_as_xyz
  1  'x, y, z'
loop_
 _atom_site_type_symbol
 _atom_site_label
 _atom_site_symmetry_multiplicity
 _atom_site_fract_x
 _atom_site_fract_y
 _atom_site_fract_z
 _atom_site_occupancy
  F  F0  1  0.21735182  0.27142218  0.08647786  1
  F  F1  1  0.72857782  0.94592965  0.08647786  1
  F  F2  1  0.05407035  0.78264818  0.08647786  1
  F  F3  1  0.27142218  0.21735182  0.41352214  1
  F  F4  1  0.94592965  0.72857782  0.41352214  1
  F  F5  1  0.78264818  0.05407035  0.41352214  1
  F  F6  1  0.78264818  0.72857782  0.91352214  1
  F  F7  1  0.27142218  0.05407035  0.91352214  1
  F  F8  1  0.94592965  0.21735182  0.91352214  1
  F  F9  1  0.72857782  0.78264818  0.58647786  1
  F  F10  1  0.05407035  0.27142218  0.58647786  1
  F  F11  1  0.21735182  0.94592965  0.58647786  1
  F  F12  1  0.88401849  0.60475551  0.41981119  1
  F  F13  1  0.39524449  0.27926298  0.41981119  1
  F  F14  1  0.72073702  0.11598151  0.41981119  1
  F  F15  1  0.93808884  0.55068516  0.74685547  1
  F  F16  1  0.61259631  0.06191116  0.74685547  1
  F  F17  1  0.44931484  0.38740369  0.74685547  1
  F  F18  1  0.44931484  0.06191116  0.24685547  1
  F  F19  1  0.93808884  0.38740369  0.24685547  1
  F  F20  1  0.61259631  0.55068516  0.24685547  1
  F  F21  1  0.39524449  0.11598151  0.91981119  1
  F  F22  1  0.72073702  0.60475551  0.91981119  1
  F  F23  1  0.88401849  0.27926298  0.91981119  1
  F  F24  1  0.55068516  0.93808884  0.75314453  1
  F  F25  1  0.06191116  0.61259631  0.75314453  1
  F  F26  1  0.38740369  0.44931484  0.75314453  1
  F  F27  1  0.60475551  0.88401849  0.08018881  1
  F  F28  1  0.27926298  0.39524449  0.08018881  1
  F  F29  1  0.11598151  0.72073702  0.08018881  1
  F  F30  1  0.11598151  0.39524449  0.58018881  1
  F  F31  1  0.60475551  0.72073702  0.58018881  1
  F  F32  1  0.27926298  0.88401849  0.58018881  1
  F  F33  1  0.06191116  0.44931484  0.25314453  1
  F  F34  1  0.38740369  0.93808884  0.25314453  1
  F  F35  1  0.55068516  0.61259631  0.25314453  1
  F  F36  1  0.00000000  0.00000000  0.00000000  1
  F  F37  1  0.00000000  0.00000000  0.50000000  1
  F  F38  1  0.66666667  0.33333333  0.33333333  1
  F  F39  1  0.66666667  0.33333333  0.83333333  1
  F  F40  1  0.33333333  0.66666667  0.66666667  1
  F  F41  1  0.33333333  0.66666667  0.16666667  1
  Li  Li42  1  0.12802692  0.52842090  0.14392497  1
  Li  Li43  1  -0.52842090  -0.40039398  0.14392497  1
  Li  Li44  1  0.40039398  -0.12802692  0.14392497  1
  Li  Li45  1  0.52842090  0.12802692  0.35607503  1
  Li  Li46  1  -0.40039398  -0.52842090  0.35607503  1
  Li  Li47  1  -0.12802692  0.40039398  0.35607503  1
  Li  Li48  1  -0.12802692  -0.52842090  -0.14392497  1
  Li  Li49  1  0.52842090  0.40039398  -0.14392497  1
  Li  Li50  1  -0.40039398  0.12802692  -0.14392497  1
  Li  Li51  1  -0.52842090  -0.12802692  0.64392497  1
  Li  Li52  1  0.40039398  0.52842090  0.64392497  1
  Li  Li53  1  0.12802692  -0.40039398  0.64392497  1
  Li  Li54  1  0.79469358  0.86175423  0.47725830  1
  Li  Li55  1  0.13824577  -0.06706064  0.47725830  1
  Li  Li56  1  1.06706064  0.20530642  0.47725830  1
  Li  Li57  1  1.19508756  0.46136025  0.68940836  1
  Li  Li58  1  0.26627269  -0.19508756  0.68940836  1
  Li  Li59  1  0.53863975  0.73372731  0.68940836  1
  Li  Li60  1  0.53863975  -0.19508756  0.18940836  1
  Li  Li61  1  1.19508756  0.73372731  0.18940836  1
  Li  Li62  1  0.26627269  0.46136025  0.18940836  1
  Li  Li63  1  0.13824577  0.20530642  0.97725830  1
  Li  Li64  1  1.06706064  0.86175423  0.97725830  1
  Li  Li65  1  0.79469358  -0.06706064  0.97725830  1
  Li  Li66  1  0.46136025  1.19508756  0.81059164  1
  Li  Li67  1  -0.19508756  0.26627269  0.81059164  1
  Li  Li68  1  0.73372731  0.53863975  0.81059164  1
  Li  Li69  1  0.86175423  0.79469358  1.02274170  1
  Li  Li70  1  -0.06706064  0.13824577  1.02274170  1
  Li  Li71  1  0.20530642  1.06706064  1.02274170  1
  Li  Li72  1  0.20530642  0.13824577  0.52274170  1
  Li  Li73  1  0.86175423  1.06706064  0.52274170  1
  Li  Li74  1  -0.06706064  0.79469358  0.52274170  1
  Li  Li75  1  -0.19508756  0.53863975  1.31059164  1
  Li  Li76  1  0.73372731  1.19508756  1.31059164  1
  Li  Li77  1  0.46136025  0.26627269  1.31059164  1
  Li  Li78  1  0.00000000  0.00000000  0.25000000  1
  Li  Li79  1  0.00000000  0.00000000  0.75000000  1
  Li  Li80  1  0.66666667  0.33333333  0.58333333  1
  Li  Li81  1  0.66666667  0.33333333  0.08333333  1
  Li  Li82  1  0.33333333  0.66666667  0.91666667  1
  Li  Li83  1  0.33333333  0.66666667  0.41666667  1
