# generated using pymatgen
data_LiAs4P2Se
_symmetry_space_group_name_H-M   'P 1'
_cell_length_a   4.57664217
_cell_length_b   4.84440665
_cell_length_c   6.31537134
_cell_angle_alpha   94.66319553
_cell_angle_beta   98.92702163
_cell_angle_gamma   105.47549322
_symmetry_Int_Tables_number   1
_chemical_formula_structural   LiAs4P2Se
_chemical_formula_sum   'Li1 As4 P2 Se1'
_cell_volume   132.19604412
_cell_formula_units_Z   1
loop_
 _symmetry_equiv_pos_site_id
 _symmetry_equiv_pos_as_xyz
  1  'x, y, z'
loop_
 _atom_site_type_symbol
 _atom_site_label
 _atom_site_symmetry_multiplicity
 _atom_site_fract_x
 _atom_site_fract_y
 _atom_site_fract_z
 _atom_site_occupancy
  P  P0  1  0.12500000  0.12500000  0.12500000  1
  P  P1  1  0.50000000  0.50000000  0.50000000  1
  Se  Se2  1  0.25000000  0.25000000  0.25000000  1
  As  As3  1  0.75000000  0.75000000  0.75000000  1
  As  As4  1  0.88546193  0.38724902  0.38121781  1
  As  As5  1  0.43557186  0.66822632  0.61328372  1
  As  As6  1  0.71437514  0.29976998  0.57961309  1
  Li  Li7  1  0.83638409  0.67659991  0.60476540  1
