# generated using pymatgen
data_Li2Si4Te3F12
_symmetry_space_group_name_H-M   'P 1'
_cell_length_a   15.49731811
_cell_length_b   15.49731811
_cell_length_c   4.49710537
_cell_angle_alpha   90.00000000
_cell_angle_beta   90.00000000
_cell_angle_gamma   90.00000000
_symmetry_Int_Tables_number   1
_chemical_formula_structural   Li2Si4Te3F12
_chemical_formula_sum   'Li8 Si16 Te12 F48'
_cell_volume   1080.05571499
_cell_formula_units_Z   4
loop_
 _symmetry_equiv_pos_site_id
 _symmetry_equiv_pos_as_xyz
  1  'x, y, z'
loop_
 _atom_site_type_symbol
 _atom_site_label
 _atom_site_symmetry_multiplicity
 _atom_site_fract_x
 _atom_site_fract_y
 _atom_site_fract_z
 _atom_site_occupancy
  F  F0  1  0.00000000  0.56619931  0.38917116  1
  F  F1  1  0.50000000  0.43380069  0.88917116  1
  F  F2  1  0.68380069  0.75000000  0.63917116  1
  F  F3  1  0.81619931  0.25000000  0.13917116  1
  F  F4  1  0.50000000  0.56619931  0.11082884  1
  F  F5  1  0.00000000  0.43380069  0.61082884  1
  F  F6  1  0.81619931  0.75000000  0.86082884  1
  F  F7  1  0.68380069  0.25000000  0.36082884  1
  F  F8  1  0.50000000  0.06619931  0.88917116  1
  F  F9  1  0.00000000  0.93380069  0.38917116  1
  F  F10  1  0.18380069  0.25000000  0.13917116  1
  F  F11  1  0.31619931  0.75000000  0.63917116  1
  F  F12  1  0.00000000  0.06619931  0.61082884  1
  F  F13  1  0.50000000  0.93380069  0.11082884  1
  F  F14  1  0.31619931  0.25000000  0.36082884  1
  F  F15  1  0.18380069  0.75000000  0.86082884  1
  F  F16  1  0.36122904  0.71020371  0.38947947  1
  F  F17  1  0.13877096  -0.71020371  0.88947947  1
  F  F18  1  -0.46020371  1.11122904  0.63947947  1
  F  F19  1  0.96020371  -0.11122904  1.13947947  1
  F  F20  1  0.13877096  0.71020371  0.11052053  1
  F  F21  1  0.36122904  -0.71020371  -0.38947947  1
  F  F22  1  0.96020371  1.11122904  -0.13947947  1
  F  F23  1  -0.46020371  -0.11122904  0.36052053  1
  F  F24  1  -0.36122904  -0.71020371  -0.38947947  1
  F  F25  1  0.86122904  0.71020371  0.11052053  1
  F  F26  1  1.46020371  -0.11122904  0.36052053  1
  F  F27  1  0.03979629  1.11122904  -0.13947947  1
  F  F28  1  0.86122904  -0.71020371  0.88947947  1
  F  F29  1  -0.36122904  0.71020371  0.38947947  1
  F  F30  1  0.03979629  -0.11122904  1.13947947  1
  F  F31  1  1.46020371  1.11122904  0.63947947  1
  F  F32  1  0.86122904  1.21020371  0.88947947  1
  F  F33  1  0.63877096  -0.21020371  1.38947947  1
  F  F34  1  0.03979629  1.61122904  1.13947947  1
  F  F35  1  1.46020371  0.38877096  1.63947947  1
  F  F36  1  0.63877096  1.21020371  0.61052053  1
  F  F37  1  0.86122904  -0.21020371  0.11052053  1
  F  F38  1  1.46020371  1.61122904  0.36052053  1
  F  F39  1  0.03979629  0.38877096  0.86052053  1
  F  F40  1  0.13877096  -0.21020371  0.11052053  1
  F  F41  1  1.36122904  1.21020371  0.61052053  1
  F  F42  1  1.96020371  0.38877096  0.86052053  1
  F  F43  1  0.53979629  1.61122904  0.36052053  1
  F  F44  1  1.36122904  -0.21020371  1.38947947  1
  F  F45  1  0.13877096  1.21020371  0.88947947  1
  F  F46  1  0.53979629  0.38877096  1.63947947  1
  F  F47  1  1.96020371  1.61122904  1.13947947  1
  Li  Li48  1  0.00000000  0.00000000  0.50000000  1
  Li  Li49  1  0.50000000  0.00000000  0.00000000  1
  Li  Li50  1  0.25000000  0.75000000  0.75000000  1
  Li  Li51  1  0.25000000  0.25000000  0.25000000  1
  Li  Li52  1  0.50000000  0.50000000  0.00000000  1
  Li  Li53  1  0.00000000  0.50000000  0.50000000  1
  Li  Li54  1  0.75000000  0.25000000  0.25000000  1
  Li  Li55  1  0.75000000  0.75000000  0.75000000  1
  Si  Si56  1  0.00000000  0.65698550  0.39516619  1
  Si  Si57  1  0.50000000  0.34301450  0.89516619  1
  Si  Si58  1  0.59301450  0.75000000  0.64516619  1
  Si  Si59  1  0.90698550  0.25000000  0.14516619  1
  Si  Si60  1  0.50000000  0.65698550  0.10483381  1
  Si  Si61  1  0.00000000  0.34301450  0.60483381  1
  Si  Si62  1  0.90698550  0.75000000  0.85483381  1
  Si  Si63  1  0.59301450  0.25000000  0.35483381  1
  Si  Si64  1  0.50000000  0.15698550  0.89516619  1
  Si  Si65  1  0.00000000  0.84301450  0.39516619  1
  Si  Si66  1  0.09301450  0.25000000  0.14516619  1
  Si  Si67  1  0.40698550  0.75000000  0.64516619  1
  Si  Si68  1  0.00000000  0.15698550  0.60483381  1
  Si  Si69  1  0.50000000  0.84301450  0.10483381  1
  Si  Si70  1  0.40698550  0.25000000  0.35483381  1
  Si  Si71  1  0.09301450  0.75000000  0.85483381  1
  Te  Te72  1  0.00000000  0.00000000  0.00000000  1
  Te  Te73  1  0.50000000  0.00000000  0.50000000  1
  Te  Te74  1  0.25000000  0.75000000  0.25000000  1
  Te  Te75  1  0.25000000  0.25000000  0.75000000  1
  Te  Te76  1  0.50000000  0.50000000  0.50000000  1
  Te  Te77  1  0.00000000  0.50000000  0.00000000  1
  Te  Te78  1  0.75000000  0.25000000  0.75000000  1
  Te  Te79  1  0.75000000  0.75000000  0.25000000  1
  Te  Te80  1  0.00000000  0.75000000  0.12500000  1
  Te  Te81  1  0.50000000  0.75000000  0.37500000  1
  Te  Te82  1  0.50000000  0.25000000  0.62500000  1
  Te  Te83  1  0.00000000  0.25000000  0.87500000  1
