# generated using pymatgen
data_LiCu3PSe
_symmetry_space_group_name_H-M   'P 1'
_cell_length_a   4.21718840
_cell_length_b   4.41224540
_cell_length_c   6.22643069
_cell_angle_alpha   95.61427414
_cell_angle_beta   100.17735293
_cell_angle_gamma   109.33635496
_symmetry_Int_Tables_number   1
_chemical_formula_structural   LiCu3PSe
_chemical_formula_sum   'Li1 Cu3 P1 Se1'
_cell_volume   106.06596742
_cell_formula_units_Z   1
loop_
 _symmetry_equiv_pos_site_id
 _symmetry_equiv_pos_as_xyz
  1  'x, y, z'
loop_
 _atom_site_type_symbol
 _atom_site_label
 _atom_site_symmetry_multiplicity
 _atom_site_fract_x
 _atom_site_fract_y
 _atom_site_fract_z
 _atom_site_occupancy
  P  P0  1  0.00000000  0.00000000  0.00000000  1
  Se  Se1  1  0.33300000  0.66700000  0.25000000  1
  Li  Li2  1  0.66700000  0.33300000  0.50000000  1
  Cu  Cu3  1  0.00000000  0.00000000  0.75000000  1
  Cu  Cu4  1  0.50548451  0.27981174  0.91841746  1
  Cu  Cu5  1  0.20316117  0.39448233  0.76768305  1
