# generated using pymatgen
data_Li2O
_symmetry_space_group_name_H-M   'P 1'
_cell_length_a   10.40723040
_cell_length_b   10.40723040
_cell_length_c   10.40723040
_cell_angle_alpha   90.00000000
_cell_angle_beta   90.00000000
_cell_angle_gamma   90.00000000
_symmetry_Int_Tables_number   1
_chemical_formula_structural   Li2O
_chemical_formula_sum   'Li96 O48'
_cell_volume   1127.21175098
_cell_formula_units_Z   48
loop_
 _symmetry_equiv_pos_site_id
 _symmetry_equiv_pos_as_xyz
  1  'x, y, z'
loop_
 _atom_site_type_symbol
 _atom_site_label
 _atom_site_symmetry_multiplicity
 _atom_site_fract_x
 _atom_site_fract_y
 _atom_site_fract_z
 _atom_site_occupancy
  Li  Li0  1  0.50000000  0.50000000  0.50000000  1
  Li  Li1  1  0.50000000  0.00000000  0.00000000  1
  Li  Li2  1  0.00000000  0.50000000  0.00000000  1
  Li  Li3  1  0.00000000  0.00000000  0.50000000  1
  Li  Li4  1  0.41812059  0.41812059  0.41812059  1
  Li  Li5  1  0.58187941  0.58187941  0.41812059  1
  Li  Li6  1  0.58187941  0.41812059  0.58187941  1
  Li  Li7  1  0.41812059  0.58187941  0.58187941  1
  Li  Li8  1  0.41812059  0.91812059  0.91812059  1
  Li  Li9  1  0.58187941  0.08187941  0.91812059  1
  Li  Li10  1  0.58187941  0.91812059  0.08187941  1
  Li  Li11  1  0.41812059  0.08187941  0.08187941  1
  Li  Li12  1  0.91812059  0.41812059  0.91812059  1
  Li  Li13  1  0.08187941  0.58187941  0.91812059  1
  Li  Li14  1  0.08187941  0.41812059  0.08187941  1
  Li  Li15  1  0.91812059  0.58187941  0.08187941  1
  Li  Li16  1  0.91812059  0.91812059  0.41812059  1
  Li  Li17  1  0.08187941  0.08187941  0.41812059  1
  Li  Li18  1  0.08187941  0.91812059  0.58187941  1
  Li  Li19  1  0.91812059  0.08187941  0.58187941  1
  Li  Li20  1  0.83266644  0.83266644  0.56357053  1
  Li  Li21  1  0.16733356  0.16733356  0.56357053  1
  Li  Li22  1  0.16733356  0.83266644  0.43642947  1
  Li  Li23  1  0.83266644  0.16733356  0.43642947  1
  Li  Li24  1  0.56357053  0.83266644  0.83266644  1
  Li  Li25  1  0.56357053  0.16733356  0.16733356  1
  Li  Li26  1  0.43642947  0.16733356  0.83266644  1
  Li  Li27  1  0.43642947  0.83266644  0.16733356  1
  Li  Li28  1  0.83266644  0.56357053  0.83266644  1
  Li  Li29  1  0.16733356  0.56357053  0.16733356  1
  Li  Li30  1  0.83266644  0.43642947  0.16733356  1
  Li  Li31  1  0.16733356  0.43642947  0.83266644  1
  Li  Li32  1  0.83266644  0.33266644  0.06357053  1
  Li  Li33  1  0.16733356  0.66733356  0.06357053  1
  Li  Li34  1  0.16733356  0.33266644  0.93642947  1
  Li  Li35  1  0.83266644  0.66733356  0.93642947  1
  Li  Li36  1  0.56357053  0.33266644  0.33266644  1
  Li  Li37  1  0.56357053  0.66733356  0.66733356  1
  Li  Li38  1  0.43642947  0.66733356  0.33266644  1
  Li  Li39  1  0.43642947  0.33266644  0.66733356  1
  Li  Li40  1  0.83266644  0.06357053  0.33266644  1
  Li  Li41  1  0.16733356  0.06357053  0.66733356  1
  Li  Li42  1  0.83266644  0.93642947  0.66733356  1
  Li  Li43  1  0.16733356  0.93642947  0.33266644  1
  Li  Li44  1  0.33266644  0.83266644  0.06357053  1
  Li  Li45  1  0.66733356  0.16733356  0.06357053  1
  Li  Li46  1  0.66733356  0.83266644  0.93642947  1
  Li  Li47  1  0.33266644  0.16733356  0.93642947  1
  Li  Li48  1  0.06357053  0.83266644  0.33266644  1
  Li  Li49  1  0.06357053  0.16733356  0.66733356  1
  Li  Li50  1  0.93642947  0.16733356  0.33266644  1
  Li  Li51  1  0.93642947  0.83266644  0.66733356  1
  Li  Li52  1  0.33266644  0.56357053  0.33266644  1
  Li  Li53  1  0.66733356  0.56357053  0.66733356  1
  Li  Li54  1  0.33266644  0.43642947  0.66733356  1
  Li  Li55  1  0.66733356  0.43642947  0.33266644  1
  Li  Li56  1  0.33266644  0.33266644  0.56357053  1
  Li  Li57  1  0.66733356  0.66733356  0.56357053  1
  Li  Li58  1  0.66733356  0.33266644  0.43642947  1
  Li  Li59  1  0.33266644  0.66733356  0.43642947  1
  Li  Li60  1  0.06357053  0.33266644  0.83266644  1
  Li  Li61  1  0.06357053  0.66733356  0.16733356  1
  Li  Li62  1  0.93642947  0.66733356  0.83266644  1
  Li  Li63  1  0.93642947  0.33266644  0.16733356  1
  Li  Li64  1  0.33266644  0.06357053  0.83266644  1
  Li  Li65  1  0.66733356  0.06357053  0.16733356  1
  Li  Li66  1  0.33266644  0.93642947  0.16733356  1
  Li  Li67  1  0.66733356  0.93642947  0.83266644  1
  Li  Li68  1  0.47857800  0.25000000  0.25000000  1
  Li  Li69  1  0.52142200  0.75000000  0.25000000  1
  Li  Li70  1  0.25000000  0.47857800  0.25000000  1
  Li  Li71  1  0.25000000  0.52142200  0.75000000  1
  Li  Li72  1  0.25000000  0.25000000  0.47857800  1
  Li  Li73  1  0.75000000  0.25000000  0.52142200  1
  Li  Li74  1  0.47857800  0.75000000  0.75000000  1
  Li  Li75  1  0.52142200  0.25000000  0.75000000  1
  Li  Li76  1  0.25000000  0.97857800  0.75000000  1
  Li  Li77  1  0.25000000  0.02142200  0.25000000  1
  Li  Li78  1  0.25000000  0.75000000  0.97857800  1
  Li  Li79  1  0.75000000  0.75000000  0.02142200  1
  Li  Li80  1  0.97857800  0.25000000  0.75000000  1
  Li  Li81  1  0.02142200  0.75000000  0.75000000  1
  Li  Li82  1  0.75000000  0.47857800  0.75000000  1
  Li  Li83  1  0.75000000  0.52142200  0.25000000  1
  Li  Li84  1  0.75000000  0.25000000  0.97857800  1
  Li  Li85  1  0.25000000  0.25000000  0.02142200  1
  Li  Li86  1  0.97857800  0.75000000  0.25000000  1
  Li  Li87  1  0.02142200  0.25000000  0.25000000  1
  Li  Li88  1  0.75000000  0.97857800  0.25000000  1
  Li  Li89  1  0.75000000  0.02142200  0.75000000  1
  Li  Li90  1  0.75000000  0.75000000  0.47857800  1
  Li  Li91  1  0.25000000  0.75000000  0.52142200  1
  Li  Li92  1  0.25000000  0.25000000  0.25000000  1
  Li  Li93  1  0.25000000  0.75000000  0.75000000  1
  Li  Li94  1  0.75000000  0.25000000  0.75000000  1
  Li  Li95  1  0.75000000  0.75000000  0.25000000  1
  O  O96  1  0.64551882  0.64551882  0.22635234  1
  O  O97  1  -0.64551882  -0.64551882  0.22635234  1
  O  O98  1  -0.64551882  0.64551882  -0.22635234  1
  O  O99  1  0.64551882  -0.64551882  -0.22635234  1
  O  O100  1  0.22635234  0.64551882  0.64551882  1
  O  O101  1  0.22635234  -0.64551882  -0.64551882  1
  O  O102  1  -0.22635234  -0.64551882  0.64551882  1
  O  O103  1  -0.22635234  0.64551882  -0.64551882  1
  O  O104  1  0.64551882  0.22635234  0.64551882  1
  O  O105  1  -0.64551882  0.22635234  -0.64551882  1
  O  O106  1  0.64551882  -0.22635234  -0.64551882  1
  O  O107  1  -0.64551882  -0.22635234  0.64551882  1
  O  O108  1  0.64551882  1.14551882  0.72635234  1
  O  O109  1  -0.64551882  -0.14551882  0.72635234  1
  O  O110  1  -0.64551882  1.14551882  0.27364766  1
  O  O111  1  0.64551882  -0.14551882  0.27364766  1
  O  O112  1  0.22635234  1.14551882  1.14551882  1
  O  O113  1  0.22635234  -0.14551882  -0.14551882  1
  O  O114  1  -0.22635234  -0.14551882  1.14551882  1
  O  O115  1  -0.22635234  1.14551882  -0.14551882  1
  O  O116  1  0.64551882  0.72635234  1.14551882  1
  O  O117  1  -0.64551882  0.72635234  -0.14551882  1
  O  O118  1  0.64551882  0.27364766  -0.14551882  1
  O  O119  1  -0.64551882  0.27364766  1.14551882  1
  O  O120  1  1.14551882  0.64551882  0.72635234  1
  O  O121  1  -0.14551882  -0.64551882  0.72635234  1
  O  O122  1  -0.14551882  0.64551882  0.27364766  1
  O  O123  1  1.14551882  -0.64551882  0.27364766  1
  O  O124  1  0.72635234  0.64551882  1.14551882  1
  O  O125  1  0.72635234  -0.64551882  -0.14551882  1
  O  O126  1  0.27364766  -0.64551882  1.14551882  1
  O  O127  1  0.27364766  0.64551882  -0.14551882  1
  O  O128  1  1.14551882  0.22635234  1.14551882  1
  O  O129  1  -0.14551882  0.22635234  -0.14551882  1
  O  O130  1  1.14551882  -0.22635234  -0.14551882  1
  O  O131  1  -0.14551882  -0.22635234  1.14551882  1
  O  O132  1  1.14551882  1.14551882  0.22635234  1
  O  O133  1  -0.14551882  -0.14551882  0.22635234  1
  O  O134  1  -0.14551882  1.14551882  -0.22635234  1
  O  O135  1  1.14551882  -0.14551882  -0.22635234  1
  O  O136  1  0.72635234  1.14551882  0.64551882  1
  O  O137  1  0.72635234  -0.14551882  -0.64551882  1
  O  O138  1  0.27364766  -0.14551882  0.64551882  1
  O  O139  1  0.27364766  1.14551882  -0.64551882  1
  O  O140  1  1.14551882  0.72635234  0.64551882  1
  O  O141  1  -0.14551882  0.72635234  -0.64551882  1
  O  O142  1  1.14551882  0.27364766  -0.64551882  1
  O  O143  1  -0.14551882  0.27364766  0.64551882  1
