# generated using pymatgen
data_LiF
_symmetry_space_group_name_H-M   'P 1'
_cell_length_a   12.93809692
_cell_length_b   12.93809692
_cell_length_c   5.20016140
_cell_angle_alpha   90.00000000
_cell_angle_beta   90.00000000
_cell_angle_gamma   90.00000000
_symmetry_Int_Tables_number   1
_chemical_formula_structural   LiF
_chemical_formula_sum   'Li34 F34'
_cell_volume   870.47764784
_cell_formula_units_Z   34
loop_
 _symmetry_equiv_pos_site_id
 _symmetry_equiv_pos_as_xyz
  1  'x, y, z'
loop_
 _atom_site_type_symbol
 _atom_site_label
 _atom_site_symmetry_multiplicity
 _atom_site_fract_x
 _atom_site_fract_y
 _atom_site_fract_z
 _atom_site_occupancy
  F  F0  1  0.00000000  0.00000000  0.76473562  1
  F  F1  1  0.00000000  0.00000000  0.23526438  1
  F  F2  1  0.52640674  0.87701112  0.32258712  1
  F  F3  1  -0.52640674  -0.87701112  0.32258712  1
  F  F4  1  -0.87701112  0.52640674  0.32258712  1
  F  F5  1  0.87701112  -0.52640674  0.32258712  1
  F  F6  1  -0.52640674  0.87701112  -0.32258712  1
  F  F7  1  0.52640674  -0.87701112  -0.32258712  1
  F  F8  1  0.87701112  0.52640674  -0.32258712  1
  F  F9  1  -0.87701112  -0.52640674  -0.32258712  1
  F  F10  1  -0.52640674  -0.87701112  -0.32258712  1
  F  F11  1  0.52640674  0.87701112  -0.32258712  1
  F  F12  1  0.87701112  -0.52640674  -0.32258712  1
  F  F13  1  -0.87701112  0.52640674  -0.32258712  1
  F  F14  1  0.52640674  -0.87701112  0.32258712  1
  F  F15  1  -0.52640674  0.87701112  0.32258712  1
  F  F16  1  -0.87701112  -0.52640674  0.32258712  1
  F  F17  1  0.87701112  0.52640674  0.32258712  1
  F  F18  1  0.83100340  0.05798614  0.25809780  1
  F  F19  1  0.16899660  0.94201386  0.25809780  1
  F  F20  1  0.94201386  0.83100340  0.25809780  1
  F  F21  1  0.05798614  0.16899660  0.25809780  1
  F  F22  1  0.16899660  0.05798614  0.74190220  1
  F  F23  1  0.83100340  0.94201386  0.74190220  1
  F  F24  1  0.05798614  0.83100340  0.74190220  1
  F  F25  1  0.94201386  0.16899660  0.74190220  1
  F  F26  1  0.16899660  0.94201386  0.74190220  1
  F  F27  1  0.83100340  0.05798614  0.74190220  1
  F  F28  1  0.05798614  0.16899660  0.74190220  1
  F  F29  1  0.94201386  0.83100340  0.74190220  1
  F  F30  1  0.83100340  0.94201386  0.25809780  1
  F  F31  1  0.16899660  0.05798614  0.25809780  1
  F  F32  1  0.94201386  0.16899660  0.25809780  1
  F  F33  1  0.05798614  0.83100340  0.25809780  1
  Li  Li34  1  0.68656579  0.80251022  0.00000000  1
  Li  Li35  1  0.31343421  0.19748978  0.00000000  1
  Li  Li36  1  0.19748978  0.68656579  0.00000000  1
  Li  Li37  1  0.80251022  0.31343421  0.00000000  1
  Li  Li38  1  0.31343421  0.80251022  0.00000000  1
  Li  Li39  1  0.68656579  0.19748978  0.00000000  1
  Li  Li40  1  0.80251022  0.68656579  0.00000000  1
  Li  Li41  1  0.19748978  0.31343421  0.00000000  1
  Li  Li42  1  0.90610880  0.73481932  0.00000000  1
  Li  Li43  1  0.09389120  0.26518068  0.00000000  1
  Li  Li44  1  0.26518068  0.90610880  0.00000000  1
  Li  Li45  1  0.73481932  0.09389120  0.00000000  1
  Li  Li46  1  0.09389120  0.73481932  0.00000000  1
  Li  Li47  1  0.90610880  0.26518068  0.00000000  1
  Li  Li48  1  0.73481932  0.90610880  0.00000000  1
  Li  Li49  1  0.26518068  0.09389120  0.00000000  1
  Li  Li50  1  0.71976505  0.71976505  0.83935101  1
  Li  Li51  1  0.28023495  0.28023495  0.83935101  1
  Li  Li52  1  0.28023495  0.71976505  0.83935101  1
  Li  Li53  1  0.71976505  0.28023495  0.83935101  1
  Li  Li54  1  0.28023495  0.71976505  0.16064899  1
  Li  Li55  1  0.71976505  0.28023495  0.16064899  1
  Li  Li56  1  0.71976505  0.71976505  0.16064899  1
  Li  Li57  1  0.28023495  0.28023495  0.16064899  1
  Li  Li58  1  0.88397651  0.88397651  0.00000000  1
  Li  Li59  1  0.11602349  0.11602349  0.00000000  1
  Li  Li60  1  0.11602349  0.88397651  0.00000000  1
  Li  Li61  1  0.88397651  0.11602349  0.00000000  1
  Li  Li62  1  0.00000000  0.00000000  0.50000000  1
  Li  Li63  1  0.50000000  0.50000000  0.00000000  1
  Li  Li64  1  0.00000000  0.50000000  0.00000000  1
  Li  Li65  1  0.50000000  0.00000000  0.00000000  1
  Li  Li66  1  0.00000000  0.50000000  0.50000000  1
  Li  Li67  1  0.50000000  0.00000000  0.50000000  1
