# generated using pymatgen
data_LiF
_symmetry_space_group_name_H-M   'P 1'
_cell_length_a   9.75559837
_cell_length_b   9.75559837
_cell_length_c   6.46504403
_cell_angle_alpha   90.00000000
_cell_angle_beta   90.00000000
_cell_angle_gamma   120.00000000
_symmetry_Int_Tables_number   1
_chemical_formula_structural   LiF
_chemical_formula_sum   'Li17 F17'
_cell_volume   532.85610191
_cell_formula_units_Z   17
loop_
 _symmetry_equiv_pos_site_id
 _symmetry_equiv_pos_as_xyz
  1  'x, y, z'
loop_
 _atom_site_type_symbol
 _atom_site_label
 _atom_site_symmetry_multiplicity
 _atom_site_fract_x
 _atom_site_fract_y
 _atom_site_fract_z
 _atom_site_occupancy
  F  F0  1  0.87640986  0.15078453  0.77795398  1
  F  F1  1  0.84921547  0.72562533  0.77795398  1
  F  F2  1  0.27437467  0.12359014  0.77795398  1
  F  F3  1  0.84921547  0.12359014  0.22204602  1
  F  F4  1  0.27437467  0.15078453  0.22204602  1
  F  F5  1  0.87640986  0.72562533  0.22204602  1
  F  F6  1  0.39166772  0.20318265  0.29624364  1
  F  F7  1  0.79681735  0.18848508  0.29624364  1
  F  F8  1  0.81151492  0.60833228  0.29624364  1
  F  F9  1  0.79681735  0.60833228  0.70375636  1
  F  F10  1  0.81151492  0.20318265  0.70375636  1
  F  F11  1  0.39166772  0.18848508  0.70375636  1
  F  F12  1  0.93529778  0.06470222  0.50000000  1
  F  F13  1  0.93529778  0.87059556  0.50000000  1
  F  F14  1  0.12940444  0.06470222  0.50000000  1
  F  F15  1  0.33333333  0.66666667  0.66617530  1
  F  F16  1  0.33333333  0.66666667  0.33382470  1
  Li  Li17  1  0.66666667  0.33333333  0.00000000  1
  Li  Li18  1  0.99155836  0.10203735  0.79836651  1
  Li  Li19  1  -0.10203735  0.88952101  0.79836651  1
  Li  Li20  1  -0.88952101  -0.99155836  0.79836651  1
  Li  Li21  1  -0.10203735  -0.99155836  -0.79836651  1
  Li  Li22  1  -0.88952101  0.10203735  -0.79836651  1
  Li  Li23  1  0.99155836  0.88952101  -0.79836651  1
  Li  Li24  1  0.30299917  0.95008980  0.98740766  1
  Li  Li25  1  0.04991020  0.35290937  0.98740766  1
  Li  Li26  1  0.64709063  0.69700083  0.98740766  1
  Li  Li27  1  0.04991020  0.69700083  0.01259234  1
  Li  Li28  1  0.64709063  0.95008980  0.01259234  1
  Li  Li29  1  0.30299917  0.35290937  0.01259234  1
  Li  Li30  1  0.00000000  0.00000000  0.50000000  1
  Li  Li31  1  0.33333333  0.66666667  0.50000000  1
  Li  Li32  1  0.66666667  0.33333333  0.38237428  1
  Li  Li33  1  0.66666667  0.33333333  0.61762572  1
