# generated using pymatgen
data_Li3BO3
_symmetry_space_group_name_H-M   'P 1'
_cell_length_a   17.20026277
_cell_length_b   17.20026277
_cell_length_c   11.57523839
_cell_angle_alpha   90.00000000
_cell_angle_beta   90.00000000
_cell_angle_gamma   120.00000000
_symmetry_Int_Tables_number   1
_chemical_formula_structural   Li3BO3
_chemical_formula_sum   'Li108 B36 O108'
_cell_volume   2965.72405298
_cell_formula_units_Z   36
loop_
 _symmetry_equiv_pos_site_id
 _symmetry_equiv_pos_as_xyz
  1  'x, y, z'
loop_
 _atom_site_type_symbol
 _atom_site_label
 _atom_site_symmetry_multiplicity
 _atom_site_fract_x
 _atom_site_fract_y
 _atom_site_fract_z
 _atom_site_occupancy
  B  B0  1  0.00000000  0.00000000  0.00000000  1
  B  B1  1  0.00000000  0.00000000  0.50000000  1
  B  B2  1  0.66666667  0.33333333  0.33333333  1
  B  B3  1  0.66666667  0.33333333  0.83333333  1
  B  B4  1  0.33333333  0.66666667  0.66666667  1
  B  B5  1  0.33333333  0.66666667  0.16666667  1
  B  B6  1  0.50000000  0.00000000  0.00000000  1
  B  B7  1  0.00000000  0.50000000  0.00000000  1
  B  B8  1  0.50000000  0.50000000  0.00000000  1
  B  B9  1  0.00000000  0.50000000  0.50000000  1
  B  B10  1  0.50000000  0.00000000  0.50000000  1
  B  B11  1  0.50000000  0.50000000  0.50000000  1
  B  B12  1  0.16666667  0.33333333  0.33333333  1
  B  B13  1  0.66666667  0.83333333  0.33333333  1
  B  B14  1  0.16666667  0.83333333  0.33333333  1
  B  B15  1  0.66666667  0.83333333  0.83333333  1
  B  B16  1  0.16666667  0.33333333  0.83333333  1
  B  B17  1  0.16666667  0.83333333  0.83333333  1
  B  B18  1  0.83333333  0.66666667  0.66666667  1
  B  B19  1  0.33333333  0.16666667  0.66666667  1
  B  B20  1  0.83333333  0.16666667  0.66666667  1
  B  B21  1  0.33333333  0.16666667  0.16666667  1
  B  B22  1  0.83333333  0.66666667  0.16666667  1
  B  B23  1  0.83333333  0.16666667  0.16666667  1
  B  B24  1  0.00000000  0.00000000  0.79354091  1
  B  B25  1  0.00000000  0.00000000  0.70645909  1
  B  B26  1  0.00000000  0.00000000  0.20645909  1
  B  B27  1  0.00000000  0.00000000  0.29354091  1
  B  B28  1  0.66666667  0.33333333  0.12687424  1
  B  B29  1  0.66666667  0.33333333  0.03979243  1
  B  B30  1  0.66666667  0.33333333  0.53979243  1
  B  B31  1  0.66666667  0.33333333  0.62687424  1
  B  B32  1  0.33333333  0.66666667  0.46020757  1
  B  B33  1  0.33333333  0.66666667  0.37312576  1
  B  B34  1  0.33333333  0.66666667  0.87312576  1
  B  B35  1  0.33333333  0.66666667  0.96020757  1
  Li  Li36  1  0.34650201  0.00000000  0.25000000  1
  Li  Li37  1  0.00000000  0.34650201  0.25000000  1
  Li  Li38  1  0.65349799  0.65349799  0.25000000  1
  Li  Li39  1  0.65349799  -0.00000000  0.75000000  1
  Li  Li40  1  0.00000000  0.65349799  0.75000000  1
  Li  Li41  1  0.34650201  0.34650201  0.75000000  1
  Li  Li42  1  0.01316868  0.33333333  0.58333333  1
  Li  Li43  1  0.66666667  0.67983534  0.58333333  1
  Li  Li44  1  0.32016466  0.98683132  0.58333333  1
  Li  Li45  1  0.32016466  0.33333333  0.08333333  1
  Li  Li46  1  0.66666667  0.98683132  0.08333333  1
  Li  Li47  1  0.01316868  0.67983534  0.08333333  1
  Li  Li48  1  0.67983534  0.66666667  0.91666667  1
  Li  Li49  1  0.33333333  0.01316868  0.91666667  1
  Li  Li50  1  0.98683132  0.32016466  0.91666667  1
  Li  Li51  1  0.98683132  0.66666667  0.41666667  1
  Li  Li52  1  0.33333333  0.32016466  0.41666667  1
  Li  Li53  1  0.67983534  0.01316868  0.41666667  1
  Li  Li54  1  0.76882542  0.98260470  0.13172527  1
  Li  Li55  1  0.01739530  0.78622072  0.13172527  1
  Li  Li56  1  0.21377928  0.23117458  0.13172527  1
  Li  Li57  1  0.98260470  0.76882542  0.36827473  1
  Li  Li58  1  0.78622072  0.01739530  0.36827473  1
  Li  Li59  1  0.23117458  0.21377928  0.36827473  1
  Li  Li60  1  0.23117458  0.01739530  0.86827473  1
  Li  Li61  1  0.98260470  0.21377928  0.86827473  1
  Li  Li62  1  0.78622072  0.76882542  0.86827473  1
  Li  Li63  1  0.01739530  0.23117458  0.63172527  1
  Li  Li64  1  0.21377928  0.98260470  0.63172527  1
  Li  Li65  1  0.76882542  0.78622072  0.63172527  1
  Li  Li66  1  0.43549209  0.31593803  0.46505860  1
  Li  Li67  1  0.68406197  0.11955405  0.46505860  1
  Li  Li68  1  0.88044595  0.56450791  0.46505860  1
  Li  Li69  1  0.64927137  0.10215875  0.70160807  1
  Li  Li70  1  0.45288739  0.35072863  0.70160807  1
  Li  Li71  1  0.89784125  0.54711261  0.70160807  1
  Li  Li72  1  0.89784125  0.35072863  0.20160807  1
  Li  Li73  1  0.64927137  0.54711261  0.20160807  1
  Li  Li74  1  0.45288739  0.10215875  0.20160807  1
  Li  Li75  1  0.68406197  0.56450791  0.96505860  1
  Li  Li76  1  0.88044595  0.31593803  0.96505860  1
  Li  Li77  1  0.43549209  0.11955405  0.96505860  1
  Li  Li78  1  0.10215875  0.64927137  0.79839193  1
  Li  Li79  1  0.35072863  0.45288739  0.79839193  1
  Li  Li80  1  0.54711261  0.89784125  0.79839193  1
  Li  Li81  1  0.31593803  0.43549209  0.03494140  1
  Li  Li82  1  0.11955405  0.68406197  0.03494140  1
  Li  Li83  1  0.56450791  0.88044595  0.03494140  1
  Li  Li84  1  0.56450791  0.68406197  0.53494140  1
  Li  Li85  1  0.31593803  0.88044595  0.53494140  1
  Li  Li86  1  0.11955405  0.43549209  0.53494140  1
  Li  Li87  1  0.35072863  0.89784125  0.29839193  1
  Li  Li88  1  0.54711261  0.64927137  0.29839193  1
  Li  Li89  1  0.10215875  0.45288739  0.29839193  1
  Li  Li90  1  0.23047854  -0.00000000  0.25000000  1
  Li  Li91  1  0.00000000  0.23047854  0.25000000  1
  Li  Li92  1  0.76952146  0.76952146  0.25000000  1
  Li  Li93  1  0.76952146  0.00000000  0.75000000  1
  Li  Li94  1  0.00000000  0.76952146  0.75000000  1
  Li  Li95  1  0.23047854  0.23047854  0.75000000  1
  Li  Li96  1  0.89714520  0.33333333  0.58333333  1
  Li  Li97  1  0.66666667  0.56381187  0.58333333  1
  Li  Li98  1  0.43618813  0.10285480  0.58333333  1
  Li  Li99  1  0.43618813  0.33333333  0.08333333  1
  Li  Li100  1  0.66666667  0.10285480  0.08333333  1
  Li  Li101  1  0.89714520  0.56381187  0.08333333  1
  Li  Li102  1  0.56381187  0.66666667  0.91666667  1
  Li  Li103  1  0.33333333  0.89714520  0.91666667  1
  Li  Li104  1  0.10285480  0.43618813  0.91666667  1
  Li  Li105  1  0.10285480  0.66666667  0.41666667  1
  Li  Li106  1  0.33333333  0.43618813  0.41666667  1
  Li  Li107  1  0.56381187  0.89714520  0.41666667  1
  Li  Li108  1  0.91251478  0.52675542  0.81239097  1
  Li  Li109  1  0.47324458  0.38575936  0.81239097  1
  Li  Li110  1  0.61424064  0.08748522  0.81239097  1
  Li  Li111  1  0.52675542  0.91251478  0.68760903  1
  Li  Li112  1  0.38575936  0.47324458  0.68760903  1
  Li  Li113  1  0.08748522  0.61424064  0.68760903  1
  Li  Li114  1  0.08748522  0.47324458  0.18760903  1
  Li  Li115  1  0.52675542  0.61424064  0.18760903  1
  Li  Li116  1  0.38575936  0.91251478  0.18760903  1
  Li  Li117  1  0.47324458  0.08748522  0.31239097  1
  Li  Li118  1  0.61424064  0.52675542  0.31239097  1
  Li  Li119  1  0.91251478  0.38575936  0.31239097  1
  Li  Li120  1  0.57918145  0.86008875  0.14572430  1
  Li  Li121  1  0.13991125  0.71909269  0.14572430  1
  Li  Li122  1  0.28090731  0.42081855  0.14572430  1
  Li  Li123  1  0.19342209  0.24584811  0.02094237  1
  Li  Li124  1  0.05242603  0.80657791  0.02094237  1
  Li  Li125  1  0.75415189  0.94757397  0.02094237  1
  Li  Li126  1  0.75415189  0.80657791  0.52094237  1
  Li  Li127  1  0.19342209  0.94757397  0.52094237  1
  Li  Li128  1  0.05242603  0.24584811  0.52094237  1
  Li  Li129  1  0.13991125  0.42081855  0.64572430  1
  Li  Li130  1  0.28090731  0.86008875  0.64572430  1
  Li  Li131  1  0.57918145  0.71909269  0.64572430  1
  Li  Li132  1  0.24584811  0.19342209  0.47905763  1
  Li  Li133  1  0.80657791  0.05242603  0.47905763  1
  Li  Li134  1  0.94757397  0.75415189  0.47905763  1
  Li  Li135  1  0.86008875  0.57918145  0.35427570  1
  Li  Li136  1  0.71909269  0.13991125  0.35427570  1
  Li  Li137  1  0.42081855  0.28090731  0.35427570  1
  Li  Li138  1  0.42081855  0.13991125  0.85427570  1
  Li  Li139  1  0.86008875  0.28090731  0.85427570  1
  Li  Li140  1  0.71909269  0.57918145  0.85427570  1
  Li  Li141  1  0.80657791  0.75415189  0.97905763  1
  Li  Li142  1  0.94757397  0.19342209  0.97905763  1
  Li  Li143  1  0.24584811  0.05242603  0.97905763  1
  O  O144  1  0.07524609  0.33383688  0.38382944  1
  O  O145  1  -0.33383688  -0.25859078  0.38382944  1
  O  O146  1  0.25859078  -0.07524609  0.38382944  1
  O  O147  1  0.33383688  0.07524609  0.11617056  1
  O  O148  1  -0.25859078  -0.33383688  0.11617056  1
  O  O149  1  -0.07524609  0.25859078  0.11617056  1
  O  O150  1  -0.07524609  -0.33383688  -0.38382944  1
  O  O151  1  0.33383688  0.25859078  -0.38382944  1
  O  O152  1  -0.25859078  0.07524609  -0.38382944  1
  O  O153  1  -0.33383688  -0.07524609  0.88382944  1
  O  O154  1  0.25859078  0.33383688  0.88382944  1
  O  O155  1  0.07524609  -0.25859078  0.88382944  1
  O  O156  1  0.74191276  0.66717021  0.71716278  1
  O  O157  1  0.33282979  0.07474255  0.71716278  1
  O  O158  1  0.92525745  0.25808724  0.71716278  1
  O  O159  1  1.00050355  0.40857943  0.44950389  1
  O  O160  1  0.40807588  -0.00050355  0.44950389  1
  O  O161  1  0.59142057  0.59192412  0.44950389  1
  O  O162  1  0.59142057  -0.00050355  -0.05049611  1
  O  O163  1  1.00050355  0.59192412  -0.05049611  1
  O  O164  1  0.40807588  0.40857943  -0.05049611  1
  O  O165  1  0.33282979  0.25808724  1.21716278  1
  O  O166  1  0.92525745  0.66717021  1.21716278  1
  O  O167  1  0.74191276  0.07474255  1.21716278  1
  O  O168  1  0.40857943  1.00050355  1.05049611  1
  O  O169  1  -0.00050355  0.40807588  1.05049611  1
  O  O170  1  0.59192412  0.59142057  1.05049611  1
  O  O171  1  0.66717021  0.74191276  0.78283722  1
  O  O172  1  0.07474255  0.33282979  0.78283722  1
  O  O173  1  0.25808724  0.92525745  0.78283722  1
  O  O174  1  0.25808724  0.33282979  0.28283722  1
  O  O175  1  0.66717021  0.92525745  0.28283722  1
  O  O176  1  0.07474255  0.74191276  0.28283722  1
  O  O177  1  -0.00050355  0.59142057  1.55049611  1
  O  O178  1  0.59192412  1.00050355  1.55049611  1
  O  O179  1  0.40857943  0.40807588  1.55049611  1
  O  O180  1  0.30003715  0.49150191  0.45535869  1
  O  O181  1  0.50849809  0.80853523  0.45535869  1
  O  O182  1  0.19146477  0.69996285  0.45535869  1
  O  O183  1  0.49150191  0.30003715  0.04464131  1
  O  O184  1  0.80853523  0.50849809  0.04464131  1
  O  O185  1  0.69996285  0.19146477  0.04464131  1
  O  O186  1  0.69996285  0.50849809  0.54464131  1
  O  O187  1  0.49150191  0.19146477  0.54464131  1
  O  O188  1  0.80853523  0.30003715  0.54464131  1
  O  O189  1  0.50849809  0.69996285  0.95535869  1
  O  O190  1  0.19146477  0.49150191  0.95535869  1
  O  O191  1  0.30003715  0.80853523  0.95535869  1
  O  O192  1  0.96670381  0.82483525  0.78869203  1
  O  O193  1  0.17516475  0.14186856  0.78869203  1
  O  O194  1  0.85813144  0.03329619  0.78869203  1
  O  O195  1  0.15816858  0.63337048  0.37797464  1
  O  O196  1  0.47520190  0.84183142  0.37797464  1
  O  O197  1  0.36662952  0.52479810  0.37797464  1
  O  O198  1  0.36662952  0.84183142  0.87797464  1
  O  O199  1  0.15816858  0.52479810  0.87797464  1
  O  O200  1  0.47520190  0.63337048  0.87797464  1
  O  O201  1  0.17516475  0.03329619  0.28869203  1
  O  O202  1  0.85813144  0.82483525  0.28869203  1
  O  O203  1  0.96670381  0.14186856  0.28869203  1
  O  O204  1  0.63337048  0.15816858  0.12202536  1
  O  O205  1  0.84183142  0.47520190  0.12202536  1
  O  O206  1  0.52479810  0.36662952  0.12202536  1
  O  O207  1  0.82483525  0.96670381  0.71130797  1
  O  O208  1  0.14186856  0.17516475  0.71130797  1
  O  O209  1  0.03329619  0.85813144  0.71130797  1
  O  O210  1  0.03329619  0.17516475  0.21130797  1
  O  O211  1  0.82483525  0.85813144  0.21130797  1
  O  O212  1  0.14186856  0.96670381  0.21130797  1
  O  O213  1  0.84183142  0.36662952  0.62202536  1
  O  O214  1  0.52479810  0.15816858  0.62202536  1
  O  O215  1  0.63337048  0.47520190  0.62202536  1
  O  O216  1  0.25526742  0.86700878  0.17084123  1
  O  O217  1  0.13299122  0.38825863  0.17084123  1
  O  O218  1  0.61174137  0.74473258  0.17084123  1
  O  O219  1  0.86700878  0.25526742  0.32915877  1
  O  O220  1  0.38825863  0.13299122  0.32915877  1
  O  O221  1  0.74473258  0.61174137  0.32915877  1
  O  O222  1  0.74473258  0.13299122  0.82915877  1
  O  O223  1  0.86700878  0.61174137  0.82915877  1
  O  O224  1  0.38825863  0.25526742  0.82915877  1
  O  O225  1  0.13299122  0.74473258  0.67084123  1
  O  O226  1  0.61174137  0.86700878  0.67084123  1
  O  O227  1  0.25526742  0.38825863  0.67084123  1
  O  O228  1  0.92193408  0.20034212  0.50417456  1
  O  O229  1  0.79965788  0.72159197  0.50417456  1
  O  O230  1  0.27840803  0.07806592  0.50417456  1
  O  O231  1  0.53367545  0.58860075  0.66249211  1
  O  O232  1  0.05492530  0.46632455  0.66249211  1
  O  O233  1  0.41139925  0.94507470  0.66249211  1
  O  O234  1  0.41139925  0.46632455  0.16249211  1
  O  O235  1  0.53367545  0.94507470  0.16249211  1
  O  O236  1  0.05492530  0.58860075  0.16249211  1
  O  O237  1  0.79965788  0.07806592  0.00417456  1
  O  O238  1  0.27840803  0.20034212  0.00417456  1
  O  O239  1  0.92193408  0.72159197  0.00417456  1
  O  O240  1  0.58860075  0.53367545  0.83750789  1
  O  O241  1  0.46632455  0.05492530  0.83750789  1
  O  O242  1  0.94507470  0.41139925  0.83750789  1
  O  O243  1  0.20034212  0.92193408  0.99582544  1
  O  O244  1  0.72159197  0.79965788  0.99582544  1
  O  O245  1  0.07806592  0.27840803  0.99582544  1
  O  O246  1  0.07806592  0.79965788  0.49582544  1
  O  O247  1  0.20034212  0.27840803  0.49582544  1
  O  O248  1  0.72159197  0.92193408  0.49582544  1
  O  O249  1  0.46632455  0.41139925  0.33750789  1
  O  O250  1  0.94507470  0.53367545  0.33750789  1
  O  O251  1  0.58860075  0.05492530  0.33750789  1
