# generated using pymatgen
data_Li2YP3Se
_symmetry_space_group_name_H-M   'P 1'
_cell_length_a   5.48108573
_cell_length_b   5.50787447
_cell_length_c   7.29392550
_cell_angle_alpha   95.14987392
_cell_angle_beta   100.04699207
_cell_angle_gamma   106.08703472
_symmetry_Int_Tables_number   1
_chemical_formula_structural   Li2YP3Se
_chemical_formula_sum   'Li2 Y1 P3 Se1'
_cell_volume   206.09887442
_cell_formula_units_Z   1
loop_
 _symmetry_equiv_pos_site_id
 _symmetry_equiv_pos_as_xyz
  1  'x, y, z'
loop_
 _atom_site_type_symbol
 _atom_site_label
 _atom_site_symmetry_multiplicity
 _atom_site_fract_x
 _atom_site_fract_y
 _atom_site_fract_z
 _atom_site_occupancy
  Se  Se0  1  0.00000000  0.00000000  0.00000000  1
  Y  Y1  1  0.50000000  0.50000000  0.50000000  1
  P  P2  1  0.50000000  0.50000000  0.00000000  1
  P  P3  1  0.50000000  0.00000000  0.50000000  1
  P  P4  1  0.00000000  0.50000000  0.50000000  1
  Li  Li5  1  0.03415750  0.11636922  0.63023255  1
  Li  Li6  1  0.84879391  0.20890242  0.48327900  1
