# generated using pymatgen
data_Li3Y2MoP3Se2
_symmetry_space_group_name_H-M   'P 1'
_cell_length_a   6.03866700
_cell_length_b   6.17035230
_cell_length_c   7.50383714
_cell_angle_alpha   92.89958603
_cell_angle_beta   96.31469557
_cell_angle_gamma   101.64648468
_symmetry_Int_Tables_number   1
_chemical_formula_structural   Li3Y2MoP3Se2
_chemical_formula_sum   'Li3 Y2 Mo1 P3 Se2'
_cell_volume   271.41840587
_cell_formula_units_Z   1
loop_
 _symmetry_equiv_pos_site_id
 _symmetry_equiv_pos_as_xyz
  1  'x, y, z'
loop_
 _atom_site_type_symbol
 _atom_site_label
 _atom_site_symmetry_multiplicity
 _atom_site_fract_x
 _atom_site_fract_y
 _atom_site_fract_z
 _atom_site_occupancy
  Se  Se0  1  0.00000000  0.00000000  0.00000000  1
  Se  Se1  1  0.50000000  0.50000000  0.50000000  1
  P  P2  1  0.25000000  0.25000000  0.25000000  1
  P  P3  1  0.75000000  0.25000000  0.00000000  1
  P  P4  1  0.25000000  0.75000000  0.50000000  1
  Mo  Mo5  1  0.52042265  0.29240979  0.19442922  1
  Li  Li6  1  0.75932725  0.40154344  0.95187468  1
  Li  Li7  1  0.34271689  0.25565135  0.24059078  1
  Li  Li8  1  0.80656390  0.94144372  0.36027411  1
  Y  Y9  1  0.94013900  0.21189636  0.34371039  1
  Y  Y10  1  0.71435193  0.60501504  0.77344539  1
