# generated using pymatgen
data_LiF
_symmetry_space_group_name_H-M   'P 1'
_cell_length_a   9.42469114
_cell_length_b   9.42469114
_cell_length_c   17.99437176
_cell_angle_alpha   90.00000000
_cell_angle_beta   90.00000000
_cell_angle_gamma   90.00000000
_symmetry_Int_Tables_number   1
_chemical_formula_structural   LiF
_chemical_formula_sum   'Li64 F64'
_cell_volume   1598.34652824
_cell_formula_units_Z   64
loop_
 _symmetry_equiv_pos_site_id
 _symmetry_equiv_pos_as_xyz
  1  'x, y, z'
loop_
 _atom_site_type_symbol
 _atom_site_label
 _atom_site_symmetry_multiplicity
 _atom_site_fract_x
 _atom_site_fract_y
 _atom_site_fract_z
 _atom_site_occupancy
  F  F0  1  0.15680984  0.83070974  0.91722262  1
  F  F1  1  0.34319016  0.16929026  0.41722262  1
  F  F2  1  0.41929026  0.90680984  0.16722262  1
  F  F3  1  0.08070974  0.09319016  0.66722262  1
  F  F4  1  0.34319016  0.83070974  0.08277738  1
  F  F5  1  0.15680984  0.16929026  0.58277738  1
  F  F6  1  0.08070974  0.90680984  0.83277738  1
  F  F7  1  0.41929026  0.09319016  0.33277738  1
  F  F8  1  0.84319016  0.16929026  0.08277738  1
  F  F9  1  0.65680984  0.83070974  0.58277738  1
  F  F10  1  0.58070974  0.09319016  0.83277738  1
  F  F11  1  0.91929026  0.90680984  0.33277738  1
  F  F12  1  0.65680984  0.16929026  0.91722262  1
  F  F13  1  0.84319016  0.83070974  0.41722262  1
  F  F14  1  0.91929026  0.09319016  0.16722262  1
  F  F15  1  0.58070974  0.90680984  0.66722262  1
  F  F16  1  0.65680984  0.33070974  0.41722262  1
  F  F17  1  0.84319016  0.66929026  0.91722262  1
  F  F18  1  0.91929026  0.40680984  0.66722262  1
  F  F19  1  0.58070974  0.59319016  0.16722262  1
  F  F20  1  0.84319016  0.33070974  0.58277738  1
  F  F21  1  0.65680984  0.66929026  0.08277738  1
  F  F22  1  0.58070974  0.40680984  0.33277738  1
  F  F23  1  0.91929026  0.59319016  0.83277738  1
  F  F24  1  0.34319016  0.66929026  0.58277738  1
  F  F25  1  0.15680984  0.33070974  0.08277738  1
  F  F26  1  0.08070974  0.59319016  0.33277738  1
  F  F27  1  0.41929026  0.40680984  0.83277738  1
  F  F28  1  0.15680984  0.66929026  0.41722262  1
  F  F29  1  0.34319016  0.33070974  0.91722262  1
  F  F30  1  0.41929026  0.59319016  0.66722262  1
  F  F31  1  0.08070974  0.40680984  0.16722262  1
  F  F32  1  0.00000000  0.25000000  0.37500000  1
  F  F33  1  0.00000000  0.75000000  0.62500000  1
  F  F34  1  0.50000000  0.25000000  0.62500000  1
  F  F35  1  0.50000000  0.75000000  0.37500000  1
  F  F36  1  0.50000000  0.75000000  0.87500000  1
  F  F37  1  0.50000000  0.25000000  0.12500000  1
  F  F38  1  0.00000000  0.75000000  0.12500000  1
  F  F39  1  0.00000000  0.25000000  0.87500000  1
  F  F40  1  0.00000000  0.25000000  0.30426261  1
  F  F41  1  0.00000000  0.75000000  0.55426261  1
  F  F42  1  0.50000000  0.25000000  0.69573739  1
  F  F43  1  0.50000000  0.75000000  0.44573739  1
  F  F44  1  0.00000000  0.75000000  0.69573739  1
  F  F45  1  0.00000000  0.25000000  0.44573739  1
  F  F46  1  0.50000000  0.75000000  0.30426261  1
  F  F47  1  0.50000000  0.25000000  0.55426261  1
  F  F48  1  0.50000000  0.75000000  0.80426261  1
  F  F49  1  0.50000000  0.25000000  0.05426261  1
  F  F50  1  0.00000000  0.75000000  0.19573739  1
  F  F51  1  0.00000000  0.25000000  0.94573739  1
  F  F52  1  0.50000000  0.25000000  0.19573739  1
  F  F53  1  0.50000000  0.75000000  0.94573739  1
  F  F54  1  0.00000000  0.25000000  0.80426261  1
  F  F55  1  0.00000000  0.75000000  0.05426261  1
  F  F56  1  0.00000000  0.25000000  0.12500000  1
  F  F57  1  0.00000000  0.75000000  0.37500000  1
  F  F58  1  0.00000000  0.75000000  0.87500000  1
  F  F59  1  0.00000000  0.25000000  0.62500000  1
  F  F60  1  0.50000000  0.75000000  0.62500000  1
  F  F61  1  0.50000000  0.25000000  0.87500000  1
  F  F62  1  0.50000000  0.25000000  0.37500000  1
  F  F63  1  0.50000000  0.75000000  0.12500000  1
  Li  Li64  1  0.46959995  0.95169875  0.71141988  1
  Li  Li65  1  0.03040005  -0.95169875  1.21141988  1
  Li  Li66  1  -0.70169875  1.21959995  0.96141988  1
  Li  Li67  1  1.20169875  -0.21959995  1.46141988  1
  Li  Li68  1  0.03040005  0.95169875  -0.71141988  1
  Li  Li69  1  0.46959995  -0.95169875  -0.21141988  1
  Li  Li70  1  1.20169875  1.21959995  0.03858012  1
  Li  Li71  1  -0.70169875  -0.21959995  -0.46141988  1
  Li  Li72  1  -0.46959995  -0.95169875  -0.71141988  1
  Li  Li73  1  0.96959995  0.95169875  -0.21141988  1
  Li  Li74  1  1.70169875  -0.21959995  0.03858012  1
  Li  Li75  1  -0.20169875  1.21959995  -0.46141988  1
  Li  Li76  1  0.96959995  -0.95169875  0.71141988  1
  Li  Li77  1  -0.46959995  0.95169875  1.21141988  1
  Li  Li78  1  -0.20169875  -0.21959995  0.96141988  1
  Li  Li79  1  1.70169875  1.21959995  1.46141988  1
  Li  Li80  1  0.96959995  1.45169875  1.21141988  1
  Li  Li81  1  0.53040005  -0.45169875  1.71141988  1
  Li  Li82  1  -0.20169875  1.71959995  1.46141988  1
  Li  Li83  1  1.70169875  0.28040005  1.96141988  1
  Li  Li84  1  0.53040005  1.45169875  -0.21141988  1
  Li  Li85  1  0.96959995  -0.45169875  0.28858012  1
  Li  Li86  1  1.70169875  1.71959995  0.53858012  1
  Li  Li87  1  -0.20169875  0.28040005  0.03858012  1
  Li  Li88  1  0.03040005  -0.45169875  -0.21141988  1
  Li  Li89  1  1.46959995  1.45169875  0.28858012  1
  Li  Li90  1  2.20169875  0.28040005  0.53858012  1
  Li  Li91  1  0.29830125  1.71959995  0.03858012  1
  Li  Li92  1  1.46959995  -0.45169875  1.21141988  1
  Li  Li93  1  0.03040005  1.45169875  1.71141988  1
  Li  Li94  1  0.29830125  0.28040005  1.46141988  1
  Li  Li95  1  2.20169875  1.71959995  1.96141988  1
  Li  Li96  1  0.18980410  0.41313659  0.78694168  1
  Li  Li97  1  0.31019590  0.58686341  0.28694168  1
  Li  Li98  1  0.83686341  0.93980410  0.03694168  1
  Li  Li99  1  0.66313659  0.06019590  0.53694168  1
  Li  Li100  1  0.31019590  0.41313659  0.21305832  1
  Li  Li101  1  0.18980410  0.58686341  0.71305832  1
  Li  Li102  1  0.66313659  0.93980410  0.96305832  1
  Li  Li103  1  0.83686341  0.06019590  0.46305832  1
  Li  Li104  1  0.81019590  0.58686341  0.21305832  1
  Li  Li105  1  0.68980410  0.41313659  0.71305832  1
  Li  Li106  1  0.16313659  0.06019590  0.96305832  1
  Li  Li107  1  0.33686341  0.93980410  0.46305832  1
  Li  Li108  1  0.68980410  0.58686341  0.78694168  1
  Li  Li109  1  0.81019590  0.41313659  0.28694168  1
  Li  Li110  1  0.33686341  0.06019590  0.03694168  1
  Li  Li111  1  0.16313659  0.93980410  0.53694168  1
  Li  Li112  1  0.68980410  0.91313659  0.28694168  1
  Li  Li113  1  0.81019590  0.08686341  0.78694168  1
  Li  Li114  1  0.33686341  0.43980410  0.53694168  1
  Li  Li115  1  0.16313659  0.56019590  0.03694168  1
  Li  Li116  1  0.81019590  0.91313659  0.71305832  1
  Li  Li117  1  0.68980410  0.08686341  0.21305832  1
  Li  Li118  1  0.16313659  0.43980410  0.46305832  1
  Li  Li119  1  0.33686341  0.56019590  0.96305832  1
  Li  Li120  1  0.31019590  0.08686341  0.71305832  1
  Li  Li121  1  0.18980410  0.91313659  0.21305832  1
  Li  Li122  1  0.66313659  0.56019590  0.46305832  1
  Li  Li123  1  0.83686341  0.43980410  0.96305832  1
  Li  Li124  1  0.18980410  0.08686341  0.28694168  1
  Li  Li125  1  0.31019590  0.91313659  0.78694168  1
  Li  Li126  1  0.83686341  0.56019590  0.53694168  1
  Li  Li127  1  0.66313659  0.43980410  0.03694168  1
