# generated using pymatgen
data_LiF
_symmetry_space_group_name_H-M   'P 1'
_cell_length_a   7.06356415
_cell_length_b   6.82070889
_cell_length_c   7.51824122
_cell_angle_alpha   90.00000000
_cell_angle_beta   90.00000000
_cell_angle_gamma   90.00000000
_symmetry_Int_Tables_number   1
_chemical_formula_structural   LiF
_chemical_formula_sum   'Li24 F24'
_cell_volume   362.21769574
_cell_formula_units_Z   24
loop_
 _symmetry_equiv_pos_site_id
 _symmetry_equiv_pos_as_xyz
  1  'x, y, z'
loop_
 _atom_site_type_symbol
 _atom_site_label
 _atom_site_symmetry_multiplicity
 _atom_site_fract_x
 _atom_site_fract_y
 _atom_site_fract_z
 _atom_site_occupancy
  F  F0  1  0.75177983  0.25000000  0.60304018  1
  F  F1  1  0.74822017  0.75000000  0.10304018  1
  F  F2  1  0.24822017  0.75000000  0.39695982  1
  F  F3  1  0.25177983  0.25000000  0.89695982  1
  F  F4  1  0.79382668  0.41082662  0.81201080  1
  F  F5  1  0.70617332  0.58917338  0.31201080  1
  F  F6  1  0.20617332  0.91082662  0.18798920  1
  F  F7  1  0.29382668  0.08917338  0.68798920  1
  F  F8  1  0.20617332  0.58917338  0.18798920  1
  F  F9  1  0.29382668  0.41082662  0.68798920  1
  F  F10  1  0.79382668  0.08917338  0.81201080  1
  F  F11  1  0.70617332  0.91082662  0.31201080  1
  F  F12  1  0.42398264  0.18277299  0.19188011  1
  F  F13  1  0.07601736  0.81722701  0.69188011  1
  F  F14  1  0.57601736  0.68277299  0.80811989  1
  F  F15  1  0.92398264  0.31722701  0.30811989  1
  F  F16  1  0.57601736  0.81722701  0.80811989  1
  F  F17  1  0.92398264  0.18277299  0.30811989  1
  F  F18  1  0.42398264  0.31722701  0.19188011  1
  F  F19  1  0.07601736  0.68277299  0.69188011  1
  F  F20  1  0.48905139  0.25000000  0.46652582  1
  F  F21  1  0.01094861  0.75000000  0.96652582  1
  F  F22  1  0.51094861  0.75000000  0.53347418  1
  F  F23  1  0.98905139  0.25000000  0.03347418  1
  Li  Li24  1  0.48717615  0.00232811  0.18160210  1
  Li  Li25  1  0.01282385  -0.00232811  0.68160210  1
  Li  Li26  1  -0.48717615  0.50232811  -0.18160210  1
  Li  Li27  1  0.98717615  0.49767189  0.31839790  1
  Li  Li28  1  -0.48717615  -0.00232811  -0.18160210  1
  Li  Li29  1  0.98717615  0.00232811  0.31839790  1
  Li  Li30  1  0.48717615  0.49767189  0.18160210  1
  Li  Li31  1  0.01282385  0.50232811  0.68160210  1
  Li  Li32  1  0.00000000  0.00000000  0.50000000  1
  Li  Li33  1  0.50000000  0.00000000  0.00000000  1
  Li  Li34  1  0.00000000  0.50000000  0.50000000  1
  Li  Li35  1  0.50000000  0.50000000  0.00000000  1
  Li  Li36  1  0.89836679  0.25000000  0.66518516  1
  Li  Li37  1  0.60163321  0.75000000  0.16518516  1
  Li  Li38  1  0.10163321  0.75000000  0.33481484  1
  Li  Li39  1  0.39836679  0.25000000  0.83481484  1
  Li  Li40  1  0.58627054  0.25000000  0.83706445  1
  Li  Li41  1  0.91372946  0.75000000  0.33706445  1
  Li  Li42  1  0.41372946  0.75000000  0.16293555  1
  Li  Li43  1  0.08627054  0.25000000  0.66293555  1
  Li  Li44  1  0.00000000  0.00000000  0.00000000  1
  Li  Li45  1  0.50000000  0.00000000  0.50000000  1
  Li  Li46  1  0.00000000  0.50000000  0.00000000  1
  Li  Li47  1  0.50000000  0.50000000  0.50000000  1
