# generated using pymatgen
data_LiF
_symmetry_space_group_name_H-M   'P 1'
_cell_length_a   5.80726784
_cell_length_b   9.85032585
_cell_length_c   11.78005527
_cell_angle_alpha   90.00000000
_cell_angle_beta   90.00000000
_cell_angle_gamma   90.00000000
_symmetry_Int_Tables_number   1
_chemical_formula_structural   LiF
_chemical_formula_sum   'Li24 F24'
_cell_volume   673.86016181
_cell_formula_units_Z   24
loop_
 _symmetry_equiv_pos_site_id
 _symmetry_equiv_pos_as_xyz
  1  'x, y, z'
loop_
 _atom_site_type_symbol
 _atom_site_label
 _atom_site_symmetry_multiplicity
 _atom_site_fract_x
 _atom_site_fract_y
 _atom_site_fract_z
 _atom_site_occupancy
  F  F0  1  0.88114960  0.25000000  0.52161934  1
  F  F1  1  0.61885040  0.75000000  0.02161934  1
  F  F2  1  0.11885040  0.75000000  0.47838066  1
  F  F3  1  0.38114960  0.25000000  0.97838066  1
  F  F4  1  0.18618524  0.25000000  0.38924689  1
  F  F5  1  0.31381476  0.75000000  0.88924689  1
  F  F6  1  0.81381476  0.75000000  0.61075311  1
  F  F7  1  0.68618524  0.25000000  0.11075311  1
  F  F8  1  0.88052960  0.94291462  0.45496535  1
  F  F9  1  0.61947040  0.05708538  0.95496535  1
  F  F10  1  0.11947040  0.44291462  0.54503465  1
  F  F11  1  0.38052960  0.55708538  0.04503465  1
  F  F12  1  0.11947040  0.05708538  0.54503465  1
  F  F13  1  0.38052960  0.94291462  0.04503465  1
  F  F14  1  0.88052960  0.55708538  0.45496535  1
  F  F15  1  0.61947040  0.44291462  0.95496535  1
  F  F16  1  0.18847157  0.80565281  0.82951827  1
  F  F17  1  0.31152843  0.19434719  0.32951827  1
  F  F18  1  0.81152843  0.30565281  0.17048173  1
  F  F19  1  0.68847157  0.69434719  0.67048173  1
  F  F20  1  0.81152843  0.19434719  0.17048173  1
  F  F21  1  0.68847157  0.80565281  0.67048173  1
  F  F22  1  0.18847157  0.69434719  0.82951827  1
  F  F23  1  0.31152843  0.30565281  0.32951827  1
  Li  Li24  1  0.00000000  0.00000000  0.00000000  1
  Li  Li25  1  0.50000000  0.00000000  0.50000000  1
  Li  Li26  1  0.00000000  0.50000000  0.00000000  1
  Li  Li27  1  0.50000000  0.50000000  0.50000000  1
  Li  Li28  1  0.88069679  0.47444886  0.55427331  1
  Li  Li29  1  -0.38069679  -0.47444886  1.05427331  1
  Li  Li30  1  -0.88069679  0.97444886  -0.55427331  1
  Li  Li31  1  1.38069679  0.02555114  -0.05427331  1
  Li  Li32  1  -0.88069679  -0.47444886  -0.55427331  1
  Li  Li33  1  1.38069679  0.47444886  -0.05427331  1
  Li  Li34  1  0.88069679  0.02555114  0.55427331  1
  Li  Li35  1  -0.38069679  0.97444886  1.05427331  1
  Li  Li36  1  0.44793587  0.46713209  0.73183711  1
  Li  Li37  1  0.05206413  0.53286791  0.23183711  1
  Li  Li38  1  0.55206413  0.96713209  0.26816289  1
  Li  Li39  1  0.94793587  0.03286791  0.76816289  1
  Li  Li40  1  0.55206413  0.53286791  0.26816289  1
  Li  Li41  1  0.94793587  0.46713209  0.76816289  1
  Li  Li42  1  0.44793587  0.03286791  0.73183711  1
  Li  Li43  1  0.05206413  0.96713209  0.23183711  1
  Li  Li44  1  0.95573539  0.25000000  0.68497800  1
  Li  Li45  1  0.54426461  0.75000000  0.18497800  1
  Li  Li46  1  0.04426461  0.75000000  0.31502200  1
  Li  Li47  1  0.45573539  0.25000000  0.81502200  1
