# generated using pymatgen
data_LiF
_symmetry_space_group_name_H-M   'P 1'
_cell_length_a   7.20981243
_cell_length_b   7.20981243
_cell_length_c   14.80249896
_cell_angle_alpha   90.00000000
_cell_angle_beta   90.00000000
_cell_angle_gamma   120.00000000
_symmetry_Int_Tables_number   1
_chemical_formula_structural   LiF
_chemical_formula_sum   'Li22 F22'
_cell_volume   666.36718670
_cell_formula_units_Z   22
loop_
 _symmetry_equiv_pos_site_id
 _symmetry_equiv_pos_as_xyz
  1  'x, y, z'
loop_
 _atom_site_type_symbol
 _atom_site_label
 _atom_site_symmetry_multiplicity
 _atom_site_fract_x
 _atom_site_fract_y
 _atom_site_fract_z
 _atom_site_occupancy
  F  F0  1  0.66666667  0.33333333  -0.00000000  1
  F  F1  1  0.66666667  0.33333333  0.46278136  1
  F  F2  1  0.66666667  0.33333333  0.53721864  1
  F  F3  1  0.18801326  0.98913633  0.22548489  1
  F  F4  1  0.01086367  0.19887693  0.22548489  1
  F  F5  1  0.80112307  0.81198674  0.22548489  1
  F  F6  1  0.01086367  0.81198674  0.77451511  1
  F  F7  1  0.80112307  0.98913633  0.77451511  1
  F  F8  1  0.18801326  0.19887693  0.77451511  1
  F  F9  1  0.38976338  0.39285672  0.81169132  1
  F  F10  1  0.60714328  0.99690667  0.81169132  1
  F  F11  1  0.00309333  0.61023662  0.81169132  1
  F  F12  1  0.60714328  0.61023662  0.18830868  1
  F  F13  1  0.00309333  0.39285672  0.18830868  1
  F  F14  1  0.38976338  0.99690667  0.18830868  1
  F  F15  1  0.33333333  0.66666667  0.14752738  1
  F  F16  1  0.33333333  0.66666667  0.85247262  1
  F  F17  1  0.66666667  0.33333333  0.95710128  1
  F  F18  1  0.66666667  0.33333333  0.04289872  1
  F  F19  1  0.04203140  0.95796860  0.00000000  1
  F  F20  1  0.04203140  0.08406279  -0.00000000  1
  F  F21  1  0.91593721  0.95796860  -0.00000000  1
  Li  Li22  1  0.16307317  0.91626044  0.61465142  1
  Li  Li23  1  -0.91626044  -0.75318727  0.61465142  1
  Li  Li24  1  0.75318727  -0.16307317  0.61465142  1
  Li  Li25  1  -0.91626044  -0.16307317  -0.61465142  1
  Li  Li26  1  0.75318727  0.91626044  -0.61465142  1
  Li  Li27  1  0.16307317  -0.75318727  -0.61465142  1
  Li  Li28  1  0.78773047  0.21226953  0.50000000  1
  Li  Li29  1  0.78773047  0.57546095  0.50000000  1
  Li  Li30  1  0.42453905  0.21226953  0.50000000  1
  Li  Li31  1  0.83859754  0.72656056  0.74222037  1
  Li  Li32  1  0.27343944  0.11203698  0.74222037  1
  Li  Li33  1  0.88796302  0.16140246  0.74222037  1
  Li  Li34  1  0.27343944  0.16140246  0.25777963  1
  Li  Li35  1  0.88796302  0.72656056  0.25777963  1
  Li  Li36  1  0.83859754  0.11203698  0.25777963  1
  Li  Li37  1  0.33333333  0.66666667  0.55817554  1
  Li  Li38  1  0.33333333  0.66666667  0.44182446  1
  Li  Li39  1  0.50482827  0.49517173  0.50000000  1
  Li  Li40  1  0.50482827  0.00965655  0.50000000  1
  Li  Li41  1  0.99034345  0.49517173  0.50000000  1
  Li  Li42  1  0.33333333  0.66666667  0.34010565  1
  Li  Li43  1  0.33333333  0.66666667  0.65989435  1
