# generated using pymatgen
data_LiTiOF
_symmetry_space_group_name_H-M   'P 1'
_cell_length_a   3.75715091
_cell_length_b   3.33907337
_cell_length_c   5.36746580
_cell_angle_alpha   91.70146430
_cell_angle_beta   93.86116182
_cell_angle_gamma   94.77515918
_symmetry_Int_Tables_number   1
_chemical_formula_structural   LiTiOF
_chemical_formula_sum   'Li1 Ti1 O1 F1'
_cell_volume   66.90877804
_cell_formula_units_Z   1
loop_
 _symmetry_equiv_pos_site_id
 _symmetry_equiv_pos_as_xyz
  1  'x, y, z'
loop_
 _atom_site_type_symbol
 _atom_site_label
 _atom_site_symmetry_multiplicity
 _atom_site_fract_x
 _atom_site_fract_y
 _atom_site_fract_z
 _atom_site_occupancy
  F  F0  1  0.00000000  0.00000000  0.00000000  1
  Li  Li1  1  0.50000000  0.50000000  0.50000000  1
  O  O2  1  0.50000000  0.50000000  0.00000000  1
  Ti  Ti3  1  0.50000000  0.00000000  0.50000000  1
