# generated using pymatgen
data_LiSbPSe
_symmetry_space_group_name_H-M   'P 1'
_cell_length_a   4.95493350
_cell_length_b   5.11959819
_cell_length_c   7.08056792
_cell_angle_alpha   94.84278923
_cell_angle_beta   100.54658813
_cell_angle_gamma   109.45155959
_symmetry_Int_Tables_number   1
_chemical_formula_structural   LiSbPSe
_chemical_formula_sum   'Li2 Sb2 P2 Se2'
_cell_volume   164.44153492
_cell_formula_units_Z   2
loop_
 _symmetry_equiv_pos_site_id
 _symmetry_equiv_pos_as_xyz
  1  'x, y, z'
loop_
 _atom_site_type_symbol
 _atom_site_label
 _atom_site_symmetry_multiplicity
 _atom_site_fract_x
 _atom_site_fract_y
 _atom_site_fract_z
 _atom_site_occupancy
  Se  Se0  1  0.00000000  0.00000000  0.00000000  1
  Se  Se1  1  0.50000000  0.50000000  0.50000000  1
  P  P2  1  0.50000000  0.50000000  0.00000000  1
  P  P3  1  0.50000000  0.00000000  0.50000000  1
  Li  Li4  1  0.00000000  0.50000000  0.50000000  1
  Li  Li5  1  0.75780355  0.95008360  0.00289167  1
  Sb  Sb6  1  0.74924074  0.13417186  0.28507701  1
  Sb  Sb7  1  0.76686232  0.83535435  0.43170623  1
