# generated using pymatgen
data_Li3Y2MoP3Se2
_symmetry_space_group_name_H-M   'P 1'
_cell_length_a   5.92000084
_cell_length_b   6.20213021
_cell_length_c   7.45012576
_cell_angle_alpha   93.13449176
_cell_angle_beta   96.82627141
_cell_angle_gamma   102.59000762
_symmetry_Int_Tables_number   1
_chemical_formula_structural   Li3Y2MoP3Se2
_chemical_formula_sum   'Li3 Y2 Mo1 P3 Se2'
_cell_volume   264.15527991
_cell_formula_units_Z   1
loop_
 _symmetry_equiv_pos_site_id
 _symmetry_equiv_pos_as_xyz
  1  'x, y, z'
loop_
 _atom_site_type_symbol
 _atom_site_label
 _atom_site_symmetry_multiplicity
 _atom_site_fract_x
 _atom_site_fract_y
 _atom_site_fract_z
 _atom_site_occupancy
  Se  Se0  1  0.00000000  0.00000000  0.00000000  1
  Se  Se1  1  0.50000000  0.50000000  0.50000000  1
  Y  Y2  1  0.50000000  0.50000000  0.00000000  1
  Y  Y3  1  0.50000000  0.00000000  0.50000000  1
  P  P4  1  0.00000000  0.50000000  0.50000000  1
  P  P5  1  0.79963652  0.09578776  0.42480365  1
  P  P6  1  0.47695315  0.16670482  0.59394750  1
  Mo  Mo7  1  0.16629358  0.57933068  0.09941321  1
  Li  Li8  1  0.00044134  0.98066286  0.93032579  1
  Li  Li9  1  0.12345894  0.68221839  0.91363588  1
  Li  Li10  1  0.96817046  0.03533964  0.68757848  1
