# generated using pymatgen
data_Li2YMoP3Se2
_symmetry_space_group_name_H-M   'P 1'
_cell_length_a   5.79124440
_cell_length_b   5.79475536
_cell_length_c   7.38436004
_cell_angle_alpha   93.59901451
_cell_angle_beta   97.83790538
_cell_angle_gamma   104.45581088
_symmetry_Int_Tables_number   1
_chemical_formula_structural   Li2YMoP3Se2
_chemical_formula_sum   'Li2 Y1 Mo1 P3 Se2'
_cell_volume   236.50943883
_cell_formula_units_Z   1
loop_
 _symmetry_equiv_pos_site_id
 _symmetry_equiv_pos_as_xyz
  1  'x, y, z'
loop_
 _atom_site_type_symbol
 _atom_site_label
 _atom_site_symmetry_multiplicity
 _atom_site_fract_x
 _atom_site_fract_y
 _atom_site_fract_z
 _atom_site_occupancy
  Se  Se0  1  0.12500000  0.00000000  0.25000000  1
  Se  Se1  1  0.00000000  0.00000000  0.00000000  1
  P  P2  1  0.37500000  0.00000000  0.25000000  1
  P  P3  1  0.25000000  0.25000000  0.25000000  1
  P  P4  1  0.00000000  0.25000000  0.12500000  1
  Mo  Mo5  1  0.47749232  0.10135493  0.66899105  1
  Li  Li6  1  0.97477701  0.09174244  0.84640982  1
  Li  Li7  1  0.30838730  0.61197373  0.42552124  1
  Y  Y8  1  0.49916505  0.51276206  0.36562146  1
