# generated using pymatgen
data_LiSbP
_symmetry_space_group_name_H-M   'P 1'
_cell_length_a   4.85233119
_cell_length_b   4.89818986
_cell_length_c   6.92521075
_cell_angle_alpha   94.96232042
_cell_angle_beta   100.80690223
_cell_angle_gamma   109.93166889
_symmetry_Int_Tables_number   1
_chemical_formula_structural   LiSbP
_chemical_formula_sum   'Li2 Sb2 P2'
_cell_volume   149.96225789
_cell_formula_units_Z   2
loop_
 _symmetry_equiv_pos_site_id
 _symmetry_equiv_pos_as_xyz
  1  'x, y, z'
loop_
 _atom_site_type_symbol
 _atom_site_label
 _atom_site_symmetry_multiplicity
 _atom_site_fract_x
 _atom_site_fract_y
 _atom_site_fract_z
 _atom_site_occupancy
  P  P0  1  0.12500000  0.00000000  0.25000000  1
  P  P1  1  0.00000000  0.00000000  0.00000000  1
  Li  Li2  1  0.37500000  0.00000000  0.25000000  1
  Li  Li3  1  0.25000000  0.25000000  0.25000000  1
  Sb  Sb4  1  0.00000000  0.25000000  0.12500000  1
  Sb  Sb5  1  0.79769856  0.40775771  0.43327209  1
