# generated using pymatgen
data_Li3Y2P3Se2
_symmetry_space_group_name_H-M   'P 1'
_cell_length_a   5.48066068
_cell_length_b   5.76804838
_cell_length_c   7.32071839
_cell_angle_alpha   93.86726513
_cell_angle_beta   98.42209946
_cell_angle_gamma   105.53326701
_symmetry_Int_Tables_number   1
_chemical_formula_structural   Li3Y2P3Se2
_chemical_formula_sum   'Li3 Y2 P3 Se2'
_cell_volume   219.18457343
_cell_formula_units_Z   1
loop_
 _symmetry_equiv_pos_site_id
 _symmetry_equiv_pos_as_xyz
  1  'x, y, z'
loop_
 _atom_site_type_symbol
 _atom_site_label
 _atom_site_symmetry_multiplicity
 _atom_site_fract_x
 _atom_site_fract_y
 _atom_site_fract_z
 _atom_site_occupancy
  Se  Se0  1  0.00000000  0.00000000  0.00000000  1
  Se  Se1  1  0.50000000  0.50000000  0.50000000  1
  Y  Y2  1  0.50000000  0.50000000  0.00000000  1
  Y  Y3  1  0.50000000  0.00000000  0.50000000  1
  P  P4  1  0.00000000  0.50000000  0.50000000  1
  P  P5  1  0.27226689  0.39248747  0.12949416  1
  P  P6  1  0.17938009  0.86165263  0.66042075  1
  Li  Li7  1  0.45651913  0.07008222  0.36510881  1
  Li  Li8  1  0.82822368  0.47896288  0.64780076  1
  Li  Li9  1  0.04054669  0.82702909  0.10581105  1
