# generated using pymatgen
data_LiF
_symmetry_space_group_name_H-M   'P 1'
_cell_length_a   4.07677993
_cell_length_b   8.43161504
_cell_length_c   11.94952529
_cell_angle_alpha   90.00000000
_cell_angle_beta   90.00000000
_cell_angle_gamma   90.00000000
_symmetry_Int_Tables_number   1
_chemical_formula_structural   LiF
_chemical_formula_sum   'Li24 F24'
_cell_volume   410.75105777
_cell_formula_units_Z   24
loop_
 _symmetry_equiv_pos_site_id
 _symmetry_equiv_pos_as_xyz
  1  'x, y, z'
loop_
 _atom_site_type_symbol
 _atom_site_label
 _atom_site_symmetry_multiplicity
 _atom_site_fract_x
 _atom_site_fract_y
 _atom_site_fract_z
 _atom_site_occupancy
  F  F0  1  0.91523959  0.25000000  0.32239035  1
  F  F1  1  0.58476041  0.75000000  0.82239035  1
  F  F2  1  0.08476041  0.75000000  0.67760965  1
  F  F3  1  0.41523959  0.25000000  0.17760965  1
  F  F4  1  0.14803581  0.80797404  0.59614386  1
  F  F5  1  0.35196419  0.19202596  0.09614386  1
  F  F6  1  0.85196419  0.30797404  0.40385614  1
  F  F7  1  0.64803581  0.69202596  0.90385614  1
  F  F8  1  0.85196419  0.19202596  0.40385614  1
  F  F9  1  0.64803581  0.80797404  0.90385614  1
  F  F10  1  0.14803581  0.69202596  0.59614386  1
  F  F11  1  0.35196419  0.30797404  0.09614386  1
  F  F12  1  0.86100766  0.25000000  0.05310952  1
  F  F13  1  0.63899234  0.75000000  0.55310952  1
  F  F14  1  0.13899234  0.75000000  0.94689048  1
  F  F15  1  0.36100766  0.25000000  0.44689048  1
  F  F16  1  0.27340081  0.25000000  0.50484439  1
  F  F17  1  0.22659919  0.75000000  0.00484439  1
  F  F18  1  0.72659919  0.75000000  0.49515561  1
  F  F19  1  0.77340081  0.25000000  0.99515561  1
  F  F20  1  0.87420565  0.25000000  0.53198379  1
  F  F21  1  0.62579435  0.75000000  0.03198379  1
  F  F22  1  0.12579435  0.75000000  0.46801621  1
  F  F23  1  0.37420565  0.25000000  0.96801621  1
  Li  Li24  1  0.58230541  0.35667189  0.68486082  1
  Li  Li25  1  -0.08230541  -0.35667189  1.18486082  1
  Li  Li26  1  -0.58230541  0.85667189  -0.68486082  1
  Li  Li27  1  1.08230541  0.14332811  -0.18486082  1
  Li  Li28  1  -0.58230541  -0.35667189  -0.68486082  1
  Li  Li29  1  1.08230541  0.35667189  -0.18486082  1
  Li  Li30  1  0.58230541  0.14332811  0.68486082  1
  Li  Li31  1  -0.08230541  0.85667189  1.18486082  1
  Li  Li32  1  0.35795246  0.07771471  0.85141153  1
  Li  Li33  1  0.14204754  0.92228529  0.35141153  1
  Li  Li34  1  0.64204754  0.57771471  0.14858847  1
  Li  Li35  1  0.85795246  0.42228529  0.64858847  1
  Li  Li36  1  0.64204754  0.92228529  0.14858847  1
  Li  Li37  1  0.85795246  0.07771471  0.64858847  1
  Li  Li38  1  0.35795246  0.42228529  0.85141153  1
  Li  Li39  1  0.14204754  0.57771471  0.35141153  1
  Li  Li40  1  0.00000000  0.00000000  0.50000000  1
  Li  Li41  1  0.50000000  -0.00000000  0.00000000  1
  Li  Li42  1  0.00000000  0.50000000  0.50000000  1
  Li  Li43  1  0.50000000  0.50000000  0.00000000  1
  Li  Li44  1  0.32625394  0.25000000  0.86748990  1
  Li  Li45  1  0.17374606  0.75000000  0.36748990  1
  Li  Li46  1  0.67374606  0.75000000  0.13251010  1
  Li  Li47  1  0.82625394  0.25000000  0.63251010  1
