# generated using pymatgen
data_LiF
_symmetry_space_group_name_H-M   'P 1'
_cell_length_a   4.30627640
_cell_length_b   4.30627640
_cell_length_c   16.35424891
_cell_angle_alpha   90.00000000
_cell_angle_beta   90.00000000
_cell_angle_gamma   90.00000000
_symmetry_Int_Tables_number   1
_chemical_formula_structural   LiF
_chemical_formula_sum   'Li9 F9'
_cell_volume   303.27346128
_cell_formula_units_Z   9
loop_
 _symmetry_equiv_pos_site_id
 _symmetry_equiv_pos_as_xyz
  1  'x, y, z'
loop_
 _atom_site_type_symbol
 _atom_site_label
 _atom_site_symmetry_multiplicity
 _atom_site_fract_x
 _atom_site_fract_y
 _atom_site_fract_z
 _atom_site_occupancy
  F  F0  1  0.00000000  0.00000000  0.22904392  1
  F  F1  1  0.00000000  0.00000000  0.77095608  1
  F  F2  1  0.50000000  0.50000000  0.50000000  1
  F  F3  1  0.39134269  0.00000000  -0.00000000  1
  F  F4  1  0.60865731  0.00000000  0.00000000  1
  F  F5  1  0.00000000  0.39134269  0.00000000  1
  F  F6  1  0.00000000  0.60865731  0.00000000  1
  F  F7  1  0.50000000  0.50000000  0.61893641  1
  F  F8  1  0.50000000  0.50000000  0.38106359  1
  Li  Li9  1  0.66894683  0.00000000  0.50000000  1
  Li  Li10  1  -0.66894683  0.00000000  0.50000000  1
  Li  Li11  1  0.00000000  0.66894683  0.50000000  1
  Li  Li12  1  0.00000000  -0.66894683  0.50000000  1
  Li  Li13  1  0.00000000  0.00000000  0.00000000  1
  Li  Li14  1  0.00000000  0.50000000  0.93195090  1
  Li  Li15  1  0.50000000  0.00000000  0.93195090  1
  Li  Li16  1  0.00000000  0.50000000  0.06804910  1
  Li  Li17  1  0.50000000  0.00000000  0.06804910  1
