# generated using pymatgen
data_Li3Y2(P2Se)2
_symmetry_space_group_name_H-M   'P 1'
_cell_length_a   4.63591187
_cell_length_b   4.94280964
_cell_length_c   7.04684896
_cell_angle_alpha   95.36403225
_cell_angle_beta   101.68174707
_cell_angle_gamma   111.54518564
_symmetry_Int_Tables_number   1
_chemical_formula_structural   Li3Y2(P2Se)2
_chemical_formula_sum   'Li3 Y2 P4 Se2'
_cell_volume   144.56263972
_cell_formula_units_Z   1
loop_
 _symmetry_equiv_pos_site_id
 _symmetry_equiv_pos_as_xyz
  1  'x, y, z'
loop_
 _atom_site_type_symbol
 _atom_site_label
 _atom_site_symmetry_multiplicity
 _atom_site_fract_x
 _atom_site_fract_y
 _atom_site_fract_z
 _atom_site_occupancy
  P  P0  1  0.00000000  0.00000000  0.00000000  1
  P  P1  1  0.33300000  0.66700000  0.25000000  1
  P  P2  1  0.66700000  0.33300000  0.50000000  1
  P  P3  1  0.00000000  0.00000000  0.75000000  1
  Se  Se4  1  0.13044571  0.53900397  0.33560574  1
  Se  Se5  1  0.11876385  0.68466857  0.89664566  1
  Li  Li6  1  0.72952089  0.77300259  0.68876728  1
  Li  Li7  1  0.35553420  0.76178277  0.99766047  1
  Li  Li8  1  0.63673450  0.06053372  0.04552065  1
  Y  Y9  1  0.18641273  0.10244094  0.13782865  1
  Y  Y10  1  0.02487392  0.11912126  0.29929938  1
