# generated using pymatgen
data_Li2Y2As2P3
_symmetry_space_group_name_H-M   'P 1'
_cell_length_a   4.89206599
_cell_length_b   4.97469363
_cell_length_c   7.00261361
_cell_angle_alpha   94.93013501
_cell_angle_beta   100.73680909
_cell_angle_gamma   109.80239289
_symmetry_Int_Tables_number   1
_chemical_formula_structural   Li2Y2As2P3
_chemical_formula_sum   'Li2 Y2 As2 P3'
_cell_volume   155.47334430
_cell_formula_units_Z   1
loop_
 _symmetry_equiv_pos_site_id
 _symmetry_equiv_pos_as_xyz
  1  'x, y, z'
loop_
 _atom_site_type_symbol
 _atom_site_label
 _atom_site_symmetry_multiplicity
 _atom_site_fract_x
 _atom_site_fract_y
 _atom_site_fract_z
 _atom_site_occupancy
  P  P0  1  0.12500000  0.12500000  0.12500000  1
  P  P1  1  0.50000000  0.50000000  0.50000000  1
  P  P2  1  0.25000000  0.25000000  0.25000000  1
  As  As3  1  0.75000000  0.75000000  0.75000000  1
  As  As4  1  0.33012620  0.96963573  0.88779644  1
  Li  Li5  1  0.84977683  0.69233312  0.56907042  1
  Li  Li6  1  0.61375592  0.78274058  0.21473616  1
  Y  Y7  1  0.08661343  0.50297389  0.44915544  1
  Y  Y8  1  0.13298040  0.92205594  0.73798590  1
