# generated using pymatgen
data_Li2La5YP4N3
_symmetry_space_group_name_H-M   'P 1'
_cell_length_a   9.55606872
_cell_length_b   8.83783799
_cell_length_c   9.97225168
_cell_angle_alpha   92.19464098
_cell_angle_beta   94.77947179
_cell_angle_gamma   98.81500056
_symmetry_Int_Tables_number   1
_chemical_formula_structural   Li2La5YP4N3
_chemical_formula_sum   'Li2 La5 Y1 P4 N3'
_cell_volume   828.24880385
_cell_formula_units_Z   1
loop_
 _symmetry_equiv_pos_site_id
 _symmetry_equiv_pos_as_xyz
  1  'x, y, z'
loop_
 _atom_site_type_symbol
 _atom_site_label
 _atom_site_symmetry_multiplicity
 _atom_site_fract_x
 _atom_site_fract_y
 _atom_site_fract_z
 _atom_site_occupancy
  La  La0  1  0.00000000  0.00000000  0.00000000  1
  La  La1  1  0.50000000  0.50000000  0.50000000  1
  La  La2  1  0.25000000  0.25000000  0.25000000  1
  La  La3  1  0.75000000  0.25000000  0.00000000  1
  La  La4  1  0.25000000  0.75000000  0.50000000  1
  N  N5  1  0.41886683  0.50622441  0.07807078  1
  N  N6  1  0.31143180  0.42966135  0.16215914  1
  N  N7  1  0.36049534  0.86676078  0.80500396  1
  Y  Y8  1  0.16346714  0.38270782  0.68557344  1
  P  P9  1  0.75866426  0.06947543  0.44790763  1
  P  P10  1  0.75191529  0.00035466  0.71147309  1
  P  P11  1  0.61919932  0.87286055  0.36248170  1
  P  P12  1  0.33624363  0.55001134  0.84944522  1
  Li  Li13  1  0.19157924  0.26213127  0.23563127  1
  Li  Li14  1  0.13065075  0.03059008  0.99901234  1
