# generated using pymatgen
data_LiF
_symmetry_space_group_name_H-M   'P 1'
_cell_length_a   11.19088102
_cell_length_b   5.00809594
_cell_length_c   11.62787765
_cell_angle_alpha   90.00000000
_cell_angle_beta   90.00000000
_cell_angle_gamma   90.00000000
_symmetry_Int_Tables_number   1
_chemical_formula_structural   LiF
_chemical_formula_sum   'Li24 F24'
_cell_volume   651.68446979
_cell_formula_units_Z   24
loop_
 _symmetry_equiv_pos_site_id
 _symmetry_equiv_pos_as_xyz
  1  'x, y, z'
loop_
 _atom_site_type_symbol
 _atom_site_label
 _atom_site_symmetry_multiplicity
 _atom_site_fract_x
 _atom_site_fract_y
 _atom_site_fract_z
 _atom_site_occupancy
  F  F0  1  0.34876843  0.25000000  0.92580027  1
  F  F1  1  0.15123157  0.75000000  0.42580027  1
  F  F2  1  0.65123157  0.75000000  0.07419973  1
  F  F3  1  0.84876843  0.25000000  0.57419973  1
  F  F4  1  0.15307628  0.40219973  0.34852581  1
  F  F5  1  0.34692372  0.59780027  0.84852581  1
  F  F6  1  0.84692372  0.90219973  0.65147419  1
  F  F7  1  0.65307628  0.09780027  0.15147419  1
  F  F8  1  0.84692372  0.59780027  0.65147419  1
  F  F9  1  0.65307628  0.40219973  0.15147419  1
  F  F10  1  0.15307628  0.09780027  0.34852581  1
  F  F11  1  0.34692372  0.90219973  0.84852581  1
  F  F12  1  0.13594624  0.25000000  0.06265183  1
  F  F13  1  0.36405376  0.75000000  0.56265183  1
  F  F14  1  0.86405376  0.75000000  0.93734817  1
  F  F15  1  0.63594624  0.25000000  0.43734817  1
  F  F16  1  0.00000000  0.00000000  0.00000000  1
  F  F17  1  0.50000000  0.00000000  0.50000000  1
  F  F18  1  0.00000000  0.50000000  0.00000000  1
  F  F19  1  0.50000000  0.50000000  0.50000000  1
  F  F20  1  0.38112593  0.25000000  0.61318725  1
  F  F21  1  0.11887407  0.75000000  0.11318725  1
  F  F22  1  0.61887407  0.75000000  0.38681275  1
  F  F23  1  0.88112593  0.25000000  0.88681275  1
  Li  Li24  1  0.51926049  0.91556678  0.11879448  1
  Li  Li25  1  -0.01926049  -0.91556678  0.61879448  1
  Li  Li26  1  -0.51926049  1.41556678  -0.11879448  1
  Li  Li27  1  1.01926049  -0.41556678  0.38120552  1
  Li  Li28  1  -0.51926049  -0.91556678  -0.11879448  1
  Li  Li29  1  1.01926049  0.91556678  0.38120552  1
  Li  Li30  1  0.51926049  -0.41556678  0.11879448  1
  Li  Li31  1  -0.01926049  1.41556678  0.61879448  1
  Li  Li32  1  0.26310120  0.25000000  0.82471206  1
  Li  Li33  1  0.23689880  0.75000000  0.32471206  1
  Li  Li34  1  0.73689880  0.75000000  0.17528794  1
  Li  Li35  1  0.76310120  0.25000000  0.67528794  1
  Li  Li36  1  0.00000000  0.00000000  0.50000000  1
  Li  Li37  1  0.50000000  0.00000000  0.00000000  1
  Li  Li38  1  0.00000000  0.50000000  0.50000000  1
  Li  Li39  1  0.50000000  0.50000000  0.00000000  1
  Li  Li40  1  0.84389279  0.49917178  0.88253239  1
  Li  Li41  1  0.65610721  0.50082822  0.38253239  1
  Li  Li42  1  0.15610721  0.99917178  0.11746761  1
  Li  Li43  1  0.34389279  0.00082822  0.61746761  1
  Li  Li44  1  0.15610721  0.50082822  0.11746761  1
  Li  Li45  1  0.34389279  0.49917178  0.61746761  1
  Li  Li46  1  0.84389279  0.00082822  0.88253239  1
  Li  Li47  1  0.65610721  0.99917178  0.38253239  1
