# generated using pymatgen
data_LiF
_symmetry_space_group_name_H-M   'P 1'
_cell_length_a   8.51992777
_cell_length_b   16.46214206
_cell_length_c   5.78044401
_cell_angle_alpha   90.00000000
_cell_angle_beta   90.00000000
_cell_angle_gamma   90.00000000
_symmetry_Int_Tables_number   1
_chemical_formula_structural   LiF
_chemical_formula_sum   'Li24 F24'
_cell_volume   810.74346469
_cell_formula_units_Z   24
loop_
 _symmetry_equiv_pos_site_id
 _symmetry_equiv_pos_as_xyz
  1  'x, y, z'
loop_
 _atom_site_type_symbol
 _atom_site_label
 _atom_site_symmetry_multiplicity
 _atom_site_fract_x
 _atom_site_fract_y
 _atom_site_fract_z
 _atom_site_occupancy
  F  F0  1  0.00000000  0.00000000  0.00000000  1
  F  F1  1  0.50000000  0.00000000  0.50000000  1
  F  F2  1  0.00000000  0.50000000  0.00000000  1
  F  F3  1  0.50000000  0.50000000  0.50000000  1
  F  F4  1  0.00000000  0.00000000  0.50000000  1
  F  F5  1  0.50000000  0.00000000  0.00000000  1
  F  F6  1  0.00000000  0.50000000  0.50000000  1
  F  F7  1  0.50000000  0.50000000  0.00000000  1
  F  F8  1  0.87297338  0.25000000  0.49156900  1
  F  F9  1  0.62702662  0.75000000  0.99156900  1
  F  F10  1  0.12702662  0.75000000  0.50843100  1
  F  F11  1  0.37297338  0.25000000  0.00843100  1
  F  F12  1  0.94680108  0.25000000  0.72941634  1
  F  F13  1  0.55319892  0.75000000  0.22941634  1
  F  F14  1  0.05319892  0.75000000  0.27058366  1
  F  F15  1  0.44680108  0.25000000  0.77058366  1
  F  F16  1  0.92163718  0.94202545  0.64227129  1
  F  F17  1  -0.42163718  -0.94202545  1.14227129  1
  F  F18  1  -0.92163718  1.44202545  -0.64227129  1
  F  F19  1  1.42163718  -0.44202545  -0.14227129  1
  F  F20  1  -0.92163718  -0.94202545  -0.64227129  1
  F  F21  1  1.42163718  0.94202545  -0.14227129  1
  F  F22  1  0.92163718  -0.44202545  0.64227129  1
  F  F23  1  -0.42163718  1.44202545  1.14227129  1
  Li  Li24  1  0.02522184  0.38774999  0.55633242  1
  Li  Li25  1  0.47477816  0.61225001  0.05633242  1
  Li  Li26  1  0.97477816  0.88774999  0.44366758  1
  Li  Li27  1  0.52522184  0.11225001  0.94366758  1
  Li  Li28  1  0.97477816  0.61225001  0.44366758  1
  Li  Li29  1  0.52522184  0.38774999  0.94366758  1
  Li  Li30  1  0.02522184  0.11225001  0.55633242  1
  Li  Li31  1  0.47477816  0.88774999  0.05633242  1
  Li  Li32  1  0.19237644  0.62318757  0.72969700  1
  Li  Li33  1  0.30762356  0.37681243  0.22969700  1
  Li  Li34  1  0.80762356  0.12318757  0.27030300  1
  Li  Li35  1  0.69237644  0.87681243  0.77030300  1
  Li  Li36  1  0.80762356  0.37681243  0.27030300  1
  Li  Li37  1  0.69237644  0.62318757  0.77030300  1
  Li  Li38  1  0.19237644  0.87681243  0.72969700  1
  Li  Li39  1  0.30762356  0.12318757  0.22969700  1
  Li  Li40  1  0.44721132  0.82744116  0.84141538  1
  Li  Li41  1  0.05278868  0.17255884  0.34141538  1
  Li  Li42  1  0.55278868  0.32744116  0.15858462  1
  Li  Li43  1  0.94721132  0.67255884  0.65858462  1
  Li  Li44  1  0.55278868  0.17255884  0.15858462  1
  Li  Li45  1  0.94721132  0.82744116  0.65858462  1
  Li  Li46  1  0.44721132  0.67255884  0.84141538  1
  Li  Li47  1  0.05278868  0.32744116  0.34141538  1
