# generated using pymatgen
data_LiCaF3
_symmetry_space_group_name_H-M   'P 1'
_cell_length_a   14.78564078
_cell_length_b   14.78564078
_cell_length_c   7.69352723
_cell_angle_alpha   90.00000000
_cell_angle_beta   90.00000000
_cell_angle_gamma   120.00000000
_symmetry_Int_Tables_number   1
_chemical_formula_structural   LiCaF3
_chemical_formula_sum   'Li18 Ca18 F54'
_cell_volume   1456.58699589
_cell_formula_units_Z   18
loop_
 _symmetry_equiv_pos_site_id
 _symmetry_equiv_pos_as_xyz
  1  'x, y, z'
loop_
 _atom_site_type_symbol
 _atom_site_label
 _atom_site_symmetry_multiplicity
 _atom_site_fract_x
 _atom_site_fract_y
 _atom_site_fract_z
 _atom_site_occupancy
  Ca  Ca0  1  0.50000000  0.00000000  0.00000000  1
  Ca  Ca1  1  0.00000000  0.50000000  0.00000000  1
  Ca  Ca2  1  0.50000000  0.50000000  0.00000000  1
  Ca  Ca3  1  0.00000000  0.50000000  0.50000000  1
  Ca  Ca4  1  0.50000000  0.00000000  0.50000000  1
  Ca  Ca5  1  0.50000000  0.50000000  0.50000000  1
  Ca  Ca6  1  0.16666667  0.33333333  0.33333333  1
  Ca  Ca7  1  0.66666667  0.83333333  0.33333333  1
  Ca  Ca8  1  0.16666667  0.83333333  0.33333333  1
  Ca  Ca9  1  0.66666667  0.83333333  0.83333333  1
  Ca  Ca10  1  0.16666667  0.33333333  0.83333333  1
  Ca  Ca11  1  0.16666667  0.83333333  0.83333333  1
  Ca  Ca12  1  0.83333333  0.66666667  0.66666667  1
  Ca  Ca13  1  0.33333333  0.16666667  0.66666667  1
  Ca  Ca14  1  0.83333333  0.16666667  0.66666667  1
  Ca  Ca15  1  0.33333333  0.16666667  0.16666667  1
  Ca  Ca16  1  0.83333333  0.66666667  0.16666667  1
  Ca  Ca17  1  0.83333333  0.16666667  0.16666667  1
  F  F18  1  0.00000000  0.00000000  0.25000000  1
  F  F19  1  0.00000000  0.00000000  0.75000000  1
  F  F20  1  0.66666667  0.33333333  0.58333333  1
  F  F21  1  0.66666667  0.33333333  0.08333333  1
  F  F22  1  0.33333333  0.66666667  0.91666667  1
  F  F23  1  0.33333333  0.66666667  0.41666667  1
  F  F24  1  0.39792463  0.56025333  0.21717492  1
  F  F25  1  -0.56025333  -0.16232871  0.21717492  1
  F  F26  1  0.16232871  -0.39792463  0.21717492  1
  F  F27  1  0.56025333  0.39792463  0.28282508  1
  F  F28  1  -0.16232871  -0.56025333  0.28282508  1
  F  F29  1  -0.39792463  0.16232871  0.28282508  1
  F  F30  1  -0.39792463  -0.56025333  -0.21717492  1
  F  F31  1  0.56025333  0.16232871  -0.21717492  1
  F  F32  1  -0.16232871  0.39792463  -0.21717492  1
  F  F33  1  -0.56025333  -0.39792463  0.71717492  1
  F  F34  1  0.16232871  0.56025333  0.71717492  1
  F  F35  1  0.39792463  -0.16232871  0.71717492  1
  F  F36  1  1.06459130  0.89358667  0.55050826  1
  F  F37  1  0.10641333  0.17100463  0.55050826  1
  F  F38  1  0.82899537  -0.06459130  0.55050826  1
  F  F39  1  1.22692000  0.73125796  0.61615841  1
  F  F40  1  0.50433796  -0.22692000  0.61615841  1
  F  F41  1  0.26874204  0.49566204  0.61615841  1
  F  F42  1  0.26874204  -0.22692000  0.11615841  1
  F  F43  1  1.22692000  0.49566204  0.11615841  1
  F  F44  1  0.50433796  0.73125796  0.11615841  1
  F  F45  1  0.10641333  -0.06459130  1.05050826  1
  F  F46  1  0.82899537  0.89358667  1.05050826  1
  F  F47  1  1.06459130  0.17100463  1.05050826  1
  F  F48  1  0.73125796  1.22692000  0.88384159  1
  F  F49  1  -0.22692000  0.50433796  0.88384159  1
  F  F50  1  0.49566204  0.26874204  0.88384159  1
  F  F51  1  0.89358667  1.06459130  0.94949174  1
  F  F52  1  0.17100463  0.10641333  0.94949174  1
  F  F53  1  -0.06459130  0.82899537  0.94949174  1
  F  F54  1  -0.06459130  0.10641333  0.44949174  1
  F  F55  1  0.89358667  0.82899537  0.44949174  1
  F  F56  1  0.17100463  1.06459130  0.44949174  1
  F  F57  1  -0.22692000  0.26874204  1.38384159  1
  F  F58  1  0.49566204  1.22692000  1.38384159  1
  F  F59  1  0.73125796  0.50433796  1.38384159  1
  F  F60  1  0.00000000  0.00000000  0.63534706  1
  F  F61  1  0.00000000  0.00000000  0.86465294  1
  F  F62  1  0.00000000  0.00000000  0.36465294  1
  F  F63  1  0.00000000  0.00000000  0.13534706  1
  F  F64  1  0.66666667  0.33333333  0.96868039  1
  F  F65  1  0.66666667  0.33333333  0.19798627  1
  F  F66  1  0.66666667  0.33333333  0.69798627  1
  F  F67  1  0.66666667  0.33333333  0.46868039  1
  F  F68  1  0.33333333  0.66666667  0.30201373  1
  F  F69  1  0.33333333  0.66666667  0.53131961  1
  F  F70  1  0.33333333  0.66666667  0.03131961  1
  F  F71  1  0.33333333  0.66666667  0.80201373  1
  Li  Li72  1  0.74559183  0.00000000  0.25000000  1
  Li  Li73  1  0.00000000  0.74559183  0.25000000  1
  Li  Li74  1  0.25440817  0.25440817  0.25000000  1
  Li  Li75  1  0.25440817  -0.00000000  0.75000000  1
  Li  Li76  1  0.00000000  0.25440817  0.75000000  1
  Li  Li77  1  0.74559183  0.74559183  0.75000000  1
  Li  Li78  1  0.41225850  0.33333333  0.58333333  1
  Li  Li79  1  0.66666667  0.07892516  0.58333333  1
  Li  Li80  1  0.92107484  0.58774150  0.58333333  1
  Li  Li81  1  0.92107484  0.33333333  0.08333333  1
  Li  Li82  1  0.66666667  0.58774150  0.08333333  1
  Li  Li83  1  0.41225850  0.07892516  0.08333333  1
  Li  Li84  1  0.07892516  0.66666667  0.91666667  1
  Li  Li85  1  0.33333333  0.41225850  0.91666667  1
  Li  Li86  1  0.58774150  0.92107484  0.91666667  1
  Li  Li87  1  0.58774150  0.66666667  0.41666667  1
  Li  Li88  1  0.33333333  0.92107484  0.41666667  1
  Li  Li89  1  0.07892516  0.41225850  0.41666667  1
