# generated using pymatgen
data_LiF
_symmetry_space_group_name_H-M   'P 1'
_cell_length_a   7.66390654
_cell_length_b   7.66390654
_cell_length_c   5.89710122
_cell_angle_alpha   90.00000000
_cell_angle_beta   90.00000000
_cell_angle_gamma   120.00000000
_symmetry_Int_Tables_number   1
_chemical_formula_structural   LiF
_chemical_formula_sum   'Li12 F12'
_cell_volume   299.96432975
_cell_formula_units_Z   12
loop_
 _symmetry_equiv_pos_site_id
 _symmetry_equiv_pos_as_xyz
  1  'x, y, z'
loop_
 _atom_site_type_symbol
 _atom_site_label
 _atom_site_symmetry_multiplicity
 _atom_site_fract_x
 _atom_site_fract_y
 _atom_site_fract_z
 _atom_site_occupancy
  F  F0  1  0.23543355  0.52487338  0.53474636  1
  F  F1  1  0.47512662  0.71056017  0.53474636  1
  F  F2  1  0.28943983  0.76456645  0.53474636  1
  F  F3  1  0.47512662  0.76456645  0.46525364  1
  F  F4  1  0.28943983  0.52487338  0.46525364  1
  F  F5  1  0.23543355  0.71056017  0.46525364  1
  F  F6  1  0.00000000  0.00000000  0.50000000  1
  F  F7  1  0.80438004  0.19561996  0.50000000  1
  F  F8  1  0.80438004  0.60876007  0.50000000  1
  F  F9  1  0.39123993  0.19561996  0.50000000  1
  F  F10  1  0.33333333  0.66666667  0.94024390  1
  F  F11  1  0.33333333  0.66666667  0.05975610  1
  Li  Li12  1  0.02316629  0.47706841  0.24579264  1
  Li  Li13  1  -0.47706841  -0.45390211  0.24579264  1
  Li  Li14  1  0.45390211  -0.02316629  0.24579264  1
  Li  Li15  1  -0.47706841  -0.02316629  -0.24579264  1
  Li  Li16  1  0.45390211  0.47706841  -0.24579264  1
  Li  Li17  1  0.02316629  -0.45390211  -0.24579264  1
  Li  Li18  1  0.25163326  0.36254746  0.73145264  1
  Li  Li19  1  0.63745254  0.88908580  0.73145264  1
  Li  Li20  1  0.11091420  0.74836674  0.73145264  1
  Li  Li21  1  0.63745254  0.74836674  0.26854736  1
  Li  Li22  1  0.11091420  0.36254746  0.26854736  1
  Li  Li23  1  0.25163326  0.88908580  0.26854736  1
