# generated using pymatgen
data_LiCaF3
_symmetry_space_group_name_H-M   'P 1'
_cell_length_a   14.15597109
_cell_length_b   14.15597109
_cell_length_c   8.30916991
_cell_angle_alpha   90.00000000
_cell_angle_beta   90.00000000
_cell_angle_gamma   120.00000000
_symmetry_Int_Tables_number   1
_chemical_formula_structural   LiCaF3
_chemical_formula_sum   'Li18 Ca18 F54'
_cell_volume   1442.00778538
_cell_formula_units_Z   18
loop_
 _symmetry_equiv_pos_site_id
 _symmetry_equiv_pos_as_xyz
  1  'x, y, z'
loop_
 _atom_site_type_symbol
 _atom_site_label
 _atom_site_symmetry_multiplicity
 _atom_site_fract_x
 _atom_site_fract_y
 _atom_site_fract_z
 _atom_site_occupancy
  Ca  Ca0  1  0.50000000  0.00000000  -0.00000000  1
  Ca  Ca1  1  0.00000000  0.50000000  0.00000000  1
  Ca  Ca2  1  0.50000000  0.50000000  -0.00000000  1
  Ca  Ca3  1  0.00000000  0.50000000  0.50000000  1
  Ca  Ca4  1  0.50000000  0.00000000  0.50000000  1
  Ca  Ca5  1  0.50000000  0.50000000  0.50000000  1
  Ca  Ca6  1  0.16666667  0.33333333  0.33333333  1
  Ca  Ca7  1  0.66666667  0.83333333  0.33333333  1
  Ca  Ca8  1  0.16666667  0.83333333  0.33333333  1
  Ca  Ca9  1  0.66666667  0.83333333  0.83333333  1
  Ca  Ca10  1  0.16666667  0.33333333  0.83333333  1
  Ca  Ca11  1  0.16666667  0.83333333  0.83333333  1
  Ca  Ca12  1  0.83333333  0.66666667  0.66666667  1
  Ca  Ca13  1  0.33333333  0.16666667  0.66666667  1
  Ca  Ca14  1  0.83333333  0.16666667  0.66666667  1
  Ca  Ca15  1  0.33333333  0.16666667  0.16666667  1
  Ca  Ca16  1  0.83333333  0.66666667  0.16666667  1
  Ca  Ca17  1  0.83333333  0.16666667  0.16666667  1
  F  F18  1  0.00000000  0.00000000  0.25000000  1
  F  F19  1  0.00000000  0.00000000  0.75000000  1
  F  F20  1  0.66666667  0.33333333  0.58333333  1
  F  F21  1  0.66666667  0.33333333  0.08333333  1
  F  F22  1  0.33333333  0.66666667  0.91666667  1
  F  F23  1  0.33333333  0.66666667  0.41666667  1
  F  F24  1  0.84914520  0.19186080  0.84805953  1
  F  F25  1  -0.19186080  0.65728440  0.84805953  1
  F  F26  1  -0.65728440  -0.84914520  0.84805953  1
  F  F27  1  0.19186080  0.84914520  -0.34805953  1
  F  F28  1  0.65728440  -0.19186080  -0.34805953  1
  F  F29  1  -0.84914520  -0.65728440  -0.34805953  1
  F  F30  1  -0.84914520  -0.19186080  -0.84805953  1
  F  F31  1  0.19186080  -0.65728440  -0.84805953  1
  F  F32  1  0.65728440  0.84914520  -0.84805953  1
  F  F33  1  -0.19186080  -0.84914520  1.34805953  1
  F  F34  1  -0.65728440  0.19186080  1.34805953  1
  F  F35  1  0.84914520  0.65728440  1.34805953  1
  F  F36  1  1.51581187  0.52519414  1.18139286  1
  F  F37  1  0.47480586  0.99061773  1.18139286  1
  F  F38  1  0.00938227  -0.51581187  1.18139286  1
  F  F39  1  0.85852747  1.18247853  -0.01472620  1
  F  F40  1  1.32395107  0.14147253  -0.01472620  1
  F  F41  1  -0.18247853  -0.32395107  -0.01472620  1
  F  F42  1  -0.18247853  0.14147253  -0.51472620  1
  F  F43  1  0.85852747  -0.32395107  -0.51472620  1
  F  F44  1  1.32395107  1.18247853  -0.51472620  1
  F  F45  1  0.47480586  -0.51581187  1.68139286  1
  F  F46  1  0.00938227  0.52519414  1.68139286  1
  F  F47  1  1.51581187  0.99061773  1.68139286  1
  F  F48  1  1.18247853  0.85852747  1.51472620  1
  F  F49  1  0.14147253  1.32395107  1.51472620  1
  F  F50  1  -0.32395107  -0.18247853  1.51472620  1
  F  F51  1  0.52519414  1.51581187  0.31860714  1
  F  F52  1  0.99061773  0.47480586  0.31860714  1
  F  F53  1  -0.51581187  0.00938227  0.31860714  1
  F  F54  1  -0.51581187  0.47480586  -0.18139286  1
  F  F55  1  0.52519414  0.00938227  -0.18139286  1
  F  F56  1  0.99061773  1.51581187  -0.18139286  1
  F  F57  1  0.14147253  -0.18247853  2.01472620  1
  F  F58  1  -0.32395107  0.85852747  2.01472620  1
  F  F59  1  1.18247853  1.32395107  2.01472620  1
  F  F60  1  0.00000000  0.00000000  0.59283202  1
  F  F61  1  0.00000000  0.00000000  0.90716798  1
  F  F62  1  0.00000000  0.00000000  0.40716798  1
  F  F63  1  0.00000000  0.00000000  0.09283202  1
  F  F64  1  0.66666667  0.33333333  0.92616535  1
  F  F65  1  0.66666667  0.33333333  0.24050132  1
  F  F66  1  0.66666667  0.33333333  0.74050132  1
  F  F67  1  0.66666667  0.33333333  0.42616535  1
  F  F68  1  0.33333333  0.66666667  0.25949868  1
  F  F69  1  0.33333333  0.66666667  0.57383465  1
  F  F70  1  0.33333333  0.66666667  0.07383465  1
  F  F71  1  0.33333333  0.66666667  0.75949868  1
  Li  Li72  1  0.31255976  0.00000000  0.25000000  1
  Li  Li73  1  0.00000000  0.31255976  0.25000000  1
  Li  Li74  1  0.68744024  0.68744024  0.25000000  1
  Li  Li75  1  0.68744024  0.00000000  0.75000000  1
  Li  Li76  1  0.00000000  0.68744024  0.75000000  1
  Li  Li77  1  0.31255976  0.31255976  0.75000000  1
  Li  Li78  1  0.97922642  0.33333333  0.58333333  1
  Li  Li79  1  0.66666667  0.64589309  0.58333333  1
  Li  Li80  1  0.35410691  0.02077358  0.58333333  1
  Li  Li81  1  0.35410691  0.33333333  0.08333333  1
  Li  Li82  1  0.66666667  0.02077358  0.08333333  1
  Li  Li83  1  0.97922642  0.64589309  0.08333333  1
  Li  Li84  1  0.64589309  0.66666667  0.91666667  1
  Li  Li85  1  0.33333333  0.97922642  0.91666667  1
  Li  Li86  1  0.02077358  0.35410691  0.91666667  1
  Li  Li87  1  0.02077358  0.66666667  0.41666667  1
  Li  Li88  1  0.33333333  0.35410691  0.41666667  1
  Li  Li89  1  0.64589309  0.97922642  0.41666667  1
