# generated using pymatgen
data_LiF
_symmetry_space_group_name_H-M   'P 1'
_cell_length_a   7.95140937
_cell_length_b   7.95140937
_cell_length_c   5.61622385
_cell_angle_alpha   90.00000000
_cell_angle_beta   90.00000000
_cell_angle_gamma   120.00000000
_symmetry_Int_Tables_number   1
_chemical_formula_structural   LiF
_chemical_formula_sum   'Li20 F20'
_cell_volume   307.51284939
_cell_formula_units_Z   20
loop_
 _symmetry_equiv_pos_site_id
 _symmetry_equiv_pos_as_xyz
  1  'x, y, z'
loop_
 _atom_site_type_symbol
 _atom_site_label
 _atom_site_symmetry_multiplicity
 _atom_site_fract_x
 _atom_site_fract_y
 _atom_site_fract_z
 _atom_site_occupancy
  F  F0  1  0.27541404  0.08461799  0.01778072  1
  F  F1  1  0.91538201  0.19079605  0.01778072  1
  F  F2  1  0.80920395  0.72458596  0.01778072  1
  F  F3  1  0.91538201  0.72458596  0.98221928  1
  F  F4  1  0.80920395  0.08461799  0.98221928  1
  F  F5  1  0.27541404  0.19079605  0.98221928  1
  F  F6  1  0.60854295  0.05980280  0.21130581  1
  F  F7  1  0.94019720  0.54874015  0.21130581  1
  F  F8  1  0.45125985  0.39145705  0.21130581  1
  F  F9  1  0.94019720  0.39145705  0.78869419  1
  F  F10  1  0.45125985  0.05980280  0.78869419  1
  F  F11  1  0.60854295  0.54874015  0.78869419  1
  F  F12  1  0.14702443  0.85297557  -0.00000000  1
  F  F13  1  0.14702443  0.29404887  -0.00000000  1
  F  F14  1  0.70595113  0.85297557  0.00000000  1
  F  F15  1  0.87205476  0.12794524  0.50000000  1
  F  F16  1  0.87205476  0.74410952  0.50000000  1
  F  F17  1  0.25589048  0.12794524  0.50000000  1
  F  F18  1  0.66666667  0.33333333  0.29514112  1
  F  F19  1  0.66666667  0.33333333  0.70485888  1
  Li  Li20  1  0.00000000  0.00000000  0.00000000  1
  Li  Li21  1  0.00000000  0.00000000  0.50000000  1
  Li  Li22  1  0.12291607  0.53897188  0.35520215  1
  Li  Li23  1  -0.53897188  -0.41605582  0.35520215  1
  Li  Li24  1  0.41605582  -0.12291607  0.35520215  1
  Li  Li25  1  -0.53897188  -0.12291607  -0.35520215  1
  Li  Li26  1  0.41605582  0.53897188  -0.35520215  1
  Li  Li27  1  0.12291607  -0.41605582  -0.35520215  1
  Li  Li28  1  0.33333333  0.66666667  0.67973905  1
  Li  Li29  1  0.33333333  0.66666667  0.32026095  1
  Li  Li30  1  0.60112550  0.39887450  0.50000000  1
  Li  Li31  1  0.60112550  0.20225100  0.50000000  1
  Li  Li32  1  0.79774900  0.39887450  0.50000000  1
  Li  Li33  1  0.33333333  0.66666667  0.00000000  1
  Li  Li34  1  0.79534391  0.80937110  0.88393744  1
  Li  Li35  1  0.19062890  0.98597281  0.88393744  1
  Li  Li36  1  0.01402719  0.20465609  0.88393744  1
  Li  Li37  1  0.19062890  0.20465609  0.11606256  1
  Li  Li38  1  0.01402719  0.80937110  0.11606256  1
  Li  Li39  1  0.79534391  0.98597281  0.11606256  1
