# generated using pymatgen
data_LiF
_symmetry_space_group_name_H-M   'P 1'
_cell_length_a   5.97811658
_cell_length_b   9.28860110
_cell_length_c   10.97245023
_cell_angle_alpha   90.00000000
_cell_angle_beta   90.00000000
_cell_angle_gamma   90.00000000
_symmetry_Int_Tables_number   1
_chemical_formula_structural   LiF
_chemical_formula_sum   'Li30 F30'
_cell_volume   609.28194921
_cell_formula_units_Z   30
loop_
 _symmetry_equiv_pos_site_id
 _symmetry_equiv_pos_as_xyz
  1  'x, y, z'
loop_
 _atom_site_type_symbol
 _atom_site_label
 _atom_site_symmetry_multiplicity
 _atom_site_fract_x
 _atom_site_fract_y
 _atom_site_fract_z
 _atom_site_occupancy
  F  F0  1  0.35243754  0.84123127  0.73384429  1
  F  F1  1  0.64756246  0.15876873  0.73384429  1
  F  F2  1  0.14756246  0.34123127  0.26615571  1
  F  F3  1  0.85243754  0.65876873  0.26615571  1
  F  F4  1  0.64756246  0.15876873  0.26615571  1
  F  F5  1  0.35243754  0.84123127  0.26615571  1
  F  F6  1  0.85243754  0.65876873  0.73384429  1
  F  F7  1  0.14756246  0.34123127  0.73384429  1
  F  F8  1  0.21614060  0.24899259  0.22349387  1
  F  F9  1  0.78385940  0.75100741  0.22349387  1
  F  F10  1  0.28385940  0.74899259  0.77650613  1
  F  F11  1  0.71614060  0.25100741  0.77650613  1
  F  F12  1  0.78385940  0.75100741  0.77650613  1
  F  F13  1  0.21614060  0.24899259  0.77650613  1
  F  F14  1  0.71614060  0.25100741  0.22349387  1
  F  F15  1  0.28385940  0.74899259  0.22349387  1
  F  F16  1  0.21608473  0.86940536  -0.00000000  1
  F  F17  1  0.78391527  0.13059464  -0.00000000  1
  F  F18  1  0.28391527  0.36940536  0.00000000  1
  F  F19  1  0.71608473  0.63059464  0.00000000  1
  F  F20  1  0.52707095  0.69063877  0.80700189  1
  F  F21  1  0.47292905  0.30936123  0.80700189  1
  F  F22  1  0.97292905  0.19063877  0.19299811  1
  F  F23  1  0.02707095  0.80936123  0.19299811  1
  F  F24  1  0.47292905  0.30936123  0.19299811  1
  F  F25  1  0.52707095  0.69063877  0.19299811  1
  F  F26  1  0.02707095  0.80936123  0.80700189  1
  F  F27  1  0.97292905  0.19063877  0.80700189  1
  F  F28  1  0.00000000  0.50000000  -0.00000000  1
  F  F29  1  0.50000000  0.00000000  0.00000000  1
  Li  Li30  1  0.72413250  0.98854292  0.50000000  1
  Li  Li31  1  0.27586750  0.01145708  0.50000000  1
  Li  Li32  1  0.77586750  0.48854292  0.50000000  1
  Li  Li33  1  0.22413250  0.51145708  0.50000000  1
  Li  Li34  1  0.91136304  0.59293194  0.90604574  1
  Li  Li35  1  -0.91136304  -0.59293194  0.90604574  1
  Li  Li36  1  -0.41136304  1.09293194  -0.90604574  1
  Li  Li37  1  1.41136304  -0.09293194  -0.90604574  1
  Li  Li38  1  -0.91136304  -0.59293194  -0.90604574  1
  Li  Li39  1  0.91136304  0.59293194  -0.90604574  1
  Li  Li40  1  1.41136304  -0.09293194  0.90604574  1
  Li  Li41  1  -0.41136304  1.09293194  0.90604574  1
  Li  Li42  1  0.00000000  0.00000000  0.00000000  1
  Li  Li43  1  0.50000000  0.50000000  0.00000000  1
  Li  Li44  1  0.00000000  0.50000000  0.50000000  1
  Li  Li45  1  0.50000000  0.00000000  0.50000000  1
  Li  Li46  1  0.81692780  0.31766087  0.50000000  1
  Li  Li47  1  0.18307220  0.68233913  0.50000000  1
  Li  Li48  1  0.68307220  0.81766087  0.50000000  1
  Li  Li49  1  0.31692780  0.18233913  0.50000000  1
  Li  Li50  1  0.53190884  0.87336158  0.38184270  1
  Li  Li51  1  0.46809116  0.12663842  0.38184270  1
  Li  Li52  1  0.96809116  0.37336158  0.61815730  1
  Li  Li53  1  0.03190884  0.62663842  0.61815730  1
  Li  Li54  1  0.46809116  0.12663842  0.61815730  1
  Li  Li55  1  0.53190884  0.87336158  0.61815730  1
  Li  Li56  1  0.03190884  0.62663842  0.38184270  1
  Li  Li57  1  0.96809116  0.37336158  0.38184270  1
  Li  Li58  1  0.00000000  0.00000000  0.50000000  1
  Li  Li59  1  0.50000000  0.50000000  0.50000000  1
