# generated using pymatgen
data_LiF
_symmetry_space_group_name_H-M   'P 1'
_cell_length_a   7.48168286
_cell_length_b   7.48168286
_cell_length_c   30.58339512
_cell_angle_alpha   90.00000000
_cell_angle_beta   90.00000000
_cell_angle_gamma   120.00000000
_symmetry_Int_Tables_number   1
_chemical_formula_structural   LiF
_chemical_formula_sum   'Li64 F64'
_cell_volume   1482.56900973
_cell_formula_units_Z   64
loop_
 _symmetry_equiv_pos_site_id
 _symmetry_equiv_pos_as_xyz
  1  'x, y, z'
loop_
 _atom_site_type_symbol
 _atom_site_label
 _atom_site_symmetry_multiplicity
 _atom_site_fract_x
 _atom_site_fract_y
 _atom_site_fract_z
 _atom_site_occupancy
  F  F0  1  0.33333333  0.66666667  0.78046241  1
  F  F1  1  0.33333333  0.66666667  0.21953759  1
  F  F2  1  0.17993522  0.47624025  0.67637141  1
  F  F3  1  -0.47624025  -0.29630503  0.67637141  1
  F  F4  1  0.29630503  -0.17993522  0.67637141  1
  F  F5  1  -0.47624025  -0.17993522  -0.67637141  1
  F  F6  1  0.29630503  0.47624025  -0.67637141  1
  F  F7  1  0.17993522  -0.29630503  -0.67637141  1
  F  F8  1  0.06086367  0.22988630  0.58620199  1
  F  F9  1  0.77011370  0.83097737  0.58620199  1
  F  F10  1  0.16902263  0.93913633  0.58620199  1
  F  F11  1  0.77011370  0.93913633  0.41379801  1
  F  F12  1  0.16902263  0.22988630  0.41379801  1
  F  F13  1  0.06086367  0.83097737  0.41379801  1
  F  F14  1  0.00000000  0.00000000  0.15702430  1
  F  F15  1  0.00000000  0.00000000  0.84297570  1
  F  F16  1  0.33333333  0.66666667  0.40788652  1
  F  F17  1  0.33333333  0.66666667  0.59211348  1
  F  F18  1  0.71215992  0.61048997  0.18838100  1
  F  F19  1  0.38951003  0.10166995  0.18838100  1
  F  F20  1  0.89833005  0.28784008  0.18838100  1
  F  F21  1  0.38951003  0.28784008  0.81161900  1
  F  F22  1  0.89833005  0.61048997  0.81161900  1
  F  F23  1  0.71215992  0.10166995  0.81161900  1
  F  F24  1  0.37442915  0.63988506  0.56560839  1
  F  F25  1  0.36011494  0.73454409  0.56560839  1
  F  F26  1  0.26545591  0.62557085  0.56560839  1
  F  F27  1  0.36011494  0.62557085  0.43439161  1
  F  F28  1  0.26545591  0.63988506  0.43439161  1
  F  F29  1  0.37442915  0.73454409  0.43439161  1
  F  F30  1  0.17168407  0.77919760  0.51798680  1
  F  F31  1  0.22080240  0.39248648  0.51798680  1
  F  F32  1  0.60751352  0.82831593  0.51798680  1
  F  F33  1  0.22080240  0.82831593  0.48201320  1
  F  F34  1  0.60751352  0.77919760  0.48201320  1
  F  F35  1  0.17168407  0.39248648  0.48201320  1
  F  F36  1  0.08183479  0.91816521  0.00000000  1
  F  F37  1  0.08183479  0.16366958  0.00000000  1
  F  F38  1  0.83633042  0.91816521  0.00000000  1
  F  F39  1  0.84845110  0.82331757  0.93005595  1
  F  F40  1  0.17668243  0.02513354  0.93005595  1
  F  F41  1  0.97486646  0.15154890  0.93005595  1
  F  F42  1  0.17668243  0.15154890  0.06994405  1
  F  F43  1  0.97486646  0.82331757  0.06994405  1
  F  F44  1  0.84845110  0.02513354  0.06994405  1
  F  F45  1  0.33333333  0.66666667  0.50000000  1
  F  F46  1  0.00371079  0.62774975  0.38727159  1
  F  F47  1  0.37225025  0.37596103  0.38727159  1
  F  F48  1  0.62403897  0.99628921  0.38727159  1
  F  F49  1  0.37225025  0.99628921  0.61272841  1
  F  F50  1  0.62403897  0.62774975  0.61272841  1
  F  F51  1  0.00371079  0.37596103  0.61272841  1
  F  F52  1  0.66666667  0.33333333  0.50000000  1
  F  F53  1  0.33333333  0.66666667  0.66706048  1
  F  F54  1  0.33333333  0.66666667  0.33293952  1
  F  F55  1  0.41047905  0.52093916  0.75937461  1
  F  F56  1  0.47906084  0.88953989  0.75937461  1
  F  F57  1  0.11046011  0.58952095  0.75937461  1
  F  F58  1  0.47906084  0.58952095  0.24062539  1
  F  F59  1  0.11046011  0.52093916  0.24062539  1
  F  F60  1  0.41047905  0.88953989  0.24062539  1
  F  F61  1  0.00000000  0.00000000  0.74868202  1
  F  F62  1  0.00000000  0.00000000  0.25131798  1
  F  F63  1  0.33333333  0.66666667  0.00000000  1
  Li  Li64  1  0.46964832  0.23350339  0.07428161  1
  Li  Li65  1  0.76649661  0.23614494  0.07428161  1
  Li  Li66  1  0.76385506  0.53035168  0.07428161  1
  Li  Li67  1  0.76649661  0.53035168  0.92571839  1
  Li  Li68  1  0.76385506  0.23350339  0.92571839  1
  Li  Li69  1  0.46964832  0.23614494  0.92571839  1
  Li  Li70  1  0.75278007  0.24721993  0.50000000  1
  Li  Li71  1  0.75278007  0.50556013  0.50000000  1
  Li  Li72  1  0.49443987  0.24721993  0.50000000  1
  Li  Li73  1  0.32616163  0.39545304  0.78730435  1
  Li  Li74  1  0.60454696  0.93070859  0.78730435  1
  Li  Li75  1  0.06929141  0.67383837  0.78730435  1
  Li  Li76  1  0.60454696  0.67383837  0.21269565  1
  Li  Li77  1  0.06929141  0.39545304  0.21269565  1
  Li  Li78  1  0.32616163  0.93070859  0.21269565  1
  Li  Li79  1  0.93551553  0.81313453  0.60059543  1
  Li  Li80  1  0.18686547  0.12238099  0.60059543  1
  Li  Li81  1  0.87761901  0.06448447  0.60059543  1
  Li  Li82  1  0.18686547  0.06448447  0.39940457  1
  Li  Li83  1  0.87761901  0.81313453  0.39940457  1
  Li  Li84  1  0.93551553  0.12238099  0.39940457  1
  Li  Li85  1  0.00000000  0.00000000  0.50000000  1
  Li  Li86  1  0.65811159  0.54612555  0.27798615  1
  Li  Li87  1  0.45387445  0.11198604  0.27798615  1
  Li  Li88  1  0.88801396  0.34188841  0.27798615  1
  Li  Li89  1  0.45387445  0.34188841  0.72201385  1
  Li  Li90  1  0.88801396  0.54612555  0.72201385  1
  Li  Li91  1  0.65811159  0.11198604  0.72201385  1
  Li  Li92  1  0.97398098  0.55004150  0.25131171  1
  Li  Li93  1  0.44995850  0.42393949  0.25131171  1
  Li  Li94  1  0.57606051  0.02601902  0.25131171  1
  Li  Li95  1  0.44995850  0.02601902  0.74868829  1
  Li  Li96  1  0.57606051  0.55004150  0.74868829  1
  Li  Li97  1  0.97398098  0.42393949  0.74868829  1
  Li  Li98  1  0.44648848  0.55351152  0.50000000  1
  Li  Li99  1  0.44648848  0.89297695  0.50000000  1
  Li  Li100  1  0.10702305  0.55351152  0.50000000  1
  Li  Li101  1  0.78505279  0.21600934  0.61203263  1
  Li  Li102  1  0.78399066  0.56904345  0.61203263  1
  Li  Li103  1  0.43095655  0.21494721  0.61203263  1
  Li  Li104  1  0.78399066  0.21494721  0.38796737  1
  Li  Li105  1  0.43095655  0.21600934  0.38796737  1
  Li  Li106  1  0.78505279  0.56904345  0.38796737  1
  Li  Li107  1  0.91684924  0.31166460  0.79473499  1
  Li  Li108  1  0.68833540  0.60518465  0.79473499  1
  Li  Li109  1  0.39481535  0.08315076  0.79473499  1
  Li  Li110  1  0.68833540  0.08315076  0.20526501  1
  Li  Li111  1  0.39481535  0.31166460  0.20526501  1
  Li  Li112  1  0.91684924  0.60518465  0.20526501  1
  Li  Li113  1  0.33333333  0.66666667  0.37406136  1
  Li  Li114  1  0.33333333  0.66666667  0.62593864  1
  Li  Li115  1  0.00000000  0.00000000  0.00000000  1
  Li  Li116  1  0.87982074  0.83161332  0.77273395  1
  Li  Li117  1  0.16838668  0.04820742  0.77273395  1
  Li  Li118  1  0.95179258  0.12017926  0.77273395  1
  Li  Li119  1  0.16838668  0.12017926  0.22726605  1
  Li  Li120  1  0.95179258  0.83161332  0.22726605  1
  Li  Li121  1  0.87982074  0.04820742  0.22726605  1
  Li  Li122  1  0.82862416  0.28253794  0.98306578  1
  Li  Li123  1  0.71746206  0.54608623  0.98306578  1
  Li  Li124  1  0.45391377  0.17137584  0.98306578  1
  Li  Li125  1  0.71746206  0.17137584  0.01693422  1
  Li  Li126  1  0.45391377  0.28253794  0.01693422  1
  Li  Li127  1  0.82862416  0.54608623  0.01693422  1
