# generated using pymatgen
data_Li2Si4Te3F12
_symmetry_space_group_name_H-M   'P 1'
_cell_length_a   13.60880452
_cell_length_b   13.60880452
_cell_length_c   7.63726742
_cell_angle_alpha   90.00000000
_cell_angle_beta   90.00000000
_cell_angle_gamma   90.00000000
_symmetry_Int_Tables_number   1
_chemical_formula_structural   Li2Si4Te3F12
_chemical_formula_sum   'Li8 Si16 Te12 F48'
_cell_volume   1414.41856969
_cell_formula_units_Z   4
loop_
 _symmetry_equiv_pos_site_id
 _symmetry_equiv_pos_as_xyz
  1  'x, y, z'
loop_
 _atom_site_type_symbol
 _atom_site_label
 _atom_site_symmetry_multiplicity
 _atom_site_fract_x
 _atom_site_fract_y
 _atom_site_fract_z
 _atom_site_occupancy
  F  F0  1  0.66592643  0.96587590  0.78585924  1
  F  F1  1  -0.16592643  -0.96587590  1.28585924  1
  F  F2  1  -0.71587590  1.41592643  1.03585924  1
  F  F3  1  1.21587590  -0.41592643  1.53585924  1
  F  F4  1  -0.16592643  0.96587590  -0.28585924  1
  F  F5  1  0.66592643  -0.96587590  -0.78585924  1
  F  F6  1  1.21587590  1.41592643  -0.53585924  1
  F  F7  1  -0.71587590  -0.41592643  -0.03585924  1
  F  F8  1  -0.66592643  -0.96587590  -0.78585924  1
  F  F9  1  1.16592643  0.96587590  -0.28585924  1
  F  F10  1  1.71587590  -0.41592643  -0.03585924  1
  F  F11  1  -0.21587590  1.41592643  -0.53585924  1
  F  F12  1  1.16592643  -0.96587590  1.28585924  1
  F  F13  1  -0.66592643  0.96587590  0.78585924  1
  F  F14  1  -0.21587590  -0.41592643  1.53585924  1
  F  F15  1  1.71587590  1.41592643  1.03585924  1
  F  F16  1  1.16592643  1.46587590  1.28585924  1
  F  F17  1  0.33407357  -0.46587590  1.78585924  1
  F  F18  1  -0.21587590  1.91592643  1.53585924  1
  F  F19  1  1.71587590  0.08407357  2.03585924  1
  F  F20  1  0.33407357  1.46587590  0.21414076  1
  F  F21  1  1.16592643  -0.46587590  -0.28585924  1
  F  F22  1  1.71587590  1.91592643  -0.03585924  1
  F  F23  1  -0.21587590  0.08407357  0.46414076  1
  F  F24  1  -0.16592643  -0.46587590  -0.28585924  1
  F  F25  1  1.66592643  1.46587590  0.21414076  1
  F  F26  1  2.21587590  0.08407357  0.46414076  1
  F  F27  1  0.28412410  1.91592643  -0.03585924  1
  F  F28  1  1.66592643  -0.46587590  1.78585924  1
  F  F29  1  -0.16592643  1.46587590  1.28585924  1
  F  F30  1  0.28412410  0.08407357  2.03585924  1
  F  F31  1  2.21587590  1.91592643  1.53585924  1
  F  F32  1  0.00000000  0.80481850  0.50436871  1
  F  F33  1  0.50000000  0.19518150  0.00436871  1
  F  F34  1  0.44518150  0.75000000  0.75436871  1
  F  F35  1  0.05481850  0.25000000  0.25436871  1
  F  F36  1  0.50000000  0.80481850  0.99563129  1
  F  F37  1  0.00000000  0.19518150  0.49563129  1
  F  F38  1  0.05481850  0.75000000  0.74563129  1
  F  F39  1  0.44518150  0.25000000  0.24563129  1
  F  F40  1  0.50000000  0.30481850  0.00436871  1
  F  F41  1  0.00000000  0.69518150  0.50436871  1
  F  F42  1  0.94518150  0.25000000  0.25436871  1
  F  F43  1  0.55481850  0.75000000  0.75436871  1
  F  F44  1  0.00000000  0.30481850  0.49563129  1
  F  F45  1  0.50000000  0.69518150  0.99563129  1
  F  F46  1  0.55481850  0.25000000  0.24563129  1
  F  F47  1  0.94518150  0.75000000  0.74563129  1
  Li  Li48  1  0.00000000  0.25000000  0.11516168  1
  Li  Li49  1  0.00000000  0.75000000  0.36516168  1
  Li  Li50  1  0.50000000  0.25000000  0.38483832  1
  Li  Li51  1  0.50000000  0.75000000  0.13483832  1
  Li  Li52  1  0.50000000  0.75000000  0.61516168  1
  Li  Li53  1  0.50000000  0.25000000  0.86516168  1
  Li  Li54  1  0.00000000  0.75000000  0.88483832  1
  Li  Li55  1  0.00000000  0.25000000  0.63483832  1
  Si  Si56  1  0.00000000  0.63023929  0.35612448  1
  Si  Si57  1  0.50000000  0.36976071  0.85612448  1
  Si  Si58  1  0.61976071  0.75000000  0.60612448  1
  Si  Si59  1  0.88023929  0.25000000  0.10612448  1
  Si  Si60  1  0.50000000  0.63023929  0.14387552  1
  Si  Si61  1  0.00000000  0.36976071  0.64387552  1
  Si  Si62  1  0.88023929  0.75000000  0.89387552  1
  Si  Si63  1  0.61976071  0.25000000  0.39387552  1
  Si  Si64  1  0.50000000  0.13023929  0.85612448  1
  Si  Si65  1  0.00000000  0.86976071  0.35612448  1
  Si  Si66  1  0.11976071  0.25000000  0.10612448  1
  Si  Si67  1  0.38023929  0.75000000  0.60612448  1
  Si  Si68  1  0.00000000  0.13023929  0.64387552  1
  Si  Si69  1  0.50000000  0.86976071  0.14387552  1
  Si  Si70  1  0.38023929  0.25000000  0.39387552  1
  Si  Si71  1  0.11976071  0.75000000  0.89387552  1
  Te  Te72  1  0.00000000  0.00000000  0.00000000  1
  Te  Te73  1  0.50000000  0.00000000  0.50000000  1
  Te  Te74  1  0.25000000  0.75000000  0.25000000  1
  Te  Te75  1  0.25000000  0.25000000  0.75000000  1
  Te  Te76  1  0.50000000  0.50000000  0.50000000  1
  Te  Te77  1  0.00000000  0.50000000  -0.00000000  1
  Te  Te78  1  0.75000000  0.25000000  0.75000000  1
  Te  Te79  1  0.75000000  0.75000000  0.25000000  1
  Te  Te80  1  0.00000000  0.75000000  0.12500000  1
  Te  Te81  1  0.50000000  0.75000000  0.37500000  1
  Te  Te82  1  0.50000000  0.25000000  0.62500000  1
  Te  Te83  1  0.00000000  0.25000000  0.87500000  1
