# generated using pymatgen
data_Li3La5Y(N2F)2
_symmetry_space_group_name_H-M   'P 1'
_cell_length_a   7.17972162
_cell_length_b   6.80764963
_cell_length_c   8.01390229
_cell_angle_alpha   94.40789903
_cell_angle_beta   90.12748294
_cell_angle_gamma   106.38069798
_symmetry_Int_Tables_number   1
_chemical_formula_structural   Li3La5Y(N2F)2
_chemical_formula_sum   'Li3 La5 Y1 N4 F2'
_cell_volume   374.56791857
_cell_formula_units_Z   1
loop_
 _symmetry_equiv_pos_site_id
 _symmetry_equiv_pos_as_xyz
  1  'x, y, z'
loop_
 _atom_site_type_symbol
 _atom_site_label
 _atom_site_symmetry_multiplicity
 _atom_site_fract_x
 _atom_site_fract_y
 _atom_site_fract_z
 _atom_site_occupancy
  La  La0  1  0.00000000  0.00000000  0.00000000  1
  La  La1  1  0.50000000  0.50000000  0.50000000  1
  La  La2  1  0.25000000  0.25000000  0.25000000  1
  La  La3  1  0.75000000  0.25000000  0.00000000  1
  La  La4  1  0.25000000  0.75000000  0.50000000  1
  F  F5  1  0.14478586  0.40902770  0.05588354  1
  F  F6  1  0.03936388  0.89585390  0.41601854  1
  N  N7  1  0.08633088  0.62330634  0.96807724  1
  N  N8  1  0.16259608  0.13444683  0.20350250  1
  N  N9  1  0.25312367  0.08310742  0.35756873  1
  N  N10  1  0.01746616  0.00251214  0.62111780  1
  Y  Y11  1  0.48976602  0.11080310  0.44644244  1
  Li  Li12  1  0.21521085  0.32442030  0.24008231  1
  Li  Li13  1  0.07013827  0.93393079  0.59530019  1
  Li  Li14  1  0.43419733  0.97283894  0.22902997  1
