# generated using pymatgen
data_LiF
_symmetry_space_group_name_H-M   'P 1'
_cell_length_a   8.79699270
_cell_length_b   7.94305610
_cell_length_c   10.90384315
_cell_angle_alpha   90.00000000
_cell_angle_beta   90.00000000
_cell_angle_gamma   90.00000000
_symmetry_Int_Tables_number   1
_chemical_formula_structural   LiF
_chemical_formula_sum   'Li24 F24'
_cell_volume   761.90611098
_cell_formula_units_Z   24
loop_
 _symmetry_equiv_pos_site_id
 _symmetry_equiv_pos_as_xyz
  1  'x, y, z'
loop_
 _atom_site_type_symbol
 _atom_site_label
 _atom_site_symmetry_multiplicity
 _atom_site_fract_x
 _atom_site_fract_y
 _atom_site_fract_z
 _atom_site_occupancy
  F  F0  1  0.01992176  0.25000000  0.61909510  1
  F  F1  1  0.48007824  0.75000000  0.11909510  1
  F  F2  1  0.98007824  0.75000000  0.38090490  1
  F  F3  1  0.51992176  0.25000000  0.88090490  1
  F  F4  1  0.09991897  0.25000000  0.78837741  1
  F  F5  1  0.40008103  0.75000000  0.28837741  1
  F  F6  1  0.90008103  0.75000000  0.21162259  1
  F  F7  1  0.59991897  0.25000000  0.71162259  1
  F  F8  1  0.94675070  0.89811541  0.00923501  1
  F  F9  1  0.55324930  0.10188459  0.50923501  1
  F  F10  1  0.05324930  0.39811541  0.99076499  1
  F  F11  1  0.44675070  0.60188459  0.49076499  1
  F  F12  1  0.05324930  0.10188459  0.99076499  1
  F  F13  1  0.44675070  0.89811541  0.49076499  1
  F  F14  1  0.94675070  0.60188459  0.00923501  1
  F  F15  1  0.55324930  0.39811541  0.50923501  1
  F  F16  1  0.99968397  0.86354524  0.39172043  1
  F  F17  1  0.50031603  0.13645476  0.89172043  1
  F  F18  1  0.00031603  0.36354524  0.60827957  1
  F  F19  1  0.49968397  0.63645476  0.10827957  1
  F  F20  1  0.00031603  0.13645476  0.60827957  1
  F  F21  1  0.49968397  0.86354524  0.10827957  1
  F  F22  1  0.99968397  0.63645476  0.39172043  1
  F  F23  1  0.50031603  0.36354524  0.89172043  1
  Li  Li24  1  0.36580398  0.25000000  0.05182420  1
  Li  Li25  1  0.13419602  0.75000000  0.55182420  1
  Li  Li26  1  0.63419602  0.75000000  0.94817580  1
  Li  Li27  1  0.86580398  0.25000000  0.44817580  1
  Li  Li28  1  0.96515828  0.25000000  0.13071825  1
  Li  Li29  1  0.53484172  0.75000000  0.63071825  1
  Li  Li30  1  0.03484172  0.75000000  0.86928175  1
  Li  Li31  1  0.46515828  0.25000000  0.36928175  1
  Li  Li32  1  0.22634728  0.07745432  0.12658400  1
  Li  Li33  1  0.27365272  -0.07745432  0.62658400  1
  Li  Li34  1  -0.22634728  0.57745432  -0.12658400  1
  Li  Li35  1  0.72634728  0.42254568  0.37341600  1
  Li  Li36  1  -0.22634728  -0.07745432  -0.12658400  1
  Li  Li37  1  0.72634728  0.07745432  0.37341600  1
  Li  Li38  1  0.22634728  0.42254568  0.12658400  1
  Li  Li39  1  0.27365272  0.57745432  0.62658400  1
  Li  Li40  1  0.00000000  0.00000000  0.00000000  1
  Li  Li41  1  0.50000000  0.00000000  0.50000000  1
  Li  Li42  1  0.00000000  0.50000000  0.00000000  1
  Li  Li43  1  0.50000000  0.50000000  0.50000000  1
  Li  Li44  1  0.00000000  0.00000000  0.50000000  1
  Li  Li45  1  0.50000000  0.00000000  0.00000000  1
  Li  Li46  1  0.00000000  0.50000000  0.50000000  1
  Li  Li47  1  0.50000000  0.50000000  -0.00000000  1
