# generated using pymatgen
data_Li4TeF2
_symmetry_space_group_name_H-M   'P 1'
_cell_length_a   14.61013256
_cell_length_b   14.61013256
_cell_length_c   17.90895198
_cell_angle_alpha   90.00000000
_cell_angle_beta   90.00000000
_cell_angle_gamma   90.00000000
_symmetry_Int_Tables_number   1
_chemical_formula_structural   Li4TeF2
_chemical_formula_sum   'Li96 Te24 F48'
_cell_volume   3822.77277980
_cell_formula_units_Z   24
loop_
 _symmetry_equiv_pos_site_id
 _symmetry_equiv_pos_as_xyz
  1  'x, y, z'
loop_
 _atom_site_type_symbol
 _atom_site_label
 _atom_site_symmetry_multiplicity
 _atom_site_fract_x
 _atom_site_fract_y
 _atom_site_fract_z
 _atom_site_occupancy
  F  F0  1  0.19243738  0.50308878  0.20576918  1
  F  F1  1  0.30756262  -0.50308878  0.70576918  1
  F  F2  1  -0.25308878  0.94243738  0.45576918  1
  F  F3  1  0.75308878  0.05756262  0.95576918  1
  F  F4  1  0.30756262  0.50308878  -0.20576918  1
  F  F5  1  0.19243738  -0.50308878  0.29423082  1
  F  F6  1  0.75308878  0.94243738  0.54423082  1
  F  F7  1  -0.25308878  0.05756262  0.04423082  1
  F  F8  1  -0.19243738  -0.50308878  -0.20576918  1
  F  F9  1  0.69243738  0.50308878  0.29423082  1
  F  F10  1  1.25308878  0.05756262  0.54423082  1
  F  F11  1  0.24691122  0.94243738  0.04423082  1
  F  F12  1  0.69243738  -0.50308878  0.20576918  1
  F  F13  1  -0.19243738  0.50308878  0.70576918  1
  F  F14  1  0.24691122  0.05756262  0.45576918  1
  F  F15  1  1.25308878  0.94243738  0.95576918  1
  F  F16  1  0.69243738  1.00308878  0.70576918  1
  F  F17  1  0.80756262  -0.00308878  1.20576918  1
  F  F18  1  0.24691122  1.44243738  0.95576918  1
  F  F19  1  1.25308878  0.55756262  1.45576918  1
  F  F20  1  0.80756262  1.00308878  0.29423082  1
  F  F21  1  0.69243738  -0.00308878  0.79423082  1
  F  F22  1  1.25308878  1.44243738  1.04423082  1
  F  F23  1  0.24691122  0.55756262  0.54423082  1
  F  F24  1  0.30756262  -0.00308878  0.29423082  1
  F  F25  1  1.19243738  1.00308878  0.79423082  1
  F  F26  1  1.75308878  0.55756262  1.04423082  1
  F  F27  1  0.74691122  1.44243738  0.54423082  1
  F  F28  1  1.19243738  -0.00308878  0.70576918  1
  F  F29  1  0.30756262  1.00308878  1.20576918  1
  F  F30  1  0.74691122  0.55756262  0.95576918  1
  F  F31  1  1.75308878  1.44243738  1.45576918  1
  F  F32  1  0.00000000  0.25000000  0.67894553  1
  F  F33  1  0.00000000  0.75000000  0.92894553  1
  F  F34  1  0.50000000  0.25000000  0.32105447  1
  F  F35  1  0.50000000  0.75000000  0.07105447  1
  F  F36  1  0.00000000  0.75000000  0.32105447  1
  F  F37  1  0.00000000  0.25000000  0.07105447  1
  F  F38  1  0.50000000  0.75000000  0.67894553  1
  F  F39  1  0.50000000  0.25000000  0.92894553  1
  F  F40  1  0.50000000  0.75000000  0.17894553  1
  F  F41  1  0.50000000  0.25000000  0.42894553  1
  F  F42  1  0.00000000  0.75000000  0.82105447  1
  F  F43  1  0.00000000  0.25000000  0.57105447  1
  F  F44  1  0.50000000  0.25000000  0.82105447  1
  F  F45  1  0.50000000  0.75000000  0.57105447  1
  F  F46  1  0.00000000  0.25000000  0.17894553  1
  F  F47  1  0.00000000  0.75000000  0.42894553  1
  Li  Li48  1  0.87798627  0.71512968  0.42711763  1
  Li  Li49  1  0.62201373  0.28487032  0.92711763  1
  Li  Li50  1  0.53487032  0.62798627  0.67711763  1
  Li  Li51  1  0.96512968  0.37201373  0.17711763  1
  Li  Li52  1  0.62201373  0.71512968  0.57288237  1
  Li  Li53  1  0.87798627  0.28487032  0.07288237  1
  Li  Li54  1  0.96512968  0.62798627  0.32288237  1
  Li  Li55  1  0.53487032  0.37201373  0.82288237  1
  Li  Li56  1  0.12201373  0.28487032  0.57288237  1
  Li  Li57  1  0.37798627  0.71512968  0.07288237  1
  Li  Li58  1  0.46512968  0.37201373  0.32288237  1
  Li  Li59  1  0.03487032  0.62798627  0.82288237  1
  Li  Li60  1  0.37798627  0.28487032  0.42711763  1
  Li  Li61  1  0.12201373  0.71512968  0.92711763  1
  Li  Li62  1  0.03487032  0.37201373  0.67711763  1
  Li  Li63  1  0.46512968  0.62798627  0.17711763  1
  Li  Li64  1  0.37798627  0.21512968  0.92711763  1
  Li  Li65  1  0.12201373  0.78487032  0.42711763  1
  Li  Li66  1  0.03487032  0.12798627  0.17711763  1
  Li  Li67  1  0.46512968  0.87201373  0.67711763  1
  Li  Li68  1  0.12201373  0.21512968  0.07288237  1
  Li  Li69  1  0.37798627  0.78487032  0.57288237  1
  Li  Li70  1  0.46512968  0.12798627  0.82288237  1
  Li  Li71  1  0.03487032  0.87201373  0.32288237  1
  Li  Li72  1  0.62201373  0.78487032  0.07288237  1
  Li  Li73  1  0.87798627  0.21512968  0.57288237  1
  Li  Li74  1  0.96512968  0.87201373  0.82288237  1
  Li  Li75  1  0.53487032  0.12798627  0.32288237  1
  Li  Li76  1  0.87798627  0.78487032  0.92711763  1
  Li  Li77  1  0.62201373  0.21512968  0.42711763  1
  Li  Li78  1  0.53487032  0.87201373  0.17711763  1
  Li  Li79  1  0.96512968  0.12798627  0.67711763  1
  Li  Li80  1  0.35331780  0.32600261  0.98996327  1
  Li  Li81  1  0.14668220  0.67399739  0.48996327  1
  Li  Li82  1  0.92399739  0.10331780  0.23996327  1
  Li  Li83  1  0.57600261  0.89668220  0.73996327  1
  Li  Li84  1  0.14668220  0.32600261  0.01003673  1
  Li  Li85  1  0.35331780  0.67399739  0.51003673  1
  Li  Li86  1  0.57600261  0.10331780  0.76003673  1
  Li  Li87  1  0.92399739  0.89668220  0.26003673  1
  Li  Li88  1  0.64668220  0.67399739  0.01003673  1
  Li  Li89  1  0.85331780  0.32600261  0.51003673  1
  Li  Li90  1  0.07600261  0.89668220  0.76003673  1
  Li  Li91  1  0.42399739  0.10331780  0.26003673  1
  Li  Li92  1  0.85331780  0.67399739  0.98996327  1
  Li  Li93  1  0.64668220  0.32600261  0.48996327  1
  Li  Li94  1  0.42399739  0.89668220  0.23996327  1
  Li  Li95  1  0.07600261  0.10331780  0.73996327  1
  Li  Li96  1  0.85331780  0.82600261  0.48996327  1
  Li  Li97  1  0.64668220  0.17399739  0.98996327  1
  Li  Li98  1  0.42399739  0.60331780  0.73996327  1
  Li  Li99  1  0.07600261  0.39668220  0.23996327  1
  Li  Li100  1  0.64668220  0.82600261  0.51003673  1
  Li  Li101  1  0.85331780  0.17399739  0.01003673  1
  Li  Li102  1  0.07600261  0.60331780  0.26003673  1
  Li  Li103  1  0.42399739  0.39668220  0.76003673  1
  Li  Li104  1  0.14668220  0.17399739  0.51003673  1
  Li  Li105  1  0.35331780  0.82600261  0.01003673  1
  Li  Li106  1  0.57600261  0.39668220  0.26003673  1
  Li  Li107  1  0.92399739  0.60331780  0.76003673  1
  Li  Li108  1  0.35331780  0.17399739  0.48996327  1
  Li  Li109  1  0.14668220  0.82600261  0.98996327  1
  Li  Li110  1  0.92399739  0.39668220  0.73996327  1
  Li  Li111  1  0.57600261  0.60331780  0.23996327  1
  Li  Li112  1  0.66202846  0.97940082  0.63437953  1
  Li  Li113  1  0.83797154  0.02059918  0.13437953  1
  Li  Li114  1  0.27059918  0.41202846  0.88437953  1
  Li  Li115  1  0.22940082  0.58797154  0.38437953  1
  Li  Li116  1  0.83797154  0.97940082  0.36562047  1
  Li  Li117  1  0.66202846  0.02059918  0.86562047  1
  Li  Li118  1  0.22940082  0.41202846  0.11562047  1
  Li  Li119  1  0.27059918  0.58797154  0.61562047  1
  Li  Li120  1  0.33797154  0.02059918  0.36562047  1
  Li  Li121  1  0.16202846  0.97940082  0.86562047  1
  Li  Li122  1  0.72940082  0.58797154  0.11562047  1
  Li  Li123  1  0.77059918  0.41202846  0.61562047  1
  Li  Li124  1  0.16202846  0.02059918  0.63437953  1
  Li  Li125  1  0.33797154  0.97940082  0.13437953  1
  Li  Li126  1  0.77059918  0.58797154  0.88437953  1
  Li  Li127  1  0.72940082  0.41202846  0.38437953  1
  Li  Li128  1  0.16202846  0.47940082  0.13437953  1
  Li  Li129  1  0.33797154  0.52059918  0.63437953  1
  Li  Li130  1  0.77059918  0.91202846  0.38437953  1
  Li  Li131  1  0.72940082  0.08797154  0.88437953  1
  Li  Li132  1  0.33797154  0.47940082  0.86562047  1
  Li  Li133  1  0.16202846  0.52059918  0.36562047  1
  Li  Li134  1  0.72940082  0.91202846  0.61562047  1
  Li  Li135  1  0.77059918  0.08797154  0.11562047  1
  Li  Li136  1  0.83797154  0.52059918  0.86562047  1
  Li  Li137  1  0.66202846  0.47940082  0.36562047  1
  Li  Li138  1  0.22940082  0.08797154  0.61562047  1
  Li  Li139  1  0.27059918  0.91202846  0.11562047  1
  Li  Li140  1  0.66202846  0.52059918  0.13437953  1
  Li  Li141  1  0.83797154  0.47940082  0.63437953  1
  Li  Li142  1  0.27059918  0.08797154  0.38437953  1
  Li  Li143  1  0.22940082  0.91202846  0.88437953  1
  Te  Te144  1  0.99989147  0.00000000  0.25000000  1
  Te  Te145  1  0.50010853  0.00000000  0.75000000  1
  Te  Te146  1  0.25000000  0.74989147  0.50000000  1
  Te  Te147  1  0.25000000  0.25010853  -0.00000000  1
  Te  Te148  1  0.00010853  -0.00000000  0.75000000  1
  Te  Te149  1  0.49989147  0.00000000  0.25000000  1
  Te  Te150  1  0.75000000  0.25010853  0.50000000  1
  Te  Te151  1  0.75000000  0.74989147  0.00000000  1
  Te  Te152  1  0.49989147  0.50000000  0.75000000  1
  Te  Te153  1  0.00010853  0.50000000  0.25000000  1
  Te  Te154  1  0.75000000  0.24989147  0.00000000  1
  Te  Te155  1  0.75000000  0.75010853  0.50000000  1
  Te  Te156  1  0.50010853  0.50000000  0.25000000  1
  Te  Te157  1  0.99989147  0.50000000  0.75000000  1
  Te  Te158  1  0.25000000  0.75010853  -0.00000000  1
  Te  Te159  1  0.25000000  0.24989147  0.50000000  1
  Te  Te160  1  0.00000000  0.25000000  0.37500000  1
  Te  Te161  1  0.00000000  0.75000000  0.62500000  1
  Te  Te162  1  0.50000000  0.25000000  0.62500000  1
  Te  Te163  1  0.50000000  0.75000000  0.37500000  1
  Te  Te164  1  0.50000000  0.75000000  0.87500000  1
  Te  Te165  1  0.50000000  0.25000000  0.12500000  1
  Te  Te166  1  0.00000000  0.75000000  0.12500000  1
  Te  Te167  1  0.00000000  0.25000000  0.87500000  1
