# generated using pymatgen
data_Li2Ca3F8
_symmetry_space_group_name_H-M   'P 1'
_cell_length_a   7.53843855
_cell_length_b   7.53843855
_cell_length_c   31.98917221
_cell_angle_alpha   90.00000000
_cell_angle_beta   90.00000000
_cell_angle_gamma   120.00000000
_symmetry_Int_Tables_number   1
_chemical_formula_structural   Li2Ca3F8
_chemical_formula_sum   'Li16 Ca24 F64'
_cell_volume   1574.33239481
_cell_formula_units_Z   8
loop_
 _symmetry_equiv_pos_site_id
 _symmetry_equiv_pos_as_xyz
  1  'x, y, z'
loop_
 _atom_site_type_symbol
 _atom_site_label
 _atom_site_symmetry_multiplicity
 _atom_site_fract_x
 _atom_site_fract_y
 _atom_site_fract_z
 _atom_site_occupancy
  Ca  Ca0  1  0.22026234  0.76689167  0.50000000  1
  Ca  Ca1  1  0.23310833  0.45337067  0.50000000  1
  Ca  Ca2  1  0.54662933  0.77973766  0.50000000  1
  Ca  Ca3  1  0.76689167  0.22026234  0.50000000  1
  Ca  Ca4  1  0.45337067  0.23310833  0.50000000  1
  Ca  Ca5  1  0.77973766  0.54662933  0.50000000  1
  Ca  Ca6  1  0.46697395  0.00000000  0.90884136  1
  Ca  Ca7  1  0.00000000  0.46697395  0.90884136  1
  Ca  Ca8  1  0.53302605  0.53302605  0.90884136  1
  Ca  Ca9  1  0.46697395  0.00000000  0.09115864  1
  Ca  Ca10  1  0.00000000  0.46697395  0.09115864  1
  Ca  Ca11  1  0.53302605  0.53302605  0.09115864  1
  Ca  Ca12  1  0.82880952  0.18934987  0.73806643  1
  Ca  Ca13  1  0.81065013  0.63945965  0.73806643  1
  Ca  Ca14  1  0.36054035  0.17119048  0.73806643  1
  Ca  Ca15  1  0.82880952  0.18934987  0.26193357  1
  Ca  Ca16  1  0.81065013  0.63945965  0.26193357  1
  Ca  Ca17  1  0.36054035  0.17119048  0.26193357  1
  Ca  Ca18  1  0.18934987  0.82880952  0.26193357  1
  Ca  Ca19  1  0.63945965  0.81065013  0.26193357  1
  Ca  Ca20  1  0.17119048  0.36054035  0.26193357  1
  Ca  Ca21  1  0.18934987  0.82880952  0.73806643  1
  Ca  Ca22  1  0.63945965  0.81065013  0.73806643  1
  Ca  Ca23  1  0.17119048  0.36054035  0.73806643  1
  F  F24  1  0.19388907  0.29236224  0.33382876  1
  F  F25  1  -0.29236224  -0.09847317  0.33382876  1
  F  F26  1  0.09847317  -0.19388907  0.33382876  1
  F  F27  1  0.19388907  0.29236224  -0.33382876  1
  F  F28  1  -0.29236224  -0.09847317  -0.33382876  1
  F  F29  1  0.09847317  -0.19388907  -0.33382876  1
  F  F30  1  0.29236224  0.19388907  -0.33382876  1
  F  F31  1  -0.09847317  -0.29236224  -0.33382876  1
  F  F32  1  -0.19388907  0.09847317  -0.33382876  1
  F  F33  1  0.29236224  0.19388907  0.33382876  1
  F  F34  1  -0.09847317  -0.29236224  0.33382876  1
  F  F35  1  -0.19388907  0.09847317  0.33382876  1
  F  F36  1  0.56869119  0.04801893  0.77220413  1
  F  F37  1  0.95198107  0.52067226  0.77220413  1
  F  F38  1  0.47932774  0.43130881  0.77220413  1
  F  F39  1  0.56869119  0.04801893  0.22779587  1
  F  F40  1  0.95198107  0.52067226  0.22779587  1
  F  F41  1  0.47932774  0.43130881  0.22779587  1
  F  F42  1  0.04801893  0.56869119  0.22779587  1
  F  F43  1  0.52067226  0.95198107  0.22779587  1
  F  F44  1  0.43130881  0.47932774  0.22779587  1
  F  F45  1  0.04801893  0.56869119  0.77220413  1
  F  F46  1  0.52067226  0.95198107  0.77220413  1
  F  F47  1  0.43130881  0.47932774  0.77220413  1
  F  F48  1  0.33333333  0.66666667  0.50000000  1
  F  F49  1  0.66666667  0.33333333  0.50000000  1
  F  F50  1  0.60863011  0.93543583  0.58376430  1
  F  F51  1  0.06456417  0.67319428  0.58376430  1
  F  F52  1  0.32680572  0.39136989  0.58376430  1
  F  F53  1  0.60863011  0.93543583  0.41623570  1
  F  F54  1  0.06456417  0.67319428  0.41623570  1
  F  F55  1  0.32680572  0.39136989  0.41623570  1
  F  F56  1  0.93543583  0.60863011  0.41623570  1
  F  F57  1  0.67319428  0.06456417  0.41623570  1
  F  F58  1  0.39136989  0.32680572  0.41623570  1
  F  F59  1  0.93543583  0.60863011  0.58376430  1
  F  F60  1  0.67319428  0.06456417  0.58376430  1
  F  F61  1  0.39136989  0.32680572  0.58376430  1
  F  F62  1  0.36018681  0.22879929  0.93445385  1
  F  F63  1  0.77120071  0.13138752  0.93445385  1
  F  F64  1  0.86861248  0.63981319  0.93445385  1
  F  F65  1  0.36018681  0.22879929  0.06554615  1
  F  F66  1  0.77120071  0.13138752  0.06554615  1
  F  F67  1  0.86861248  0.63981319  0.06554615  1
  F  F68  1  0.22879929  0.36018681  0.06554615  1
  F  F69  1  0.13138752  0.77120071  0.06554615  1
  F  F70  1  0.63981319  0.86861248  0.06554615  1
  F  F71  1  0.22879929  0.36018681  0.93445385  1
  F  F72  1  0.13138752  0.77120071  0.93445385  1
  F  F73  1  0.63981319  0.86861248  0.93445385  1
  F  F74  1  0.41130243  0.00000000  0.50000000  1
  F  F75  1  0.00000000  0.41130243  0.50000000  1
  F  F76  1  0.58869757  0.58869757  0.50000000  1
  F  F77  1  0.15287882  0.00000000  0.88730487  1
  F  F78  1  0.00000000  0.15287882  0.88730487  1
  F  F79  1  0.84712118  0.84712118  0.88730487  1
  F  F80  1  0.15287882  0.00000000  0.11269513  1
  F  F81  1  0.00000000  0.15287882  0.11269513  1
  F  F82  1  0.84712118  0.84712118  0.11269513  1
  F  F83  1  0.34574150  0.00000000  -0.00000000  1
  F  F84  1  0.00000000  0.34574150  -0.00000000  1
  F  F85  1  0.65425850  0.65425850  0.00000000  1
  F  F86  1  0.00000000  0.00000000  0.04890940  1
  F  F87  1  0.00000000  0.00000000  0.95109060  1
  Li  Li88  1  0.33333333  0.66666667  0.03456695  1
  Li  Li89  1  0.33333333  0.66666667  0.96543305  1
  Li  Li90  1  0.66666667  0.33333333  0.96543305  1
  Li  Li91  1  0.66666667  0.33333333  0.03456695  1
  Li  Li92  1  0.23331431  0.00000000  0.50000000  1
  Li  Li93  1  0.00000000  0.23331431  0.50000000  1
  Li  Li94  1  0.76668569  0.76668569  0.50000000  1
  Li  Li95  1  0.16924530  0.00000000  -0.00000000  1
  Li  Li96  1  0.00000000  0.16924530  0.00000000  1
  Li  Li97  1  0.83075470  0.83075470  -0.00000000  1
  Li  Li98  1  0.76639772  0.00000000  0.56435296  1
  Li  Li99  1  0.00000000  0.76639772  0.56435296  1
  Li  Li100  1  0.23360228  0.23360228  0.56435296  1
  Li  Li101  1  0.76639772  0.00000000  0.43564704  1
  Li  Li102  1  0.00000000  0.76639772  0.43564704  1
  Li  Li103  1  0.23360228  0.23360228  0.43564704  1
