# generated using pymatgen
data_LiF
_symmetry_space_group_name_H-M   'P 1'
_cell_length_a   6.08371483
_cell_length_b   11.41442717
_cell_length_c   15.72720142
_cell_angle_alpha   90.00000000
_cell_angle_beta   90.00000000
_cell_angle_gamma   90.00000000
_symmetry_Int_Tables_number   1
_chemical_formula_structural   LiF
_chemical_formula_sum   'Li44 F44'
_cell_volume   1092.13020473
_cell_formula_units_Z   44
loop_
 _symmetry_equiv_pos_site_id
 _symmetry_equiv_pos_as_xyz
  1  'x, y, z'
loop_
 _atom_site_type_symbol
 _atom_site_label
 _atom_site_symmetry_multiplicity
 _atom_site_fract_x
 _atom_site_fract_y
 _atom_site_fract_z
 _atom_site_occupancy
  F  F0  1  0.48262594  0.67696002  0.21042076  1
  F  F1  1  0.51737406  0.32303998  0.21042076  1
  F  F2  1  0.01737406  0.17696002  0.78957924  1
  F  F3  1  0.98262594  0.82303998  0.78957924  1
  F  F4  1  0.51737406  0.32303998  0.78957924  1
  F  F5  1  0.48262594  0.67696002  0.78957924  1
  F  F6  1  0.98262594  0.82303998  0.21042076  1
  F  F7  1  0.01737406  0.17696002  0.21042076  1
  F  F8  1  0.54942595  0.99186907  0.09721333  1
  F  F9  1  0.45057405  0.00813093  0.09721333  1
  F  F10  1  0.95057405  0.49186907  0.90278667  1
  F  F11  1  0.04942595  0.50813093  0.90278667  1
  F  F12  1  0.45057405  0.00813093  0.90278667  1
  F  F13  1  0.54942595  0.99186907  0.90278667  1
  F  F14  1  0.04942595  0.50813093  0.09721333  1
  F  F15  1  0.95057405  0.49186907  0.09721333  1
  F  F16  1  0.20065859  0.71725769  0.50000000  1
  F  F17  1  0.79934141  0.28274231  0.50000000  1
  F  F18  1  0.29934141  0.21725769  0.50000000  1
  F  F19  1  0.70065859  0.78274231  0.50000000  1
  F  F20  1  0.00000000  0.50000000  0.00000000  1
  F  F21  1  0.50000000  0.00000000  0.00000000  1
  F  F22  1  0.45123950  0.04109025  0.55372606  1
  F  F23  1  0.54876050  0.95890975  0.55372606  1
  F  F24  1  0.04876050  0.54109025  0.44627394  1
  F  F25  1  0.95123950  0.45890975  0.44627394  1
  F  F26  1  0.54876050  0.95890975  0.44627394  1
  F  F27  1  0.45123950  0.04109025  0.44627394  1
  F  F28  1  0.95123950  0.45890975  0.55372606  1
  F  F29  1  0.04876050  0.54109025  0.55372606  1
  F  F30  1  0.78959266  0.88013912  0.58902490  1
  F  F31  1  0.21040734  0.11986088  0.58902490  1
  F  F32  1  0.71040734  0.38013912  0.41097510  1
  F  F33  1  0.28959266  0.61986088  0.41097510  1
  F  F34  1  0.21040734  0.11986088  0.41097510  1
  F  F35  1  0.78959266  0.88013912  0.41097510  1
  F  F36  1  0.28959266  0.61986088  0.58902490  1
  F  F37  1  0.71040734  0.38013912  0.58902490  1
  F  F38  1  0.12234090  0.21041406  0.50000000  1
  F  F39  1  0.87765910  0.78958594  0.50000000  1
  F  F40  1  0.37765910  0.71041406  0.50000000  1
  F  F41  1  0.62234090  0.28958594  0.50000000  1
  F  F42  1  0.00000000  0.00000000  0.00000000  1
  F  F43  1  0.50000000  0.50000000  0.00000000  1
  Li  Li44  1  0.06837911  0.39446427  0.74448895  1
  Li  Li45  1  -0.06837911  -0.39446427  0.74448895  1
  Li  Li46  1  0.43162089  0.89446427  -0.74448895  1
  Li  Li47  1  0.56837911  0.10553573  -0.74448895  1
  Li  Li48  1  -0.06837911  -0.39446427  -0.74448895  1
  Li  Li49  1  0.06837911  0.39446427  -0.74448895  1
  Li  Li50  1  0.56837911  0.10553573  0.74448895  1
  Li  Li51  1  0.43162089  0.89446427  0.74448895  1
  Li  Li52  1  0.00000000  0.00000000  0.50000000  1
  Li  Li53  1  0.50000000  0.50000000  0.50000000  1
  Li  Li54  1  0.81095498  0.80080633  0.00000000  1
  Li  Li55  1  0.18904502  0.19919367  0.00000000  1
  Li  Li56  1  0.68904502  0.30080633  -0.00000000  1
  Li  Li57  1  0.31095498  0.69919367  -0.00000000  1
  Li  Li58  1  0.52584931  0.64416735  0.00000000  1
  Li  Li59  1  0.47415069  0.35583265  -0.00000000  1
  Li  Li60  1  0.97415069  0.14416735  -0.00000000  1
  Li  Li61  1  0.02584931  0.85583265  0.00000000  1
  Li  Li62  1  0.00000000  0.50000000  0.50000000  1
  Li  Li63  1  0.50000000  0.00000000  0.50000000  1
  Li  Li64  1  0.78096849  0.21877990  0.67546127  1
  Li  Li65  1  0.21903151  0.78122010  0.67546127  1
  Li  Li66  1  0.71903151  0.71877990  0.32453873  1
  Li  Li67  1  0.28096849  0.28122010  0.32453873  1
  Li  Li68  1  0.21903151  0.78122010  0.32453873  1
  Li  Li69  1  0.78096849  0.21877990  0.32453873  1
  Li  Li70  1  0.28096849  0.28122010  0.67546127  1
  Li  Li71  1  0.71903151  0.71877990  0.67546127  1
  Li  Li72  1  0.18975952  0.66605550  0.29838025  1
  Li  Li73  1  0.81024048  0.33394450  0.29838025  1
  Li  Li74  1  0.31024048  0.16605550  0.70161975  1
  Li  Li75  1  0.68975952  0.83394450  0.70161975  1
  Li  Li76  1  0.81024048  0.33394450  0.70161975  1
  Li  Li77  1  0.18975952  0.66605550  0.70161975  1
  Li  Li78  1  0.68975952  0.83394450  0.29838025  1
  Li  Li79  1  0.31024048  0.16605550  0.29838025  1
  Li  Li80  1  0.87185448  0.33371196  0.20343766  1
  Li  Li81  1  0.12814552  0.66628804  0.20343766  1
  Li  Li82  1  0.62814552  0.83371196  0.79656234  1
  Li  Li83  1  0.37185448  0.16628804  0.79656234  1
  Li  Li84  1  0.12814552  0.66628804  0.79656234  1
  Li  Li85  1  0.87185448  0.33371196  0.79656234  1
  Li  Li86  1  0.37185448  0.16628804  0.20343766  1
  Li  Li87  1  0.62814552  0.83371196  0.20343766  1
