# generated using pymatgen
data_LiF
_symmetry_space_group_name_H-M   'P 1'
_cell_length_a   4.92758049
_cell_length_b   6.43298199
_cell_length_c   8.03453576
_cell_angle_alpha   90.00000000
_cell_angle_beta   90.00000000
_cell_angle_gamma   90.00000000
_symmetry_Int_Tables_number   1
_chemical_formula_structural   LiF
_chemical_formula_sum   'Li20 F20'
_cell_volume   254.68704275
_cell_formula_units_Z   20
loop_
 _symmetry_equiv_pos_site_id
 _symmetry_equiv_pos_as_xyz
  1  'x, y, z'
loop_
 _atom_site_type_symbol
 _atom_site_label
 _atom_site_symmetry_multiplicity
 _atom_site_fract_x
 _atom_site_fract_y
 _atom_site_fract_z
 _atom_site_occupancy
  F  F0  1  0.85102472  0.93542224  0.14170826  1
  F  F1  1  -0.85102472  -0.93542224  0.14170826  1
  F  F2  1  -0.35102472  1.43542224  -0.14170826  1
  F  F3  1  1.35102472  -0.43542224  -0.14170826  1
  F  F4  1  -0.85102472  -0.93542224  -0.14170826  1
  F  F5  1  0.85102472  0.93542224  -0.14170826  1
  F  F6  1  1.35102472  -0.43542224  0.14170826  1
  F  F7  1  -0.35102472  1.43542224  0.14170826  1
  F  F8  1  0.55666746  0.10039633  0.10942274  1
  F  F9  1  0.44333254  0.89960367  0.10942274  1
  F  F10  1  0.94333254  0.60039633  0.89057726  1
  F  F11  1  0.05666746  0.39960367  0.89057726  1
  F  F12  1  0.44333254  0.89960367  0.89057726  1
  F  F13  1  0.55666746  0.10039633  0.89057726  1
  F  F14  1  0.05666746  0.39960367  0.10942274  1
  F  F15  1  0.94333254  0.60039633  0.10942274  1
  F  F16  1  0.85205896  0.47206894  -0.00000000  1
  F  F17  1  0.14794104  0.52793106  0.00000000  1
  F  F18  1  0.64794104  0.97206894  0.00000000  1
  F  F19  1  0.35205896  0.02793106  -0.00000000  1
  Li  Li20  1  0.74122342  0.74172590  0.20938620  1
  Li  Li21  1  0.25877658  0.25827410  0.20938620  1
  Li  Li22  1  0.75877658  0.24172590  0.79061380  1
  Li  Li23  1  0.24122342  0.75827410  0.79061380  1
  Li  Li24  1  0.25877658  0.25827410  0.79061380  1
  Li  Li25  1  0.74122342  0.74172590  0.79061380  1
  Li  Li26  1  0.24122342  0.75827410  0.20938620  1
  Li  Li27  1  0.75877658  0.24172590  0.20938620  1
  Li  Li28  1  0.97459472  0.68050143  0.73593216  1
  Li  Li29  1  0.02540528  0.31949857  0.73593216  1
  Li  Li30  1  0.52540528  0.18050143  0.26406784  1
  Li  Li31  1  0.47459472  0.81949857  0.26406784  1
  Li  Li32  1  0.02540528  0.31949857  0.26406784  1
  Li  Li33  1  0.97459472  0.68050143  0.26406784  1
  Li  Li34  1  0.47459472  0.81949857  0.73593216  1
  Li  Li35  1  0.52540528  0.18050143  0.73593216  1
  Li  Li36  1  0.00000000  0.00000000  0.00000000  1
  Li  Li37  1  0.50000000  0.50000000  -0.00000000  1
  Li  Li38  1  0.00000000  0.00000000  0.50000000  1
  Li  Li39  1  0.50000000  0.50000000  0.50000000  1
