# generated using pymatgen
data_Li2Y2TiAsP4
_symmetry_space_group_name_H-M   'P 1'
_cell_length_a   3.48993143
_cell_length_b   3.91043629
_cell_length_c   6.10475714
_cell_angle_alpha   97.40279030
_cell_angle_beta   103.61032755
_cell_angle_gamma   107.52942427
_symmetry_Int_Tables_number   1
_chemical_formula_structural   Li2Y2TiAsP4
_chemical_formula_sum   'Li2 Y2 Ti1 As1 P4'
_cell_volume   75.39866432
_cell_formula_units_Z   1
loop_
 _symmetry_equiv_pos_site_id
 _symmetry_equiv_pos_as_xyz
  1  'x, y, z'
loop_
 _atom_site_type_symbol
 _atom_site_label
 _atom_site_symmetry_multiplicity
 _atom_site_fract_x
 _atom_site_fract_y
 _atom_site_fract_z
 _atom_site_occupancy
  P  P0  1  0.00000000  0.00000000  0.00000000  1
  P  P1  1  0.50000000  0.50000000  0.50000000  1
  P  P2  1  0.25000000  0.25000000  0.25000000  1
  P  P3  1  0.75000000  0.25000000  0.00000000  1
  As  As4  1  0.25000000  0.75000000  0.50000000  1
  Ti  Ti5  1  0.67076933  0.59240651  0.99836984  1
  Li  Li6  1  0.39686228  0.95219648  0.91579896  1
  Li  Li7  1  0.24595139  0.85912207  0.87149920  1
  Y  Y8  1  0.13859666  0.24846261  0.47846493  1
  Y  Y9  1  0.59082619  0.48252888  0.26308771  1
