# generated using pymatgen
data_LiF
_symmetry_space_group_name_H-M   'P 1'
_cell_length_a   12.37059649
_cell_length_b   12.37059649
_cell_length_c   5.13759164
_cell_angle_alpha   90.00000000
_cell_angle_beta   90.00000000
_cell_angle_gamma   120.00000000
_symmetry_Int_Tables_number   1
_chemical_formula_structural   LiF
_chemical_formula_sum   'Li28 F28'
_cell_volume   680.88143915
_cell_formula_units_Z   28
loop_
 _symmetry_equiv_pos_site_id
 _symmetry_equiv_pos_as_xyz
  1  'x, y, z'
loop_
 _atom_site_type_symbol
 _atom_site_label
 _atom_site_symmetry_multiplicity
 _atom_site_fract_x
 _atom_site_fract_y
 _atom_site_fract_z
 _atom_site_occupancy
  F  F0  1  0.61412351  0.10991527  0.07168424  1
  F  F1  1  -0.10991527  0.50420824  0.07168424  1
  F  F2  1  -0.50420824  -0.61412351  0.07168424  1
  F  F3  1  0.61412351  0.10991527  -0.07168424  1
  F  F4  1  -0.10991527  0.50420824  -0.07168424  1
  F  F5  1  -0.50420824  -0.61412351  -0.07168424  1
  F  F6  1  0.10991527  0.61412351  -0.07168424  1
  F  F7  1  0.50420824  -0.10991527  -0.07168424  1
  F  F8  1  -0.61412351  -0.50420824  -0.07168424  1
  F  F9  1  0.10991527  0.61412351  0.07168424  1
  F  F10  1  0.50420824  -0.10991527  0.07168424  1
  F  F11  1  -0.61412351  -0.50420824  0.07168424  1
  F  F12  1  0.34051294  0.90423309  0.50000000  1
  F  F13  1  0.09576691  0.43627985  0.50000000  1
  F  F14  1  0.56372015  0.65948706  0.50000000  1
  F  F15  1  0.90423309  0.34051294  0.50000000  1
  F  F16  1  0.43627985  0.09576691  0.50000000  1
  F  F17  1  0.65948706  0.56372015  0.50000000  1
  F  F18  1  0.33333333  0.66666667  0.00000000  1
  F  F19  1  0.66666667  0.33333333  0.00000000  1
  F  F20  1  0.00000000  0.00000000  0.73257793  1
  F  F21  1  0.00000000  0.00000000  0.26742207  1
  F  F22  1  0.21459623  -0.00000000  0.55817180  1
  F  F23  1  0.00000000  0.21459623  0.55817180  1
  F  F24  1  0.78540377  0.78540377  0.55817180  1
  F  F25  1  0.21459623  -0.00000000  0.44182820  1
  F  F26  1  0.00000000  0.21459623  0.44182820  1
  F  F27  1  0.78540377  0.78540377  0.44182820  1
  Li  Li28  1  0.79179659  -0.00000000  0.74737623  1
  Li  Li29  1  0.00000000  0.79179659  0.74737623  1
  Li  Li30  1  0.20820341  0.20820341  0.74737623  1
  Li  Li31  1  0.79179659  -0.00000000  0.25262377  1
  Li  Li32  1  0.00000000  0.79179659  0.25262377  1
  Li  Li33  1  0.20820341  0.20820341  0.25262377  1
  Li  Li34  1  0.00000000  0.00000000  0.00000000  1
  Li  Li35  1  0.58211947  0.00000000  -0.00000000  1
  Li  Li36  1  0.00000000  0.58211947  -0.00000000  1
  Li  Li37  1  0.41788053  0.41788053  0.00000000  1
  Li  Li38  1  0.10620358  0.42595433  0.00000000  1
  Li  Li39  1  0.57404567  0.68024925  0.00000000  1
  Li  Li40  1  0.31975075  0.89379642  0.00000000  1
  Li  Li41  1  0.42595433  0.10620358  -0.00000000  1
  Li  Li42  1  0.68024925  0.57404567  0.00000000  1
  Li  Li43  1  0.89379642  0.31975075  0.00000000  1
  Li  Li44  1  0.28131529  -0.00000000  0.83614319  1
  Li  Li45  1  0.00000000  0.28131529  0.83614319  1
  Li  Li46  1  0.71868471  0.71868471  0.83614319  1
  Li  Li47  1  0.28131529  -0.00000000  0.16385681  1
  Li  Li48  1  0.00000000  0.28131529  0.16385681  1
  Li  Li49  1  0.71868471  0.71868471  0.16385681  1
  Li  Li50  1  0.78725898  0.00000000  -0.00000000  1
  Li  Li51  1  0.00000000  0.78725898  -0.00000000  1
  Li  Li52  1  0.21274102  0.21274102  0.00000000  1
  Li  Li53  1  0.56160957  0.00000000  0.50000000  1
  Li  Li54  1  0.00000000  0.56160957  0.50000000  1
  Li  Li55  1  0.43839043  0.43839043  0.50000000  1
