# generated using pymatgen
data_Li3YScF
_symmetry_space_group_name_H-M   'P 1'
_cell_length_a   3.25226363
_cell_length_b   3.12048131
_cell_length_c   5.71436969
_cell_angle_alpha   111.50162013
_cell_angle_beta   102.76127002
_cell_angle_gamma   107.29818311
_symmetry_Int_Tables_number   1
_chemical_formula_structural   Li3YScF
_chemical_formula_sum   'Li3 Y1 Sc1 F1'
_cell_volume   47.83296682
_cell_formula_units_Z   1
loop_
 _symmetry_equiv_pos_site_id
 _symmetry_equiv_pos_as_xyz
  1  'x, y, z'
loop_
 _atom_site_type_symbol
 _atom_site_label
 _atom_site_symmetry_multiplicity
 _atom_site_fract_x
 _atom_site_fract_y
 _atom_site_fract_z
 _atom_site_occupancy
  F  F0  1  0.12500000  0.12500000  0.12500000  1
  Sc  Sc1  1  0.50000000  0.50000000  0.50000000  1
  Y  Y2  1  0.25000000  0.25000000  0.25000000  1
  Li  Li3  1  0.75000000  0.75000000  0.75000000  1
  Li  Li4  1  0.71607495  0.31964036  0.68174303  1
  Li  Li5  1  0.68973298  0.61955182  0.49170353  1
