# generated using pymatgen
data_Li3(YP2)2
_symmetry_space_group_name_H-M   'P 1'
_cell_length_a   4.93506372
_cell_length_b   5.25298355
_cell_length_c   7.16605174
_cell_angle_alpha   94.82694287
_cell_angle_beta   100.51207807
_cell_angle_gamma   109.38791108
_symmetry_Int_Tables_number   1
_chemical_formula_structural   Li3(YP2)2
_chemical_formula_sum   'Li3 Y2 P4'
_cell_volume   170.18548622
_cell_formula_units_Z   1
loop_
 _symmetry_equiv_pos_site_id
 _symmetry_equiv_pos_as_xyz
  1  'x, y, z'
loop_
 _atom_site_type_symbol
 _atom_site_label
 _atom_site_symmetry_multiplicity
 _atom_site_fract_x
 _atom_site_fract_y
 _atom_site_fract_z
 _atom_site_occupancy
  Y  Y0  1  0.12500000  0.00000000  0.25000000  1
  Y  Y1  1  0.00000000  0.00000000  0.00000000  1
  P  P2  1  0.37500000  0.00000000  0.25000000  1
  P  P3  1  0.25000000  0.25000000  0.25000000  1
  P  P4  1  0.00000000  0.25000000  0.12500000  1
  P  P5  1  0.23891910  0.97344327  0.97433568  1
  Li  Li6  1  0.97130499  0.27760238  0.30131669  1
  Li  Li7  1  0.68506270  0.61881058  0.61647082  1
  Li  Li8  1  0.77991065  0.51742573  0.04533662  1
