# generated using pymatgen
data_Li2TiAlO
_symmetry_space_group_name_H-M   'P 1'
_cell_length_a   3.05914175
_cell_length_b   2.94005030
_cell_length_c   6.24144499
_cell_angle_alpha   96.61454131
_cell_angle_beta   93.74739366
_cell_angle_gamma   107.84492884
_symmetry_Int_Tables_number   1
_chemical_formula_structural   Li2TiAlO
_chemical_formula_sum   'Li2 Ti1 Al1 O1'
_cell_volume   52.77772715
_cell_formula_units_Z   1
loop_
 _symmetry_equiv_pos_site_id
 _symmetry_equiv_pos_as_xyz
  1  'x, y, z'
loop_
 _atom_site_type_symbol
 _atom_site_label
 _atom_site_symmetry_multiplicity
 _atom_site_fract_x
 _atom_site_fract_y
 _atom_site_fract_z
 _atom_site_occupancy
  Al  Al0  1  0.00000000  0.00000000  0.00000000  1
  Li  Li1  1  0.50000000  0.50000000  0.50000000  1
  Li  Li2  1  0.50000000  0.50000000  0.00000000  1
  O  O3  1  0.50000000  0.00000000  0.50000000  1
  Ti  Ti4  1  0.00000000  0.50000000  0.50000000  1
