# generated using pymatgen
data_LiF
_symmetry_space_group_name_H-M   'P 1'
_cell_length_a   14.24474395
_cell_length_b   8.68019351
_cell_length_c   5.40478055
_cell_angle_alpha   90.00000000
_cell_angle_beta   90.00000000
_cell_angle_gamma   90.00000000
_symmetry_Int_Tables_number   1
_chemical_formula_structural   LiF
_chemical_formula_sum   'Li24 F24'
_cell_volume   668.28562480
_cell_formula_units_Z   24
loop_
 _symmetry_equiv_pos_site_id
 _symmetry_equiv_pos_as_xyz
  1  'x, y, z'
loop_
 _atom_site_type_symbol
 _atom_site_label
 _atom_site_symmetry_multiplicity
 _atom_site_fract_x
 _atom_site_fract_y
 _atom_site_fract_z
 _atom_site_occupancy
  F  F0  1  0.81614251  0.47826440  0.60783920  1
  F  F1  1  0.68385749  0.52173560  0.10783920  1
  F  F2  1  0.18385749  0.97826440  0.39216080  1
  F  F3  1  0.31614251  0.02173560  0.89216080  1
  F  F4  1  0.18385749  0.52173560  0.39216080  1
  F  F5  1  0.31614251  0.47826440  0.89216080  1
  F  F6  1  0.81614251  0.02173560  0.60783920  1
  F  F7  1  0.68385749  0.97826440  0.10783920  1
  F  F8  1  0.59430657  0.07151129  0.06724868  1
  F  F9  1  0.90569343  0.92848871  0.56724868  1
  F  F10  1  0.40569343  0.57151129  0.93275132  1
  F  F11  1  0.09430657  0.42848871  0.43275132  1
  F  F12  1  0.40569343  0.92848871  0.93275132  1
  F  F13  1  0.09430657  0.07151129  0.43275132  1
  F  F14  1  0.59430657  0.42848871  0.06724868  1
  F  F15  1  0.90569343  0.57151129  0.56724868  1
  F  F16  1  0.28815437  0.34046185  0.34937774  1
  F  F17  1  0.21184563  0.65953815  0.84937774  1
  F  F18  1  0.71184563  0.84046185  0.65062226  1
  F  F19  1  0.78815437  0.15953815  0.15062226  1
  F  F20  1  0.71184563  0.65953815  0.65062226  1
  F  F21  1  0.78815437  0.34046185  0.15062226  1
  F  F22  1  0.28815437  0.15953815  0.34937774  1
  F  F23  1  0.21184563  0.84046185  0.84937774  1
  Li  Li24  1  0.62671228  0.04950062  0.67394728  1
  Li  Li25  1  -0.12671228  -0.04950062  1.17394728  1
  Li  Li26  1  -0.62671228  0.54950062  -0.67394728  1
  Li  Li27  1  1.12671228  0.45049938  -0.17394728  1
  Li  Li28  1  -0.62671228  -0.04950062  -0.67394728  1
  Li  Li29  1  1.12671228  0.04950062  -0.17394728  1
  Li  Li30  1  0.62671228  0.45049938  0.67394728  1
  Li  Li31  1  -0.12671228  0.54950062  1.17394728  1
  Li  Li32  1  0.00000000  0.00000000  0.00000000  1
  Li  Li33  1  0.50000000  -0.00000000  0.50000000  1
  Li  Li34  1  0.00000000  0.50000000  0.00000000  1
  Li  Li35  1  0.50000000  0.50000000  0.50000000  1
  Li  Li36  1  0.54424652  0.25000000  0.33252054  1
  Li  Li37  1  0.95575348  0.75000000  0.83252054  1
  Li  Li38  1  0.45575348  0.75000000  0.66747946  1
  Li  Li39  1  0.04424652  0.25000000  0.16747946  1
  Li  Li40  1  0.73528060  0.25000000  0.05853591  1
  Li  Li41  1  0.76471940  0.75000000  0.55853591  1
  Li  Li42  1  0.26471940  0.75000000  0.94146409  1
  Li  Li43  1  0.23528060  0.25000000  0.44146409  1
  Li  Li44  1  0.00000000  0.00000000  0.50000000  1
  Li  Li45  1  0.50000000  -0.00000000  0.00000000  1
  Li  Li46  1  0.00000000  0.50000000  0.50000000  1
  Li  Li47  1  0.50000000  0.50000000  0.00000000  1
