# generated using pymatgen
data_LiF
_symmetry_space_group_name_H-M   'P 1'
_cell_length_a   6.94157516
_cell_length_b   6.94157516
_cell_length_c   34.92904459
_cell_angle_alpha   90.00000000
_cell_angle_beta   90.00000000
_cell_angle_gamma   120.00000000
_symmetry_Int_Tables_number   1
_chemical_formula_structural   LiF
_chemical_formula_sum   'Li42 F42'
_cell_volume   1457.58335073
_cell_formula_units_Z   42
loop_
 _symmetry_equiv_pos_site_id
 _symmetry_equiv_pos_as_xyz
  1  'x, y, z'
loop_
 _atom_site_type_symbol
 _atom_site_label
 _atom_site_symmetry_multiplicity
 _atom_site_fract_x
 _atom_site_fract_y
 _atom_site_fract_z
 _atom_site_occupancy
  F  F0  1  0.50000000  0.00000000  0.00000000  1
  F  F1  1  0.00000000  0.50000000  0.00000000  1
  F  F2  1  0.50000000  0.50000000  0.00000000  1
  F  F3  1  0.50000000  0.00000000  0.50000000  1
  F  F4  1  0.00000000  0.50000000  0.50000000  1
  F  F5  1  0.50000000  0.50000000  0.50000000  1
  F  F6  1  0.95772028  0.65123580  0.58756979  1
  F  F7  1  0.34876420  0.30648448  0.58756979  1
  F  F8  1  0.69351552  0.04227972  0.58756979  1
  F  F9  1  0.04227972  0.34876420  0.08756979  1
  F  F10  1  0.65123580  0.69351552  0.08756979  1
  F  F11  1  0.30648448  0.95772028  0.08756979  1
  F  F12  1  0.04227972  0.34876420  0.41243021  1
  F  F13  1  0.65123580  0.69351552  0.41243021  1
  F  F14  1  0.30648448  0.95772028  0.41243021  1
  F  F15  1  0.95772028  0.65123580  0.91243021  1
  F  F16  1  0.34876420  0.30648448  0.91243021  1
  F  F17  1  0.69351552  0.04227972  0.91243021  1
  F  F18  1  0.39312142  0.29784383  0.77540798  1
  F  F19  1  0.70215617  0.09527759  0.77540798  1
  F  F20  1  0.90472241  0.60687858  0.77540798  1
  F  F21  1  0.60687858  0.70215617  0.27540798  1
  F  F22  1  0.29784383  0.90472241  0.27540798  1
  F  F23  1  0.09527759  0.39312142  0.27540798  1
  F  F24  1  0.60687858  0.70215617  0.22459202  1
  F  F25  1  0.29784383  0.90472241  0.22459202  1
  F  F26  1  0.09527759  0.39312142  0.22459202  1
  F  F27  1  0.39312142  0.29784383  0.72459202  1
  F  F28  1  0.70215617  0.09527759  0.72459202  1
  F  F29  1  0.90472241  0.60687858  0.72459202  1
  F  F30  1  0.46415096  0.65208479  0.25000000  1
  F  F31  1  0.34791521  0.81206617  0.25000000  1
  F  F32  1  0.18793383  0.53584904  0.25000000  1
  F  F33  1  0.53584904  0.34791521  0.75000000  1
  F  F34  1  0.65208479  0.18793383  0.75000000  1
  F  F35  1  0.81206617  0.46415096  0.75000000  1
  F  F36  1  0.33333333  0.66666667  0.61035080  1
  F  F37  1  0.66666667  0.33333333  0.11035080  1
  F  F38  1  0.66666667  0.33333333  0.38964920  1
  F  F39  1  0.33333333  0.66666667  0.88964920  1
  F  F40  1  0.00000000  0.00000000  0.00000000  1
  F  F41  1  0.00000000  0.00000000  0.50000000  1
  Li  Li42  1  0.33333333  0.66666667  0.79006290  1
  Li  Li43  1  0.66666667  0.33333333  0.29006290  1
  Li  Li44  1  0.66666667  0.33333333  0.20993710  1
  Li  Li45  1  0.33333333  0.66666667  0.70993710  1
  Li  Li46  1  0.06592225  0.24490456  0.22368149  1
  Li  Li47  1  -0.24490456  -0.17898231  0.22368149  1
  Li  Li48  1  0.17898231  -0.06592225  0.22368149  1
  Li  Li49  1  -0.06592225  -0.24490456  0.72368149  1
  Li  Li50  1  0.24490456  0.17898231  0.72368149  1
  Li  Li51  1  -0.17898231  0.06592225  0.72368149  1
  Li  Li52  1  -0.06592225  -0.24490456  -0.22368149  1
  Li  Li53  1  0.24490456  0.17898231  -0.22368149  1
  Li  Li54  1  -0.17898231  0.06592225  -0.22368149  1
  Li  Li55  1  0.06592225  0.24490456  0.27631851  1
  Li  Li56  1  -0.24490456  -0.17898231  0.27631851  1
  Li  Li57  1  0.17898231  -0.06592225  0.27631851  1
  Li  Li58  1  0.50251503  0.87638492  0.15572140  1
  Li  Li59  1  0.12361508  0.62613011  0.15572140  1
  Li  Li60  1  0.37386989  0.49748497  0.15572140  1
  Li  Li61  1  0.49748497  0.12361508  0.65572140  1
  Li  Li62  1  0.87638492  0.37386989  0.65572140  1
  Li  Li63  1  0.62613011  0.50251503  0.65572140  1
  Li  Li64  1  0.49748497  0.12361508  0.84427860  1
  Li  Li65  1  0.87638492  0.37386989  0.84427860  1
  Li  Li66  1  0.62613011  0.50251503  0.84427860  1
  Li  Li67  1  0.50251503  0.87638492  0.34427860  1
  Li  Li68  1  0.12361508  0.62613011  0.34427860  1
  Li  Li69  1  0.37386989  0.49748497  0.34427860  1
  Li  Li70  1  0.08376759  0.83448261  0.03305134  1
  Li  Li71  1  0.16551739  0.24928498  0.03305134  1
  Li  Li72  1  0.75071502  0.91623241  0.03305134  1
  Li  Li73  1  0.91623241  0.16551739  0.53305134  1
  Li  Li74  1  0.83448261  0.75071502  0.53305134  1
  Li  Li75  1  0.24928498  0.08376759  0.53305134  1
  Li  Li76  1  0.91623241  0.16551739  0.96694866  1
  Li  Li77  1  0.83448261  0.75071502  0.96694866  1
  Li  Li78  1  0.24928498  0.08376759  0.96694866  1
  Li  Li79  1  0.08376759  0.83448261  0.46694866  1
  Li  Li80  1  0.16551739  0.24928498  0.46694866  1
  Li  Li81  1  0.75071502  0.91623241  0.46694866  1
  Li  Li82  1  0.00000000  0.00000000  0.25000000  1
  Li  Li83  1  0.00000000  0.00000000  0.75000000  1
