# generated using pymatgen
data_LiF
_symmetry_space_group_name_H-M   'P 1'
_cell_length_a   7.92351472
_cell_length_b   7.90130155
_cell_length_c   6.48071814
_cell_angle_alpha   90.00000000
_cell_angle_beta   90.00000000
_cell_angle_gamma   90.00000000
_symmetry_Int_Tables_number   1
_chemical_formula_structural   LiF
_chemical_formula_sum   'Li24 F24'
_cell_volume   405.73235295
_cell_formula_units_Z   24
loop_
 _symmetry_equiv_pos_site_id
 _symmetry_equiv_pos_as_xyz
  1  'x, y, z'
loop_
 _atom_site_type_symbol
 _atom_site_label
 _atom_site_symmetry_multiplicity
 _atom_site_fract_x
 _atom_site_fract_y
 _atom_site_fract_z
 _atom_site_occupancy
  F  F0  1  0.19399831  0.48595527  0.37155691  1
  F  F1  1  0.30600169  0.51404473  0.87155691  1
  F  F2  1  0.80600169  0.98595527  0.62844309  1
  F  F3  1  0.69399831  0.01404473  0.12844309  1
  F  F4  1  0.80600169  0.51404473  0.62844309  1
  F  F5  1  0.69399831  0.48595527  0.12844309  1
  F  F6  1  0.19399831  0.01404473  0.37155691  1
  F  F7  1  0.30600169  0.98595527  0.87155691  1
  F  F8  1  0.65855722  0.97711488  0.39532309  1
  F  F9  1  0.84144278  0.02288512  0.89532309  1
  F  F10  1  0.34144278  0.47711488  0.60467691  1
  F  F11  1  0.15855722  0.52288512  0.10467691  1
  F  F12  1  0.34144278  0.02288512  0.60467691  1
  F  F13  1  0.15855722  0.97711488  0.10467691  1
  F  F14  1  0.65855722  0.52288512  0.39532309  1
  F  F15  1  0.84144278  0.47711488  0.89532309  1
  F  F16  1  0.77910865  0.08951573  0.54508921  1
  F  F17  1  0.72089135  0.91048427  0.04508921  1
  F  F18  1  0.22089135  0.58951573  0.45491079  1
  F  F19  1  0.27910865  0.41048427  0.95491079  1
  F  F20  1  0.22089135  0.91048427  0.45491079  1
  F  F21  1  0.27910865  0.08951573  0.95491079  1
  F  F22  1  0.77910865  0.41048427  0.54508921  1
  F  F23  1  0.72089135  0.58951573  0.04508921  1
  Li  Li24  1  0.15533860  0.25000000  0.55111599  1
  Li  Li25  1  0.34466140  0.75000000  0.05111599  1
  Li  Li26  1  0.84466140  0.75000000  0.44888401  1
  Li  Li27  1  0.65533860  0.25000000  0.94888401  1
  Li  Li28  1  0.54403422  0.01496401  0.61555709  1
  Li  Li29  1  -0.04403422  -0.01496401  1.11555709  1
  Li  Li30  1  -0.54403422  0.51496401  -0.61555709  1
  Li  Li31  1  1.04403422  0.48503599  -0.11555709  1
  Li  Li32  1  -0.54403422  -0.01496401  -0.61555709  1
  Li  Li33  1  1.04403422  0.01496401  -0.11555709  1
  Li  Li34  1  0.54403422  0.48503599  0.61555709  1
  Li  Li35  1  -0.04403422  0.51496401  1.11555709  1
  Li  Li36  1  0.00000000  0.00000000  0.50000000  1
  Li  Li37  1  0.50000000  0.00000000  -0.00000000  1
  Li  Li38  1  0.00000000  0.50000000  0.50000000  1
  Li  Li39  1  0.50000000  0.50000000  -0.00000000  1
  Li  Li40  1  0.80805692  0.25000000  0.51643598  1
  Li  Li41  1  0.69194308  0.75000000  0.01643598  1
  Li  Li42  1  0.19194308  0.75000000  0.48356402  1
  Li  Li43  1  0.30805692  0.25000000  0.98356402  1
  Li  Li44  1  0.04479164  0.25000000  0.21419387  1
  Li  Li45  1  0.45520836  0.75000000  0.71419387  1
  Li  Li46  1  0.95520836  0.75000000  0.78580613  1
  Li  Li47  1  0.54479164  0.25000000  0.28580613  1
