# generated using pymatgen
data_Li2Ca3F8
_symmetry_space_group_name_H-M   'P 1'
_cell_length_a   10.04332574
_cell_length_b   10.04332574
_cell_length_c   24.97040599
_cell_angle_alpha   90.00000000
_cell_angle_beta   90.00000000
_cell_angle_gamma   120.00000000
_symmetry_Int_Tables_number   1
_chemical_formula_structural   Li2Ca3F8
_chemical_formula_sum   'Li16 Ca24 F64'
_cell_volume   2181.27957212
_cell_formula_units_Z   8
loop_
 _symmetry_equiv_pos_site_id
 _symmetry_equiv_pos_as_xyz
  1  'x, y, z'
loop_
 _atom_site_type_symbol
 _atom_site_label
 _atom_site_symmetry_multiplicity
 _atom_site_fract_x
 _atom_site_fract_y
 _atom_site_fract_z
 _atom_site_occupancy
  Ca  Ca0  1  0.33333333  0.66666667  0.54002312  1
  Ca  Ca1  1  0.33333333  0.66666667  0.45997688  1
  Ca  Ca2  1  0.55901774  0.07619612  0.08110838  1
  Ca  Ca3  1  0.92380388  0.48282162  0.08110838  1
  Ca  Ca4  1  0.51717838  0.44098226  0.08110838  1
  Ca  Ca5  1  0.92380388  0.44098226  0.91889162  1
  Ca  Ca6  1  0.51717838  0.07619612  0.91889162  1
  Ca  Ca7  1  0.55901774  0.48282162  0.91889162  1
  Ca  Ca8  1  0.89095836  0.77174389  0.61790492  1
  Ca  Ca9  1  0.22825611  0.11921447  0.61790492  1
  Ca  Ca10  1  0.88078553  0.10904164  0.61790492  1
  Ca  Ca11  1  0.22825611  0.10904164  0.38209508  1
  Ca  Ca12  1  0.88078553  0.77174389  0.38209508  1
  Ca  Ca13  1  0.89095836  0.11921447  0.38209508  1
  Ca  Ca14  1  0.08095055  0.72028195  0.99090288  1
  Ca  Ca15  1  0.27971805  0.36066860  0.99090288  1
  Ca  Ca16  1  0.63933140  0.91904945  0.99090288  1
  Ca  Ca17  1  0.27971805  0.91904945  0.00909712  1
  Ca  Ca18  1  0.63933140  0.72028195  0.00909712  1
  Ca  Ca19  1  0.08095055  0.36066860  0.00909712  1
  Ca  Ca20  1  0.74309000  0.25691000  -0.00000000  1
  Ca  Ca21  1  0.74309000  0.48618000  -0.00000000  1
  Ca  Ca22  1  0.51382000  0.25691000  0.00000000  1
  Ca  Ca23  1  0.00000000  0.00000000  0.00000000  1
  F  F24  1  0.33333333  0.66666667  -0.00000000  1
  F  F25  1  0.00000000  0.00000000  0.27496285  1
  F  F26  1  0.00000000  0.00000000  0.72503715  1
  F  F27  1  0.12126560  0.94216831  0.58907324  1
  F  F28  1  -0.94216831  -0.82090271  0.58907324  1
  F  F29  1  0.82090271  -0.12126560  0.58907324  1
  F  F30  1  -0.94216831  -0.12126560  -0.58907324  1
  F  F31  1  0.82090271  0.94216831  -0.58907324  1
  F  F32  1  0.12126560  -0.82090271  -0.58907324  1
  F  F33  1  0.20399890  0.84445095  0.83821990  1
  F  F34  1  0.15554905  0.35954795  0.83821990  1
  F  F35  1  0.64045205  0.79600110  0.83821990  1
  F  F36  1  0.15554905  0.79600110  0.16178010  1
  F  F37  1  0.64045205  0.84445095  0.16178010  1
  F  F38  1  0.20399890  0.35954795  0.16178010  1
  F  F39  1  0.03108056  0.96891944  0.50000000  1
  F  F40  1  0.03108056  0.06216111  0.50000000  1
  F  F41  1  0.93783889  0.96891944  0.50000000  1
  F  F42  1  0.27924129  0.37964543  0.14526935  1
  F  F43  1  0.62035457  0.89959586  0.14526935  1
  F  F44  1  0.10040414  0.72075871  0.14526935  1
  F  F45  1  0.62035457  0.72075871  0.85473065  1
  F  F46  1  0.10040414  0.37964543  0.85473065  1
  F  F47  1  0.27924129  0.89959586  0.85473065  1
  F  F48  1  0.44542997  0.47331991  0.98536793  1
  F  F49  1  0.52668009  0.97211006  0.98536793  1
  F  F50  1  0.02788994  0.55457003  0.98536793  1
  F  F51  1  0.52668009  0.55457003  0.01463207  1
  F  F52  1  0.02788994  0.47331991  0.01463207  1
  F  F53  1  0.44542997  0.97211006  0.01463207  1
  F  F54  1  0.30688199  0.71766950  0.14664219  1
  F  F55  1  0.28233050  0.58921248  0.14664219  1
  F  F56  1  0.41078752  0.69311801  0.14664219  1
  F  F57  1  0.28233050  0.69311801  0.85335781  1
  F  F58  1  0.41078752  0.71766950  0.85335781  1
  F  F59  1  0.30688199  0.58921248  0.85335781  1
  F  F60  1  0.45327634  0.48043564  0.41405693  1
  F  F61  1  0.51956436  0.97284070  0.41405693  1
  F  F62  1  0.02715930  0.54672366  0.41405693  1
  F  F63  1  0.51956436  0.54672366  0.58594307  1
  F  F64  1  0.02715930  0.48043564  0.58594307  1
  F  F65  1  0.45327634  0.97284070  0.58594307  1
  F  F66  1  0.28273047  0.99485802  0.59224795  1
  F  F67  1  0.00514198  0.28787245  0.59224795  1
  F  F68  1  0.71212755  0.71726953  0.59224795  1
  F  F69  1  0.00514198  0.71726953  0.40775205  1
  F  F70  1  0.71212755  0.99485802  0.40775205  1
  F  F71  1  0.28273047  0.28787245  0.40775205  1
  F  F72  1  0.37709617  0.91762683  0.96350022  1
  F  F73  1  0.08237317  0.45946934  0.96350022  1
  F  F74  1  0.54053066  0.62290383  0.96350022  1
  F  F75  1  0.08237317  0.62290383  0.03649978  1
  F  F76  1  0.54053066  0.91762683  0.03649978  1
  F  F77  1  0.37709617  0.45946934  0.03649978  1
  F  F78  1  0.27339710  0.72660290  0.50000000  1
  F  F79  1  0.27339710  0.54679420  0.50000000  1
  F  F80  1  0.45320580  0.72660290  0.50000000  1
  F  F81  1  0.04132041  0.73814895  0.52026140  1
  F  F82  1  0.26185105  0.30317146  0.52026140  1
  F  F83  1  0.69682854  0.95867959  0.52026140  1
  F  F84  1  0.26185105  0.95867959  0.47973860  1
  F  F85  1  0.69682854  0.73814895  0.47973860  1
  F  F86  1  0.04132041  0.30317146  0.47973860  1
  F  F87  1  0.66666667  0.33333333  -0.00000000  1
  Li  Li88  1  0.17242265  0.15498694  0.72099090  1
  Li  Li89  1  0.84501306  0.01743571  0.72099090  1
  Li  Li90  1  0.98256429  0.82757735  0.72099090  1
  Li  Li91  1  0.84501306  0.82757735  0.27900910  1
  Li  Li92  1  0.98256429  0.15498694  0.27900910  1
  Li  Li93  1  0.17242265  0.01743571  0.27900910  1
  Li  Li94  1  0.25317434  0.46311756  0.54603177  1
  Li  Li95  1  0.53688244  0.79005679  0.54603177  1
  Li  Li96  1  0.20994321  0.74682566  0.54603177  1
  Li  Li97  1  0.53688244  0.74682566  0.45396823  1
  Li  Li98  1  0.20994321  0.46311756  0.45396823  1
  Li  Li99  1  0.25317434  0.79005679  0.45396823  1
  Li  Li100  1  0.66666667  0.33333333  0.50000000  1
  Li  Li101  1  0.54535086  0.45464914  0.50000000  1
  Li  Li102  1  0.54535086  0.09070172  0.50000000  1
  Li  Li103  1  0.90929828  0.45464914  0.50000000  1
