# generated using pymatgen
data_LiF
_symmetry_space_group_name_H-M   'P 1'
_cell_length_a   5.67219771
_cell_length_b   5.67219771
_cell_length_c   13.49039425
_cell_angle_alpha   90.00000000
_cell_angle_beta   90.00000000
_cell_angle_gamma   90.00000000
_symmetry_Int_Tables_number   1
_chemical_formula_structural   LiF
_chemical_formula_sum   'Li16 F16'
_cell_volume   434.03760832
_cell_formula_units_Z   16
loop_
 _symmetry_equiv_pos_site_id
 _symmetry_equiv_pos_as_xyz
  1  'x, y, z'
loop_
 _atom_site_type_symbol
 _atom_site_label
 _atom_site_symmetry_multiplicity
 _atom_site_fract_x
 _atom_site_fract_y
 _atom_site_fract_z
 _atom_site_occupancy
  F  F0  1  0.00000000  0.75000000  0.12500000  1
  F  F1  1  0.50000000  0.75000000  0.37500000  1
  F  F2  1  0.50000000  0.25000000  0.62500000  1
  F  F3  1  0.00000000  0.25000000  0.87500000  1
  F  F4  1  0.00000000  0.25000000  0.43219458  1
  F  F5  1  0.00000000  0.75000000  0.68219458  1
  F  F6  1  0.50000000  0.25000000  0.06780542  1
  F  F7  1  0.50000000  0.75000000  0.81780542  1
  F  F8  1  0.50000000  0.75000000  0.93219458  1
  F  F9  1  0.50000000  0.25000000  0.18219458  1
  F  F10  1  0.00000000  0.75000000  0.56780542  1
  F  F11  1  0.00000000  0.25000000  0.31780542  1
  F  F12  1  0.00000000  0.25000000  0.37500000  1
  F  F13  1  0.00000000  0.75000000  0.62500000  1
  F  F14  1  0.50000000  0.75000000  0.87500000  1
  F  F15  1  0.50000000  0.25000000  0.12500000  1
  Li  Li16  1  0.27875275  0.52875275  0.87500000  1
  Li  Li17  1  0.22124725  0.47124725  0.37500000  1
  Li  Li18  1  -0.27875275  1.02875275  0.12500000  1
  Li  Li19  1  0.77875275  -0.02875275  0.62500000  1
  Li  Li20  1  -0.27875275  0.47124725  0.12500000  1
  Li  Li21  1  0.77875275  0.52875275  0.62500000  1
  Li  Li22  1  0.27875275  -0.02875275  0.87500000  1
  Li  Li23  1  0.22124725  1.02875275  0.37500000  1
  Li  Li24  1  0.77875275  1.02875275  1.37500000  1
  Li  Li25  1  0.72124725  0.97124725  0.87500000  1
  Li  Li26  1  0.22124725  1.52875275  0.62500000  1
  Li  Li27  1  1.27875275  0.47124725  1.12500000  1
  Li  Li28  1  0.22124725  0.97124725  0.62500000  1
  Li  Li29  1  1.27875275  1.02875275  1.12500000  1
  Li  Li30  1  0.77875275  0.47124725  1.37500000  1
  Li  Li31  1  0.72124725  1.52875275  0.87500000  1
