# generated using pymatgen
data_LiF
_symmetry_space_group_name_H-M   'P 1'
_cell_length_a   7.91940009
_cell_length_b   7.91940009
_cell_length_c   6.34189812
_cell_angle_alpha   90.00000000
_cell_angle_beta   90.00000000
_cell_angle_gamma   120.00000000
_symmetry_Int_Tables_number   1
_chemical_formula_structural   LiF
_chemical_formula_sum   'Li12 F12'
_cell_volume   344.45656051
_cell_formula_units_Z   12
loop_
 _symmetry_equiv_pos_site_id
 _symmetry_equiv_pos_as_xyz
  1  'x, y, z'
loop_
 _atom_site_type_symbol
 _atom_site_label
 _atom_site_symmetry_multiplicity
 _atom_site_fract_x
 _atom_site_fract_y
 _atom_site_fract_z
 _atom_site_occupancy
  F  F0  1  0.76020085  0.84688023  0.95068264  1
  F  F1  1  0.15311977  0.91332062  0.95068264  1
  F  F2  1  0.08667938  0.23979915  0.95068264  1
  F  F3  1  0.15311977  0.23979915  0.04931736  1
  F  F4  1  0.08667938  0.84688023  0.04931736  1
  F  F5  1  0.76020085  0.91332062  0.04931736  1
  F  F6  1  0.20665922  0.67588693  0.71731227  1
  F  F7  1  0.32411307  0.53077229  0.71731227  1
  F  F8  1  0.46922771  0.79334078  0.71731227  1
  F  F9  1  0.32411307  0.79334078  0.28268773  1
  F  F10  1  0.46922771  0.67588693  0.28268773  1
  F  F11  1  0.20665922  0.53077229  0.28268773  1
  Li  Li12  1  0.67778519  0.97945165  0.47439260  1
  Li  Li13  1  -0.97945165  -0.30166646  0.47439260  1
  Li  Li14  1  0.30166646  -0.67778519  0.47439260  1
  Li  Li15  1  -0.97945165  -0.67778519  -0.47439260  1
  Li  Li16  1  0.30166646  0.97945165  -0.47439260  1
  Li  Li17  1  0.67778519  -0.30166646  -0.47439260  1
  Li  Li18  1  0.33333333  0.66666667  0.50000000  1
  Li  Li19  1  0.66666667  0.33333333  0.77086883  1
  Li  Li20  1  0.66666667  0.33333333  0.22913117  1
  Li  Li21  1  0.66666667  0.33333333  0.00000000  1
  Li  Li22  1  0.66666667  0.33333333  0.50000000  1
  Li  Li23  1  0.00000000  0.00000000  0.50000000  1
