# generated using pymatgen
data_Li3BO3
_symmetry_space_group_name_H-M   'P 1'
_cell_length_a   20.32962160
_cell_length_b   20.32962160
_cell_length_c   8.75400425
_cell_angle_alpha   90.00000000
_cell_angle_beta   90.00000000
_cell_angle_gamma   120.00000000
_symmetry_Int_Tables_number   1
_chemical_formula_structural   Li3BO3
_chemical_formula_sum   'Li108 B36 O108'
_cell_volume   3133.25668339
_cell_formula_units_Z   36
loop_
 _symmetry_equiv_pos_site_id
 _symmetry_equiv_pos_as_xyz
  1  'x, y, z'
loop_
 _atom_site_type_symbol
 _atom_site_label
 _atom_site_symmetry_multiplicity
 _atom_site_fract_x
 _atom_site_fract_y
 _atom_site_fract_z
 _atom_site_occupancy
  B  B0  1  0.50000000  0.00000000  0.00000000  1
  B  B1  1  0.00000000  0.50000000  -0.00000000  1
  B  B2  1  0.50000000  0.50000000  0.00000000  1
  B  B3  1  0.00000000  0.50000000  0.50000000  1
  B  B4  1  0.50000000  0.00000000  0.50000000  1
  B  B5  1  0.50000000  0.50000000  0.50000000  1
  B  B6  1  0.16666667  0.33333333  0.33333333  1
  B  B7  1  0.66666667  0.83333333  0.33333333  1
  B  B8  1  0.16666667  0.83333333  0.33333333  1
  B  B9  1  0.66666667  0.83333333  0.83333333  1
  B  B10  1  0.16666667  0.33333333  0.83333333  1
  B  B11  1  0.16666667  0.83333333  0.83333333  1
  B  B12  1  0.83333333  0.66666667  0.66666667  1
  B  B13  1  0.33333333  0.16666667  0.66666667  1
  B  B14  1  0.83333333  0.16666667  0.66666667  1
  B  B15  1  0.33333333  0.16666667  0.16666667  1
  B  B16  1  0.83333333  0.66666667  0.16666667  1
  B  B17  1  0.83333333  0.16666667  0.16666667  1
  B  B18  1  0.22732459  0.00000000  0.25000000  1
  B  B19  1  0.00000000  0.22732459  0.25000000  1
  B  B20  1  0.77267541  0.77267541  0.25000000  1
  B  B21  1  0.77267541  0.00000000  0.75000000  1
  B  B22  1  0.00000000  0.77267541  0.75000000  1
  B  B23  1  0.22732459  0.22732459  0.75000000  1
  B  B24  1  0.89399126  0.33333333  0.58333333  1
  B  B25  1  0.66666667  0.56065793  0.58333333  1
  B  B26  1  0.43934207  0.10600874  0.58333333  1
  B  B27  1  0.43934207  0.33333333  0.08333333  1
  B  B28  1  0.66666667  0.10600874  0.08333333  1
  B  B29  1  0.89399126  0.56065793  0.08333333  1
  B  B30  1  0.56065793  0.66666667  0.91666667  1
  B  B31  1  0.33333333  0.89399126  0.91666667  1
  B  B32  1  0.10600874  0.43934207  0.91666667  1
  B  B33  1  0.10600874  0.66666667  0.41666667  1
  B  B34  1  0.33333333  0.43934207  0.41666667  1
  B  B35  1  0.56065793  0.89399126  0.41666667  1
  Li  Li36  1  0.57386864  0.20146982  0.33291405  1
  Li  Li37  1  0.79853018  0.37239882  0.33291405  1
  Li  Li38  1  0.62760118  0.42613136  0.33291405  1
  Li  Li39  1  0.20146982  0.57386864  0.16708595  1
  Li  Li40  1  0.37239882  0.79853018  0.16708595  1
  Li  Li41  1  0.42613136  0.62760118  0.16708595  1
  Li  Li42  1  0.42613136  0.79853018  0.66708595  1
  Li  Li43  1  0.20146982  0.62760118  0.66708595  1
  Li  Li44  1  0.37239882  0.57386864  0.66708595  1
  Li  Li45  1  0.79853018  0.42613136  0.83291405  1
  Li  Li46  1  0.62760118  0.20146982  0.83291405  1
  Li  Li47  1  0.57386864  0.37239882  0.83291405  1
  Li  Li48  1  0.24053530  0.53480315  0.66624739  1
  Li  Li49  1  0.46519685  0.70573215  0.66624739  1
  Li  Li50  1  0.29426785  0.75946470  0.66624739  1
  Li  Li51  1  0.86813649  0.90720197  0.50041928  1
  Li  Li52  1  0.03906548  0.13186351  0.50041928  1
  Li  Li53  1  0.09279803  0.96093452  0.50041928  1
  Li  Li54  1  0.09279803  0.13186351  0.00041928  1
  Li  Li55  1  0.86813649  0.96093452  0.00041928  1
  Li  Li56  1  0.03906548  0.90720197  0.00041928  1
  Li  Li57  1  0.46519685  0.75946470  0.16624739  1
  Li  Li58  1  0.29426785  0.53480315  0.16624739  1
  Li  Li59  1  0.24053530  0.70573215  0.16624739  1
  Li  Li60  1  0.90720197  0.86813649  0.99958072  1
  Li  Li61  1  0.13186351  0.03906548  0.99958072  1
  Li  Li62  1  0.96093452  0.09279803  0.99958072  1
  Li  Li63  1  0.53480315  0.24053530  0.83375261  1
  Li  Li64  1  0.70573215  0.46519685  0.83375261  1
  Li  Li65  1  0.75946470  0.29426785  0.83375261  1
  Li  Li66  1  0.75946470  0.46519685  0.33375261  1
  Li  Li67  1  0.53480315  0.29426785  0.33375261  1
  Li  Li68  1  0.70573215  0.24053530  0.33375261  1
  Li  Li69  1  0.13186351  0.09279803  0.49958072  1
  Li  Li70  1  0.96093452  0.86813649  0.49958072  1
  Li  Li71  1  0.90720197  0.03906548  0.49958072  1
  Li  Li72  1  0.01852049  0.51019704  0.68398599  1
  Li  Li73  1  0.48980296  0.50832345  0.68398599  1
  Li  Li74  1  0.49167655  0.98147951  0.68398599  1
  Li  Li75  1  0.51019704  0.01852049  0.81601401  1
  Li  Li76  1  0.50832345  0.48980296  0.81601401  1
  Li  Li77  1  0.98147951  0.49167655  0.81601401  1
  Li  Li78  1  0.98147951  0.48980296  0.31601401  1
  Li  Li79  1  0.51019704  0.49167655  0.31601401  1
  Li  Li80  1  0.50832345  0.01852049  0.31601401  1
  Li  Li81  1  0.48980296  0.98147951  0.18398599  1
  Li  Li82  1  0.49167655  0.51019704  0.18398599  1
  Li  Li83  1  0.01852049  0.50832345  0.18398599  1
  Li  Li84  1  0.68518716  0.84353038  0.01731932  1
  Li  Li85  1  0.15646962  0.84165678  0.01731932  1
  Li  Li86  1  0.15834322  0.31481284  0.01731932  1
  Li  Li87  1  0.17686371  0.35185382  0.14934734  1
  Li  Li88  1  0.17499012  0.82313629  0.14934734  1
  Li  Li89  1  0.64814618  0.82500988  0.14934734  1
  Li  Li90  1  0.64814618  0.82313629  0.64934734  1
  Li  Li91  1  0.17686371  0.82500988  0.64934734  1
  Li  Li92  1  0.17499012  0.35185382  0.64934734  1
  Li  Li93  1  0.15646962  0.31481284  0.51731932  1
  Li  Li94  1  0.15834322  0.84353038  0.51731932  1
  Li  Li95  1  0.68518716  0.84165678  0.51731932  1
  Li  Li96  1  0.35185382  0.17686371  0.35065266  1
  Li  Li97  1  0.82313629  0.17499012  0.35065266  1
  Li  Li98  1  0.82500988  0.64814618  0.35065266  1
  Li  Li99  1  0.84353038  0.68518716  0.48268068  1
  Li  Li100  1  0.84165678  0.15646962  0.48268068  1
  Li  Li101  1  0.31481284  0.15834322  0.48268068  1
  Li  Li102  1  0.31481284  0.15646962  0.98268068  1
  Li  Li103  1  0.84353038  0.15834322  0.98268068  1
  Li  Li104  1  0.84165678  0.68518716  0.98268068  1
  Li  Li105  1  0.82313629  0.64814618  0.85065266  1
  Li  Li106  1  0.82500988  0.17686371  0.85065266  1
  Li  Li107  1  0.35185382  0.17499012  0.85065266  1
  Li  Li108  1  0.72917676  0.62149441  0.01512033  1
  Li  Li109  1  0.37850559  0.10768236  0.01512033  1
  Li  Li110  1  0.89231764  0.27082324  0.01512033  1
  Li  Li111  1  0.62149441  0.72917676  0.48487967  1
  Li  Li112  1  0.10768236  0.37850559  0.48487967  1
  Li  Li113  1  0.27082324  0.89231764  0.48487967  1
  Li  Li114  1  0.27082324  0.37850559  0.98487967  1
  Li  Li115  1  0.62149441  0.89231764  0.98487967  1
  Li  Li116  1  0.10768236  0.72917676  0.98487967  1
  Li  Li117  1  0.37850559  0.27082324  0.51512033  1
  Li  Li118  1  0.89231764  0.62149441  0.51512033  1
  Li  Li119  1  0.72917676  0.10768236  0.51512033  1
  Li  Li120  1  0.39584343  0.95482774  0.34845366  1
  Li  Li121  1  0.04517226  0.44101569  0.34845366  1
  Li  Li122  1  0.55898431  0.60415657  0.34845366  1
  Li  Li123  1  0.28816107  0.06251010  0.81821301  1
  Li  Li124  1  0.77434902  0.71183893  0.81821301  1
  Li  Li125  1  0.93748990  0.22565098  0.81821301  1
  Li  Li126  1  0.93748990  0.71183893  0.31821301  1
  Li  Li127  1  0.28816107  0.22565098  0.31821301  1
  Li  Li128  1  0.77434902  0.06251010  0.31821301  1
  Li  Li129  1  0.04517226  0.60415657  0.84845366  1
  Li  Li130  1  0.55898431  0.95482774  0.84845366  1
  Li  Li131  1  0.39584343  0.44101569  0.84845366  1
  Li  Li132  1  0.06251010  0.28816107  0.68178699  1
  Li  Li133  1  0.71183893  0.77434902  0.68178699  1
  Li  Li134  1  0.22565098  0.93748990  0.68178699  1
  Li  Li135  1  0.95482774  0.39584343  0.15154634  1
  Li  Li136  1  0.44101569  0.04517226  0.15154634  1
  Li  Li137  1  0.60415657  0.55898431  0.15154634  1
  Li  Li138  1  0.60415657  0.04517226  0.65154634  1
  Li  Li139  1  0.95482774  0.55898431  0.65154634  1
  Li  Li140  1  0.44101569  0.39584343  0.65154634  1
  Li  Li141  1  0.71183893  0.93748990  0.18178699  1
  Li  Li142  1  0.22565098  0.28816107  0.18178699  1
  Li  Li143  1  0.06251010  0.77434902  0.18178699  1
  O  O144  1  0.35263400  0.15266052  0.72602854  1
  O  O145  1  -0.15266052  0.19997348  0.72602854  1
  O  O146  1  -0.19997348  -0.35263400  0.72602854  1
  O  O147  1  0.15266052  0.35263400  -0.22602854  1
  O  O148  1  0.19997348  -0.15266052  -0.22602854  1
  O  O149  1  -0.35263400  -0.19997348  -0.22602854  1
  O  O150  1  -0.35263400  -0.15266052  -0.72602854  1
  O  O151  1  0.15266052  -0.19997348  -0.72602854  1
  O  O152  1  0.19997348  0.35263400  -0.72602854  1
  O  O153  1  -0.15266052  -0.35263400  1.22602854  1
  O  O154  1  -0.19997348  0.15266052  1.22602854  1
  O  O155  1  0.35263400  0.19997348  1.22602854  1
  O  O156  1  1.01930066  0.48599385  1.05936187  1
  O  O157  1  0.51400615  0.53330681  1.05936187  1
  O  O158  1  0.46669319  -0.01930066  1.05936187  1
  O  O159  1  0.81932718  0.68596733  0.10730479  1
  O  O160  1  0.86664015  0.18067282  0.10730479  1
  O  O161  1  0.31403267  0.13335985  0.10730479  1
  O  O162  1  0.31403267  0.18067282  -0.39269521  1
  O  O163  1  0.81932718  0.13335985  -0.39269521  1
  O  O164  1  0.86664015  0.68596733  -0.39269521  1
  O  O165  1  0.51400615  -0.01930066  1.55936187  1
  O  O166  1  0.46669319  0.48599385  1.55936187  1
  O  O167  1  1.01930066  0.53330681  1.55936187  1
  O  O168  1  0.68596733  0.81932718  1.39269521  1
  O  O169  1  0.18067282  0.86664015  1.39269521  1
  O  O170  1  0.13335985  0.31403267  1.39269521  1
  O  O171  1  0.48599385  1.01930066  0.44063813  1
  O  O172  1  0.53330681  0.51400615  0.44063813  1
  O  O173  1  -0.01930066  0.46669319  0.44063813  1
  O  O174  1  -0.01930066  0.51400615  -0.05936187  1
  O  O175  1  0.48599385  0.46669319  -0.05936187  1
  O  O176  1  0.53330681  1.01930066  -0.05936187  1
  O  O177  1  0.18067282  0.31403267  1.89269521  1
  O  O178  1  0.13335985  0.81932718  1.89269521  1
  O  O179  1  0.68596733  0.86664015  1.89269521  1
  O  O180  1  0.00000000  0.00000000  0.35138136  1
  O  O181  1  0.00000000  0.00000000  0.14861864  1
  O  O182  1  0.00000000  0.00000000  0.64861864  1
  O  O183  1  0.00000000  0.00000000  0.85138136  1
  O  O184  1  0.66666667  0.33333333  0.68471469  1
  O  O185  1  0.66666667  0.33333333  0.48195197  1
  O  O186  1  0.66666667  0.33333333  0.98195197  1
  O  O187  1  0.66666667  0.33333333  0.18471469  1
  O  O188  1  0.33333333  0.66666667  0.01804803  1
  O  O189  1  0.33333333  0.66666667  0.81528531  1
  O  O190  1  0.33333333  0.66666667  0.31528531  1
  O  O191  1  0.33333333  0.66666667  0.51804803  1
  O  O192  1  0.00000000  0.00000000  0.00000000  1
  O  O193  1  0.00000000  0.00000000  0.50000000  1
  O  O194  1  0.66666667  0.33333333  0.33333333  1
  O  O195  1  0.66666667  0.33333333  0.83333333  1
  O  O196  1  0.33333333  0.66666667  0.66666667  1
  O  O197  1  0.33333333  0.66666667  0.16666667  1
  O  O198  1  0.17450229  0.00000000  0.25000000  1
  O  O199  1  0.00000000  0.17450229  0.25000000  1
  O  O200  1  0.82549771  0.82549771  0.25000000  1
  O  O201  1  0.82549771  -0.00000000  0.75000000  1
  O  O202  1  0.00000000  0.82549771  0.75000000  1
  O  O203  1  0.17450229  0.17450229  0.75000000  1
  O  O204  1  0.84116896  0.33333333  0.58333333  1
  O  O205  1  0.66666667  0.50783562  0.58333333  1
  O  O206  1  0.49216438  0.15883104  0.58333333  1
  O  O207  1  0.49216438  0.33333333  0.08333333  1
  O  O208  1  0.66666667  0.15883104  0.08333333  1
  O  O209  1  0.84116896  0.50783562  0.08333333  1
  O  O210  1  0.50783562  0.66666667  0.91666667  1
  O  O211  1  0.33333333  0.84116896  0.91666667  1
  O  O212  1  0.15883104  0.49216438  0.91666667  1
  O  O213  1  0.15883104  0.66666667  0.41666667  1
  O  O214  1  0.33333333  0.49216438  0.41666667  1
  O  O215  1  0.50783562  0.84116896  0.41666667  1
  O  O216  1  0.93949116  0.29572258  0.70987905  1
  O  O217  1  0.70427742  0.64376858  0.70987905  1
  O  O218  1  0.35623142  0.06050884  0.70987905  1
  O  O219  1  0.29572258  0.93949116  0.79012095  1
  O  O220  1  0.64376858  0.70427742  0.79012095  1
  O  O221  1  0.06050884  0.35623142  0.79012095  1
  O  O222  1  0.06050884  0.70427742  0.29012095  1
  O  O223  1  0.29572258  0.35623142  0.29012095  1
  O  O224  1  0.64376858  0.93949116  0.29012095  1
  O  O225  1  0.70427742  0.06050884  0.20987905  1
  O  O226  1  0.35623142  0.29572258  0.20987905  1
  O  O227  1  0.93949116  0.64376858  0.20987905  1
  O  O228  1  0.60615783  0.62905592  0.04321239  1
  O  O229  1  0.37094408  0.97710191  0.04321239  1
  O  O230  1  0.02289809  0.39384217  0.04321239  1
  O  O231  1  0.96238925  0.27282449  0.12345428  1
  O  O232  1  0.31043524  0.03761075  0.12345428  1
  O  O233  1  0.72717551  0.68956476  0.12345428  1
  O  O234  1  0.72717551  0.03761075  0.62345428  1
  O  O235  1  0.96238925  0.68956476  0.62345428  1
  O  O236  1  0.31043524  0.27282449  0.62345428  1
  O  O237  1  0.37094408  0.39384217  0.54321239  1
  O  O238  1  0.02289809  0.62905592  0.54321239  1
  O  O239  1  0.60615783  0.97710191  0.54321239  1
  O  O240  1  0.27282449  0.96238925  0.37654572  1
  O  O241  1  0.03761075  0.31043524  0.37654572  1
  O  O242  1  0.68956476  0.72717551  0.37654572  1
  O  O243  1  0.62905592  0.60615783  0.45678761  1
  O  O244  1  0.97710191  0.37094408  0.45678761  1
  O  O245  1  0.39384217  0.02289809  0.45678761  1
  O  O246  1  0.39384217  0.37094408  0.95678761  1
  O  O247  1  0.62905592  0.02289809  0.95678761  1
  O  O248  1  0.97710191  0.60615783  0.95678761  1
  O  O249  1  0.03761075  0.72717551  0.87654572  1
  O  O250  1  0.68956476  0.96238925  0.87654572  1
  O  O251  1  0.27282449  0.31043524  0.87654572  1
