# generated using pymatgen
data_KLiCaS2
_symmetry_space_group_name_H-M   'P 1'
_cell_length_a   14.49614749
_cell_length_b   14.49614749
_cell_length_c   8.11083122
_cell_angle_alpha   90.00000000
_cell_angle_beta   90.00000000
_cell_angle_gamma   120.00000000
_symmetry_Int_Tables_number   1
_chemical_formula_structural   KLiCaS2
_chemical_formula_sum   'K8 Li8 Ca8 S16'
_cell_volume   1476.05042488
_cell_formula_units_Z   8
loop_
 _symmetry_equiv_pos_site_id
 _symmetry_equiv_pos_as_xyz
  1  'x, y, z'
loop_
 _atom_site_type_symbol
 _atom_site_label
 _atom_site_symmetry_multiplicity
 _atom_site_fract_x
 _atom_site_fract_y
 _atom_site_fract_z
 _atom_site_occupancy
  Ca  Ca0  1  0.21041308  0.45293464  0.00000000  1
  Ca  Ca1  1  0.54706536  0.75747845  -0.00000000  1
  Ca  Ca2  1  0.24252155  0.78958692  0.00000000  1
  Ca  Ca3  1  0.45293464  0.21041308  0.00000000  1
  Ca  Ca4  1  0.75747845  0.54706536  -0.00000000  1
  Ca  Ca5  1  0.78958692  0.24252155  0.00000000  1
  Ca  Ca6  1  0.33333333  0.66666667  0.50000000  1
  Ca  Ca7  1  0.66666667  0.33333333  0.50000000  1
  K  K8  1  0.61086468  -0.00000000  -0.00000000  1
  K  K9  1  0.00000000  0.61086468  0.00000000  1
  K  K10  1  0.38913532  0.38913532  -0.00000000  1
  K  K11  1  0.00000000  0.00000000  0.68023566  1
  K  K12  1  0.00000000  0.00000000  0.31976434  1
  K  K13  1  0.47217044  0.00000000  0.50000000  1
  K  K14  1  0.00000000  0.47217044  0.50000000  1
  K  K15  1  0.52782956  0.52782956  0.50000000  1
  Li  Li16  1  0.33333333  0.66666667  0.00000000  1
  Li  Li17  1  0.66666667  0.33333333  0.00000000  1
  Li  Li18  1  0.20294609  0.00000000  0.30729773  1
  Li  Li19  1  0.00000000  0.20294609  0.30729773  1
  Li  Li20  1  0.79705391  0.79705391  0.30729773  1
  Li  Li21  1  0.20294609  0.00000000  0.69270227  1
  Li  Li22  1  0.00000000  0.20294609  0.69270227  1
  Li  Li23  1  0.79705391  0.79705391  0.69270227  1
  S  S24  1  0.71773287  0.58487808  0.76419999  1
  S  S25  1  -0.58487808  0.13285479  0.76419999  1
  S  S26  1  -0.13285479  -0.71773287  0.76419999  1
  S  S27  1  0.71773287  0.58487808  -0.76419999  1
  S  S28  1  -0.58487808  0.13285479  -0.76419999  1
  S  S29  1  -0.13285479  -0.71773287  -0.76419999  1
  S  S30  1  0.58487808  0.71773287  -0.76419999  1
  S  S31  1  0.13285479  -0.58487808  -0.76419999  1
  S  S32  1  -0.71773287  -0.13285479  -0.76419999  1
  S  S33  1  0.58487808  0.71773287  0.76419999  1
  S  S34  1  0.13285479  -0.58487808  0.76419999  1
  S  S35  1  -0.71773287  -0.13285479  0.76419999  1
  S  S36  1  0.33333333  0.66666667  0.77256360  1
  S  S37  1  0.33333333  0.66666667  0.22743640  1
  S  S38  1  0.66666667  0.33333333  0.22743640  1
  S  S39  1  0.66666667  0.33333333  0.77256360  1
