# generated using pymatgen
data_Li3Hf3B(SeF)6
_symmetry_space_group_name_H-M   'P 1'
_cell_length_a   18.34131100
_cell_length_b   18.34131100
_cell_length_c   18.34131100
_cell_angle_alpha   90.00000000
_cell_angle_beta   90.00000000
_cell_angle_gamma   90.00000000
_symmetry_Int_Tables_number   1
_chemical_formula_structural   Li3Hf3B(SeF)6
_chemical_formula_sum   'Li48 Hf48 B16 Se96 F96'
_cell_volume   6170.08468818
_cell_formula_units_Z   16
loop_
 _symmetry_equiv_pos_site_id
 _symmetry_equiv_pos_as_xyz
  1  'x, y, z'
loop_
 _atom_site_type_symbol
 _atom_site_label
 _atom_site_symmetry_multiplicity
 _atom_site_fract_x
 _atom_site_fract_y
 _atom_site_fract_z
 _atom_site_occupancy
  B  B0  1  0.12500000  0.12500000  0.12500000  1
  B  B1  1  0.37500000  0.87500000  0.62500000  1
  B  B2  1  0.87500000  0.62500000  0.37500000  1
  B  B3  1  0.62500000  0.37500000  0.87500000  1
  B  B4  1  0.87500000  0.87500000  0.87500000  1
  B  B5  1  0.62500000  0.12500000  0.37500000  1
  B  B6  1  0.12500000  0.37500000  0.62500000  1
  B  B7  1  0.37500000  0.62500000  0.12500000  1
  B  B8  1  0.62500000  0.62500000  0.62500000  1
  B  B9  1  0.87500000  0.37500000  0.12500000  1
  B  B10  1  0.37500000  0.12500000  0.87500000  1
  B  B11  1  0.12500000  0.87500000  0.37500000  1
  B  B12  1  0.37500000  0.37500000  0.37500000  1
  B  B13  1  0.12500000  0.62500000  0.87500000  1
  B  B14  1  0.62500000  0.87500000  0.12500000  1
  B  B15  1  0.87500000  0.12500000  0.62500000  1
  F  F16  1  0.90826062  0.76738413  0.94381437  1
  F  F17  1  -0.40826062  -0.76738413  1.44381437  1
  F  F18  1  -0.90826062  1.26738413  -0.44381437  1
  F  F19  1  1.40826062  -0.26738413  -0.94381437  1
  F  F20  1  0.94381437  0.90826062  0.76738413  1
  F  F21  1  1.44381437  -0.40826062  -0.76738413  1
  F  F22  1  -0.44381437  -0.90826062  1.26738413  1
  F  F23  1  -0.94381437  1.40826062  -0.26738413  1
  F  F24  1  0.76738413  0.94381437  0.90826062  1
  F  F25  1  -0.76738413  1.44381437  -0.40826062  1
  F  F26  1  1.26738413  -0.44381437  -0.90826062  1
  F  F27  1  -0.26738413  -0.94381437  1.40826062  1
  F  F28  1  1.51738413  1.15826062  -0.69381437  1
  F  F29  1  -0.01738413  -0.15826062  -0.19381437  1
  F  F30  1  1.01738413  -0.65826062  1.69381437  1
  F  F31  1  -0.51738413  1.65826062  1.19381437  1
  F  F32  1  1.65826062  1.19381437  -0.51738413  1
  F  F33  1  -0.65826062  1.69381437  1.01738413  1
  F  F34  1  -0.15826062  -0.19381437  -0.01738413  1
  F  F35  1  1.15826062  -0.69381437  1.51738413  1
  F  F36  1  1.69381437  1.01738413  -0.65826062  1
  F  F37  1  1.19381437  -0.51738413  1.65826062  1
  F  F38  1  -0.69381437  1.51738413  1.15826062  1
  F  F39  1  -0.19381437  -0.01738413  -0.15826062  1
  F  F40  1  -0.90826062  -0.76738413  -0.94381437  1
  F  F41  1  1.40826062  0.76738413  -0.44381437  1
  F  F42  1  0.90826062  -0.26738413  1.44381437  1
  F  F43  1  -0.40826062  1.26738413  0.94381437  1
  F  F44  1  -0.94381437  -0.90826062  -0.76738413  1
  F  F45  1  -0.44381437  1.40826062  0.76738413  1
  F  F46  1  1.44381437  0.90826062  -0.26738413  1
  F  F47  1  0.94381437  -0.40826062  1.26738413  1
  F  F48  1  -0.76738413  -0.94381437  -0.90826062  1
  F  F49  1  0.76738413  -0.44381437  1.40826062  1
  F  F50  1  -0.26738413  1.44381437  0.90826062  1
  F  F51  1  1.26738413  0.94381437  -0.40826062  1
  F  F52  1  -0.51738413  -0.15826062  1.69381437  1
  F  F53  1  1.01738413  1.15826062  1.19381437  1
  F  F54  1  -0.01738413  1.65826062  -0.69381437  1
  F  F55  1  1.51738413  -0.65826062  -0.19381437  1
  F  F56  1  -0.65826062  -0.19381437  1.51738413  1
  F  F57  1  1.65826062  -0.69381437  -0.01738413  1
  F  F58  1  1.15826062  1.19381437  1.01738413  1
  F  F59  1  -0.15826062  1.69381437  -0.51738413  1
  F  F60  1  -0.69381437  -0.01738413  1.65826062  1
  F  F61  1  -0.19381437  1.51738413  -0.65826062  1
  F  F62  1  1.69381437  -0.51738413  -0.15826062  1
  F  F63  1  1.19381437  1.01738413  1.15826062  1
  F  F64  1  1.40826062  1.26738413  1.44381437  1
  F  F65  1  0.09173938  -0.26738413  1.94381437  1
  F  F66  1  -0.40826062  1.76738413  0.05618563  1
  F  F67  1  1.90826062  0.23261587  -0.44381437  1
  F  F68  1  1.44381437  1.40826062  1.26738413  1
  F  F69  1  1.94381437  0.09173938  -0.26738413  1
  F  F70  1  0.05618563  -0.40826062  1.76738413  1
  F  F71  1  -0.44381437  1.90826062  0.23261587  1
  F  F72  1  1.26738413  1.44381437  1.40826062  1
  F  F73  1  -0.26738413  1.94381437  0.09173938  1
  F  F74  1  1.76738413  0.05618563  -0.40826062  1
  F  F75  1  0.23261587  -0.44381437  1.90826062  1
  F  F76  1  2.01738413  1.65826062  -0.19381437  1
  F  F77  1  0.48261587  0.34173938  0.30618563  1
  F  F78  1  1.51738413  -0.15826062  2.19381437  1
  F  F79  1  -0.01738413  2.15826062  1.69381437  1
  F  F80  1  2.15826062  1.69381437  -0.01738413  1
  F  F81  1  -0.15826062  2.19381437  1.51738413  1
  F  F82  1  0.34173938  0.30618563  0.48261587  1
  F  F83  1  1.65826062  -0.19381437  2.01738413  1
  F  F84  1  2.19381437  1.51738413  -0.15826062  1
  F  F85  1  1.69381437  -0.01738413  2.15826062  1
  F  F86  1  -0.19381437  2.01738413  1.65826062  1
  F  F87  1  0.30618563  0.48261587  0.34173938  1
  F  F88  1  -0.40826062  -0.26738413  -0.44381437  1
  F  F89  1  1.90826062  1.26738413  0.05618563  1
  F  F90  1  1.40826062  0.23261587  1.94381437  1
  F  F91  1  0.09173938  1.76738413  1.44381437  1
  F  F92  1  -0.44381437  -0.40826062  -0.26738413  1
  F  F93  1  0.05618563  1.90826062  1.26738413  1
  F  F94  1  1.94381437  1.40826062  0.23261587  1
  F  F95  1  1.44381437  0.09173938  1.76738413  1
  F  F96  1  -0.26738413  -0.44381437  -0.40826062  1
  F  F97  1  1.26738413  0.05618563  1.90826062  1
  F  F98  1  0.23261587  1.94381437  1.40826062  1
  F  F99  1  1.76738413  1.44381437  0.09173938  1
  F  F100  1  -0.01738413  0.34173938  2.19381437  1
  F  F101  1  1.51738413  1.65826062  1.69381437  1
  F  F102  1  0.48261587  2.15826062  -0.19381437  1
  F  F103  1  2.01738413  -0.15826062  0.30618563  1
  F  F104  1  -0.15826062  0.30618563  2.01738413  1
  F  F105  1  2.15826062  -0.19381437  0.48261587  1
  F  F106  1  1.65826062  1.69381437  1.51738413  1
  F  F107  1  0.34173938  2.19381437  -0.01738413  1
  F  F108  1  -0.19381437  0.48261587  2.15826062  1
  F  F109  1  0.30618563  2.01738413  -0.15826062  1
  F  F110  1  2.19381437  -0.01738413  0.34173938  1
  F  F111  1  1.69381437  1.51738413  1.65826062  1
  Hf  Hf112  1  0.00000000  0.00000000  0.00000000  1
  Hf  Hf113  1  0.50000000  0.00000000  0.50000000  1
  Hf  Hf114  1  0.00000000  0.50000000  0.50000000  1
  Hf  Hf115  1  0.50000000  0.50000000  0.00000000  1
  Hf  Hf116  1  0.75000000  0.25000000  0.25000000  1
  Hf  Hf117  1  0.75000000  0.75000000  0.75000000  1
  Hf  Hf118  1  0.25000000  0.25000000  0.75000000  1
  Hf  Hf119  1  0.25000000  0.75000000  0.25000000  1
  Hf  Hf120  1  0.50000000  0.50000000  0.50000000  1
  Hf  Hf121  1  0.00000000  0.50000000  0.00000000  1
  Hf  Hf122  1  0.50000000  0.00000000  0.00000000  1
  Hf  Hf123  1  0.00000000  0.00000000  0.50000000  1
  Hf  Hf124  1  0.25000000  0.75000000  0.75000000  1
  Hf  Hf125  1  0.25000000  0.25000000  0.25000000  1
  Hf  Hf126  1  0.75000000  0.75000000  0.25000000  1
  Hf  Hf127  1  0.75000000  0.25000000  0.75000000  1
  Hf  Hf128  1  0.17977264  0.17977264  0.17977264  1
  Hf  Hf129  1  0.32022736  0.82022736  0.67977264  1
  Hf  Hf130  1  0.82022736  0.67977264  0.32022736  1
  Hf  Hf131  1  0.67977264  0.32022736  0.82022736  1
  Hf  Hf132  1  0.92977264  0.42977264  0.07022736  1
  Hf  Hf133  1  0.57022736  0.57022736  0.57022736  1
  Hf  Hf134  1  0.42977264  0.07022736  0.92977264  1
  Hf  Hf135  1  0.07022736  0.92977264  0.42977264  1
  Hf  Hf136  1  0.82022736  0.82022736  0.82022736  1
  Hf  Hf137  1  0.67977264  0.17977264  0.32022736  1
  Hf  Hf138  1  0.17977264  0.32022736  0.67977264  1
  Hf  Hf139  1  0.32022736  0.67977264  0.17977264  1
  Hf  Hf140  1  0.07022736  0.57022736  0.92977264  1
  Hf  Hf141  1  0.42977264  0.42977264  0.42977264  1
  Hf  Hf142  1  0.57022736  0.92977264  0.07022736  1
  Hf  Hf143  1  0.92977264  0.07022736  0.57022736  1
  Hf  Hf144  1  0.67977264  0.67977264  0.67977264  1
  Hf  Hf145  1  0.82022736  0.32022736  0.17977264  1
  Hf  Hf146  1  0.32022736  0.17977264  0.82022736  1
  Hf  Hf147  1  0.17977264  0.82022736  0.32022736  1
  Hf  Hf148  1  0.42977264  0.92977264  0.57022736  1
  Hf  Hf149  1  0.07022736  0.07022736  0.07022736  1
  Hf  Hf150  1  0.92977264  0.57022736  0.42977264  1
  Hf  Hf151  1  0.57022736  0.42977264  0.92977264  1
  Hf  Hf152  1  0.32022736  0.32022736  0.32022736  1
  Hf  Hf153  1  0.17977264  0.67977264  0.82022736  1
  Hf  Hf154  1  0.67977264  0.82022736  0.17977264  1
  Hf  Hf155  1  0.82022736  0.17977264  0.67977264  1
  Hf  Hf156  1  0.57022736  0.07022736  0.42977264  1
  Hf  Hf157  1  0.92977264  0.92977264  0.92977264  1
  Hf  Hf158  1  0.07022736  0.42977264  0.57022736  1
  Hf  Hf159  1  0.42977264  0.57022736  0.07022736  1
  Li  Li160  1  0.12500000  0.66124740  0.58875260  1
  Li  Li161  1  0.37500000  0.33875260  0.08875260  1
  Li  Li162  1  0.87500000  0.16124740  0.91124740  1
  Li  Li163  1  0.62500000  0.83875260  0.41124740  1
  Li  Li164  1  0.58875260  0.12500000  0.66124740  1
  Li  Li165  1  0.08875260  0.37500000  0.33875260  1
  Li  Li166  1  0.91124740  0.87500000  0.16124740  1
  Li  Li167  1  0.41124740  0.62500000  0.83875260  1
  Li  Li168  1  0.66124740  0.58875260  0.12500000  1
  Li  Li169  1  0.33875260  0.08875260  0.37500000  1
  Li  Li170  1  0.16124740  0.91124740  0.87500000  1
  Li  Li171  1  0.83875260  0.41124740  0.62500000  1
  Li  Li172  1  0.87500000  0.33875260  0.41124740  1
  Li  Li173  1  0.62500000  0.66124740  0.91124740  1
  Li  Li174  1  0.12500000  0.83875260  0.08875260  1
  Li  Li175  1  0.37500000  0.16124740  0.58875260  1
  Li  Li176  1  0.41124740  0.87500000  0.33875260  1
  Li  Li177  1  0.91124740  0.62500000  0.66124740  1
  Li  Li178  1  0.08875260  0.12500000  0.83875260  1
  Li  Li179  1  0.58875260  0.37500000  0.16124740  1
  Li  Li180  1  0.33875260  0.41124740  0.87500000  1
  Li  Li181  1  0.66124740  0.91124740  0.62500000  1
  Li  Li182  1  0.83875260  0.08875260  0.12500000  1
  Li  Li183  1  0.16124740  0.58875260  0.37500000  1
  Li  Li184  1  0.62500000  0.16124740  0.08875260  1
  Li  Li185  1  0.87500000  0.83875260  0.58875260  1
  Li  Li186  1  0.37500000  0.66124740  0.41124740  1
  Li  Li187  1  0.12500000  0.33875260  0.91124740  1
  Li  Li188  1  0.08875260  0.62500000  0.16124740  1
  Li  Li189  1  0.58875260  0.87500000  0.83875260  1
  Li  Li190  1  0.41124740  0.37500000  0.66124740  1
  Li  Li191  1  0.91124740  0.12500000  0.33875260  1
  Li  Li192  1  0.16124740  0.08875260  0.62500000  1
  Li  Li193  1  0.83875260  0.58875260  0.87500000  1
  Li  Li194  1  0.66124740  0.41124740  0.37500000  1
  Li  Li195  1  0.33875260  0.91124740  0.12500000  1
  Li  Li196  1  0.37500000  0.83875260  0.91124740  1
  Li  Li197  1  0.12500000  0.16124740  0.41124740  1
  Li  Li198  1  0.62500000  0.33875260  0.58875260  1
  Li  Li199  1  0.87500000  0.66124740  0.08875260  1
  Li  Li200  1  0.91124740  0.37500000  0.83875260  1
  Li  Li201  1  0.41124740  0.12500000  0.16124740  1
  Li  Li202  1  0.58875260  0.62500000  0.33875260  1
  Li  Li203  1  0.08875260  0.87500000  0.66124740  1
  Li  Li204  1  0.83875260  0.91124740  0.37500000  1
  Li  Li205  1  0.16124740  0.41124740  0.12500000  1
  Li  Li206  1  0.33875260  0.58875260  0.62500000  1
  Li  Li207  1  0.66124740  0.08875260  0.87500000  1
  Se  Se208  1  0.33646917  0.52442597  0.02322315  1
  Se  Se209  1  0.16353083  0.47557403  0.52322315  1
  Se  Se210  1  0.66353083  0.02442597  0.47677685  1
  Se  Se211  1  0.83646917  0.97557403  0.97677685  1
  Se  Se212  1  0.02322315  0.33646917  0.52442597  1
  Se  Se213  1  0.52322315  0.16353083  0.47557403  1
  Se  Se214  1  0.47677685  0.66353083  0.02442597  1
  Se  Se215  1  0.97677685  0.83646917  0.97557403  1
  Se  Se216  1  0.52442597  0.02322315  0.33646917  1
  Se  Se217  1  0.47557403  0.52322315  0.16353083  1
  Se  Se218  1  0.02442597  0.47677685  0.66353083  1
  Se  Se219  1  0.97557403  0.97677685  0.83646917  1
  Se  Se220  1  0.27442597  0.58646917  0.22677685  1
  Se  Se221  1  0.22557403  0.41353083  0.72677685  1
  Se  Se222  1  0.77442597  0.91353083  0.77322315  1
  Se  Se223  1  0.72557403  0.08646917  0.27322315  1
  Se  Se224  1  0.08646917  0.27322315  0.72557403  1
  Se  Se225  1  0.91353083  0.77322315  0.77442597  1
  Se  Se226  1  0.41353083  0.72677685  0.22557403  1
  Se  Se227  1  0.58646917  0.22677685  0.27442597  1
  Se  Se228  1  0.77322315  0.77442597  0.91353083  1
  Se  Se229  1  0.27322315  0.72557403  0.08646917  1
  Se  Se230  1  0.22677685  0.27442597  0.58646917  1
  Se  Se231  1  0.72677685  0.22557403  0.41353083  1
  Se  Se232  1  0.66353083  0.47557403  0.97677685  1
  Se  Se233  1  0.83646917  0.52442597  0.47677685  1
  Se  Se234  1  0.33646917  0.97557403  0.52322315  1
  Se  Se235  1  0.16353083  0.02442597  0.02322315  1
  Se  Se236  1  0.97677685  0.66353083  0.47557403  1
  Se  Se237  1  0.47677685  0.83646917  0.52442597  1
  Se  Se238  1  0.52322315  0.33646917  0.97557403  1
  Se  Se239  1  0.02322315  0.16353083  0.02442597  1
  Se  Se240  1  0.47557403  0.97677685  0.66353083  1
  Se  Se241  1  0.52442597  0.47677685  0.83646917  1
  Se  Se242  1  0.97557403  0.52322315  0.33646917  1
  Se  Se243  1  0.02442597  0.02322315  0.16353083  1
  Se  Se244  1  0.72557403  0.41353083  0.77322315  1
  Se  Se245  1  0.77442597  0.58646917  0.27322315  1
  Se  Se246  1  0.22557403  0.08646917  0.22677685  1
  Se  Se247  1  0.27442597  0.91353083  0.72677685  1
  Se  Se248  1  0.91353083  0.72677685  0.27442597  1
  Se  Se249  1  0.08646917  0.22677685  0.22557403  1
  Se  Se250  1  0.58646917  0.27322315  0.77442597  1
  Se  Se251  1  0.41353083  0.77322315  0.72557403  1
  Se  Se252  1  0.22677685  0.22557403  0.08646917  1
  Se  Se253  1  0.72677685  0.27442597  0.91353083  1
  Se  Se254  1  0.77322315  0.72557403  0.41353083  1
  Se  Se255  1  0.27322315  0.77442597  0.58646917  1
  Se  Se256  1  0.83646917  0.02442597  0.52322315  1
  Se  Se257  1  0.66353083  0.97557403  0.02322315  1
  Se  Se258  1  0.16353083  0.52442597  0.97677685  1
  Se  Se259  1  0.33646917  0.47557403  0.47677685  1
  Se  Se260  1  0.52322315  0.83646917  0.02442597  1
  Se  Se261  1  0.02322315  0.66353083  0.97557403  1
  Se  Se262  1  0.97677685  0.16353083  0.52442597  1
  Se  Se263  1  0.47677685  0.33646917  0.47557403  1
  Se  Se264  1  0.02442597  0.52322315  0.83646917  1
  Se  Se265  1  0.97557403  0.02322315  0.66353083  1
  Se  Se266  1  0.52442597  0.97677685  0.16353083  1
  Se  Se267  1  0.47557403  0.47677685  0.33646917  1
  Se  Se268  1  0.77442597  0.08646917  0.72677685  1
  Se  Se269  1  0.72557403  0.91353083  0.22677685  1
  Se  Se270  1  0.27442597  0.41353083  0.27322315  1
  Se  Se271  1  0.22557403  0.58646917  0.77322315  1
  Se  Se272  1  0.58646917  0.77322315  0.22557403  1
  Se  Se273  1  0.41353083  0.27322315  0.27442597  1
  Se  Se274  1  0.91353083  0.22677685  0.72557403  1
  Se  Se275  1  0.08646917  0.72677685  0.77442597  1
  Se  Se276  1  0.27322315  0.27442597  0.41353083  1
  Se  Se277  1  0.77322315  0.22557403  0.58646917  1
  Se  Se278  1  0.72677685  0.77442597  0.08646917  1
  Se  Se279  1  0.22677685  0.72557403  0.91353083  1
  Se  Se280  1  0.16353083  0.97557403  0.47677685  1
  Se  Se281  1  0.33646917  0.02442597  0.97677685  1
  Se  Se282  1  0.83646917  0.47557403  0.02322315  1
  Se  Se283  1  0.66353083  0.52442597  0.52322315  1
  Se  Se284  1  0.47677685  0.16353083  0.97557403  1
  Se  Se285  1  0.97677685  0.33646917  0.02442597  1
  Se  Se286  1  0.02322315  0.83646917  0.47557403  1
  Se  Se287  1  0.52322315  0.66353083  0.52442597  1
  Se  Se288  1  0.97557403  0.47677685  0.16353083  1
  Se  Se289  1  0.02442597  0.97677685  0.33646917  1
  Se  Se290  1  0.47557403  0.02322315  0.83646917  1
  Se  Se291  1  0.52442597  0.52322315  0.66353083  1
  Se  Se292  1  0.22557403  0.91353083  0.27322315  1
  Se  Se293  1  0.27442597  0.08646917  0.77322315  1
  Se  Se294  1  0.72557403  0.58646917  0.72677685  1
  Se  Se295  1  0.77442597  0.41353083  0.22677685  1
  Se  Se296  1  0.41353083  0.22677685  0.77442597  1
  Se  Se297  1  0.58646917  0.72677685  0.72557403  1
  Se  Se298  1  0.08646917  0.77322315  0.27442597  1
  Se  Se299  1  0.91353083  0.27322315  0.22557403  1
  Se  Se300  1  0.72677685  0.72557403  0.58646917  1
  Se  Se301  1  0.22677685  0.77442597  0.41353083  1
  Se  Se302  1  0.27322315  0.22557403  0.91353083  1
  Se  Se303  1  0.77322315  0.27442597  0.08646917  1
