# generated using pymatgen
data_LiF
_symmetry_space_group_name_H-M   'P 1'
_cell_length_a   5.67471196
_cell_length_b   5.67471196
_cell_length_c   12.43672810
_cell_angle_alpha   90.00000000
_cell_angle_beta   90.00000000
_cell_angle_gamma   120.00000000
_symmetry_Int_Tables_number   1
_chemical_formula_structural   LiF
_chemical_formula_sum   'Li15 F15'
_cell_volume   346.83619678
_cell_formula_units_Z   15
loop_
 _symmetry_equiv_pos_site_id
 _symmetry_equiv_pos_as_xyz
  1  'x, y, z'
loop_
 _atom_site_type_symbol
 _atom_site_label
 _atom_site_symmetry_multiplicity
 _atom_site_fract_x
 _atom_site_fract_y
 _atom_site_fract_z
 _atom_site_occupancy
  F  F0  1  0.55328191  0.81900901  0.27522446  1
  F  F1  1  -0.81900901  -0.26572710  0.27522446  1
  F  F2  1  0.26572710  -0.55328191  0.27522446  1
  F  F3  1  0.55328191  0.81900901  -0.27522446  1
  F  F4  1  -0.81900901  -0.26572710  -0.27522446  1
  F  F5  1  0.26572710  -0.55328191  -0.27522446  1
  F  F6  1  0.81900901  0.55328191  -0.27522446  1
  F  F7  1  -0.26572710  -0.81900901  -0.27522446  1
  F  F8  1  -0.55328191  0.26572710  -0.27522446  1
  F  F9  1  0.81900901  0.55328191  0.27522446  1
  F  F10  1  -0.26572710  -0.81900901  0.27522446  1
  F  F11  1  -0.55328191  0.26572710  0.27522446  1
  F  F12  1  0.00000000  0.00000000  0.00000000  1
  F  F13  1  0.00000000  0.00000000  0.31020348  1
  F  F14  1  0.00000000  0.00000000  0.68979652  1
  Li  Li15  1  0.57081416  0.00000000  0.14171125  1
  Li  Li16  1  0.00000000  0.57081416  0.14171125  1
  Li  Li17  1  0.42918584  0.42918584  0.14171125  1
  Li  Li18  1  0.57081416  0.00000000  0.85828875  1
  Li  Li19  1  0.00000000  0.57081416  0.85828875  1
  Li  Li20  1  0.42918584  0.42918584  0.85828875  1
  Li  Li21  1  0.33333333  0.66666667  -0.00000000  1
  Li  Li22  1  0.66666667  0.33333333  -0.00000000  1
  Li  Li23  1  0.63479573  0.00000000  -0.00000000  1
  Li  Li24  1  0.00000000  0.63479573  -0.00000000  1
  Li  Li25  1  0.36520427  0.36520427  -0.00000000  1
  Li  Li26  1  0.33333333  0.66666667  0.67380316  1
  Li  Li27  1  0.33333333  0.66666667  0.32619684  1
  Li  Li28  1  0.66666667  0.33333333  0.32619684  1
  Li  Li29  1  0.66666667  0.33333333  0.67380316  1
