# generated using pymatgen
data_Li2Y2MoAs4P3
_symmetry_space_group_name_H-M   'P 1'
_cell_length_a   4.91577455
_cell_length_b   5.06455167
_cell_length_c   6.96756598
_cell_angle_alpha   94.88306649
_cell_angle_beta   100.63430363
_cell_angle_gamma   109.61333733
_symmetry_Int_Tables_number   1
_chemical_formula_structural   Li2Y2MoAs4P3
_chemical_formula_sum   'Li2 Y2 Mo1 As4 P3'
_cell_volume   158.55564347
_cell_formula_units_Z   1
loop_
 _symmetry_equiv_pos_site_id
 _symmetry_equiv_pos_as_xyz
  1  'x, y, z'
loop_
 _atom_site_type_symbol
 _atom_site_label
 _atom_site_symmetry_multiplicity
 _atom_site_fract_x
 _atom_site_fract_y
 _atom_site_fract_z
 _atom_site_occupancy
  Y  Y0  1  0.00000000  0.00000000  0.00000000  1
  Y  Y1  1  0.50000000  0.50000000  0.50000000  1
  P  P2  1  0.50000000  0.50000000  0.00000000  1
  P  P3  1  0.50000000  0.00000000  0.50000000  1
  P  P4  1  0.00000000  0.50000000  0.50000000  1
  Mo  Mo5  1  0.34185000  0.52417702  0.71607928  1
  As  As6  1  0.16832471  0.83972860  0.51964765  1
  As  As7  1  0.09747893  0.24818252  0.54486162  1
  As  As8  1  0.35712778  0.64191329  0.88815652  1
  As  As9  1  0.96012016  0.15451256  0.92461511  1
  Li  Li10  1  0.86804051  0.57629625  0.09632693  1
  Li  Li11  1  0.83036087  0.98634854  0.21252656  1
