# generated using pymatgen
data_Li2Y2MoP3
_symmetry_space_group_name_H-M   'P 1'
_cell_length_a   4.63191398
_cell_length_b   4.93614713
_cell_length_c   7.02110138
_cell_angle_alpha   95.42465221
_cell_angle_beta   101.81376474
_cell_angle_gamma   111.78867192
_symmetry_Int_Tables_number   1
_chemical_formula_structural   Li2Y2MoP3
_chemical_formula_sum   'Li2 Y2 Mo1 P3'
_cell_volume   143.31231717
_cell_formula_units_Z   1
loop_
 _symmetry_equiv_pos_site_id
 _symmetry_equiv_pos_as_xyz
  1  'x, y, z'
loop_
 _atom_site_type_symbol
 _atom_site_label
 _atom_site_symmetry_multiplicity
 _atom_site_fract_x
 _atom_site_fract_y
 _atom_site_fract_z
 _atom_site_occupancy
  P  P0  1  0.12500000  0.00000000  0.25000000  1
  P  P1  1  0.00000000  0.00000000  0.00000000  1
  P  P2  1  0.37500000  0.00000000  0.25000000  1
  Mo  Mo3  1  0.25000000  0.25000000  0.25000000  1
  Li  Li4  1  0.00000000  0.25000000  0.12500000  1
  Li  Li5  1  0.40006205  0.43837961  0.14849656  1
  Y  Y6  1  0.06462237  0.75759754  0.35268941  1
  Y  Y7  1  0.70325252  0.49973255  0.67388915  1
