# generated using pymatgen
data_Li2Sb2P2Se
_symmetry_space_group_name_H-M   'P 1'
_cell_length_a   5.36617065
_cell_length_b   5.56006465
_cell_length_c   7.11928678
_cell_angle_alpha   93.87180811
_cell_angle_beta   98.58113912
_cell_angle_gamma   105.73159962
_symmetry_Int_Tables_number   1
_chemical_formula_structural   Li2Sb2P2Se
_chemical_formula_sum   'Li2 Sb2 P2 Se1'
_cell_volume   200.86230184
_cell_formula_units_Z   1
loop_
 _symmetry_equiv_pos_site_id
 _symmetry_equiv_pos_as_xyz
  1  'x, y, z'
loop_
 _atom_site_type_symbol
 _atom_site_label
 _atom_site_symmetry_multiplicity
 _atom_site_fract_x
 _atom_site_fract_y
 _atom_site_fract_z
 _atom_site_occupancy
  Se  Se0  1  0.00000000  0.00000000  0.00000000  1
  P  P1  1  0.33300000  0.66700000  0.25000000  1
  P  P2  1  0.66700000  0.33300000  0.50000000  1
  Li  Li3  1  0.00000000  0.00000000  0.75000000  1
  Li  Li4  1  0.79663929  0.64445314  0.32142658  1
  Sb  Sb5  1  0.73137078  0.39902410  0.44960741  1
  Sb  Sb6  1  0.50532546  0.27867041  0.99798626  1
