# generated using pymatgen
data_LiHfSeSCl
_symmetry_space_group_name_H-M   'P 1'
_cell_length_a   11.38862227
_cell_length_b   11.38862227
_cell_length_c   10.69766792
_cell_angle_alpha   90.00000000
_cell_angle_beta   90.00000000
_cell_angle_gamma   120.00000000
_symmetry_Int_Tables_number   1
_chemical_formula_structural   LiHfSeSCl
_chemical_formula_sum   'Li12 Hf12 Se12 S12 Cl12'
_cell_volume   1201.60609278
_cell_formula_units_Z   12
loop_
 _symmetry_equiv_pos_site_id
 _symmetry_equiv_pos_as_xyz
  1  'x, y, z'
loop_
 _atom_site_type_symbol
 _atom_site_label
 _atom_site_symmetry_multiplicity
 _atom_site_fract_x
 _atom_site_fract_y
 _atom_site_fract_z
 _atom_site_occupancy
  Cl  Cl0  1  0.60945534  0.00000000  0.00000000  1
  Cl  Cl1  1  0.00000000  0.60945534  0.00000000  1
  Cl  Cl2  1  0.39054466  0.39054466  0.00000000  1
  Cl  Cl3  1  0.39054466  0.00000000  0.50000000  1
  Cl  Cl4  1  0.00000000  0.39054466  0.50000000  1
  Cl  Cl5  1  0.60945534  0.60945534  0.50000000  1
  Cl  Cl6  1  0.39054466  0.00000000  0.00000000  1
  Cl  Cl7  1  0.00000000  0.39054466  -0.00000000  1
  Cl  Cl8  1  0.60945534  0.60945534  0.00000000  1
  Cl  Cl9  1  0.60945534  0.00000000  0.50000000  1
  Cl  Cl10  1  0.00000000  0.60945534  0.50000000  1
  Cl  Cl11  1  0.39054466  0.39054466  0.50000000  1
  Hf  Hf12  1  0.75678768  0.00000000  0.00000000  1
  Hf  Hf13  1  0.00000000  0.75678768  0.00000000  1
  Hf  Hf14  1  0.24321232  0.24321232  0.00000000  1
  Hf  Hf15  1  0.24321232  0.00000000  0.50000000  1
  Hf  Hf16  1  0.00000000  0.24321232  0.50000000  1
  Hf  Hf17  1  0.75678768  0.75678768  0.50000000  1
  Hf  Hf18  1  0.24321232  0.00000000  0.00000000  1
  Hf  Hf19  1  0.00000000  0.24321232  0.00000000  1
  Hf  Hf20  1  0.75678768  0.75678768  0.00000000  1
  Hf  Hf21  1  0.75678768  0.00000000  0.50000000  1
  Hf  Hf22  1  0.00000000  0.75678768  0.50000000  1
  Hf  Hf23  1  0.24321232  0.24321232  0.50000000  1
  Li  Li24  1  0.44708414  0.31715427  0.25000000  1
  Li  Li25  1  -0.31715427  0.12992987  0.25000000  1
  Li  Li26  1  -0.12992987  -0.44708414  0.25000000  1
  Li  Li27  1  -0.44708414  -0.31715427  0.75000000  1
  Li  Li28  1  0.31715427  -0.12992987  0.75000000  1
  Li  Li29  1  0.12992987  0.44708414  0.75000000  1
  Li  Li30  1  0.31715427  0.44708414  0.75000000  1
  Li  Li31  1  0.12992987  -0.31715427  0.75000000  1
  Li  Li32  1  -0.44708414  -0.12992987  0.75000000  1
  Li  Li33  1  -0.31715427  -0.44708414  0.25000000  1
  Li  Li34  1  -0.12992987  0.31715427  0.25000000  1
  Li  Li35  1  0.44708414  0.12992987  0.25000000  1
  S  S36  1  0.33333333  0.66666667  0.25000000  1
  S  S37  1  0.66666667  0.33333333  0.75000000  1
  S  S38  1  0.00000000  0.00000000  0.00000000  1
  S  S39  1  0.00000000  0.00000000  0.50000000  1
  S  S40  1  0.57044643  0.14089286  0.25000000  1
  S  S41  1  0.85910714  0.42955357  0.25000000  1
  S  S42  1  0.57044643  0.42955357  0.25000000  1
  S  S43  1  0.42955357  0.85910714  0.75000000  1
  S  S44  1  0.14089286  0.57044643  0.75000000  1
  S  S45  1  0.42955357  0.57044643  0.75000000  1
  S  S46  1  0.00000000  0.00000000  0.25000000  1
  S  S47  1  0.00000000  0.00000000  0.75000000  1
  Se  Se48  1  0.50000000  0.00000000  0.00000000  1
  Se  Se49  1  0.00000000  0.50000000  0.00000000  1
  Se  Se50  1  0.50000000  0.50000000  0.00000000  1
  Se  Se51  1  0.50000000  0.00000000  0.50000000  1
  Se  Se52  1  0.00000000  0.50000000  0.50000000  1
  Se  Se53  1  0.50000000  0.50000000  0.50000000  1
  Se  Se54  1  0.18987727  0.37975454  0.25000000  1
  Se  Se55  1  0.62024546  0.81012273  0.25000000  1
  Se  Se56  1  0.18987727  0.81012273  0.25000000  1
  Se  Se57  1  0.81012273  0.62024546  0.75000000  1
  Se  Se58  1  0.37975454  0.18987727  0.75000000  1
  Se  Se59  1  0.81012273  0.18987727  0.75000000  1
