# generated using pymatgen
data_LiTiO2F
_symmetry_space_group_name_H-M   'P 1'
_cell_length_a   3.36875527
_cell_length_b   3.16297673
_cell_length_c   5.57740313
_cell_angle_alpha   103.22701581
_cell_angle_beta   104.54290193
_cell_angle_gamma   111.47606910
_symmetry_Int_Tables_number   1
_chemical_formula_structural   LiTiO2F
_chemical_formula_sum   'Li1 Ti1 O2 F1'
_cell_volume   50.02216016
_cell_formula_units_Z   1
loop_
 _symmetry_equiv_pos_site_id
 _symmetry_equiv_pos_as_xyz
  1  'x, y, z'
loop_
 _atom_site_type_symbol
 _atom_site_label
 _atom_site_symmetry_multiplicity
 _atom_site_fract_x
 _atom_site_fract_y
 _atom_site_fract_z
 _atom_site_occupancy
  F  F0  1  0.00000000  0.00000000  0.00000000  1
  Li  Li1  1  0.33300000  0.66700000  0.25000000  1
  O  O2  1  0.66700000  0.33300000  0.50000000  1
  O  O3  1  0.00000000  0.00000000  0.75000000  1
  Ti  Ti4  1  0.70298113  0.91656622  0.70927983  1
