# generated using pymatgen
data_Li3Y2MoP3
_symmetry_space_group_name_H-M   'P 1'
_cell_length_a   5.49013719
_cell_length_b   5.65952663
_cell_length_c   7.18808012
_cell_angle_alpha   93.87121397
_cell_angle_beta   98.43069921
_cell_angle_gamma   105.54912792
_symmetry_Int_Tables_number   1
_chemical_formula_structural   Li3Y2MoP3
_chemical_formula_sum   'Li3 Y2 Mo1 P3'
_cell_volume   211.50440625
_cell_formula_units_Z   1
loop_
 _symmetry_equiv_pos_site_id
 _symmetry_equiv_pos_as_xyz
  1  'x, y, z'
loop_
 _atom_site_type_symbol
 _atom_site_label
 _atom_site_symmetry_multiplicity
 _atom_site_fract_x
 _atom_site_fract_y
 _atom_site_fract_z
 _atom_site_occupancy
  Y  Y0  1  0.12500000  0.12500000  0.12500000  1
  Y  Y1  1  0.50000000  0.50000000  0.50000000  1
  P  P2  1  0.25000000  0.25000000  0.25000000  1
  P  P3  1  0.75000000  0.75000000  0.75000000  1
  P  P4  1  0.21526214  0.49358088  0.60318225  1
  Mo  Mo5  1  0.58740123  0.12777985  0.28019757  1
  Li  Li6  1  0.07252483  0.64073985  0.10856317  1
  Li  Li7  1  0.60060663  0.48477585  0.38285447  1
  Li  Li8  1  0.98266314  0.95710995  0.50107660  1
