# generated using pymatgen
data_LiF
_symmetry_space_group_name_H-M   'P 1'
_cell_length_a   10.61823330
_cell_length_b   11.18745300
_cell_length_c   5.76659501
_cell_angle_alpha   90.00000000
_cell_angle_beta   90.00000000
_cell_angle_gamma   90.00000000
_symmetry_Int_Tables_number   1
_chemical_formula_structural   LiF
_chemical_formula_sum   'Li24 F24'
_cell_volume   685.01950656
_cell_formula_units_Z   24
loop_
 _symmetry_equiv_pos_site_id
 _symmetry_equiv_pos_as_xyz
  1  'x, y, z'
loop_
 _atom_site_type_symbol
 _atom_site_label
 _atom_site_symmetry_multiplicity
 _atom_site_fract_x
 _atom_site_fract_y
 _atom_site_fract_z
 _atom_site_occupancy
  F  F0  1  0.90434690  0.25000000  0.71123121  1
  F  F1  1  0.59565310  0.75000000  0.21123121  1
  F  F2  1  0.09565310  0.75000000  0.28876879  1
  F  F3  1  0.40434690  0.25000000  0.78876879  1
  F  F4  1  0.31681679  0.94498795  0.47235610  1
  F  F5  1  0.18318321  0.05501205  0.97235610  1
  F  F6  1  0.68318321  0.44498795  0.52764390  1
  F  F7  1  0.81681679  0.55501205  0.02764390  1
  F  F8  1  0.68318321  0.05501205  0.52764390  1
  F  F9  1  0.81681679  0.94498795  0.02764390  1
  F  F10  1  0.31681679  0.55501205  0.47235610  1
  F  F11  1  0.18318321  0.44498795  0.97235610  1
  F  F12  1  0.19348126  0.25000000  0.88566681  1
  F  F13  1  0.30651874  0.75000000  0.38566681  1
  F  F14  1  0.80651874  0.75000000  0.11433319  1
  F  F15  1  0.69348126  0.25000000  0.61433319  1
  F  F16  1  0.96113108  0.51195335  0.78274740  1
  F  F17  1  0.53886892  0.48804665  0.28274740  1
  F  F18  1  0.03886892  0.01195335  0.21725260  1
  F  F19  1  0.46113108  0.98804665  0.71725260  1
  F  F20  1  0.03886892  0.48804665  0.21725260  1
  F  F21  1  0.46113108  0.51195335  0.71725260  1
  F  F22  1  0.96113108  0.98804665  0.78274740  1
  F  F23  1  0.53886892  0.01195335  0.28274740  1
  Li  Li24  1  0.65333553  0.51735222  0.77270071  1
  Li  Li25  1  -0.15333553  -0.51735222  1.27270071  1
  Li  Li26  1  -0.65333553  1.01735222  -0.77270071  1
  Li  Li27  1  1.15333553  -0.01735222  -0.27270071  1
  Li  Li28  1  -0.65333553  -0.51735222  -0.77270071  1
  Li  Li29  1  1.15333553  0.51735222  -0.27270071  1
  Li  Li30  1  0.65333553  -0.01735222  0.77270071  1
  Li  Li31  1  -0.15333553  1.01735222  1.27270071  1
  Li  Li32  1  0.05880988  0.10027816  0.75265283  1
  Li  Li33  1  0.44119012  0.89972184  0.25265283  1
  Li  Li34  1  0.94119012  0.60027816  0.24734717  1
  Li  Li35  1  0.55880988  0.39972184  0.74734717  1
  Li  Li36  1  0.94119012  0.89972184  0.24734717  1
  Li  Li37  1  0.55880988  0.10027816  0.74734717  1
  Li  Li38  1  0.05880988  0.39972184  0.75265283  1
  Li  Li39  1  0.44119012  0.60027816  0.25265283  1
  Li  Li40  1  0.00000000  0.00000000  0.50000000  1
  Li  Li41  1  0.50000000  0.00000000  0.00000000  1
  Li  Li42  1  0.00000000  0.50000000  0.50000000  1
  Li  Li43  1  0.50000000  0.50000000  0.00000000  1
  Li  Li44  1  0.00000000  0.00000000  0.00000000  1
  Li  Li45  1  0.50000000  0.00000000  0.50000000  1
  Li  Li46  1  0.00000000  0.50000000  0.00000000  1
  Li  Li47  1  0.50000000  0.50000000  0.50000000  1
