# generated using pymatgen
data_Li2Si4Te3F12
_symmetry_space_group_name_H-M   'P 1'
_cell_length_a   9.79200907
_cell_length_b   9.79200907
_cell_length_c   8.67505939
_cell_angle_alpha   90.00000000
_cell_angle_beta   90.00000000
_cell_angle_gamma   90.00000000
_symmetry_Int_Tables_number   1
_chemical_formula_structural   Li2Si4Te3F12
_chemical_formula_sum   'Li8 Si16 Te12 F48'
_cell_volume   831.79455115
_cell_formula_units_Z   4
loop_
 _symmetry_equiv_pos_site_id
 _symmetry_equiv_pos_as_xyz
  1  'x, y, z'
loop_
 _atom_site_type_symbol
 _atom_site_label
 _atom_site_symmetry_multiplicity
 _atom_site_fract_x
 _atom_site_fract_y
 _atom_site_fract_z
 _atom_site_occupancy
  F  F0  1  0.30901760  0.35391638  0.10462059  1
  F  F1  1  0.19098240  -0.35391638  0.60462059  1
  F  F2  1  -0.10391638  1.05901760  0.35462059  1
  F  F3  1  0.60391638  -0.05901760  0.85462059  1
  F  F4  1  0.19098240  0.35391638  0.39537941  1
  F  F5  1  0.30901760  -0.35391638  -0.10462059  1
  F  F6  1  0.60391638  1.05901760  0.14537941  1
  F  F7  1  -0.10391638  -0.05901760  0.64537941  1
  F  F8  1  -0.30901760  -0.35391638  -0.10462059  1
  F  F9  1  0.80901760  0.35391638  0.39537941  1
  F  F10  1  1.10391638  -0.05901760  0.64537941  1
  F  F11  1  0.39608362  1.05901760  0.14537941  1
  F  F12  1  0.80901760  -0.35391638  0.60462059  1
  F  F13  1  -0.30901760  0.35391638  0.10462059  1
  F  F14  1  0.39608362  -0.05901760  0.85462059  1
  F  F15  1  1.10391638  1.05901760  0.35462059  1
  F  F16  1  0.80901760  0.85391638  0.60462059  1
  F  F17  1  0.69098240  0.14608362  1.10462059  1
  F  F18  1  0.39608362  1.55901760  0.85462059  1
  F  F19  1  1.10391638  0.44098240  1.35462059  1
  F  F20  1  0.69098240  0.85391638  0.89537941  1
  F  F21  1  0.80901760  0.14608362  0.39537941  1
  F  F22  1  1.10391638  1.55901760  0.64537941  1
  F  F23  1  0.39608362  0.44098240  1.14537941  1
  F  F24  1  0.19098240  0.14608362  0.39537941  1
  F  F25  1  1.30901760  0.85391638  0.89537941  1
  F  F26  1  1.60391638  0.44098240  1.14537941  1
  F  F27  1  0.89608362  1.55901760  0.64537941  1
  F  F28  1  1.30901760  0.14608362  1.10462059  1
  F  F29  1  0.19098240  0.85391638  0.60462059  1
  F  F30  1  0.89608362  0.44098240  1.35462059  1
  F  F31  1  1.60391638  1.55901760  0.85462059  1
  F  F32  1  0.73805867  -0.00000000  -0.00000000  1
  F  F33  1  0.76194133  -0.00000000  0.50000000  1
  F  F34  1  0.25000000  0.48805867  0.25000000  1
  F  F35  1  0.25000000  0.51194133  0.75000000  1
  F  F36  1  0.26194133  -0.00000000  -0.00000000  1
  F  F37  1  0.23805867  0.00000000  0.50000000  1
  F  F38  1  0.75000000  0.51194133  0.75000000  1
  F  F39  1  0.75000000  0.48805867  0.25000000  1
  F  F40  1  0.23805867  0.50000000  0.50000000  1
  F  F41  1  0.26194133  0.50000000  -0.00000000  1
  F  F42  1  0.75000000  0.98805867  0.75000000  1
  F  F43  1  0.75000000  0.01194133  0.25000000  1
  F  F44  1  0.76194133  0.50000000  0.50000000  1
  F  F45  1  0.73805867  0.50000000  -0.00000000  1
  F  F46  1  0.25000000  0.01194133  0.25000000  1
  F  F47  1  0.25000000  0.98805867  0.75000000  1
  Li  Li48  1  0.00000000  0.25000000  0.03235077  1
  Li  Li49  1  0.00000000  0.75000000  0.28235077  1
  Li  Li50  1  0.50000000  0.25000000  0.46764923  1
  Li  Li51  1  0.50000000  0.75000000  0.21764923  1
  Li  Li52  1  0.50000000  0.75000000  0.53235077  1
  Li  Li53  1  0.50000000  0.25000000  0.78235077  1
  Li  Li54  1  0.00000000  0.75000000  0.96764923  1
  Li  Li55  1  0.00000000  0.25000000  0.71764923  1
  Si  Si56  1  0.23878559  0.48878559  0.87500000  1
  Si  Si57  1  0.26121441  0.51121441  0.37500000  1
  Si  Si58  1  0.76121441  0.98878559  0.12500000  1
  Si  Si59  1  0.73878559  0.01121441  0.62500000  1
  Si  Si60  1  0.76121441  0.51121441  0.12500000  1
  Si  Si61  1  0.73878559  0.48878559  0.62500000  1
  Si  Si62  1  0.23878559  0.01121441  0.87500000  1
  Si  Si63  1  0.26121441  0.98878559  0.37500000  1
  Si  Si64  1  0.73878559  0.98878559  0.37500000  1
  Si  Si65  1  0.76121441  0.01121441  0.87500000  1
  Si  Si66  1  0.26121441  0.48878559  0.62500000  1
  Si  Si67  1  0.23878559  0.51121441  0.12500000  1
  Si  Si68  1  0.26121441  0.01121441  0.62500000  1
  Si  Si69  1  0.23878559  0.98878559  0.12500000  1
  Si  Si70  1  0.73878559  0.51121441  0.37500000  1
  Si  Si71  1  0.76121441  0.48878559  0.87500000  1
  Te  Te72  1  0.00000000  0.00000000  0.00000000  1
  Te  Te73  1  0.50000000  -0.00000000  0.50000000  1
  Te  Te74  1  0.25000000  0.75000000  0.25000000  1
  Te  Te75  1  0.25000000  0.25000000  0.75000000  1
  Te  Te76  1  0.50000000  0.50000000  0.50000000  1
  Te  Te77  1  0.00000000  0.50000000  -0.00000000  1
  Te  Te78  1  0.75000000  0.25000000  0.75000000  1
  Te  Te79  1  0.75000000  0.75000000  0.25000000  1
  Te  Te80  1  0.00000000  0.25000000  0.37500000  1
  Te  Te81  1  0.00000000  0.75000000  0.62500000  1
  Te  Te82  1  0.50000000  0.75000000  0.87500000  1
  Te  Te83  1  0.50000000  0.25000000  0.12500000  1
