# generated using pymatgen
data_Li2Y(SbP)2
_symmetry_space_group_name_H-M   'P 1'
_cell_length_a   5.16719209
_cell_length_b   5.16856226
_cell_length_c   7.35227233
_cell_angle_alpha   95.29800287
_cell_angle_beta   101.53794881
_cell_angle_gamma   111.27997187
_symmetry_Int_Tables_number   1
_chemical_formula_structural   Li2Y(SbP)2
_chemical_formula_sum   'Li2 Y1 Sb2 P2'
_cell_volume   176.32215405
_cell_formula_units_Z   1
loop_
 _symmetry_equiv_pos_site_id
 _symmetry_equiv_pos_as_xyz
  1  'x, y, z'
loop_
 _atom_site_type_symbol
 _atom_site_label
 _atom_site_symmetry_multiplicity
 _atom_site_fract_x
 _atom_site_fract_y
 _atom_site_fract_z
 _atom_site_occupancy
  P  P0  1  0.00000000  0.00000000  0.00000000  1
  P  P1  1  0.50000000  0.50000000  0.50000000  1
  Li  Li2  1  0.50000000  0.50000000  0.00000000  1
  Li  Li3  1  0.50000000  0.00000000  0.50000000  1
  Y  Y4  1  0.00000000  0.50000000  0.50000000  1
  Sb  Sb5  1  0.27083696  0.68655679  0.01772953  1
  Sb  Sb6  1  0.99153680  0.63997688  0.61875113  1
