# generated using pymatgen
data_Li4TeF2
_symmetry_space_group_name_H-M   'P 1'
_cell_length_a   8.19890897
_cell_length_b   8.19890897
_cell_length_c   40.65009810
_cell_angle_alpha   90.00000000
_cell_angle_beta   90.00000000
_cell_angle_gamma   120.00000000
_symmetry_Int_Tables_number   1
_chemical_formula_structural   Li4TeF2
_chemical_formula_sum   'Li96 Te24 F48'
_cell_volume   2366.48828572
_cell_formula_units_Z   24
loop_
 _symmetry_equiv_pos_site_id
 _symmetry_equiv_pos_as_xyz
  1  'x, y, z'
loop_
 _atom_site_type_symbol
 _atom_site_label
 _atom_site_symmetry_multiplicity
 _atom_site_fract_x
 _atom_site_fract_y
 _atom_site_fract_z
 _atom_site_occupancy
  F  F0  1  0.11710385  0.01736998  0.58245179  1
  F  F1  1  -0.01736998  0.09973387  0.58245179  1
  F  F2  1  -0.09973387  -0.11710385  0.58245179  1
  F  F3  1  0.01736998  0.11710385  -0.08245179  1
  F  F4  1  0.09973387  -0.01736998  -0.08245179  1
  F  F5  1  -0.11710385  -0.09973387  -0.08245179  1
  F  F6  1  -0.11710385  -0.01736998  -0.58245179  1
  F  F7  1  0.01736998  -0.09973387  -0.58245179  1
  F  F8  1  0.09973387  0.11710385  -0.58245179  1
  F  F9  1  -0.01736998  -0.11710385  1.08245179  1
  F  F10  1  -0.09973387  0.01736998  1.08245179  1
  F  F11  1  0.11710385  0.09973387  1.08245179  1
  F  F12  1  0.78377052  0.35070332  0.91578513  1
  F  F13  1  0.64929668  0.43306720  0.91578513  1
  F  F14  1  0.56693280  0.21622948  0.91578513  1
  F  F15  1  0.68403665  0.45043718  0.25088154  1
  F  F16  1  0.76640054  0.31596335  0.25088154  1
  F  F17  1  0.54956282  0.23359946  0.25088154  1
  F  F18  1  0.54956282  0.31596335  -0.24911846  1
  F  F19  1  0.68403665  0.23359946  -0.24911846  1
  F  F20  1  0.76640054  0.45043718  -0.24911846  1
  F  F21  1  0.64929668  0.21622948  1.41578513  1
  F  F22  1  0.56693280  0.35070332  1.41578513  1
  F  F23  1  0.78377052  0.43306720  1.41578513  1
  F  F24  1  0.45043718  0.68403665  1.24911846  1
  F  F25  1  0.31596335  0.76640054  1.24911846  1
  F  F26  1  0.23359946  0.54956282  1.24911846  1
  F  F27  1  0.35070332  0.78377052  0.58421487  1
  F  F28  1  0.43306720  0.64929668  0.58421487  1
  F  F29  1  0.21622948  0.56693280  0.58421487  1
  F  F30  1  0.21622948  0.64929668  0.08421487  1
  F  F31  1  0.35070332  0.56693280  0.08421487  1
  F  F32  1  0.43306720  0.78377052  0.08421487  1
  F  F33  1  0.31596335  0.54956282  1.74911846  1
  F  F34  1  0.23359946  0.68403665  1.74911846  1
  F  F35  1  0.45043718  0.76640054  1.74911846  1
  F  F36  1  0.00000000  0.00000000  0.54424200  1
  F  F37  1  0.00000000  0.00000000  0.95575800  1
  F  F38  1  0.00000000  0.00000000  0.45575800  1
  F  F39  1  0.00000000  0.00000000  0.04424200  1
  F  F40  1  0.66666667  0.33333333  0.87757533  1
  F  F41  1  0.66666667  0.33333333  0.28909133  1
  F  F42  1  0.66666667  0.33333333  0.78909133  1
  F  F43  1  0.66666667  0.33333333  0.37757533  1
  F  F44  1  0.33333333  0.66666667  0.21090867  1
  F  F45  1  0.33333333  0.66666667  0.62242467  1
  F  F46  1  0.33333333  0.66666667  0.12242467  1
  F  F47  1  0.33333333  0.66666667  0.71090867  1
  Li  Li48  1  0.50000000  0.00000000  -0.00000000  1
  Li  Li49  1  0.00000000  0.50000000  0.00000000  1
  Li  Li50  1  0.50000000  0.50000000  -0.00000000  1
  Li  Li51  1  0.00000000  0.50000000  0.50000000  1
  Li  Li52  1  0.50000000  0.00000000  0.50000000  1
  Li  Li53  1  0.50000000  0.50000000  0.50000000  1
  Li  Li54  1  0.16666667  0.33333333  0.33333333  1
  Li  Li55  1  0.66666667  0.83333333  0.33333333  1
  Li  Li56  1  0.16666667  0.83333333  0.33333333  1
  Li  Li57  1  0.66666667  0.83333333  0.83333333  1
  Li  Li58  1  0.16666667  0.33333333  0.83333333  1
  Li  Li59  1  0.16666667  0.83333333  0.83333333  1
  Li  Li60  1  0.83333333  0.66666667  0.66666667  1
  Li  Li61  1  0.33333333  0.16666667  0.66666667  1
  Li  Li62  1  0.83333333  0.16666667  0.66666667  1
  Li  Li63  1  0.33333333  0.16666667  0.16666667  1
  Li  Li64  1  0.83333333  0.66666667  0.16666667  1
  Li  Li65  1  0.83333333  0.16666667  0.16666667  1
  Li  Li66  1  0.16414695  0.37915521  0.89197362  1
  Li  Li67  1  0.62084479  0.78499174  0.89197362  1
  Li  Li68  1  0.21500826  0.83585305  0.89197362  1
  Li  Li69  1  0.37915521  0.16414695  0.60802638  1
  Li  Li70  1  0.78499174  0.62084479  0.60802638  1
  Li  Li71  1  0.83585305  0.21500826  0.60802638  1
  Li  Li72  1  0.83585305  0.62084479  0.10802638  1
  Li  Li73  1  0.37915521  0.21500826  0.10802638  1
  Li  Li74  1  0.78499174  0.16414695  0.10802638  1
  Li  Li75  1  0.62084479  0.83585305  0.39197362  1
  Li  Li76  1  0.21500826  0.37915521  0.39197362  1
  Li  Li77  1  0.16414695  0.78499174  0.39197362  1
  Li  Li78  1  0.83081361  0.71248854  0.22530695  1
  Li  Li79  1  0.28751146  0.11832507  0.22530695  1
  Li  Li80  1  0.88167493  0.16918639  0.22530695  1
  Li  Li81  1  0.04582187  0.49748028  0.94135972  1
  Li  Li82  1  0.45165841  0.95417813  0.94135972  1
  Li  Li83  1  0.50251972  0.54834159  0.94135972  1
  Li  Li84  1  0.50251972  0.95417813  0.44135972  1
  Li  Li85  1  0.04582187  0.54834159  0.44135972  1
  Li  Li86  1  0.45165841  0.49748028  0.44135972  1
  Li  Li87  1  0.28751146  0.16918639  0.72530695  1
  Li  Li88  1  0.88167493  0.71248854  0.72530695  1
  Li  Li89  1  0.83081361  0.11832507  0.72530695  1
  Li  Li90  1  0.49748028  0.04582187  0.55864028  1
  Li  Li91  1  0.95417813  0.45165841  0.55864028  1
  Li  Li92  1  0.54834159  0.50251972  0.55864028  1
  Li  Li93  1  0.71248854  0.83081361  0.27469305  1
  Li  Li94  1  0.11832507  0.28751146  0.27469305  1
  Li  Li95  1  0.16918639  0.88167493  0.27469305  1
  Li  Li96  1  0.16918639  0.28751146  0.77469305  1
  Li  Li97  1  0.71248854  0.88167493  0.77469305  1
  Li  Li98  1  0.11832507  0.83081361  0.77469305  1
  Li  Li99  1  0.95417813  0.50251972  0.05864028  1
  Li  Li100  1  0.54834159  0.04582187  0.05864028  1
  Li  Li101  1  0.49748028  0.45165841  0.05864028  1
  Li  Li102  1  0.00000000  0.00000000  0.00000000  1
  Li  Li103  1  0.00000000  0.00000000  0.50000000  1
  Li  Li104  1  0.66666667  0.33333333  0.33333333  1
  Li  Li105  1  0.66666667  0.33333333  0.83333333  1
  Li  Li106  1  0.33333333  0.66666667  0.66666667  1
  Li  Li107  1  0.33333333  0.66666667  0.16666667  1
  Li  Li108  1  0.14498615  0.18828381  0.02796604  1
  Li  Li109  1  0.81171619  0.95670233  0.02796604  1
  Li  Li110  1  0.04329767  0.85501385  0.02796604  1
  Li  Li111  1  0.18828381  0.14498615  0.47203396  1
  Li  Li112  1  0.95670233  0.81171619  0.47203396  1
  Li  Li113  1  0.85501385  0.04329767  0.47203396  1
  Li  Li114  1  0.85501385  0.81171619  0.97203396  1
  Li  Li115  1  0.18828381  0.04329767  0.97203396  1
  Li  Li116  1  0.95670233  0.14498615  0.97203396  1
  Li  Li117  1  0.81171619  0.85501385  0.52796604  1
  Li  Li118  1  0.04329767  0.18828381  0.52796604  1
  Li  Li119  1  0.14498615  0.95670233  0.52796604  1
  Li  Li120  1  0.81165281  0.52161715  0.36129938  1
  Li  Li121  1  0.47838285  0.29003567  0.36129938  1
  Li  Li122  1  0.70996433  0.18834719  0.36129938  1
  Li  Li123  1  0.85495048  0.47831948  0.80536729  1
  Li  Li124  1  0.62336900  0.14504952  0.80536729  1
  Li  Li125  1  0.52168052  0.37663100  0.80536729  1
  Li  Li126  1  0.52168052  0.14504952  0.30536729  1
  Li  Li127  1  0.85495048  0.37663100  0.30536729  1
  Li  Li128  1  0.62336900  0.47831948  0.30536729  1
  Li  Li129  1  0.47838285  0.18834719  0.86129938  1
  Li  Li130  1  0.70996433  0.52161715  0.86129938  1
  Li  Li131  1  0.81165281  0.29003567  0.86129938  1
  Li  Li132  1  0.47831948  0.85495048  0.69463271  1
  Li  Li133  1  0.14504952  0.62336900  0.69463271  1
  Li  Li134  1  0.37663100  0.52168052  0.69463271  1
  Li  Li135  1  0.52161715  0.81165281  0.13870062  1
  Li  Li136  1  0.29003567  0.47838285  0.13870062  1
  Li  Li137  1  0.18834719  0.70996433  0.13870062  1
  Li  Li138  1  0.18834719  0.47838285  0.63870062  1
  Li  Li139  1  0.52161715  0.70996433  0.63870062  1
  Li  Li140  1  0.29003567  0.81165281  0.63870062  1
  Li  Li141  1  0.14504952  0.52168052  0.19463271  1
  Li  Li142  1  0.37663100  0.85495048  0.19463271  1
  Li  Li143  1  0.47831948  0.62336900  0.19463271  1
  Te  Te144  1  0.26745361  0.00000000  0.25000000  1
  Te  Te145  1  0.00000000  0.26745361  0.25000000  1
  Te  Te146  1  0.73254639  0.73254639  0.25000000  1
  Te  Te147  1  0.73254639  -0.00000000  0.75000000  1
  Te  Te148  1  0.00000000  0.73254639  0.75000000  1
  Te  Te149  1  0.26745361  0.26745361  0.75000000  1
  Te  Te150  1  0.93412028  0.33333333  0.58333333  1
  Te  Te151  1  0.66666667  0.60078695  0.58333333  1
  Te  Te152  1  0.39921305  0.06587972  0.58333333  1
  Te  Te153  1  0.39921305  0.33333333  0.08333333  1
  Te  Te154  1  0.66666667  0.06587972  0.08333333  1
  Te  Te155  1  0.93412028  0.60078695  0.08333333  1
  Te  Te156  1  0.60078695  0.66666667  0.91666667  1
  Te  Te157  1  0.33333333  0.93412028  0.91666667  1
  Te  Te158  1  0.06587972  0.39921305  0.91666667  1
  Te  Te159  1  0.06587972  0.66666667  0.41666667  1
  Te  Te160  1  0.33333333  0.39921305  0.41666667  1
  Te  Te161  1  0.60078695  0.93412028  0.41666667  1
  Te  Te162  1  0.00000000  0.00000000  0.25000000  1
  Te  Te163  1  0.00000000  0.00000000  0.75000000  1
  Te  Te164  1  0.66666667  0.33333333  0.58333333  1
  Te  Te165  1  0.66666667  0.33333333  0.08333333  1
  Te  Te166  1  0.33333333  0.66666667  0.91666667  1
  Te  Te167  1  0.33333333  0.66666667  0.41666667  1
