# generated using pymatgen
data_Li2Ca3F8
_symmetry_space_group_name_H-M   'P 1'
_cell_length_a   13.30632608
_cell_length_b   13.30632608
_cell_length_c   9.81020139
_cell_angle_alpha   90.00000000
_cell_angle_beta   90.00000000
_cell_angle_gamma   90.00000000
_symmetry_Int_Tables_number   1
_chemical_formula_structural   Li2Ca3F8
_chemical_formula_sum   'Li16 Ca24 F64'
_cell_volume   1736.97771525
_cell_formula_units_Z   8
loop_
 _symmetry_equiv_pos_site_id
 _symmetry_equiv_pos_as_xyz
  1  'x, y, z'
loop_
 _atom_site_type_symbol
 _atom_site_label
 _atom_site_symmetry_multiplicity
 _atom_site_fract_x
 _atom_site_fract_y
 _atom_site_fract_z
 _atom_site_occupancy
  Ca  Ca0  1  0.20406301  0.45406301  0.12500000  1
  Ca  Ca1  1  0.29593699  0.54593699  0.62500000  1
  Ca  Ca2  1  0.79593699  0.95406301  0.37500000  1
  Ca  Ca3  1  0.70406301  0.04593699  0.87500000  1
  Ca  Ca4  1  0.79593699  0.54593699  0.87500000  1
  Ca  Ca5  1  0.70406301  0.45406301  0.37500000  1
  Ca  Ca6  1  0.20406301  0.04593699  0.62500000  1
  Ca  Ca7  1  0.29593699  0.95406301  0.12500000  1
  Ca  Ca8  1  0.70406301  0.95406301  0.62500000  1
  Ca  Ca9  1  0.79593699  0.04593699  0.12500000  1
  Ca  Ca10  1  0.29593699  0.45406301  0.87500000  1
  Ca  Ca11  1  0.20406301  0.54593699  0.37500000  1
  Ca  Ca12  1  0.29593699  0.04593699  0.37500000  1
  Ca  Ca13  1  0.20406301  0.95406301  0.87500000  1
  Ca  Ca14  1  0.70406301  0.54593699  0.12500000  1
  Ca  Ca15  1  0.79593699  0.45406301  0.62500000  1
  Ca  Ca16  1  0.00000000  0.25000000  0.12500000  1
  Ca  Ca17  1  0.00000000  0.75000000  0.37500000  1
  Ca  Ca18  1  0.00000000  0.75000000  0.87500000  1
  Ca  Ca19  1  0.00000000  0.25000000  0.62500000  1
  Ca  Ca20  1  0.50000000  0.75000000  0.62500000  1
  Ca  Ca21  1  0.50000000  0.25000000  0.87500000  1
  Ca  Ca22  1  0.50000000  0.25000000  0.37500000  1
  Ca  Ca23  1  0.50000000  0.75000000  0.12500000  1
  F  F24  1  0.76056314  0.33864194  0.07213784  1
  F  F25  1  -0.26056314  -0.33864194  0.57213784  1
  F  F26  1  -0.08864194  1.51056314  0.32213784  1
  F  F27  1  0.58864194  -0.51056314  0.82213784  1
  F  F28  1  -0.26056314  0.33864194  -0.07213784  1
  F  F29  1  0.76056314  -0.33864194  0.42786216  1
  F  F30  1  0.58864194  1.51056314  0.67786216  1
  F  F31  1  -0.08864194  -0.51056314  0.17786216  1
  F  F32  1  -0.76056314  -0.33864194  -0.07213784  1
  F  F33  1  1.26056314  0.33864194  0.42786216  1
  F  F34  1  1.08864194  -0.51056314  0.67786216  1
  F  F35  1  0.41135806  1.51056314  0.17786216  1
  F  F36  1  1.26056314  -0.33864194  0.07213784  1
  F  F37  1  -0.76056314  0.33864194  0.57213784  1
  F  F38  1  0.41135806  -0.51056314  0.32213784  1
  F  F39  1  1.08864194  1.51056314  0.82213784  1
  F  F40  1  1.26056314  0.83864194  0.57213784  1
  F  F41  1  0.23943686  0.16135806  1.07213784  1
  F  F42  1  0.41135806  2.01056314  0.82213784  1
  F  F43  1  1.08864194  -0.01056314  1.32213784  1
  F  F44  1  0.23943686  0.83864194  0.42786216  1
  F  F45  1  1.26056314  0.16135806  0.92786216  1
  F  F46  1  1.08864194  2.01056314  1.17786216  1
  F  F47  1  0.41135806  -0.01056314  0.67786216  1
  F  F48  1  -0.26056314  0.16135806  0.42786216  1
  F  F49  1  1.76056314  0.83864194  0.92786216  1
  F  F50  1  1.58864194  -0.01056314  1.17786216  1
  F  F51  1  0.91135806  2.01056314  0.67786216  1
  F  F52  1  1.76056314  0.16135806  0.57213784  1
  F  F53  1  -0.26056314  0.83864194  1.07213784  1
  F  F54  1  0.91135806  -0.01056314  0.82213784  1
  F  F55  1  1.58864194  2.01056314  1.32213784  1
  F  F56  1  0.56357861  0.73801976  0.38245394  1
  F  F57  1  0.93642139  0.26198024  0.88245394  1
  F  F58  1  0.51198024  0.31357861  0.63245394  1
  F  F59  1  0.98801976  0.68642139  0.13245394  1
  F  F60  1  0.93642139  0.73801976  0.61754606  1
  F  F61  1  0.56357861  0.26198024  0.11754606  1
  F  F62  1  0.98801976  0.31357861  0.36754606  1
  F  F63  1  0.51198024  0.68642139  0.86754606  1
  F  F64  1  0.43642139  0.26198024  0.61754606  1
  F  F65  1  0.06357861  0.73801976  0.11754606  1
  F  F66  1  0.48801976  0.68642139  0.36754606  1
  F  F67  1  0.01198024  0.31357861  0.86754606  1
  F  F68  1  0.06357861  0.26198024  0.38245394  1
  F  F69  1  0.43642139  0.73801976  0.88245394  1
  F  F70  1  0.01198024  0.68642139  0.63245394  1
  F  F71  1  0.48801976  0.31357861  0.13245394  1
  F  F72  1  0.06357861  0.23801976  0.88245394  1
  F  F73  1  0.43642139  0.76198024  0.38245394  1
  F  F74  1  0.01198024  0.81357861  0.13245394  1
  F  F75  1  0.48801976  0.18642139  0.63245394  1
  F  F76  1  0.43642139  0.23801976  0.11754606  1
  F  F77  1  0.06357861  0.76198024  0.61754606  1
  F  F78  1  0.48801976  0.81357861  0.86754606  1
  F  F79  1  0.01198024  0.18642139  0.36754606  1
  F  F80  1  0.93642139  0.76198024  0.11754606  1
  F  F81  1  0.56357861  0.23801976  0.61754606  1
  F  F82  1  0.98801976  0.18642139  0.86754606  1
  F  F83  1  0.51198024  0.81357861  0.36754606  1
  F  F84  1  0.56357861  0.76198024  0.88245394  1
  F  F85  1  0.93642139  0.23801976  0.38245394  1
  F  F86  1  0.51198024  0.18642139  0.13245394  1
  F  F87  1  0.98801976  0.81357861  0.63245394  1
  Li  Li88  1  0.51018225  -0.00000000  0.25000000  1
  Li  Li89  1  0.98981775  -0.00000000  0.75000000  1
  Li  Li90  1  0.25000000  0.26018225  0.50000000  1
  Li  Li91  1  0.25000000  0.73981775  -0.00000000  1
  Li  Li92  1  0.48981775  -0.00000000  0.75000000  1
  Li  Li93  1  0.01018225  -0.00000000  0.25000000  1
  Li  Li94  1  0.75000000  0.73981775  0.50000000  1
  Li  Li95  1  0.75000000  0.26018225  -0.00000000  1
  Li  Li96  1  0.01018225  0.50000000  0.75000000  1
  Li  Li97  1  0.48981775  0.50000000  0.25000000  1
  Li  Li98  1  0.75000000  0.76018225  -0.00000000  1
  Li  Li99  1  0.75000000  0.23981775  0.50000000  1
  Li  Li100  1  0.98981775  0.50000000  0.25000000  1
  Li  Li101  1  0.51018225  0.50000000  0.75000000  1
  Li  Li102  1  0.25000000  0.23981775  0.00000000  1
  Li  Li103  1  0.25000000  0.76018225  0.50000000  1
