# generated using pymatgen
data_LiF
_symmetry_space_group_name_H-M   'P 1'
_cell_length_a   6.29224491
_cell_length_b   7.92128107
_cell_length_c   6.67318634
_cell_angle_alpha   90.00000000
_cell_angle_beta   90.00000000
_cell_angle_gamma   90.00000000
_symmetry_Int_Tables_number   1
_chemical_formula_structural   LiF
_chemical_formula_sum   'Li28 F28'
_cell_volume   332.60922824
_cell_formula_units_Z   28
loop_
 _symmetry_equiv_pos_site_id
 _symmetry_equiv_pos_as_xyz
  1  'x, y, z'
loop_
 _atom_site_type_symbol
 _atom_site_label
 _atom_site_symmetry_multiplicity
 _atom_site_fract_x
 _atom_site_fract_y
 _atom_site_fract_z
 _atom_site_occupancy
  F  F0  1  0.00000000  0.50000000  0.73777748  1
  F  F1  1  0.50000000  0.00000000  0.26222252  1
  F  F2  1  0.00000000  0.50000000  0.26222252  1
  F  F3  1  0.50000000  0.00000000  0.73777748  1
  F  F4  1  0.00000000  0.00000000  0.76439562  1
  F  F5  1  0.50000000  0.50000000  0.23560438  1
  F  F6  1  0.00000000  0.00000000  0.23560438  1
  F  F7  1  0.50000000  0.50000000  0.76439562  1
  F  F8  1  0.00000000  0.00000000  0.54901851  1
  F  F9  1  0.50000000  0.50000000  0.45098149  1
  F  F10  1  0.00000000  0.00000000  0.45098149  1
  F  F11  1  0.50000000  0.50000000  0.54901851  1
  F  F12  1  0.96747312  0.27161088  0.83273265  1
  F  F13  1  0.03252688  0.72838912  0.83273265  1
  F  F14  1  0.53252688  0.77161088  0.16726735  1
  F  F15  1  0.46747312  0.22838912  0.16726735  1
  F  F16  1  0.03252688  0.72838912  0.16726735  1
  F  F17  1  0.96747312  0.27161088  0.16726735  1
  F  F18  1  0.46747312  0.22838912  0.83273265  1
  F  F19  1  0.53252688  0.77161088  0.83273265  1
  F  F20  1  0.59521934  0.63492146  0.00000000  1
  F  F21  1  0.40478066  0.36507854  0.00000000  1
  F  F22  1  0.90478066  0.13492146  0.00000000  1
  F  F23  1  0.09521934  0.86507854  0.00000000  1
  F  F24  1  0.00000000  0.50000000  0.09948338  1
  F  F25  1  0.50000000  0.00000000  0.90051662  1
  F  F26  1  0.00000000  0.50000000  0.90051662  1
  F  F27  1  0.50000000  0.00000000  0.09948338  1
  Li  Li28  1  0.21605011  0.13364352  0.32009657  1
  Li  Li29  1  -0.21605011  -0.13364352  0.32009657  1
  Li  Li30  1  0.28394989  0.63364352  -0.32009657  1
  Li  Li31  1  0.71605011  0.36635648  -0.32009657  1
  Li  Li32  1  -0.21605011  -0.13364352  -0.32009657  1
  Li  Li33  1  0.21605011  0.13364352  -0.32009657  1
  Li  Li34  1  0.71605011  0.36635648  0.32009657  1
  Li  Li35  1  0.28394989  0.63364352  0.32009657  1
  Li  Li36  1  0.24619442  0.17890625  0.12893067  1
  Li  Li37  1  0.75380558  0.82109375  0.12893067  1
  Li  Li38  1  0.25380558  0.67890625  0.87106933  1
  Li  Li39  1  0.74619442  0.32109375  0.87106933  1
  Li  Li40  1  0.75380558  0.82109375  0.87106933  1
  Li  Li41  1  0.24619442  0.17890625  0.87106933  1
  Li  Li42  1  0.74619442  0.32109375  0.12893067  1
  Li  Li43  1  0.25380558  0.67890625  0.12893067  1
  Li  Li44  1  0.92081540  0.64014644  0.18948727  1
  Li  Li45  1  0.07918460  0.35985356  0.18948727  1
  Li  Li46  1  0.57918460  0.14014644  0.81051273  1
  Li  Li47  1  0.42081540  0.85985356  0.81051273  1
  Li  Li48  1  0.07918460  0.35985356  0.81051273  1
  Li  Li49  1  0.92081540  0.64014644  0.81051273  1
  Li  Li50  1  0.42081540  0.85985356  0.18948727  1
  Li  Li51  1  0.57918460  0.14014644  0.18948727  1
  Li  Li52  1  0.00000000  0.50000000  0.50000000  1
  Li  Li53  1  0.50000000  0.00000000  0.50000000  1
  Li  Li54  1  0.00000000  0.00000000  0.00000000  1
  Li  Li55  1  0.50000000  0.50000000  0.00000000  1
