# generated using pymatgen
data_Li2Y2As4P2Se
_symmetry_space_group_name_H-M   'P 1'
_cell_length_a   5.21744014
_cell_length_b   5.42377364
_cell_length_c   6.79659549
_cell_angle_alpha   93.77985876
_cell_angle_beta   97.63638598
_cell_angle_gamma   104.17437170
_symmetry_Int_Tables_number   1
_chemical_formula_structural   Li2Y2As4P2Se
_chemical_formula_sum   'Li2 Y2 As4 P2 Se1'
_cell_volume   183.84941700
_cell_formula_units_Z   1
loop_
 _symmetry_equiv_pos_site_id
 _symmetry_equiv_pos_as_xyz
  1  'x, y, z'
loop_
 _atom_site_type_symbol
 _atom_site_label
 _atom_site_symmetry_multiplicity
 _atom_site_fract_x
 _atom_site_fract_y
 _atom_site_fract_z
 _atom_site_occupancy
  Se  Se0  1  0.00000000  0.00000000  0.00000000  1
  Y  Y1  1  0.50000000  0.50000000  0.50000000  1
  Y  Y2  1  0.25000000  0.25000000  0.25000000  1
  P  P3  1  0.75000000  0.25000000  0.00000000  1
  P  P4  1  0.25000000  0.75000000  0.50000000  1
  As  As5  1  0.44111434  0.10796186  0.39250744  1
  As  As6  1  0.63935265  0.14393521  0.52422557  1
  As  As7  1  0.05283500  0.60278616  0.40122654  1
  As  As8  1  0.75387360  0.86355578  0.11096201  1
  Li  Li9  1  0.59445127  0.95827025  0.13567480  1
  Li  Li10  1  0.10630337  0.69824242  0.33474831  1
