# generated using pymatgen
data_LiF
_symmetry_space_group_name_H-M   'P 1'
_cell_length_a   5.06895295
_cell_length_b   10.37540258
_cell_length_c   9.81248681
_cell_angle_alpha   90.00000000
_cell_angle_beta   90.00000000
_cell_angle_gamma   90.00000000
_symmetry_Int_Tables_number   1
_chemical_formula_structural   LiF
_chemical_formula_sum   'Li24 F24'
_cell_volume   516.06250120
_cell_formula_units_Z   24
loop_
 _symmetry_equiv_pos_site_id
 _symmetry_equiv_pos_as_xyz
  1  'x, y, z'
loop_
 _atom_site_type_symbol
 _atom_site_label
 _atom_site_symmetry_multiplicity
 _atom_site_fract_x
 _atom_site_fract_y
 _atom_site_fract_z
 _atom_site_occupancy
  F  F0  1  0.85011192  0.25000000  0.02397639  1
  F  F1  1  0.64988808  0.75000000  0.52397639  1
  F  F2  1  0.14988808  0.75000000  0.97602361  1
  F  F3  1  0.35011192  0.25000000  0.47602361  1
  F  F4  1  0.39486442  0.33004515  0.10496926  1
  F  F5  1  0.10513558  0.66995485  0.60496926  1
  F  F6  1  0.60513558  0.83004515  0.89503074  1
  F  F7  1  0.89486442  0.16995485  0.39503074  1
  F  F8  1  0.60513558  0.66995485  0.89503074  1
  F  F9  1  0.89486442  0.33004515  0.39503074  1
  F  F10  1  0.39486442  0.16995485  0.10496926  1
  F  F11  1  0.10513558  0.83004515  0.60496926  1
  F  F12  1  0.14861217  0.29564496  0.70432615  1
  F  F13  1  0.35138783  0.70435504  0.20432615  1
  F  F14  1  0.85138783  0.79564496  0.29567385  1
  F  F15  1  0.64861217  0.20435504  0.79567385  1
  F  F16  1  0.85138783  0.70435504  0.29567385  1
  F  F17  1  0.64861217  0.29564496  0.79567385  1
  F  F18  1  0.14861217  0.20435504  0.70432615  1
  F  F19  1  0.35138783  0.79564496  0.20432615  1
  F  F20  1  0.55595881  0.25000000  0.97973599  1
  F  F21  1  0.94404119  0.75000000  0.47973599  1
  F  F22  1  0.44404119  0.75000000  0.02026401  1
  F  F23  1  0.05595881  0.25000000  0.52026401  1
  Li  Li24  1  0.30801958  0.35669467  0.71374482  1
  Li  Li25  1  0.19198042  -0.35669467  1.21374482  1
  Li  Li26  1  -0.30801958  0.85669467  -0.71374482  1
  Li  Li27  1  0.80801958  0.14330533  -0.21374482  1
  Li  Li28  1  -0.30801958  -0.35669467  -0.71374482  1
  Li  Li29  1  0.80801958  0.35669467  -0.21374482  1
  Li  Li30  1  0.30801958  0.14330533  0.71374482  1
  Li  Li31  1  0.19198042  0.85669467  1.21374482  1
  Li  Li32  1  0.26367999  0.25000000  0.14838046  1
  Li  Li33  1  0.23632001  0.75000000  0.64838046  1
  Li  Li34  1  0.73632001  0.75000000  0.85161954  1
  Li  Li35  1  0.76367999  0.25000000  0.35161954  1
  Li  Li36  1  0.26889434  0.25000000  0.56254231  1
  Li  Li37  1  0.23110566  0.75000000  0.06254231  1
  Li  Li38  1  0.73110566  0.75000000  0.43745769  1
  Li  Li39  1  0.76889434  0.25000000  0.93745769  1
  Li  Li40  1  0.00000000  0.00000000  0.00000000  1
  Li  Li41  1  0.50000000  0.00000000  0.50000000  1
  Li  Li42  1  0.00000000  0.50000000  0.00000000  1
  Li  Li43  1  0.50000000  0.50000000  0.50000000  1
  Li  Li44  1  0.00000000  0.00000000  0.50000000  1
  Li  Li45  1  0.50000000  0.00000000  0.00000000  1
  Li  Li46  1  0.00000000  0.50000000  0.50000000  1
  Li  Li47  1  0.50000000  0.50000000  0.00000000  1
