# generated using pymatgen
data_Li2Sb2P2Se
_symmetry_space_group_name_H-M   'P 1'
_cell_length_a   5.14999150
_cell_length_b   5.35048687
_cell_length_c   6.55706257
_cell_angle_alpha   93.87175442
_cell_angle_beta   96.11477195
_cell_angle_gamma   101.91746599
_symmetry_Int_Tables_number   1
_chemical_formula_structural   Li2Sb2P2Se
_chemical_formula_sum   'Li2 Sb2 P2 Se1'
_cell_volume   175.03370373
_cell_formula_units_Z   1
loop_
 _symmetry_equiv_pos_site_id
 _symmetry_equiv_pos_as_xyz
  1  'x, y, z'
loop_
 _atom_site_type_symbol
 _atom_site_label
 _atom_site_symmetry_multiplicity
 _atom_site_fract_x
 _atom_site_fract_y
 _atom_site_fract_z
 _atom_site_occupancy
  Se  Se0  1  0.00000000  0.00000000  0.00000000  1
  P  P1  1  0.33300000  0.66700000  0.25000000  1
  P  P2  1  0.66700000  0.33300000  0.50000000  1
  Li  Li3  1  0.00000000  0.00000000  0.75000000  1
  Li  Li4  1  0.98890132  0.65731130  0.58715445  1
  Sb  Sb5  1  0.54710391  0.41467350  0.01722423  1
  Sb  Sb6  1  0.67659666  0.54825937  0.44155594  1
