# generated using pymatgen
data_LiF
_symmetry_space_group_name_H-M   'P 1'
_cell_length_a   5.97988387
_cell_length_b   5.97988387
_cell_length_c   17.53210995
_cell_angle_alpha   90.00000000
_cell_angle_beta   90.00000000
_cell_angle_gamma   120.00000000
_symmetry_Int_Tables_number   1
_chemical_formula_structural   LiF
_chemical_formula_sum   'Li32 F32'
_cell_volume   542.93809814
_cell_formula_units_Z   32
loop_
 _symmetry_equiv_pos_site_id
 _symmetry_equiv_pos_as_xyz
  1  'x, y, z'
loop_
 _atom_site_type_symbol
 _atom_site_label
 _atom_site_symmetry_multiplicity
 _atom_site_fract_x
 _atom_site_fract_y
 _atom_site_fract_z
 _atom_site_occupancy
  F  F0  1  0.76655459  0.23344541  0.50000000  1
  F  F1  1  0.76655459  0.53310917  0.50000000  1
  F  F2  1  0.46689083  0.23344541  0.50000000  1
  F  F3  1  0.51888865  0.99829272  0.03459970  1
  F  F4  1  0.00170728  0.52059594  0.03459970  1
  F  F5  1  0.47940406  0.48111135  0.03459970  1
  F  F6  1  0.00170728  0.48111135  0.96540030  1
  F  F7  1  0.47940406  0.99829272  0.96540030  1
  F  F8  1  0.51888865  0.52059594  0.96540030  1
  F  F9  1  0.24337266  0.17432624  0.88456418  1
  F  F10  1  0.82567376  0.06904642  0.88456418  1
  F  F11  1  0.93095358  0.75662734  0.88456418  1
  F  F12  1  0.82567376  0.75662734  0.11543582  1
  F  F13  1  0.93095358  0.17432624  0.11543582  1
  F  F14  1  0.24337266  0.06904642  0.11543582  1
  F  F15  1  0.57498402  0.00350137  0.38508722  1
  F  F16  1  0.99649863  0.57148265  0.38508722  1
  F  F17  1  0.42851735  0.42501598  0.38508722  1
  F  F18  1  0.99649863  0.42501598  0.61491278  1
  F  F19  1  0.42851735  0.00350137  0.61491278  1
  F  F20  1  0.57498402  0.57148265  0.61491278  1
  F  F21  1  0.48950152  0.01140402  0.90998819  1
  F  F22  1  0.98859598  0.47809750  0.90998819  1
  F  F23  1  0.52190250  0.51049848  0.90998819  1
  F  F24  1  0.98859598  0.51049848  0.09001181  1
  F  F25  1  0.52190250  0.01140402  0.09001181  1
  F  F26  1  0.48950152  0.47809750  0.09001181  1
  F  F27  1  0.77032215  0.22967785  0.00000000  1
  F  F28  1  0.77032215  0.54064431  0.00000000  1
  F  F29  1  0.45935569  0.22967785  -0.00000000  1
  F  F30  1  0.00000000  0.00000000  0.67143149  1
  F  F31  1  0.00000000  0.00000000  0.32856851  1
  Li  Li32  1  0.29558114  0.42633490  0.45672566  1
  Li  Li33  1  -0.42633490  -0.13075376  0.45672566  1
  Li  Li34  1  0.13075376  -0.29558114  0.45672566  1
  Li  Li35  1  -0.42633490  -0.29558114  -0.45672566  1
  Li  Li36  1  0.13075376  0.42633490  -0.45672566  1
  Li  Li37  1  0.29558114  -0.13075376  -0.45672566  1
  Li  Li38  1  0.34533614  0.86939912  0.10574599  1
  Li  Li39  1  0.13060088  0.47593703  0.10574599  1
  Li  Li40  1  0.52406297  0.65466386  0.10574599  1
  Li  Li41  1  0.13060088  0.65466386  0.89425401  1
  Li  Li42  1  0.52406297  0.86939912  0.89425401  1
  Li  Li43  1  0.34533614  0.47593703  0.89425401  1
  Li  Li44  1  0.64679029  0.11388857  0.44321695  1
  Li  Li45  1  0.88611143  0.53290171  0.44321695  1
  Li  Li46  1  0.46709829  0.35320971  0.44321695  1
  Li  Li47  1  0.88611143  0.35320971  0.55678305  1
  Li  Li48  1  0.46709829  0.11388857  0.55678305  1
  Li  Li49  1  0.64679029  0.53290171  0.55678305  1
  Li  Li50  1  0.61932939  0.96597794  0.12772302  1
  Li  Li51  1  0.03402206  0.65335145  0.12772302  1
  Li  Li52  1  0.34664855  0.38067061  0.12772302  1
  Li  Li53  1  0.03402206  0.38067061  0.87227698  1
  Li  Li54  1  0.34664855  0.96597794  0.87227698  1
  Li  Li55  1  0.61932939  0.65335145  0.87227698  1
  Li  Li56  1  0.33333333  0.66666667  0.50000000  1
  Li  Li57  1  0.66504312  0.79636502  0.73240530  1
  Li  Li58  1  0.20363498  0.86867809  0.73240530  1
  Li  Li59  1  0.13132191  0.33495688  0.73240530  1
  Li  Li60  1  0.20363498  0.33495688  0.26759470  1
  Li  Li61  1  0.13132191  0.79636502  0.26759470  1
  Li  Li62  1  0.66504312  0.86867809  0.26759470  1
  Li  Li63  1  0.66666667  0.33333333  0.00000000  1
