# generated using pymatgen
data_LiF
_symmetry_space_group_name_H-M   'P 1'
_cell_length_a   10.07158961
_cell_length_b   8.84082335
_cell_length_c   10.61686552
_cell_angle_alpha   90.00000000
_cell_angle_beta   90.00000000
_cell_angle_gamma   90.00000000
_symmetry_Int_Tables_number   1
_chemical_formula_structural   LiF
_chemical_formula_sum   'Li30 F30'
_cell_volume   945.33785789
_cell_formula_units_Z   30
loop_
 _symmetry_equiv_pos_site_id
 _symmetry_equiv_pos_as_xyz
  1  'x, y, z'
loop_
 _atom_site_type_symbol
 _atom_site_label
 _atom_site_symmetry_multiplicity
 _atom_site_fract_x
 _atom_site_fract_y
 _atom_site_fract_z
 _atom_site_occupancy
  F  F0  1  0.00000000  0.00000000  0.50000000  1
  F  F1  1  0.50000000  0.50000000  0.50000000  1
  F  F2  1  0.05925848  0.82025309  0.77960769  1
  F  F3  1  -0.05925848  -0.82025309  0.77960769  1
  F  F4  1  0.44074152  1.32025309  -0.77960769  1
  F  F5  1  0.55925848  -0.32025309  -0.77960769  1
  F  F6  1  -0.05925848  -0.82025309  -0.77960769  1
  F  F7  1  0.05925848  0.82025309  -0.77960769  1
  F  F8  1  0.55925848  -0.32025309  0.77960769  1
  F  F9  1  0.44074152  1.32025309  0.77960769  1
  F  F10  1  0.00000000  0.50000000  0.50000000  1
  F  F11  1  0.50000000  0.00000000  0.50000000  1
  F  F12  1  0.07394975  0.18828494  0.44753002  1
  F  F13  1  0.92605025  0.81171506  0.44753002  1
  F  F14  1  0.42605025  0.68828494  0.55246998  1
  F  F15  1  0.57394975  0.31171506  0.55246998  1
  F  F16  1  0.92605025  0.81171506  0.55246998  1
  F  F17  1  0.07394975  0.18828494  0.55246998  1
  F  F18  1  0.57394975  0.31171506  0.44753002  1
  F  F19  1  0.42605025  0.68828494  0.44753002  1
  F  F20  1  0.25297724  0.69936251  0.80117607  1
  F  F21  1  0.74702276  0.30063749  0.80117607  1
  F  F22  1  0.24702276  0.19936251  0.19882393  1
  F  F23  1  0.75297724  0.80063749  0.19882393  1
  F  F24  1  0.74702276  0.30063749  0.19882393  1
  F  F25  1  0.25297724  0.69936251  0.19882393  1
  F  F26  1  0.75297724  0.80063749  0.80117607  1
  F  F27  1  0.24702276  0.19936251  0.80117607  1
  F  F28  1  0.00000000  0.00000000  0.00000000  1
  F  F29  1  0.50000000  0.50000000  0.00000000  1
  Li  Li30  1  0.00000000  0.50000000  -0.00000000  1
  Li  Li31  1  0.50000000  0.00000000  0.00000000  1
  Li  Li32  1  0.84653646  0.35645896  0.77185131  1
  Li  Li33  1  0.15346354  0.64354104  0.77185131  1
  Li  Li34  1  0.65346354  0.85645896  0.22814869  1
  Li  Li35  1  0.34653646  0.14354104  0.22814869  1
  Li  Li36  1  0.15346354  0.64354104  0.22814869  1
  Li  Li37  1  0.84653646  0.35645896  0.22814869  1
  Li  Li38  1  0.34653646  0.14354104  0.77185131  1
  Li  Li39  1  0.65346354  0.85645896  0.77185131  1
  Li  Li40  1  0.89027023  0.90423482  0.50000000  1
  Li  Li41  1  0.10972977  0.09576518  0.50000000  1
  Li  Li42  1  0.60972977  0.40423482  0.50000000  1
  Li  Li43  1  0.39027023  0.59576518  0.50000000  1
  Li  Li44  1  0.23515223  0.80832610  0.50000000  1
  Li  Li45  1  0.76484777  0.19167390  0.50000000  1
  Li  Li46  1  0.26484777  0.30832610  0.50000000  1
  Li  Li47  1  0.73515223  0.69167390  0.50000000  1
  Li  Li48  1  0.72207197  0.78739394  -0.00000000  1
  Li  Li49  1  0.27792803  0.21260606  0.00000000  1
  Li  Li50  1  0.77792803  0.28739394  -0.00000000  1
  Li  Li51  1  0.22207197  0.71260606  -0.00000000  1
  Li  Li52  1  0.81840168  0.91924522  0.82626406  1
  Li  Li53  1  0.18159832  0.08075478  0.82626406  1
  Li  Li54  1  0.68159832  0.41924522  0.17373594  1
  Li  Li55  1  0.31840168  0.58075478  0.17373594  1
  Li  Li56  1  0.18159832  0.08075478  0.17373594  1
  Li  Li57  1  0.81840168  0.91924522  0.17373594  1
  Li  Li58  1  0.31840168  0.58075478  0.82626406  1
  Li  Li59  1  0.68159832  0.41924522  0.82626406  1
