# generated using pymatgen
data_Li3Ti3P3O2
_symmetry_space_group_name_H-M   'P 1'
_cell_length_a   6.46445512
_cell_length_b   6.22815326
_cell_length_c   8.27608520
_cell_angle_alpha   98.36346682
_cell_angle_beta   100.15379603
_cell_angle_gamma   90.09563032
_symmetry_Int_Tables_number   1
_chemical_formula_structural   Li3Ti3P3O2
_chemical_formula_sum   'Li3 Ti3 P3 O2'
_cell_volume   324.37418301
_cell_formula_units_Z   1
loop_
 _symmetry_equiv_pos_site_id
 _symmetry_equiv_pos_as_xyz
  1  'x, y, z'
loop_
 _atom_site_type_symbol
 _atom_site_label
 _atom_site_symmetry_multiplicity
 _atom_site_fract_x
 _atom_site_fract_y
 _atom_site_fract_z
 _atom_site_occupancy
  P  P0  1  0.00000000  0.00000000  0.00000000  1
  P  P1  1  0.50000000  0.50000000  0.50000000  1
  P  P2  1  0.50000000  0.50000000  0.00000000  1
  Ti  Ti3  1  0.50000000  0.00000000  0.50000000  1
  Ti  Ti4  1  0.00000000  0.50000000  0.50000000  1
  Ti  Ti5  1  0.67752248  0.43331379  0.40611437  1
  O  O6  1  0.85107448  0.34573109  0.49038696  1
  O  O7  1  0.00511870  0.64506164  0.06178735  1
  Li  Li8  1  0.84385876  0.54185962  0.39624679  1
  Li  Li9  1  0.92500723  0.34366151  0.68520290  1
  Li  Li10  1  0.88452744  0.19595930  0.59104324  1
