# generated using pymatgen
data_LiF
_symmetry_space_group_name_H-M   'P 1'
_cell_length_a   7.09280505
_cell_length_b   7.09280505
_cell_length_c   18.64465729
_cell_angle_alpha   90.00000000
_cell_angle_beta   90.00000000
_cell_angle_gamma   120.00000000
_symmetry_Int_Tables_number   1
_chemical_formula_structural   LiF
_chemical_formula_sum   'Li27 F27'
_cell_volume   812.30865978
_cell_formula_units_Z   27
loop_
 _symmetry_equiv_pos_site_id
 _symmetry_equiv_pos_as_xyz
  1  'x, y, z'
loop_
 _atom_site_type_symbol
 _atom_site_label
 _atom_site_symmetry_multiplicity
 _atom_site_fract_x
 _atom_site_fract_y
 _atom_site_fract_z
 _atom_site_occupancy
  F  F0  1  0.18214995  0.34858028  0.07504801  1
  F  F1  1  0.65141972  0.83356967  0.07504801  1
  F  F2  1  0.16643033  0.81785005  0.07504801  1
  F  F3  1  0.18214995  0.34858028  0.92495199  1
  F  F4  1  0.65141972  0.83356967  0.92495199  1
  F  F5  1  0.16643033  0.81785005  0.92495199  1
  F  F6  1  0.34858028  0.18214995  0.92495199  1
  F  F7  1  0.83356967  0.65141972  0.92495199  1
  F  F8  1  0.81785005  0.16643033  0.92495199  1
  F  F9  1  0.34858028  0.18214995  0.07504801  1
  F  F10  1  0.83356967  0.65141972  0.07504801  1
  F  F11  1  0.81785005  0.16643033  0.07504801  1
  F  F12  1  0.79218073  -0.00000000  0.50000000  1
  F  F13  1  0.00000000  0.79218073  0.50000000  1
  F  F14  1  0.20781927  0.20781927  0.50000000  1
  F  F15  1  0.08763389  0.92109817  0.31378305  1
  F  F16  1  0.07890183  0.16653572  0.31378305  1
  F  F17  1  0.83346428  0.91236611  0.31378305  1
  F  F18  1  0.08763389  0.92109817  0.68621695  1
  F  F19  1  0.07890183  0.16653572  0.68621695  1
  F  F20  1  0.83346428  0.91236611  0.68621695  1
  F  F21  1  0.92109817  0.08763389  0.68621695  1
  F  F22  1  0.16653572  0.07890183  0.68621695  1
  F  F23  1  0.91236611  0.83346428  0.68621695  1
  F  F24  1  0.92109817  0.08763389  0.31378305  1
  F  F25  1  0.16653572  0.07890183  0.31378305  1
  F  F26  1  0.91236611  0.83346428  0.31378305  1
  Li  Li27  1  0.74977119  0.00000000  0.03781571  1
  Li  Li28  1  0.00000000  0.74977119  0.03781571  1
  Li  Li29  1  0.25022881  0.25022881  0.03781571  1
  Li  Li30  1  0.74977119  0.00000000  0.96218429  1
  Li  Li31  1  0.00000000  0.74977119  0.96218429  1
  Li  Li32  1  0.25022881  0.25022881  0.96218429  1
  Li  Li33  1  0.33333333  0.66666667  0.50000000  1
  Li  Li34  1  0.66666667  0.33333333  0.50000000  1
  Li  Li35  1  0.83242663  0.37084641  0.86319379  1
  Li  Li36  1  -0.37084641  0.46158022  0.86319379  1
  Li  Li37  1  -0.46158022  -0.83242663  0.86319379  1
  Li  Li38  1  0.83242663  0.37084641  -0.86319379  1
  Li  Li39  1  -0.37084641  0.46158022  -0.86319379  1
  Li  Li40  1  -0.46158022  -0.83242663  -0.86319379  1
  Li  Li41  1  0.37084641  0.83242663  -0.86319379  1
  Li  Li42  1  0.46158022  -0.37084641  -0.86319379  1
  Li  Li43  1  -0.83242663  -0.46158022  -0.86319379  1
  Li  Li44  1  0.37084641  0.83242663  0.86319379  1
  Li  Li45  1  0.46158022  -0.37084641  0.86319379  1
  Li  Li46  1  -0.83242663  -0.46158022  0.86319379  1
  Li  Li47  1  0.33333333  0.66666667  0.00000000  1
  Li  Li48  1  0.66666667  0.33333333  0.00000000  1
  Li  Li49  1  0.33333333  0.66666667  0.29288474  1
  Li  Li50  1  0.33333333  0.66666667  0.70711526  1
  Li  Li51  1  0.66666667  0.33333333  0.70711526  1
  Li  Li52  1  0.66666667  0.33333333  0.29288474  1
  Li  Li53  1  0.00000000  0.00000000  0.00000000  1
