# generated using pymatgen
data_LiF
_symmetry_space_group_name_H-M   'P 1'
_cell_length_a   5.69166511
_cell_length_b   4.64770311
_cell_length_c   7.57910446
_cell_angle_alpha   90.00000000
_cell_angle_beta   90.00000000
_cell_angle_gamma   90.00000000
_symmetry_Int_Tables_number   1
_chemical_formula_structural   LiF
_chemical_formula_sum   'Li14 F14'
_cell_volume   200.49133604
_cell_formula_units_Z   14
loop_
 _symmetry_equiv_pos_site_id
 _symmetry_equiv_pos_as_xyz
  1  'x, y, z'
loop_
 _atom_site_type_symbol
 _atom_site_label
 _atom_site_symmetry_multiplicity
 _atom_site_fract_x
 _atom_site_fract_y
 _atom_site_fract_z
 _atom_site_occupancy
  F  F0  1  0.62735796  0.99448272  0.34269447  1
  F  F1  1  -0.62735796  -0.99448272  0.34269447  1
  F  F2  1  -0.12735796  1.49448272  -0.34269447  1
  F  F3  1  1.12735796  -0.49448272  -0.34269447  1
  F  F4  1  -0.62735796  -0.99448272  -0.34269447  1
  F  F5  1  0.62735796  0.99448272  -0.34269447  1
  F  F6  1  1.12735796  -0.49448272  0.34269447  1
  F  F7  1  -0.12735796  1.49448272  0.34269447  1
  F  F8  1  0.00000000  0.50000000  0.00000000  1
  F  F9  1  0.50000000  0.00000000  0.00000000  1
  F  F10  1  0.00000000  0.50000000  0.50000000  1
  F  F11  1  0.50000000  0.00000000  0.50000000  1
  F  F12  1  0.00000000  0.00000000  0.50000000  1
  F  F13  1  0.50000000  0.50000000  0.50000000  1
  Li  Li14  1  0.00000000  0.00000000  0.00000000  1
  Li  Li15  1  0.50000000  0.50000000  0.00000000  1
  Li  Li16  1  0.12007565  0.13539680  0.13317175  1
  Li  Li17  1  0.87992435  0.86460320  0.13317175  1
  Li  Li18  1  0.37992435  0.63539680  0.86682825  1
  Li  Li19  1  0.62007565  0.36460320  0.86682825  1
  Li  Li20  1  0.87992435  0.86460320  0.86682825  1
  Li  Li21  1  0.12007565  0.13539680  0.86682825  1
  Li  Li22  1  0.62007565  0.36460320  0.13317175  1
  Li  Li23  1  0.37992435  0.63539680  0.13317175  1
  Li  Li24  1  0.55696714  0.75448436  0.50000000  1
  Li  Li25  1  0.44303286  0.24551564  0.50000000  1
  Li  Li26  1  0.94303286  0.25448436  0.50000000  1
  Li  Li27  1  0.05696714  0.74551564  0.50000000  1
