# generated using pymatgen
data_LiF
_symmetry_space_group_name_H-M   'P 1'
_cell_length_a   6.89510970
_cell_length_b   10.59377313
_cell_length_c   9.93891113
_cell_angle_alpha   90.00000000
_cell_angle_beta   90.00000000
_cell_angle_gamma   90.00000000
_symmetry_Int_Tables_number   1
_chemical_formula_structural   LiF
_chemical_formula_sum   'Li24 F24'
_cell_volume   725.99002895
_cell_formula_units_Z   24
loop_
 _symmetry_equiv_pos_site_id
 _symmetry_equiv_pos_as_xyz
  1  'x, y, z'
loop_
 _atom_site_type_symbol
 _atom_site_label
 _atom_site_symmetry_multiplicity
 _atom_site_fract_x
 _atom_site_fract_y
 _atom_site_fract_z
 _atom_site_occupancy
  F  F0  1  0.96753628  0.44962487  0.75146370  1
  F  F1  1  0.53246372  0.55037513  0.25146370  1
  F  F2  1  0.03246372  0.94962487  0.24853630  1
  F  F3  1  0.46753628  0.05037513  0.74853630  1
  F  F4  1  0.03246372  0.55037513  0.24853630  1
  F  F5  1  0.46753628  0.44962487  0.74853630  1
  F  F6  1  0.96753628  0.05037513  0.75146370  1
  F  F7  1  0.53246372  0.94962487  0.25146370  1
  F  F8  1  0.21026678  0.71493875  0.66599665  1
  F  F9  1  0.28973322  0.28506125  0.16599665  1
  F  F10  1  0.78973322  0.21493875  0.33400335  1
  F  F11  1  0.71026678  0.78506125  0.83400335  1
  F  F12  1  0.78973322  0.28506125  0.33400335  1
  F  F13  1  0.71026678  0.71493875  0.83400335  1
  F  F14  1  0.21026678  0.78506125  0.66599665  1
  F  F15  1  0.28973322  0.21493875  0.16599665  1
  F  F16  1  0.90663325  0.81957913  0.79686514  1
  F  F17  1  0.59336675  0.18042087  0.29686514  1
  F  F18  1  0.09336675  0.31957913  0.20313486  1
  F  F19  1  0.40663325  0.68042087  0.70313486  1
  F  F20  1  0.09336675  0.18042087  0.20313486  1
  F  F21  1  0.40663325  0.81957913  0.70313486  1
  F  F22  1  0.90663325  0.68042087  0.79686514  1
  F  F23  1  0.59336675  0.31957913  0.29686514  1
  Li  Li24  1  0.00000000  0.00000000  0.00000000  1
  Li  Li25  1  0.50000000  0.00000000  0.50000000  1
  Li  Li26  1  0.00000000  0.50000000  0.00000000  1
  Li  Li27  1  0.50000000  0.50000000  0.50000000  1
  Li  Li28  1  0.73681828  0.25000000  0.97722328  1
  Li  Li29  1  0.76318172  0.75000000  0.47722328  1
  Li  Li30  1  0.26318172  0.75000000  0.02277672  1
  Li  Li31  1  0.23681828  0.25000000  0.52277672  1
  Li  Li32  1  0.85944516  0.25000000  0.86285900  1
  Li  Li33  1  0.64055484  0.75000000  0.36285900  1
  Li  Li34  1  0.14055484  0.75000000  0.13714100  1
  Li  Li35  1  0.35944516  0.25000000  0.63714100  1
  Li  Li36  1  0.71756755  0.89643017  0.69309302  1
  Li  Li37  1  -0.21756755  -0.89643017  1.19309302  1
  Li  Li38  1  -0.71756755  1.39643017  -0.69309302  1
  Li  Li39  1  1.21756755  -0.39643017  -0.19309302  1
  Li  Li40  1  -0.71756755  -0.89643017  -0.69309302  1
  Li  Li41  1  1.21756755  0.89643017  -0.19309302  1
  Li  Li42  1  0.71756755  -0.39643017  0.69309302  1
  Li  Li43  1  -0.21756755  1.39643017  1.19309302  1
  Li  Li44  1  0.64695888  0.25000000  0.62082843  1
  Li  Li45  1  0.85304112  0.75000000  0.12082843  1
  Li  Li46  1  0.35304112  0.75000000  0.37917157  1
  Li  Li47  1  0.14695888  0.25000000  0.87917157  1
