# generated using pymatgen
data_Li2YAs2P3
_symmetry_space_group_name_H-M   'P 1'
_cell_length_a   5.85999878
_cell_length_b   5.76892079
_cell_length_c   7.30138289
_cell_angle_alpha   94.14273755
_cell_angle_beta   98.42313416
_cell_angle_gamma   103.72933365
_symmetry_Int_Tables_number   1
_chemical_formula_structural   Li2YAs2P3
_chemical_formula_sum   'Li2 Y1 As2 P3'
_cell_volume   235.71552783
_cell_formula_units_Z   1
loop_
 _symmetry_equiv_pos_site_id
 _symmetry_equiv_pos_as_xyz
  1  'x, y, z'
loop_
 _atom_site_type_symbol
 _atom_site_label
 _atom_site_symmetry_multiplicity
 _atom_site_fract_x
 _atom_site_fract_y
 _atom_site_fract_z
 _atom_site_occupancy
  Y  Y0  1  0.12500000  0.12500000  0.12500000  1
  P  P1  1  0.50000000  0.50000000  0.50000000  1
  P  P2  1  0.25000000  0.25000000  0.25000000  1
  P  P3  1  0.75000000  0.75000000  0.75000000  1
  As  As4  1  0.03274281  0.79903599  0.64846150  1
  As  As5  1  0.67546082  0.40862980  0.85008093  1
  Li  Li6  1  0.11742100  0.10930260  0.91392809  1
  Li  Li7  1  0.69537047  0.51147836  0.64392402  1
