# generated using pymatgen
data_LiF
_symmetry_space_group_name_H-M   'P 1'
_cell_length_a   10.23554467
_cell_length_b   10.23554467
_cell_length_c   9.43410932
_cell_angle_alpha   90.00000000
_cell_angle_beta   90.00000000
_cell_angle_gamma   120.00000000
_symmetry_Int_Tables_number   1
_chemical_formula_structural   LiF
_chemical_formula_sum   'Li30 F30'
_cell_volume   855.95996437
_cell_formula_units_Z   30
loop_
 _symmetry_equiv_pos_site_id
 _symmetry_equiv_pos_as_xyz
  1  'x, y, z'
loop_
 _atom_site_type_symbol
 _atom_site_label
 _atom_site_symmetry_multiplicity
 _atom_site_fract_x
 _atom_site_fract_y
 _atom_site_fract_z
 _atom_site_occupancy
  F  F0  1  0.37409714  0.53615727  0.06981122  1
  F  F1  1  0.46384273  0.83793986  0.06981122  1
  F  F2  1  0.16206014  0.62590286  0.06981122  1
  F  F3  1  0.46384273  0.62590286  0.93018878  1
  F  F4  1  0.16206014  0.53615727  0.93018878  1
  F  F5  1  0.37409714  0.83793986  0.93018878  1
  F  F6  1  0.33333333  0.66666667  0.29789775  1
  F  F7  1  0.33333333  0.66666667  0.70210225  1
  F  F8  1  0.45208174  0.69780098  0.64915065  1
  F  F9  1  0.30219902  0.75428076  0.64915065  1
  F  F10  1  0.24571924  0.54791826  0.64915065  1
  F  F11  1  0.30219902  0.54791826  0.35084935  1
  F  F12  1  0.24571924  0.69780098  0.35084935  1
  F  F13  1  0.45208174  0.75428076  0.35084935  1
  F  F14  1  0.66666667  0.33333333  0.00000000  1
  F  F15  1  0.32453425  0.02480819  0.19908527  1
  F  F16  1  0.97519181  0.29972606  0.19908527  1
  F  F17  1  0.70027394  0.67546575  0.19908527  1
  F  F18  1  0.97519181  0.67546575  0.80091473  1
  F  F19  1  0.70027394  0.02480819  0.80091473  1
  F  F20  1  0.32453425  0.29972606  0.80091473  1
  F  F21  1  0.04391543  0.10924761  0.81976131  1
  F  F22  1  0.89075239  0.93466782  0.81976131  1
  F  F23  1  0.06533218  0.95608457  0.81976131  1
  F  F24  1  0.89075239  0.95608457  0.18023869  1
  F  F25  1  0.06533218  0.10924761  0.18023869  1
  F  F26  1  0.04391543  0.93466782  0.18023869  1
  F  F27  1  0.82258772  0.17741228  0.00000000  1
  F  F28  1  0.82258772  0.64517544  -0.00000000  1
  F  F29  1  0.35482456  0.17741228  -0.00000000  1
  Li  Li30  1  0.13708657  0.86291343  0.50000000  1
  Li  Li31  1  0.13708657  0.27417313  0.50000000  1
  Li  Li32  1  0.72582687  0.86291343  0.50000000  1
  Li  Li33  1  0.33333333  0.66666667  0.00000000  1
  Li  Li34  1  0.13661459  0.87049200  0.82705843  1
  Li  Li35  1  -0.87049200  -0.73387741  0.82705843  1
  Li  Li36  1  0.73387741  -0.13661459  0.82705843  1
  Li  Li37  1  -0.87049200  -0.13661459  -0.82705843  1
  Li  Li38  1  0.73387741  0.87049200  -0.82705843  1
  Li  Li39  1  0.13661459  -0.73387741  -0.82705843  1
  Li  Li40  1  0.33152323  0.46156915  0.60200183  1
  Li  Li41  1  0.53843085  0.86995408  0.60200183  1
  Li  Li42  1  0.13004592  0.66847677  0.60200183  1
  Li  Li43  1  0.53843085  0.66847677  0.39799817  1
  Li  Li44  1  0.13004592  0.46156915  0.39799817  1
  Li  Li45  1  0.33152323  0.86995408  0.39799817  1
  Li  Li46  1  0.20096247  0.41773102  0.84162973  1
  Li  Li47  1  0.58226898  0.78323145  0.84162973  1
  Li  Li48  1  0.21676855  0.79903753  0.84162973  1
  Li  Li49  1  0.58226898  0.79903753  0.15837027  1
  Li  Li50  1  0.21676855  0.41773102  0.15837027  1
  Li  Li51  1  0.20096247  0.78323145  0.15837027  1
  Li  Li52  1  0.21976974  0.16858504  0.45274755  1
  Li  Li53  1  0.83141496  0.05118470  0.45274755  1
  Li  Li54  1  0.94881530  0.78023026  0.45274755  1
  Li  Li55  1  0.83141496  0.78023026  0.54725245  1
  Li  Li56  1  0.94881530  0.16858504  0.54725245  1
  Li  Li57  1  0.21976974  0.05118470  0.54725245  1
  Li  Li58  1  0.00000000  0.00000000  0.50000000  1
  Li  Li59  1  0.66666667  0.33333333  0.50000000  1
