# generated using pymatgen
data_LiTi2Sb4O
_symmetry_space_group_name_H-M   'P 1'
_cell_length_a   6.21481202
_cell_length_b   6.82420038
_cell_length_c   6.64149761
_cell_angle_alpha   101.75816156
_cell_angle_beta   103.50442395
_cell_angle_gamma   90.85410327
_symmetry_Int_Tables_number   1
_chemical_formula_structural   LiTi2Sb4O
_chemical_formula_sum   'Li1 Ti2 Sb4 O1'
_cell_volume   267.56012668
_cell_formula_units_Z   1
loop_
 _symmetry_equiv_pos_site_id
 _symmetry_equiv_pos_as_xyz
  1  'x, y, z'
loop_
 _atom_site_type_symbol
 _atom_site_label
 _atom_site_symmetry_multiplicity
 _atom_site_fract_x
 _atom_site_fract_y
 _atom_site_fract_z
 _atom_site_occupancy
  Ti  Ti0  1  0.12500000  0.12500000  0.12500000  1
  Ti  Ti1  1  0.50000000  0.50000000  0.50000000  1
  O  O2  1  0.25000000  0.25000000  0.25000000  1
  Li  Li3  1  0.75000000  0.75000000  0.75000000  1
  Sb  Sb4  1  0.20191516  0.20527257  0.85372643  1
  Sb  Sb5  1  0.33414012  0.93427550  0.55935977  1
  Sb  Sb6  1  0.46162563  0.46498819  0.90542948  1
  Sb  Sb7  1  0.26792791  0.96763830  0.22715611  1
