# generated using pymatgen
data_LiY2Cu3P2Se
_symmetry_space_group_name_H-M   'P 1'
_cell_length_a   3.92866659
_cell_length_b   4.22923833
_cell_length_c   6.32164978
_cell_angle_alpha   96.23777854
_cell_angle_beta   101.94739952
_cell_angle_gamma   112.48713734
_symmetry_Int_Tables_number   1
_chemical_formula_structural   LiY2Cu3P2Se
_chemical_formula_sum   'Li1 Y2 Cu3 P2 Se1'
_cell_volume   92.87487342
_cell_formula_units_Z   1
loop_
 _symmetry_equiv_pos_site_id
 _symmetry_equiv_pos_as_xyz
  1  'x, y, z'
loop_
 _atom_site_type_symbol
 _atom_site_label
 _atom_site_symmetry_multiplicity
 _atom_site_fract_x
 _atom_site_fract_y
 _atom_site_fract_z
 _atom_site_occupancy
  P  P0  1  0.12500000  0.00000000  0.25000000  1
  P  P1  1  0.00000000  0.00000000  0.00000000  1
  Se  Se2  1  0.37500000  0.00000000  0.25000000  1
  Li  Li3  1  0.25000000  0.25000000  0.25000000  1
  Y  Y4  1  0.00000000  0.25000000  0.12500000  1
  Y  Y5  1  0.91695796  0.24695115  0.36854263  1
  Cu  Cu6  1  0.29713169  0.89075740  0.09531942  1
  Cu  Cu7  1  0.91642572  0.21507181  0.62353529  1
  Cu  Cu8  1  0.59424823  0.72455198  0.74096465  1
