# generated using pymatgen
data_LiF
_symmetry_space_group_name_H-M   'P 1'
_cell_length_a   6.44284942
_cell_length_b   16.10021516
_cell_length_c   12.24536611
_cell_angle_alpha   90.00000000
_cell_angle_beta   90.00000000
_cell_angle_gamma   90.00000000
_symmetry_Int_Tables_number   1
_chemical_formula_structural   LiF
_chemical_formula_sum   'Li56 F56'
_cell_volume   1270.22727868
_cell_formula_units_Z   56
loop_
 _symmetry_equiv_pos_site_id
 _symmetry_equiv_pos_as_xyz
  1  'x, y, z'
loop_
 _atom_site_type_symbol
 _atom_site_label
 _atom_site_symmetry_multiplicity
 _atom_site_fract_x
 _atom_site_fract_y
 _atom_site_fract_z
 _atom_site_occupancy
  F  F0  1  0.02536176  0.57156110  0.04702426  1
  F  F1  1  0.47463824  0.42843890  0.54702426  1
  F  F2  1  0.97463824  0.07156110  0.95297574  1
  F  F3  1  0.52536176  0.92843890  0.45297574  1
  F  F4  1  0.97463824  0.42843890  0.95297574  1
  F  F5  1  0.52536176  0.57156110  0.45297574  1
  F  F6  1  0.02536176  0.92843890  0.04702426  1
  F  F7  1  0.47463824  0.07156110  0.54702426  1
  F  F8  1  0.64492949  0.25000000  0.08741605  1
  F  F9  1  0.85507051  0.75000000  0.58741605  1
  F  F10  1  0.35507051  0.75000000  0.91258395  1
  F  F11  1  0.14492949  0.25000000  0.41258395  1
  F  F12  1  0.00000000  0.00000000  0.50000000  1
  F  F13  1  0.50000000  -0.00000000  0.00000000  1
  F  F14  1  0.00000000  0.50000000  0.50000000  1
  F  F15  1  0.50000000  0.50000000  0.00000000  1
  F  F16  1  0.83390567  0.92538837  0.50172154  1
  F  F17  1  0.66609433  0.07461163  0.00172154  1
  F  F18  1  0.16609433  0.42538837  0.49827846  1
  F  F19  1  0.33390567  0.57461163  0.99827846  1
  F  F20  1  0.16609433  0.07461163  0.49827846  1
  F  F21  1  0.33390567  0.92538837  0.99827846  1
  F  F22  1  0.83390567  0.57461163  0.50172154  1
  F  F23  1  0.66609433  0.42538837  0.00172154  1
  F  F24  1  0.31628628  0.86214245  0.88643098  1
  F  F25  1  0.18371372  0.13785755  0.38643098  1
  F  F26  1  0.68371372  0.36214245  0.11356902  1
  F  F27  1  0.81628628  0.63785755  0.61356902  1
  F  F28  1  0.68371372  0.13785755  0.11356902  1
  F  F29  1  0.81628628  0.86214245  0.61356902  1
  F  F30  1  0.31628628  0.63785755  0.88643098  1
  F  F31  1  0.18371372  0.36214245  0.38643098  1
  F  F32  1  0.62852951  0.83675722  0.21381919  1
  F  F33  1  0.87147049  0.16324278  0.71381919  1
  F  F34  1  0.37147049  0.33675722  0.78618081  1
  F  F35  1  0.12852951  0.66324278  0.28618081  1
  F  F36  1  0.37147049  0.16324278  0.78618081  1
  F  F37  1  0.12852951  0.83675722  0.28618081  1
  F  F38  1  0.62852951  0.66324278  0.21381919  1
  F  F39  1  0.87147049  0.33675722  0.71381919  1
  F  F40  1  0.58504370  0.80642772  0.08975348  1
  F  F41  1  0.91495630  0.19357228  0.58975348  1
  F  F42  1  0.41495630  0.30642772  0.91024652  1
  F  F43  1  0.08504370  0.69357228  0.41024652  1
  F  F44  1  0.41495630  0.19357228  0.91024652  1
  F  F45  1  0.08504370  0.80642772  0.41024652  1
  F  F46  1  0.58504370  0.69357228  0.08975348  1
  F  F47  1  0.91495630  0.30642772  0.58975348  1
  F  F48  1  0.93654969  0.72535399  0.83911797  1
  F  F49  1  0.56345031  0.27464601  0.33911797  1
  F  F50  1  0.06345031  0.22535399  0.16088203  1
  F  F51  1  0.43654969  0.77464601  0.66088203  1
  F  F52  1  0.06345031  0.27464601  0.16088203  1
  F  F53  1  0.43654969  0.72535399  0.66088203  1
  F  F54  1  0.93654969  0.77464601  0.83911797  1
  F  F55  1  0.56345031  0.22535399  0.33911797  1
  Li  Li56  1  0.76365453  0.51536557  0.87598534  1
  Li  Li57  1  -0.26365453  -0.51536557  1.37598534  1
  Li  Li58  1  -0.76365453  1.01536557  -0.87598534  1
  Li  Li59  1  1.26365453  -0.01536557  -0.37598534  1
  Li  Li60  1  -0.76365453  -0.51536557  -0.87598534  1
  Li  Li61  1  1.26365453  0.51536557  -0.37598534  1
  Li  Li62  1  0.76365453  -0.01536557  0.87598534  1
  Li  Li63  1  -0.26365453  1.01536557  1.37598534  1
  Li  Li64  1  0.00000000  0.00000000  0.00000000  1
  Li  Li65  1  0.50000000  -0.00000000  0.50000000  1
  Li  Li66  1  0.00000000  0.50000000  -0.00000000  1
  Li  Li67  1  0.50000000  0.50000000  0.50000000  1
  Li  Li68  1  0.85954415  0.52344112  0.12997418  1
  Li  Li69  1  0.64045585  0.47655888  0.62997418  1
  Li  Li70  1  0.14045585  0.02344112  0.87002582  1
  Li  Li71  1  0.35954415  0.97655888  0.37002582  1
  Li  Li72  1  0.14045585  0.47655888  0.87002582  1
  Li  Li73  1  0.35954415  0.52344112  0.37002582  1
  Li  Li74  1  0.85954415  0.97655888  0.12997418  1
  Li  Li75  1  0.64045585  0.02344112  0.62997418  1
  Li  Li76  1  0.73342455  0.94519861  0.76382692  1
  Li  Li77  1  0.76657545  0.05480139  0.26382692  1
  Li  Li78  1  0.26657545  0.44519861  0.23617308  1
  Li  Li79  1  0.23342455  0.55480139  0.73617308  1
  Li  Li80  1  0.26657545  0.05480139  0.23617308  1
  Li  Li81  1  0.23342455  0.94519861  0.73617308  1
  Li  Li82  1  0.73342455  0.55480139  0.76382692  1
  Li  Li83  1  0.76657545  0.44519861  0.26382692  1
  Li  Li84  1  0.69001615  0.25000000  0.73582103  1
  Li  Li85  1  0.80998385  0.75000000  0.23582103  1
  Li  Li86  1  0.30998385  0.75000000  0.26417897  1
  Li  Li87  1  0.19001615  0.25000000  0.76417897  1
  Li  Li88  1  0.91256456  0.25000000  0.25657800  1
  Li  Li89  1  0.58743544  0.75000000  0.75657800  1
  Li  Li90  1  0.08743544  0.75000000  0.74342200  1
  Li  Li91  1  0.41256456  0.25000000  0.24342200  1
  Li  Li92  1  0.37268641  0.25000000  0.53526731  1
  Li  Li93  1  0.12731359  0.75000000  0.03526731  1
  Li  Li94  1  0.62731359  0.75000000  0.46473269  1
  Li  Li95  1  0.87268641  0.25000000  0.96473269  1
  Li  Li96  1  0.55039146  0.64198449  0.82736282  1
  Li  Li97  1  0.94960854  0.35801551  0.32736282  1
  Li  Li98  1  0.44960854  0.14198449  0.17263718  1
  Li  Li99  1  0.05039146  0.85801551  0.67263718  1
  Li  Li100  1  0.44960854  0.35801551  0.17263718  1
  Li  Li101  1  0.05039146  0.64198449  0.67263718  1
  Li  Li102  1  0.55039146  0.85801551  0.82736282  1
  Li  Li103  1  0.94960854  0.14198449  0.32736282  1
  Li  Li104  1  0.72488013  0.13336196  0.48235450  1
  Li  Li105  1  0.77511987  0.86663804  0.98235450  1
  Li  Li106  1  0.27511987  0.63336196  0.51764550  1
  Li  Li107  1  0.22488013  0.36663804  0.01764550  1
  Li  Li108  1  0.27511987  0.86663804  0.51764550  1
  Li  Li109  1  0.22488013  0.13336196  0.01764550  1
  Li  Li110  1  0.72488013  0.36663804  0.48235450  1
  Li  Li111  1  0.77511987  0.63336196  0.98235450  1
