# generated using pymatgen
data_LiCaF3
_symmetry_space_group_name_H-M   'P 1'
_cell_length_a   13.19065756
_cell_length_b   13.19065756
_cell_length_c   9.73400406
_cell_angle_alpha   90.00000000
_cell_angle_beta   90.00000000
_cell_angle_gamma   120.00000000
_symmetry_Int_Tables_number   1
_chemical_formula_structural   LiCaF3
_chemical_formula_sum   'Li18 Ca18 F54'
_cell_volume   1466.74645280
_cell_formula_units_Z   18
loop_
 _symmetry_equiv_pos_site_id
 _symmetry_equiv_pos_as_xyz
  1  'x, y, z'
loop_
 _atom_site_type_symbol
 _atom_site_label
 _atom_site_symmetry_multiplicity
 _atom_site_fract_x
 _atom_site_fract_y
 _atom_site_fract_z
 _atom_site_occupancy
  Ca  Ca0  1  0.20786421  0.79213579  -0.00000000  1
  Ca  Ca1  1  0.20786421  0.41572843  0.00000000  1
  Ca  Ca2  1  0.58427157  0.79213579  0.00000000  1
  Ca  Ca3  1  0.00000000  0.00000000  0.50000000  1
  Ca  Ca4  1  0.50373541  0.34480294  0.62628843  1
  Ca  Ca5  1  -0.34480294  0.15893247  0.62628843  1
  Ca  Ca6  1  -0.15893247  -0.50373541  0.62628843  1
  Ca  Ca7  1  -0.34480294  -0.50373541  -0.62628843  1
  Ca  Ca8  1  -0.15893247  0.34480294  -0.62628843  1
  Ca  Ca9  1  0.50373541  0.15893247  -0.62628843  1
  Ca  Ca10  1  0.66666667  0.33333333  0.00000000  1
  Ca  Ca11  1  0.53934881  0.46065119  0.00000000  1
  Ca  Ca12  1  0.53934881  0.07869761  0.00000000  1
  Ca  Ca13  1  0.92130239  0.46065119  0.00000000  1
  Ca  Ca14  1  0.46208829  0.53791171  0.00000000  1
  Ca  Ca15  1  0.46208829  0.92417659  0.00000000  1
  Ca  Ca16  1  0.07582341  0.53791171  0.00000000  1
  Ca  Ca17  1  0.00000000  0.00000000  0.00000000  1
  F  F18  1  0.66666667  0.33333333  0.28709608  1
  F  F19  1  0.66666667  0.33333333  0.71290392  1
  F  F20  1  0.54597141  0.69329593  0.93130635  1
  F  F21  1  0.30670407  0.85267548  0.93130635  1
  F  F22  1  0.14732452  0.45402859  0.93130635  1
  F  F23  1  0.30670407  0.45402859  0.06869365  1
  F  F24  1  0.14732452  0.69329593  0.06869365  1
  F  F25  1  0.54597141  0.85267548  0.06869365  1
  F  F26  1  0.15552348  0.04826066  0.24383119  1
  F  F27  1  0.95173934  0.10726282  0.24383119  1
  F  F28  1  0.89273718  0.84447652  0.24383119  1
  F  F29  1  0.95173934  0.84447652  0.75616881  1
  F  F30  1  0.89273718  0.04826066  0.75616881  1
  F  F31  1  0.15552348  0.10726282  0.75616881  1
  F  F32  1  0.51412489  0.41350052  0.32637602  1
  F  F33  1  0.58649948  0.10062437  0.32637602  1
  F  F34  1  0.89937563  0.48587511  0.32637602  1
  F  F35  1  0.58649948  0.48587511  0.67362398  1
  F  F36  1  0.89937563  0.41350052  0.67362398  1
  F  F37  1  0.51412489  0.10062437  0.67362398  1
  F  F38  1  0.33333333  0.66666667  0.00000000  1
  F  F39  1  0.10983962  0.89016038  0.00000000  1
  F  F40  1  0.10983962  0.21967925  0.00000000  1
  F  F41  1  0.78032075  0.89016038  0.00000000  1
  F  F42  1  0.17877978  0.52772338  0.90914208  1
  F  F43  1  0.47227662  0.65105641  0.90914208  1
  F  F44  1  0.34894359  0.82122022  0.90914208  1
  F  F45  1  0.47227662  0.82122022  0.09085792  1
  F  F46  1  0.34894359  0.52772338  0.09085792  1
  F  F47  1  0.17877978  0.65105641  0.09085792  1
  F  F48  1  0.28141424  0.71858576  0.00000000  1
  F  F49  1  0.28141424  0.56282847  0.00000000  1
  F  F50  1  0.43717153  0.71858576  0.00000000  1
  F  F51  1  0.33333333  0.66666667  0.50000000  1
  F  F52  1  0.85821052  0.81980803  0.62630838  1
  F  F53  1  0.18019197  0.03840249  0.62630838  1
  F  F54  1  0.96159751  0.14178948  0.62630838  1
  F  F55  1  0.18019197  0.14178948  0.37369162  1
  F  F56  1  0.96159751  0.81980803  0.37369162  1
  F  F57  1  0.85821052  0.03840249  0.37369162  1
  F  F58  1  0.73507766  0.22839088  0.96831876  1
  F  F59  1  0.77160912  0.50668678  0.96831876  1
  F  F60  1  0.49331322  0.26492234  0.96831876  1
  F  F61  1  0.77160912  0.26492234  0.03168124  1
  F  F62  1  0.49331322  0.22839088  0.03168124  1
  F  F63  1  0.73507766  0.50668678  0.03168124  1
  F  F64  1  0.05236038  0.17959156  0.19815430  1
  F  F65  1  0.82040844  0.87276882  0.19815430  1
  F  F66  1  0.12723118  0.94763962  0.19815430  1
  F  F67  1  0.82040844  0.94763962  0.80184570  1
  F  F68  1  0.12723118  0.17959156  0.80184570  1
  F  F69  1  0.05236038  0.87276882  0.80184570  1
  F  F70  1  0.00000000  0.00000000  0.13985333  1
  F  F71  1  0.00000000  0.00000000  0.86014667  1
  Li  Li72  1  0.73646726  0.62132028  0.63008258  1
  Li  Li73  1  0.37867972  0.11514698  0.63008258  1
  Li  Li74  1  0.88485302  0.26353274  0.63008258  1
  Li  Li75  1  0.37867972  0.26353274  0.36991742  1
  Li  Li76  1  0.88485302  0.62132028  0.36991742  1
  Li  Li77  1  0.73646726  0.11514698  0.36991742  1
  Li  Li78  1  0.05669924  0.38579237  0.42198661  1
  Li  Li79  1  0.61420763  0.67090687  0.42198661  1
  Li  Li80  1  0.32909313  0.94330076  0.42198661  1
  Li  Li81  1  0.61420763  0.94330076  0.57801339  1
  Li  Li82  1  0.32909313  0.38579237  0.57801339  1
  Li  Li83  1  0.05669924  0.67090687  0.57801339  1
  Li  Li84  1  0.47785897  0.38197032  0.18261501  1
  Li  Li85  1  0.61802968  0.09588865  0.18261501  1
  Li  Li86  1  0.90411135  0.52214103  0.18261501  1
  Li  Li87  1  0.61802968  0.52214103  0.81738499  1
  Li  Li88  1  0.90411135  0.38197032  0.81738499  1
  Li  Li89  1  0.47785897  0.09588865  0.81738499  1
