# generated using pymatgen
data_LiF
_symmetry_space_group_name_H-M   'P 1'
_cell_length_a   19.71814934
_cell_length_b   4.93012233
_cell_length_c   7.81358093
_cell_angle_alpha   90.00000000
_cell_angle_beta   90.00000000
_cell_angle_gamma   90.00000000
_symmetry_Int_Tables_number   1
_chemical_formula_structural   LiF
_chemical_formula_sum   'Li24 F24'
_cell_volume   759.58077159
_cell_formula_units_Z   24
loop_
 _symmetry_equiv_pos_site_id
 _symmetry_equiv_pos_as_xyz
  1  'x, y, z'
loop_
 _atom_site_type_symbol
 _atom_site_label
 _atom_site_symmetry_multiplicity
 _atom_site_fract_x
 _atom_site_fract_y
 _atom_site_fract_z
 _atom_site_occupancy
  F  F0  1  0.65538680  0.51130737  0.87355347  1
  F  F1  1  -0.15538680  -0.51130737  1.37355347  1
  F  F2  1  -0.65538680  1.01130737  -0.87355347  1
  F  F3  1  1.15538680  -0.01130737  -0.37355347  1
  F  F4  1  -0.65538680  -0.51130737  -0.87355347  1
  F  F5  1  1.15538680  0.51130737  -0.37355347  1
  F  F6  1  0.65538680  -0.01130737  0.87355347  1
  F  F7  1  -0.15538680  1.01130737  1.37355347  1
  F  F8  1  0.98764306  0.90720274  0.35175293  1
  F  F9  1  0.51235694  0.09279726  0.85175293  1
  F  F10  1  0.01235694  0.40720274  0.64824707  1
  F  F11  1  0.48764306  0.59279726  0.14824707  1
  F  F12  1  0.01235694  0.09279726  0.64824707  1
  F  F13  1  0.48764306  0.90720274  0.14824707  1
  F  F14  1  0.98764306  0.59279726  0.35175293  1
  F  F15  1  0.51235694  0.40720274  0.85175293  1
  F  F16  1  0.21434575  0.53049321  0.51446989  1
  F  F17  1  0.28565425  0.46950679  0.01446989  1
  F  F18  1  0.78565425  0.03049321  0.48553011  1
  F  F19  1  0.71434575  0.96950679  0.98553011  1
  F  F20  1  0.78565425  0.46950679  0.48553011  1
  F  F21  1  0.71434575  0.53049321  0.98553011  1
  F  F22  1  0.21434575  0.96950679  0.51446989  1
  F  F23  1  0.28565425  0.03049321  0.01446989  1
  Li  Li24  1  0.00000000  0.00000000  0.00000000  1
  Li  Li25  1  0.50000000  0.00000000  0.50000000  1
  Li  Li26  1  0.00000000  0.50000000  0.00000000  1
  Li  Li27  1  0.50000000  0.50000000  0.50000000  1
  Li  Li28  1  0.12955990  0.25000000  0.11778844  1
  Li  Li29  1  0.37044010  0.75000000  0.61778844  1
  Li  Li30  1  0.87044010  0.75000000  0.88221156  1
  Li  Li31  1  0.62955990  0.25000000  0.38221156  1
  Li  Li32  1  0.70204073  0.89816224  0.09220696  1
  Li  Li33  1  0.79795927  0.10183776  0.59220696  1
  Li  Li34  1  0.29795927  0.39816224  0.90779304  1
  Li  Li35  1  0.20204073  0.60183776  0.40779304  1
  Li  Li36  1  0.29795927  0.10183776  0.90779304  1
  Li  Li37  1  0.20204073  0.89816224  0.40779304  1
  Li  Li38  1  0.70204073  0.60183776  0.09220696  1
  Li  Li39  1  0.79795927  0.39816224  0.59220696  1
  Li  Li40  1  0.78027654  0.25000000  0.78063821  1
  Li  Li41  1  0.71972346  0.75000000  0.28063821  1
  Li  Li42  1  0.21972346  0.75000000  0.21936179  1
  Li  Li43  1  0.28027654  0.25000000  0.71936179  1
  Li  Li44  1  0.92169868  0.25000000  0.38090783  1
  Li  Li45  1  0.57830132  0.75000000  0.88090783  1
  Li  Li46  1  0.07830132  0.75000000  0.61909217  1
  Li  Li47  1  0.42169868  0.25000000  0.11909217  1
