# generated using pymatgen
data_LiF
_symmetry_space_group_name_H-M   'P 1'
_cell_length_a   8.22062179
_cell_length_b   4.47201432
_cell_length_c   13.62430833
_cell_angle_alpha   90.00000000
_cell_angle_beta   90.00000000
_cell_angle_gamma   90.00000000
_symmetry_Int_Tables_number   1
_chemical_formula_structural   LiF
_chemical_formula_sum   'Li20 F20'
_cell_volume   500.86688330
_cell_formula_units_Z   20
loop_
 _symmetry_equiv_pos_site_id
 _symmetry_equiv_pos_as_xyz
  1  'x, y, z'
loop_
 _atom_site_type_symbol
 _atom_site_label
 _atom_site_symmetry_multiplicity
 _atom_site_fract_x
 _atom_site_fract_y
 _atom_site_fract_z
 _atom_site_occupancy
  F  F0  1  0.00000000  0.00000000  0.88409535  1
  F  F1  1  0.50000000  0.50000000  0.61590465  1
  F  F2  1  0.00000000  0.00000000  0.11590465  1
  F  F3  1  0.50000000  0.50000000  0.38409535  1
  F  F4  1  0.25145662  0.71007545  0.45622433  1
  F  F5  1  -0.25145662  -0.71007545  0.45622433  1
  F  F6  1  0.24854338  1.21007545  0.04377567  1
  F  F7  1  0.75145662  -0.21007545  0.04377567  1
  F  F8  1  -0.25145662  -0.71007545  -0.45622433  1
  F  F9  1  0.25145662  0.71007545  -0.45622433  1
  F  F10  1  0.75145662  -0.21007545  0.95622433  1
  F  F11  1  0.24854338  1.21007545  0.95622433  1
  F  F12  1  0.00000000  0.50000000  0.50000000  1
  F  F13  1  0.50000000  0.00000000  0.00000000  1
  F  F14  1  0.00000000  0.00000000  0.00000000  1
  F  F15  1  0.50000000  0.50000000  0.50000000  1
  F  F16  1  0.00000000  0.50000000  0.28933675  1
  F  F17  1  0.50000000  0.00000000  0.21066325  1
  F  F18  1  0.00000000  0.50000000  0.71066325  1
  F  F19  1  0.50000000  0.00000000  0.78933675  1
  Li  Li20  1  0.30994961  0.24378367  0.43431566  1
  Li  Li21  1  0.69005039  0.75621633  0.43431566  1
  Li  Li22  1  0.19005039  0.74378367  0.06568434  1
  Li  Li23  1  0.80994961  0.25621633  0.06568434  1
  Li  Li24  1  0.69005039  0.75621633  0.56568434  1
  Li  Li25  1  0.30994961  0.24378367  0.56568434  1
  Li  Li26  1  0.80994961  0.25621633  0.93431566  1
  Li  Li27  1  0.19005039  0.74378367  0.93431566  1
  Li  Li28  1  0.74133550  0.21017942  0.34600845  1
  Li  Li29  1  0.25866450  0.78982058  0.34600845  1
  Li  Li30  1  0.75866450  0.71017942  0.15399155  1
  Li  Li31  1  0.24133550  0.28982058  0.15399155  1
  Li  Li32  1  0.25866450  0.78982058  0.65399155  1
  Li  Li33  1  0.74133550  0.21017942  0.65399155  1
  Li  Li34  1  0.24133550  0.28982058  0.84600845  1
  Li  Li35  1  0.75866450  0.71017942  0.84600845  1
  Li  Li36  1  0.00000000  0.50000000  0.13815072  1
  Li  Li37  1  0.50000000  0.00000000  0.36184928  1
  Li  Li38  1  0.00000000  0.50000000  0.86184928  1
  Li  Li39  1  0.50000000  0.00000000  0.63815072  1
