# generated using pymatgen
data_LiYAs2P
_symmetry_space_group_name_H-M   'P 1'
_cell_length_a   4.15857829
_cell_length_b   4.37316135
_cell_length_c   6.74886048
_cell_angle_alpha   96.28824774
_cell_angle_beta   103.69449628
_cell_angle_gamma   115.25739197
_symmetry_Int_Tables_number   1
_chemical_formula_structural   LiYAs2P
_chemical_formula_sum   'Li2 Y2 As4 P2'
_cell_volume   104.70482726
_cell_formula_units_Z   2
loop_
 _symmetry_equiv_pos_site_id
 _symmetry_equiv_pos_as_xyz
  1  'x, y, z'
loop_
 _atom_site_type_symbol
 _atom_site_label
 _atom_site_symmetry_multiplicity
 _atom_site_fract_x
 _atom_site_fract_y
 _atom_site_fract_z
 _atom_site_occupancy
  P  P0  1  0.12500000  0.00000000  0.25000000  1
  P  P1  1  0.00000000  0.00000000  0.00000000  1
  As  As2  1  0.37500000  0.00000000  0.25000000  1
  As  As3  1  0.25000000  0.25000000  0.25000000  1
  As  As4  1  0.00000000  0.25000000  0.12500000  1
  As  As5  1  0.46581167  0.38081558  0.89758519  1
  Li  Li6  1  0.88879564  0.59970662  0.55670272  1
  Li  Li7  1  0.81141012  0.92502558  0.51132336  1
  Y  Y8  1  0.65289622  0.33384643  0.43438988  1
  Y  Y9  1  0.01535645  0.11976746  0.88033736  1
