# generated using pymatgen
data_Li4TeF2
_symmetry_space_group_name_H-M   'P 1'
_cell_length_a   15.30910351
_cell_length_b   15.30910351
_cell_length_c   15.30910351
_cell_angle_alpha   90.00000000
_cell_angle_beta   90.00000000
_cell_angle_gamma   90.00000000
_symmetry_Int_Tables_number   1
_chemical_formula_structural   Li4TeF2
_chemical_formula_sum   'Li96 Te24 F48'
_cell_volume   3587.97392665
_cell_formula_units_Z   24
loop_
 _symmetry_equiv_pos_site_id
 _symmetry_equiv_pos_as_xyz
  1  'x, y, z'
loop_
 _atom_site_type_symbol
 _atom_site_label
 _atom_site_symmetry_multiplicity
 _atom_site_fract_x
 _atom_site_fract_y
 _atom_site_fract_z
 _atom_site_occupancy
  F  F0  1  0.52258921  0.53553816  0.79071308  1
  F  F1  1  -0.02258921  -0.53553816  1.29071308  1
  F  F2  1  -0.52258921  1.03553816  -0.29071308  1
  F  F3  1  1.02258921  -0.03553816  -0.79071308  1
  F  F4  1  0.79071308  0.52258921  0.53553816  1
  F  F5  1  1.29071308  -0.02258921  -0.53553816  1
  F  F6  1  -0.29071308  -0.52258921  1.03553816  1
  F  F7  1  -0.79071308  1.02258921  -0.03553816  1
  F  F8  1  0.53553816  0.79071308  0.52258921  1
  F  F9  1  -0.53553816  1.29071308  -0.02258921  1
  F  F10  1  1.03553816  -0.29071308  -0.52258921  1
  F  F11  1  -0.03553816  -0.79071308  1.02258921  1
  F  F12  1  1.28553816  0.77258921  -0.54071308  1
  F  F13  1  0.21446184  0.22741079  -0.04071308  1
  F  F14  1  0.78553816  -0.27258921  1.54071308  1
  F  F15  1  -0.28553816  1.27258921  1.04071308  1
  F  F16  1  1.27258921  1.04071308  -0.28553816  1
  F  F17  1  -0.27258921  1.54071308  0.78553816  1
  F  F18  1  0.22741079  -0.04071308  0.21446184  1
  F  F19  1  0.77258921  -0.54071308  1.28553816  1
  F  F20  1  1.54071308  0.78553816  -0.27258921  1
  F  F21  1  1.04071308  -0.28553816  1.27258921  1
  F  F22  1  -0.54071308  1.28553816  0.77258921  1
  F  F23  1  -0.04071308  0.21446184  0.22741079  1
  F  F24  1  1.02258921  1.03553816  1.29071308  1
  F  F25  1  0.47741079  -0.03553816  1.79071308  1
  F  F26  1  -0.02258921  1.53553816  0.20928692  1
  F  F27  1  1.52258921  0.46446184  -0.29071308  1
  F  F28  1  1.29071308  1.02258921  1.03553816  1
  F  F29  1  1.79071308  0.47741079  -0.03553816  1
  F  F30  1  0.20928692  -0.02258921  1.53553816  1
  F  F31  1  -0.29071308  1.52258921  0.46446184  1
  F  F32  1  1.03553816  1.29071308  1.02258921  1
  F  F33  1  -0.03553816  1.79071308  0.47741079  1
  F  F34  1  1.53553816  0.20928692  -0.02258921  1
  F  F35  1  0.46446184  -0.29071308  1.52258921  1
  F  F36  1  1.78553816  1.27258921  -0.04071308  1
  F  F37  1  0.71446184  0.72741079  0.45928692  1
  F  F38  1  1.28553816  0.22741079  2.04071308  1
  F  F39  1  0.21446184  1.77258921  1.54071308  1
  F  F40  1  1.77258921  1.54071308  0.21446184  1
  F  F41  1  0.22741079  2.04071308  1.28553816  1
  F  F42  1  0.72741079  0.45928692  0.71446184  1
  F  F43  1  1.27258921  -0.04071308  1.78553816  1
  F  F44  1  2.04071308  1.28553816  0.22741079  1
  F  F45  1  1.54071308  0.21446184  1.77258921  1
  F  F46  1  -0.04071308  1.78553816  1.27258921  1
  F  F47  1  0.45928692  0.71446184  0.72741079  1
  Li  Li48  1  0.75799897  0.74026531  0.17206420  1
  Li  Li49  1  0.74200103  0.25973469  0.67206420  1
  Li  Li50  1  0.24200103  0.24026531  0.32793580  1
  Li  Li51  1  0.25799897  0.75973469  0.82793580  1
  Li  Li52  1  0.17206420  0.75799897  0.74026531  1
  Li  Li53  1  0.67206420  0.74200103  0.25973469  1
  Li  Li54  1  0.32793580  0.24200103  0.24026531  1
  Li  Li55  1  0.82793580  0.25799897  0.75973469  1
  Li  Li56  1  0.74026531  0.17206420  0.75799897  1
  Li  Li57  1  0.25973469  0.67206420  0.74200103  1
  Li  Li58  1  0.24026531  0.32793580  0.24200103  1
  Li  Li59  1  0.75973469  0.82793580  0.25799897  1
  Li  Li60  1  0.49026531  0.00799897  0.07793580  1
  Li  Li61  1  0.00973469  0.99200103  0.57793580  1
  Li  Li62  1  0.99026531  0.49200103  0.92206420  1
  Li  Li63  1  0.50973469  0.50799897  0.42206420  1
  Li  Li64  1  0.50799897  0.42206420  0.50973469  1
  Li  Li65  1  0.49200103  0.92206420  0.99026531  1
  Li  Li66  1  0.99200103  0.57793580  0.00973469  1
  Li  Li67  1  0.00799897  0.07793580  0.49026531  1
  Li  Li68  1  0.92206420  0.99026531  0.49200103  1
  Li  Li69  1  0.42206420  0.50973469  0.50799897  1
  Li  Li70  1  0.07793580  0.49026531  0.00799897  1
  Li  Li71  1  0.57793580  0.00973469  0.99200103  1
  Li  Li72  1  0.25799897  0.24026531  0.67206420  1
  Li  Li73  1  0.24200103  0.75973469  0.17206420  1
  Li  Li74  1  0.74200103  0.74026531  0.82793580  1
  Li  Li75  1  0.75799897  0.25973469  0.32793580  1
  Li  Li76  1  0.67206420  0.25799897  0.24026531  1
  Li  Li77  1  0.17206420  0.24200103  0.75973469  1
  Li  Li78  1  0.82793580  0.74200103  0.74026531  1
  Li  Li79  1  0.32793580  0.75799897  0.25973469  1
  Li  Li80  1  0.24026531  0.67206420  0.25799897  1
  Li  Li81  1  0.75973469  0.17206420  0.24200103  1
  Li  Li82  1  0.74026531  0.82793580  0.74200103  1
  Li  Li83  1  0.25973469  0.32793580  0.75799897  1
  Li  Li84  1  0.99026531  0.50799897  0.57793580  1
  Li  Li85  1  0.50973469  0.49200103  0.07793580  1
  Li  Li86  1  0.49026531  0.99200103  0.42206420  1
  Li  Li87  1  0.00973469  0.00799897  0.92206420  1
  Li  Li88  1  0.00799897  0.92206420  0.00973469  1
  Li  Li89  1  0.99200103  0.42206420  0.49026531  1
  Li  Li90  1  0.49200103  0.07793580  0.50973469  1
  Li  Li91  1  0.50799897  0.57793580  0.99026531  1
  Li  Li92  1  0.42206420  0.49026531  0.99200103  1
  Li  Li93  1  0.92206420  0.00973469  0.00799897  1
  Li  Li94  1  0.57793580  0.99026531  0.50799897  1
  Li  Li95  1  0.07793580  0.50973469  0.49200103  1
  Li  Li96  1  0.12500000  0.44979605  0.69979605  1
  Li  Li97  1  0.37500000  0.55020395  0.19979605  1
  Li  Li98  1  0.87500000  0.94979605  0.80020395  1
  Li  Li99  1  0.62500000  0.05020395  0.30020395  1
  Li  Li100  1  0.69979605  0.12500000  0.44979605  1
  Li  Li101  1  0.19979605  0.37500000  0.55020395  1
  Li  Li102  1  0.80020395  0.87500000  0.94979605  1
  Li  Li103  1  0.30020395  0.62500000  0.05020395  1
  Li  Li104  1  0.44979605  0.69979605  0.12500000  1
  Li  Li105  1  0.55020395  0.19979605  0.37500000  1
  Li  Li106  1  0.94979605  0.80020395  0.87500000  1
  Li  Li107  1  0.05020395  0.30020395  0.62500000  1
  Li  Li108  1  0.62500000  0.94979605  0.19979605  1
  Li  Li109  1  0.87500000  0.05020395  0.69979605  1
  Li  Li110  1  0.37500000  0.44979605  0.30020395  1
  Li  Li111  1  0.12500000  0.55020395  0.80020395  1
  Li  Li112  1  0.19979605  0.62500000  0.94979605  1
  Li  Li113  1  0.69979605  0.87500000  0.05020395  1
  Li  Li114  1  0.30020395  0.37500000  0.44979605  1
  Li  Li115  1  0.80020395  0.12500000  0.55020395  1
  Li  Li116  1  0.94979605  0.19979605  0.62500000  1
  Li  Li117  1  0.05020395  0.69979605  0.87500000  1
  Li  Li118  1  0.44979605  0.30020395  0.37500000  1
  Li  Li119  1  0.55020395  0.80020395  0.12500000  1
  Li  Li120  1  0.12500000  0.12500000  0.12500000  1
  Li  Li121  1  0.37500000  0.87500000  0.62500000  1
  Li  Li122  1  0.87500000  0.62500000  0.37500000  1
  Li  Li123  1  0.62500000  0.37500000  0.87500000  1
  Li  Li124  1  0.62500000  0.62500000  0.62500000  1
  Li  Li125  1  0.87500000  0.37500000  0.12500000  1
  Li  Li126  1  0.37500000  0.12500000  0.87500000  1
  Li  Li127  1  0.12500000  0.87500000  0.37500000  1
  Li  Li128  1  0.32728473  0.32728473  0.32728473  1
  Li  Li129  1  0.17271527  0.67271527  0.82728473  1
  Li  Li130  1  0.67271527  0.82728473  0.17271527  1
  Li  Li131  1  0.82728473  0.17271527  0.67271527  1
  Li  Li132  1  0.07728473  0.57728473  0.92271527  1
  Li  Li133  1  0.42271527  0.42271527  0.42271527  1
  Li  Li134  1  0.57728473  0.92271527  0.07728473  1
  Li  Li135  1  0.92271527  0.07728473  0.57728473  1
  Li  Li136  1  0.82728473  0.82728473  0.82728473  1
  Li  Li137  1  0.67271527  0.17271527  0.32728473  1
  Li  Li138  1  0.17271527  0.32728473  0.67271527  1
  Li  Li139  1  0.32728473  0.67271527  0.17271527  1
  Li  Li140  1  0.57728473  0.07728473  0.42271527  1
  Li  Li141  1  0.92271527  0.92271527  0.92271527  1
  Li  Li142  1  0.07728473  0.42271527  0.57728473  1
  Li  Li143  1  0.42271527  0.57728473  0.07728473  1
  Te  Te144  1  0.92737056  0.00000000  0.25000000  1
  Te  Te145  1  0.57262944  0.00000000  0.75000000  1
  Te  Te146  1  0.25000000  0.92737056  0.00000000  1
  Te  Te147  1  0.75000000  0.57262944  0.00000000  1
  Te  Te148  1  0.00000000  0.25000000  0.92737056  1
  Te  Te149  1  0.00000000  0.75000000  0.57262944  1
  Te  Te150  1  0.75000000  0.17737056  0.00000000  1
  Te  Te151  1  0.75000000  0.82262944  0.50000000  1
  Te  Te152  1  0.67737056  0.50000000  0.25000000  1
  Te  Te153  1  0.32262944  -0.00000000  0.25000000  1
  Te  Te154  1  0.00000000  0.25000000  0.32262944  1
  Te  Te155  1  0.50000000  0.25000000  0.67737056  1
  Te  Te156  1  0.42737056  0.50000000  0.75000000  1
  Te  Te157  1  0.07262944  0.50000000  0.25000000  1
  Te  Te158  1  0.75000000  0.42737056  0.50000000  1
  Te  Te159  1  0.25000000  0.07262944  0.50000000  1
  Te  Te160  1  0.50000000  0.75000000  0.42737056  1
  Te  Te161  1  0.50000000  0.25000000  0.07262944  1
  Te  Te162  1  0.25000000  0.67737056  0.50000000  1
  Te  Te163  1  0.25000000  0.32262944  -0.00000000  1
  Te  Te164  1  0.17737056  0.00000000  0.75000000  1
  Te  Te165  1  0.82262944  0.50000000  0.75000000  1
  Te  Te166  1  0.50000000  0.75000000  0.82262944  1
  Te  Te167  1  0.00000000  0.75000000  0.17737056  1
