# generated using pymatgen
data_LiF
_symmetry_space_group_name_H-M   'P 1'
_cell_length_a   7.00840857
_cell_length_b   9.13602650
_cell_length_c   3.44598923
_cell_angle_alpha   90.00000000
_cell_angle_beta   90.00000000
_cell_angle_gamma   90.00000000
_symmetry_Int_Tables_number   1
_chemical_formula_structural   LiF
_chemical_formula_sum   'Li10 F10'
_cell_volume   220.64326673
_cell_formula_units_Z   10
loop_
 _symmetry_equiv_pos_site_id
 _symmetry_equiv_pos_as_xyz
  1  'x, y, z'
loop_
 _atom_site_type_symbol
 _atom_site_label
 _atom_site_symmetry_multiplicity
 _atom_site_fract_x
 _atom_site_fract_y
 _atom_site_fract_z
 _atom_site_occupancy
  F  F0  1  0.09506976  0.34974694  0.00000000  1
  F  F1  1  0.90493024  0.65025306  0.00000000  1
  F  F2  1  0.40493024  0.84974694  0.00000000  1
  F  F3  1  0.59506976  0.15025306  -0.00000000  1
  F  F4  1  0.73787927  0.89496978  0.00000000  1
  F  F5  1  0.26212073  0.10503022  0.00000000  1
  F  F6  1  0.76212073  0.39496978  0.00000000  1
  F  F7  1  0.23787927  0.60503022  0.00000000  1
  F  F8  1  0.00000000  0.50000000  0.00000000  1
  F  F9  1  0.50000000  0.00000000  0.00000000  1
  Li  Li10  1  0.67380121  0.98822452  0.26051442  1
  Li  Li11  1  -0.67380121  -0.98822452  0.26051442  1
  Li  Li12  1  -0.17380121  1.48822452  -0.26051442  1
  Li  Li13  1  1.17380121  -0.48822452  -0.26051442  1
  Li  Li14  1  -0.67380121  -0.98822452  -0.26051442  1
  Li  Li15  1  0.67380121  0.98822452  -0.26051442  1
  Li  Li16  1  1.17380121  -0.48822452  0.26051442  1
  Li  Li17  1  -0.17380121  1.48822452  0.26051442  1
  Li  Li18  1  0.00000000  0.00000000  0.50000000  1
  Li  Li19  1  0.50000000  0.50000000  0.50000000  1
