# generated using pymatgen
data_LiF
_symmetry_space_group_name_H-M   'P 1'
_cell_length_a   6.75293251
_cell_length_b   9.88919236
_cell_length_c   6.79574935
_cell_angle_alpha   90.00000000
_cell_angle_beta   90.00000000
_cell_angle_gamma   90.00000000
_symmetry_Int_Tables_number   1
_chemical_formula_structural   LiF
_chemical_formula_sum   'Li16 F16'
_cell_volume   453.82726723
_cell_formula_units_Z   16
loop_
 _symmetry_equiv_pos_site_id
 _symmetry_equiv_pos_as_xyz
  1  'x, y, z'
loop_
 _atom_site_type_symbol
 _atom_site_label
 _atom_site_symmetry_multiplicity
 _atom_site_fract_x
 _atom_site_fract_y
 _atom_site_fract_z
 _atom_site_occupancy
  F  F0  1  0.16776484  0.90277337  0.00000000  1
  F  F1  1  0.83223516  0.09722663  0.00000000  1
  F  F2  1  0.33223516  0.40277337  0.50000000  1
  F  F3  1  0.66776484  0.59722663  0.50000000  1
  F  F4  1  0.36972985  0.80350867  -0.00000000  1
  F  F5  1  0.63027015  0.19649133  0.00000000  1
  F  F6  1  0.13027015  0.30350867  0.50000000  1
  F  F7  1  0.86972985  0.69649133  0.50000000  1
  F  F8  1  0.04674330  0.36436135  0.06955401  1
  F  F9  1  0.95325670  0.63563865  0.06955401  1
  F  F10  1  0.45325670  0.86436135  0.43044599  1
  F  F11  1  0.54674330  0.13563865  0.43044599  1
  F  F12  1  0.95325670  0.63563865  0.93044599  1
  F  F13  1  0.04674330  0.36436135  0.93044599  1
  F  F14  1  0.54674330  0.13563865  0.56955401  1
  F  F15  1  0.45325670  0.86436135  0.56955401  1
  Li  Li16  1  0.63510170  0.48573314  0.00000000  1
  Li  Li17  1  0.36489830  0.51426686  -0.00000000  1
  Li  Li18  1  0.86489830  0.98573314  0.50000000  1
  Li  Li19  1  0.13510170  0.01426686  0.50000000  1
  Li  Li20  1  0.04874045  0.63306941  0.62877543  1
  Li  Li21  1  -0.04874045  -0.63306941  0.62877543  1
  Li  Li22  1  0.45125955  1.13306941  -0.12877543  1
  Li  Li23  1  0.54874045  -0.13306941  -0.12877543  1
  Li  Li24  1  -0.04874045  -0.63306941  -0.62877543  1
  Li  Li25  1  0.04874045  0.63306941  -0.62877543  1
  Li  Li26  1  0.54874045  -0.13306941  1.12877543  1
  Li  Li27  1  0.45125955  1.13306941  1.12877543  1
  Li  Li28  1  0.00000000  0.00000000  0.66046005  1
  Li  Li29  1  0.50000000  0.50000000  0.83953995  1
  Li  Li30  1  0.00000000  0.00000000  0.33953995  1
  Li  Li31  1  0.50000000  0.50000000  0.16046005  1
