# generated using pymatgen
data_Li2Y2Te4MoP3
_symmetry_space_group_name_H-M   'P 1'
_cell_length_a   5.00655903
_cell_length_b   5.17970957
_cell_length_c   6.97050113
_cell_angle_alpha   94.85967794
_cell_angle_beta   100.58336824
_cell_angle_gamma   109.51939483
_symmetry_Int_Tables_number   1
_chemical_formula_structural   Li2Y2Te4MoP3
_chemical_formula_sum   'Li2 Y2 Te4 Mo1 P3'
_cell_volume   165.38078575
_cell_formula_units_Z   1
loop_
 _symmetry_equiv_pos_site_id
 _symmetry_equiv_pos_as_xyz
  1  'x, y, z'
loop_
 _atom_site_type_symbol
 _atom_site_label
 _atom_site_symmetry_multiplicity
 _atom_site_fract_x
 _atom_site_fract_y
 _atom_site_fract_z
 _atom_site_occupancy
  Y  Y0  1  0.00000000  0.00000000  0.00000000  1
  Y  Y1  1  0.50000000  0.50000000  0.50000000  1
  P  P2  1  0.50000000  0.50000000  0.00000000  1
  P  P3  1  0.50000000  0.00000000  0.50000000  1
  P  P4  1  0.00000000  0.50000000  0.50000000  1
  Mo  Mo5  1  0.31890554  0.59500220  0.53746149  1
  Li  Li6  1  0.78931734  0.40590843  0.44896146  1
  Li  Li7  1  0.88078781  0.04846504  0.18733493  1
  Te  Te8  1  0.66985690  0.64208884  0.95720673  1
  Te  Te9  1  0.98297198  0.02226764  0.62261868  1
  Te  Te10  1  0.00065300  0.83767003  0.58894615  1
  Te  Te11  1  0.90571772  0.87543278  0.59329063  1
