# generated using pymatgen
data_Li2Si4Te3F12
_symmetry_space_group_name_H-M   'P 1'
_cell_length_a   21.04634273
_cell_length_b   4.95036125
_cell_length_c   9.24471031
_cell_angle_alpha   90.00000000
_cell_angle_beta   90.00000000
_cell_angle_gamma   90.00000000
_symmetry_Int_Tables_number   1
_chemical_formula_structural   Li2Si4Te3F12
_chemical_formula_sum   'Li8 Si16 Te12 F48'
_cell_volume   963.17862725
_cell_formula_units_Z   4
loop_
 _symmetry_equiv_pos_site_id
 _symmetry_equiv_pos_as_xyz
  1  'x, y, z'
loop_
 _atom_site_type_symbol
 _atom_site_label
 _atom_site_symmetry_multiplicity
 _atom_site_fract_x
 _atom_site_fract_y
 _atom_site_fract_z
 _atom_site_occupancy
  F  F0  1  0.49500380  0.29822500  0.50000000  1
  F  F1  1  0.50499620  0.70177500  0.50000000  1
  F  F2  1  0.00499620  0.79822500  0.50000000  1
  F  F3  1  0.99500380  0.20177500  0.50000000  1
  F  F4  1  0.74653830  0.33235323  0.70383769  1
  F  F5  1  0.25346170  0.66764677  0.70383769  1
  F  F6  1  0.75346170  0.83235323  0.29616231  1
  F  F7  1  0.24653830  0.16764677  0.29616231  1
  F  F8  1  0.25346170  0.66764677  0.29616231  1
  F  F9  1  0.74653830  0.33235323  0.29616231  1
  F  F10  1  0.24653830  0.16764677  0.70383769  1
  F  F11  1  0.75346170  0.83235323  0.70383769  1
  F  F12  1  0.72286599  0.59893810  0.43785272  1
  F  F13  1  0.27713401  0.40106190  0.43785272  1
  F  F14  1  0.77713401  0.09893810  0.56214728  1
  F  F15  1  0.22286599  0.90106190  0.56214728  1
  F  F16  1  0.27713401  0.40106190  0.56214728  1
  F  F17  1  0.72286599  0.59893810  0.56214728  1
  F  F18  1  0.22286599  0.90106190  0.43785272  1
  F  F19  1  0.77713401  0.09893810  0.43785272  1
  F  F20  1  0.81124298  0.43846984  0.34804081  1
  F  F21  1  0.18875702  0.56153016  0.34804081  1
  F  F22  1  0.68875702  0.93846984  0.65195919  1
  F  F23  1  0.31124298  0.06153016  0.65195919  1
  F  F24  1  0.18875702  0.56153016  0.65195919  1
  F  F25  1  0.81124298  0.43846984  0.65195919  1
  F  F26  1  0.31124298  0.06153016  0.34804081  1
  F  F27  1  0.68875702  0.93846984  0.34804081  1
  F  F28  1  0.74769789  0.78543142  0.50000000  1
  F  F29  1  0.25230211  0.21456858  0.50000000  1
  F  F30  1  0.75230211  0.28543142  0.50000000  1
  F  F31  1  0.24769789  0.71456858  0.50000000  1
  F  F32  1  0.68650088  0.15283084  0.37968156  1
  F  F33  1  0.31349912  0.84716916  0.37968156  1
  F  F34  1  0.81349912  0.65283084  0.62031844  1
  F  F35  1  0.18650088  0.34716916  0.62031844  1
  F  F36  1  0.31349912  0.84716916  0.62031844  1
  F  F37  1  0.68650088  0.15283084  0.62031844  1
  F  F38  1  0.18650088  0.34716916  0.37968156  1
  F  F39  1  0.81349912  0.65283084  0.37968156  1
  F  F40  1  0.75775264  0.92726986  0.54238460  1
  F  F41  1  0.24224736  0.07273014  0.54238460  1
  F  F42  1  0.74224736  0.42726986  0.45761540  1
  F  F43  1  0.25775264  0.57273014  0.45761540  1
  F  F44  1  0.24224736  0.07273014  0.45761540  1
  F  F45  1  0.75775264  0.92726986  0.45761540  1
  F  F46  1  0.25775264  0.57273014  0.54238460  1
  F  F47  1  0.74224736  0.42726986  0.54238460  1
  Li  Li48  1  0.98956246  0.74429196  0.11143423  1
  Li  Li49  1  0.01043754  0.25570804  0.11143423  1
  Li  Li50  1  0.51043754  0.24429196  0.88856577  1
  Li  Li51  1  0.48956246  0.75570804  0.88856577  1
  Li  Li52  1  0.01043754  0.25570804  0.88856577  1
  Li  Li53  1  0.98956246  0.74429196  0.88856577  1
  Li  Li54  1  0.48956246  0.75570804  0.11143423  1
  Li  Li55  1  0.51043754  0.24429196  0.11143423  1
  Si  Si56  1  0.00000000  0.00000000  0.71139190  1
  Si  Si57  1  0.50000000  0.50000000  0.28860810  1
  Si  Si58  1  0.00000000  0.00000000  0.28860810  1
  Si  Si59  1  0.50000000  0.50000000  0.71139190  1
  Si  Si60  1  0.70638662  0.64122111  0.07624783  1
  Si  Si61  1  -0.70638662  -0.64122111  0.07624783  1
  Si  Si62  1  -0.20638662  1.14122111  -0.07624783  1
  Si  Si63  1  1.20638662  -0.14122111  -0.07624783  1
  Si  Si64  1  -0.70638662  -0.64122111  -0.07624783  1
  Si  Si65  1  0.70638662  0.64122111  -0.07624783  1
  Si  Si66  1  1.20638662  -0.14122111  0.07624783  1
  Si  Si67  1  -0.20638662  1.14122111  0.07624783  1
  Si  Si68  1  0.31743897  0.54818820  0.50000000  1
  Si  Si69  1  0.68256103  0.45181180  0.50000000  1
  Si  Si70  1  0.18256103  0.04818820  0.50000000  1
  Si  Si71  1  0.81743897  0.95181180  0.50000000  1
  Te  Te72  1  0.00000000  0.50000000  0.66945192  1
  Te  Te73  1  0.50000000  0.00000000  0.33054808  1
  Te  Te74  1  0.00000000  0.50000000  0.33054808  1
  Te  Te75  1  0.50000000  0.00000000  0.66945192  1
  Te  Te76  1  0.00000000  0.00000000  0.50000000  1
  Te  Te77  1  0.50000000  0.50000000  0.50000000  1
  Te  Te78  1  0.00000000  0.00000000  0.00000000  1
  Te  Te79  1  0.50000000  0.50000000  0.00000000  1
  Te  Te80  1  0.64251862  0.21999341  0.50000000  1
  Te  Te81  1  0.35748138  0.78000659  0.50000000  1
  Te  Te82  1  0.85748138  0.71999341  0.50000000  1
  Te  Te83  1  0.14251862  0.28000659  0.50000000  1
