# generated using pymatgen
data_LiF
_symmetry_space_group_name_H-M   'P 1'
_cell_length_a   8.73205734
_cell_length_b   8.73205734
_cell_length_c   14.46021748
_cell_angle_alpha   90.00000000
_cell_angle_beta   90.00000000
_cell_angle_gamma   120.00000000
_symmetry_Int_Tables_number   1
_chemical_formula_structural   LiF
_chemical_formula_sum   'Li32 F32'
_cell_volume   954.85761041
_cell_formula_units_Z   32
loop_
 _symmetry_equiv_pos_site_id
 _symmetry_equiv_pos_as_xyz
  1  'x, y, z'
loop_
 _atom_site_type_symbol
 _atom_site_label
 _atom_site_symmetry_multiplicity
 _atom_site_fract_x
 _atom_site_fract_y
 _atom_site_fract_z
 _atom_site_occupancy
  F  F0  1  0.49987641  0.80741108  0.04756824  1
  F  F1  1  0.19258892  0.69246532  0.04756824  1
  F  F2  1  0.30753468  0.50012359  0.04756824  1
  F  F3  1  0.19258892  0.50012359  0.95243176  1
  F  F4  1  0.30753468  0.80741108  0.95243176  1
  F  F5  1  0.49987641  0.69246532  0.95243176  1
  F  F6  1  0.53854396  0.92690655  0.01108731  1
  F  F7  1  0.07309345  0.61163741  0.01108731  1
  F  F8  1  0.38836259  0.46145604  0.01108731  1
  F  F9  1  0.07309345  0.46145604  0.98891269  1
  F  F10  1  0.38836259  0.92690655  0.98891269  1
  F  F11  1  0.53854396  0.61163741  0.98891269  1
  F  F12  1  0.33333333  0.66666667  0.07294419  1
  F  F13  1  0.33333333  0.66666667  0.92705581  1
  F  F14  1  0.00000000  0.00000000  0.50000000  1
  F  F15  1  0.33333333  0.66666667  0.50000000  1
  F  F16  1  0.95068007  0.47698664  0.12831862  1
  F  F17  1  0.52301336  0.47369344  0.12831862  1
  F  F18  1  0.52630656  0.04931993  0.12831862  1
  F  F19  1  0.52301336  0.04931993  0.87168138  1
  F  F20  1  0.52630656  0.47698664  0.87168138  1
  F  F21  1  0.95068007  0.47369344  0.87168138  1
  F  F22  1  0.81954228  0.34233989  0.11901316  1
  F  F23  1  0.65766011  0.47720239  0.11901316  1
  F  F24  1  0.52279761  0.18045772  0.11901316  1
  F  F25  1  0.65766011  0.18045772  0.88098684  1
  F  F26  1  0.52279761  0.34233989  0.88098684  1
  F  F27  1  0.81954228  0.47720239  0.88098684  1
  F  F28  1  0.33333333  0.66666667  0.62890012  1
  F  F29  1  0.33333333  0.66666667  0.37109988  1
  F  F30  1  0.00000000  0.00000000  0.04322102  1
  F  F31  1  0.00000000  0.00000000  0.95677898  1
  Li  Li32  1  0.66666667  0.33333333  0.50000000  1
  Li  Li33  1  0.17366045  0.69594235  0.85172503  1
  Li  Li34  1  -0.69594235  -0.52228190  0.85172503  1
  Li  Li35  1  0.52228190  -0.17366045  0.85172503  1
  Li  Li36  1  -0.69594235  -0.17366045  -0.85172503  1
  Li  Li37  1  0.52228190  0.69594235  -0.85172503  1
  Li  Li38  1  0.17366045  -0.52228190  -0.85172503  1
  Li  Li39  1  0.31952099  0.07804220  0.63829546  1
  Li  Li40  1  0.92195780  0.24147880  0.63829546  1
  Li  Li41  1  0.75852120  0.68047901  0.63829546  1
  Li  Li42  1  0.92195780  0.68047901  0.36170454  1
  Li  Li43  1  0.75852120  0.07804220  0.36170454  1
  Li  Li44  1  0.31952099  0.24147880  0.36170454  1
  Li  Li45  1  0.54345007  0.74352818  0.74156788  1
  Li  Li46  1  0.25647182  0.79992189  0.74156788  1
  Li  Li47  1  0.20007811  0.45654993  0.74156788  1
  Li  Li48  1  0.25647182  0.45654993  0.25843212  1
  Li  Li49  1  0.20007811  0.74352818  0.25843212  1
  Li  Li50  1  0.54345007  0.79992189  0.25843212  1
  Li  Li51  1  0.12495253  0.16365155  0.90426207  1
  Li  Li52  1  0.83634845  0.96130097  0.90426207  1
  Li  Li53  1  0.03869903  0.87504747  0.90426207  1
  Li  Li54  1  0.83634845  0.87504747  0.09573793  1
  Li  Li55  1  0.03869903  0.16365155  0.09573793  1
  Li  Li56  1  0.12495253  0.96130097  0.09573793  1
  Li  Li57  1  0.33333333  0.66666667  0.00000000  1
  Li  Li58  1  0.56965870  0.19722166  0.28324884  1
  Li  Li59  1  0.80277834  0.37243704  0.28324884  1
  Li  Li60  1  0.62756296  0.43034130  0.28324884  1
  Li  Li61  1  0.80277834  0.43034130  0.71675116  1
  Li  Li62  1  0.62756296  0.19722166  0.71675116  1
  Li  Li63  1  0.56965870  0.37243704  0.71675116  1
