# generated using pymatgen
data_LiCaF3
_symmetry_space_group_name_H-M   'P 1'
_cell_length_a   13.59820547
_cell_length_b   13.59820547
_cell_length_c   9.91304712
_cell_angle_alpha   90.00000000
_cell_angle_beta   90.00000000
_cell_angle_gamma   120.00000000
_symmetry_Int_Tables_number   1
_chemical_formula_structural   LiCaF3
_chemical_formula_sum   'Li18 Ca18 F54'
_cell_volume   1587.45345489
_cell_formula_units_Z   18
loop_
 _symmetry_equiv_pos_site_id
 _symmetry_equiv_pos_as_xyz
  1  'x, y, z'
loop_
 _atom_site_type_symbol
 _atom_site_label
 _atom_site_symmetry_multiplicity
 _atom_site_fract_x
 _atom_site_fract_y
 _atom_site_fract_z
 _atom_site_occupancy
  Ca  Ca0  1  0.00000000  0.00000000  0.50000000  1
  Ca  Ca1  1  0.80475926  0.00000000  0.50000000  1
  Ca  Ca2  1  0.00000000  0.80475926  0.50000000  1
  Ca  Ca3  1  0.19524074  0.19524074  0.50000000  1
  Ca  Ca4  1  0.54141117  0.29342301  0.22635995  1
  Ca  Ca5  1  -0.29342301  0.24798817  0.22635995  1
  Ca  Ca6  1  -0.24798817  -0.54141117  0.22635995  1
  Ca  Ca7  1  0.54141117  0.29342301  -0.22635995  1
  Ca  Ca8  1  -0.29342301  0.24798817  -0.22635995  1
  Ca  Ca9  1  -0.24798817  -0.54141117  -0.22635995  1
  Ca  Ca10  1  0.29342301  0.54141117  -0.22635995  1
  Ca  Ca11  1  0.24798817  -0.29342301  -0.22635995  1
  Ca  Ca12  1  -0.54141117  -0.24798817  -0.22635995  1
  Ca  Ca13  1  0.29342301  0.54141117  0.22635995  1
  Ca  Ca14  1  0.24798817  -0.29342301  0.22635995  1
  Ca  Ca15  1  -0.54141117  -0.24798817  0.22635995  1
  Ca  Ca16  1  0.33333333  0.66666667  0.00000000  1
  Ca  Ca17  1  0.66666667  0.33333333  0.00000000  1
  F  F18  1  0.17429332  0.46505243  0.68686611  1
  F  F19  1  0.53494757  0.70924089  0.68686611  1
  F  F20  1  0.29075911  0.82570668  0.68686611  1
  F  F21  1  0.17429332  0.46505243  0.31313389  1
  F  F22  1  0.53494757  0.70924089  0.31313389  1
  F  F23  1  0.29075911  0.82570668  0.31313389  1
  F  F24  1  0.46505243  0.17429332  0.31313389  1
  F  F25  1  0.70924089  0.53494757  0.31313389  1
  F  F26  1  0.82570668  0.29075911  0.31313389  1
  F  F27  1  0.46505243  0.17429332  0.68686611  1
  F  F28  1  0.70924089  0.53494757  0.68686611  1
  F  F29  1  0.82570668  0.29075911  0.68686611  1
  F  F30  1  0.41752417  0.86656891  0.65571374  1
  F  F31  1  0.13343109  0.55095525  0.65571374  1
  F  F32  1  0.44904475  0.58247583  0.65571374  1
  F  F33  1  0.41752417  0.86656891  0.34428626  1
  F  F34  1  0.13343109  0.55095525  0.34428626  1
  F  F35  1  0.44904475  0.58247583  0.34428626  1
  F  F36  1  0.86656891  0.41752417  0.34428626  1
  F  F37  1  0.55095525  0.13343109  0.34428626  1
  F  F38  1  0.58247583  0.44904475  0.34428626  1
  F  F39  1  0.86656891  0.41752417  0.65571374  1
  F  F40  1  0.55095525  0.13343109  0.65571374  1
  F  F41  1  0.58247583  0.44904475  0.65571374  1
  F  F42  1  0.82939606  0.79914109  0.16005419  1
  F  F43  1  0.20085891  0.03025498  0.16005419  1
  F  F44  1  0.96974502  0.17060394  0.16005419  1
  F  F45  1  0.82939606  0.79914109  0.83994581  1
  F  F46  1  0.20085891  0.03025498  0.83994581  1
  F  F47  1  0.96974502  0.17060394  0.83994581  1
  F  F48  1  0.79914109  0.82939606  0.83994581  1
  F  F49  1  0.03025498  0.20085891  0.83994581  1
  F  F50  1  0.17060394  0.96974502  0.83994581  1
  F  F51  1  0.79914109  0.82939606  0.16005419  1
  F  F52  1  0.03025498  0.20085891  0.16005419  1
  F  F53  1  0.17060394  0.96974502  0.16005419  1
  F  F54  1  0.32852355  0.77194376  0.46904373  1
  F  F55  1  0.22805624  0.55657979  0.46904373  1
  F  F56  1  0.44342021  0.67147645  0.46904373  1
  F  F57  1  0.32852355  0.77194376  0.53095627  1
  F  F58  1  0.22805624  0.55657979  0.53095627  1
  F  F59  1  0.44342021  0.67147645  0.53095627  1
  F  F60  1  0.77194376  0.32852355  0.53095627  1
  F  F61  1  0.55657979  0.22805624  0.53095627  1
  F  F62  1  0.67147645  0.44342021  0.53095627  1
  F  F63  1  0.77194376  0.32852355  0.46904373  1
  F  F64  1  0.55657979  0.22805624  0.46904373  1
  F  F65  1  0.67147645  0.44342021  0.46904373  1
  F  F66  1  0.73315986  0.60376852  0.00000000  1
  F  F67  1  0.39623148  0.12939134  0.00000000  1
  F  F68  1  0.87060866  0.26684014  0.00000000  1
  F  F69  1  0.60376852  0.73315986  0.00000000  1
  F  F70  1  0.12939134  0.39623148  0.00000000  1
  F  F71  1  0.26684014  0.87060866  0.00000000  1
  Li  Li72  1  0.33333333  0.66666667  0.50000000  1
  Li  Li73  1  0.66666667  0.33333333  0.50000000  1
  Li  Li74  1  0.40268807  -0.00000000  0.50000000  1
  Li  Li75  1  0.00000000  0.40268807  0.50000000  1
  Li  Li76  1  0.59731193  0.59731193  0.50000000  1
  Li  Li77  1  0.00000000  0.00000000  0.00000000  1
  Li  Li78  1  0.80797436  0.58515210  0.16811653  1
  Li  Li79  1  0.41484790  0.22282225  0.16811653  1
  Li  Li80  1  0.77717775  0.19202564  0.16811653  1
  Li  Li81  1  0.80797436  0.58515210  0.83188347  1
  Li  Li82  1  0.41484790  0.22282225  0.83188347  1
  Li  Li83  1  0.77717775  0.19202564  0.83188347  1
  Li  Li84  1  0.58515210  0.80797436  0.83188347  1
  Li  Li85  1  0.22282225  0.41484790  0.83188347  1
  Li  Li86  1  0.19202564  0.77717775  0.83188347  1
  Li  Li87  1  0.58515210  0.80797436  0.16811653  1
  Li  Li88  1  0.22282225  0.41484790  0.16811653  1
  Li  Li89  1  0.19202564  0.77717775  0.16811653  1
