# generated using pymatgen
data_Li2YMoP3Se2
_symmetry_space_group_name_H-M   'P 1'
_cell_length_a   5.53144511
_cell_length_b   5.60546587
_cell_length_c   7.39345740
_cell_angle_alpha   94.52363231
_cell_angle_beta   99.85153072
_cell_angle_gamma   108.16963310
_symmetry_Int_Tables_number   1
_chemical_formula_structural   Li2YMoP3Se2
_chemical_formula_sum   'Li2 Y1 Mo1 P3 Se2'
_cell_volume   212.45003490
_cell_formula_units_Z   1
loop_
 _symmetry_equiv_pos_site_id
 _symmetry_equiv_pos_as_xyz
  1  'x, y, z'
loop_
 _atom_site_type_symbol
 _atom_site_label
 _atom_site_symmetry_multiplicity
 _atom_site_fract_x
 _atom_site_fract_y
 _atom_site_fract_z
 _atom_site_occupancy
  Se  Se0  1  0.00000000  0.00000000  0.00000000  1
  Se  Se1  1  0.50000000  0.50000000  0.50000000  1
  P  P2  1  0.50000000  0.50000000  0.00000000  1
  P  P3  1  0.50000000  0.00000000  0.50000000  1
  P  P4  1  0.00000000  0.50000000  0.50000000  1
  Mo  Mo5  1  0.40393048  0.61787380  0.78544637  1
  Li  Li6  1  0.56977866  0.43470149  0.65570369  1
  Li  Li7  1  0.71553918  0.52275026  0.21953173  1
  Y  Y8  1  0.11567775  0.13320683  0.10332970  1
