# generated using pymatgen
data_LiF
_symmetry_space_group_name_H-M   'P 1'
_cell_length_a   16.21666903
_cell_length_b   16.21666903
_cell_length_c   3.54397926
_cell_angle_alpha   90.00000000
_cell_angle_beta   90.00000000
_cell_angle_gamma   120.00000000
_symmetry_Int_Tables_number   1
_chemical_formula_structural   LiF
_chemical_formula_sum   'Li25 F25'
_cell_volume   807.13300969
_cell_formula_units_Z   25
loop_
 _symmetry_equiv_pos_site_id
 _symmetry_equiv_pos_as_xyz
  1  'x, y, z'
loop_
 _atom_site_type_symbol
 _atom_site_label
 _atom_site_symmetry_multiplicity
 _atom_site_fract_x
 _atom_site_fract_y
 _atom_site_fract_z
 _atom_site_occupancy
  F  F0  1  0.00000000  0.00000000  0.14191990  1
  F  F1  1  0.00000000  0.00000000  0.85808010  1
  F  F2  1  0.33333333  0.66666667  0.50000000  1
  F  F3  1  0.70409861  0.58537142  0.30719326  1
  F  F4  1  0.41462858  0.11872719  0.30719326  1
  F  F5  1  0.88127281  0.29590139  0.30719326  1
  F  F6  1  0.41462858  0.29590139  0.69280674  1
  F  F7  1  0.88127281  0.58537142  0.69280674  1
  F  F8  1  0.70409861  0.11872719  0.69280674  1
  F  F9  1  0.64893600  0.12087191  0.98999374  1
  F  F10  1  0.87912809  0.52806409  0.98999374  1
  F  F11  1  0.47193591  0.35106400  0.98999374  1
  F  F12  1  0.87912809  0.35106400  0.01000626  1
  F  F13  1  0.47193591  0.12087191  0.01000626  1
  F  F14  1  0.64893600  0.52806409  0.01000626  1
  F  F15  1  0.37838143  0.72034823  0.99770396  1
  F  F16  1  0.27965177  0.65803320  0.99770396  1
  F  F17  1  0.34196680  0.62161857  0.99770396  1
  F  F18  1  0.27965177  0.62161857  0.00229604  1
  F  F19  1  0.34196680  0.72034823  0.00229604  1
  F  F20  1  0.37838143  0.65803320  0.00229604  1
  F  F21  1  0.96596770  0.03403230  0.00000000  1
  F  F22  1  0.96596770  0.93193540  0.00000000  1
  F  F23  1  0.06806460  0.03403230  -0.00000000  1
  F  F24  1  0.66666667  0.33333333  0.50000000  1
  Li  Li25  1  0.69917426  0.70714702  0.37388711  1
  Li  Li26  1  -0.70714702  -0.00797276  0.37388711  1
  Li  Li27  1  0.00797276  -0.69917426  0.37388711  1
  Li  Li28  1  -0.70714702  -0.69917426  -0.37388711  1
  Li  Li29  1  0.00797276  0.70714702  -0.37388711  1
  Li  Li30  1  0.69917426  -0.00797276  -0.37388711  1
  Li  Li31  1  0.97694445  0.51873509  0.73134091  1
  Li  Li32  1  0.48126491  0.45820937  0.73134091  1
  Li  Li33  1  0.54179063  0.02305555  0.73134091  1
  Li  Li34  1  0.48126491  0.02305555  0.26865909  1
  Li  Li35  1  0.54179063  0.51873509  0.26865909  1
  Li  Li36  1  0.97694445  0.45820937  0.26865909  1
  Li  Li37  1  0.90516989  0.00228400  0.65338451  1
  Li  Li38  1  0.99771600  0.90288589  0.65338451  1
  Li  Li39  1  0.09711411  0.09483011  0.65338451  1
  Li  Li40  1  0.99771600  0.09483011  0.34661549  1
  Li  Li41  1  0.09711411  0.00228400  0.34661549  1
  Li  Li42  1  0.90516989  0.90288589  0.34661549  1
  Li  Li43  1  0.00000000  0.00000000  0.50000000  1
  Li  Li44  1  0.40541479  0.91844991  0.65026156  1
  Li  Li45  1  0.08155009  0.48696488  0.65026156  1
  Li  Li46  1  0.51303512  0.59458521  0.65026156  1
  Li  Li47  1  0.08155009  0.59458521  0.34973844  1
  Li  Li48  1  0.51303512  0.91844991  0.34973844  1
  Li  Li49  1  0.40541479  0.48696488  0.34973844  1
