# generated using pymatgen
data_Li3Y2(SbP)2
_symmetry_space_group_name_H-M   'P 1'
_cell_length_a   5.34140242
_cell_length_b   5.39174398
_cell_length_c   7.07884170
_cell_angle_alpha   94.08438756
_cell_angle_beta   98.89494697
_cell_angle_gamma   106.40536151
_symmetry_Int_Tables_number   1
_chemical_formula_structural   Li3Y2(SbP)2
_chemical_formula_sum   'Li3 Y2 Sb2 P2'
_cell_volume   191.78993813
_cell_formula_units_Z   1
loop_
 _symmetry_equiv_pos_site_id
 _symmetry_equiv_pos_as_xyz
  1  'x, y, z'
loop_
 _atom_site_type_symbol
 _atom_site_label
 _atom_site_symmetry_multiplicity
 _atom_site_fract_x
 _atom_site_fract_y
 _atom_site_fract_z
 _atom_site_occupancy
  Y  Y0  1  0.00000000  0.00000000  0.00000000  1
  Y  Y1  1  0.50000000  0.50000000  0.50000000  1
  P  P2  1  0.25000000  0.25000000  0.25000000  1
  P  P3  1  0.75000000  0.25000000  0.00000000  1
  Li  Li4  1  0.25000000  0.75000000  0.50000000  1
  Li  Li5  1  0.10272169  0.65974573  0.21294899  1
  Li  Li6  1  0.82986851  0.50667305  0.49705335  1
  Sb  Sb7  1  0.04113804  0.66407928  0.13701408  1
  Sb  Sb8  1  0.98927813  0.30695515  0.52116395  1
