# generated using pymatgen
data_LiF
_symmetry_space_group_name_H-M   'P 1'
_cell_length_a   7.57278146
_cell_length_b   8.28765338
_cell_length_c   7.99390757
_cell_angle_alpha   90.00000000
_cell_angle_beta   90.00000000
_cell_angle_gamma   90.00000000
_symmetry_Int_Tables_number   1
_chemical_formula_structural   LiF
_chemical_formula_sum   'Li24 F24'
_cell_volume   501.70233863
_cell_formula_units_Z   24
loop_
 _symmetry_equiv_pos_site_id
 _symmetry_equiv_pos_as_xyz
  1  'x, y, z'
loop_
 _atom_site_type_symbol
 _atom_site_label
 _atom_site_symmetry_multiplicity
 _atom_site_fract_x
 _atom_site_fract_y
 _atom_site_fract_z
 _atom_site_occupancy
  F  F0  1  0.67639572  0.09577589  0.83023225  1
  F  F1  1  0.82360428  0.90422411  0.33023225  1
  F  F2  1  0.32360428  0.59577589  0.16976775  1
  F  F3  1  0.17639572  0.40422411  0.66976775  1
  F  F4  1  0.32360428  0.90422411  0.16976775  1
  F  F5  1  0.17639572  0.09577589  0.66976775  1
  F  F6  1  0.67639572  0.40422411  0.83023225  1
  F  F7  1  0.82360428  0.59577589  0.33023225  1
  F  F8  1  0.96141303  0.57794901  0.19374541  1
  F  F9  1  0.53858697  0.42205099  0.69374541  1
  F  F10  1  0.03858697  0.07794901  0.80625459  1
  F  F11  1  0.46141303  0.92205099  0.30625459  1
  F  F12  1  0.03858697  0.42205099  0.80625459  1
  F  F13  1  0.46141303  0.57794901  0.30625459  1
  F  F14  1  0.96141303  0.92205099  0.19374541  1
  F  F15  1  0.53858697  0.07794901  0.69374541  1
  F  F16  1  0.72197137  0.49785088  0.20063549  1
  F  F17  1  0.77802863  0.50214912  0.70063549  1
  F  F18  1  0.27802863  0.99785088  0.79936451  1
  F  F19  1  0.22197137  0.00214912  0.29936451  1
  F  F20  1  0.27802863  0.50214912  0.79936451  1
  F  F21  1  0.22197137  0.49785088  0.29936451  1
  F  F22  1  0.72197137  0.00214912  0.20063549  1
  F  F23  1  0.77802863  0.99785088  0.70063549  1
  Li  Li24  1  0.33545735  0.25000000  0.62309257  1
  Li  Li25  1  0.16454265  0.75000000  0.12309257  1
  Li  Li26  1  0.66454265  0.75000000  0.37690743  1
  Li  Li27  1  0.83545735  0.25000000  0.87690743  1
  Li  Li28  1  0.22674960  0.03542024  0.50349767  1
  Li  Li29  1  0.27325040  -0.03542024  1.00349767  1
  Li  Li30  1  -0.22674960  0.53542024  -0.50349767  1
  Li  Li31  1  0.72674960  0.46457976  -0.00349767  1
  Li  Li32  1  -0.22674960  -0.03542024  -0.50349767  1
  Li  Li33  1  0.72674960  0.03542024  -0.00349767  1
  Li  Li34  1  0.22674960  0.46457976  0.50349767  1
  Li  Li35  1  0.27325040  0.53542024  1.00349767  1
  Li  Li36  1  0.53300286  0.25000000  0.52350224  1
  Li  Li37  1  0.96699714  0.75000000  0.02350224  1
  Li  Li38  1  0.46699714  0.75000000  0.47649776  1
  Li  Li39  1  0.03300286  0.25000000  0.97649776  1
  Li  Li40  1  0.00000000  0.00000000  0.00000000  1
  Li  Li41  1  0.50000000  0.00000000  0.50000000  1
  Li  Li42  1  0.00000000  0.50000000  -0.00000000  1
  Li  Li43  1  0.50000000  0.50000000  0.50000000  1
  Li  Li44  1  0.11784260  0.25000000  0.69604539  1
  Li  Li45  1  0.38215740  0.75000000  0.19604539  1
  Li  Li46  1  0.88215740  0.75000000  0.30395461  1
  Li  Li47  1  0.61784260  0.25000000  0.80395461  1
