# generated using pymatgen
data_LiF
_symmetry_space_group_name_H-M   'P 1'
_cell_length_a   7.24342809
_cell_length_b   6.79768143
_cell_length_c   8.45941068
_cell_angle_alpha   90.00000000
_cell_angle_beta   90.00000000
_cell_angle_gamma   90.00000000
_symmetry_Int_Tables_number   1
_chemical_formula_structural   LiF
_chemical_formula_sum   'Li16 F16'
_cell_volume   416.52883317
_cell_formula_units_Z   16
loop_
 _symmetry_equiv_pos_site_id
 _symmetry_equiv_pos_as_xyz
  1  'x, y, z'
loop_
 _atom_site_type_symbol
 _atom_site_label
 _atom_site_symmetry_multiplicity
 _atom_site_fract_x
 _atom_site_fract_y
 _atom_site_fract_z
 _atom_site_occupancy
  F  F0  1  0.15078251  0.15905810  0.33667096  1
  F  F1  1  -0.15078251  -0.15905810  0.33667096  1
  F  F2  1  0.34921749  0.65905810  0.16332904  1
  F  F3  1  0.65078251  0.34094190  0.16332904  1
  F  F4  1  -0.15078251  -0.15905810  -0.33667096  1
  F  F5  1  0.15078251  0.15905810  -0.33667096  1
  F  F6  1  0.65078251  0.34094190  0.83667096  1
  F  F7  1  0.34921749  0.65905810  0.83667096  1
  F  F8  1  0.00000000  0.00000000  0.50000000  1
  F  F9  1  0.50000000  0.50000000  0.00000000  1
  F  F10  1  0.00000000  0.50000000  0.00000000  1
  F  F11  1  0.50000000  0.00000000  0.50000000  1
  F  F12  1  0.10088287  0.99077443  0.00000000  1
  F  F13  1  0.89911713  0.00922557  0.00000000  1
  F  F14  1  0.39911713  0.49077443  0.50000000  1
  F  F15  1  0.60088287  0.50922557  0.50000000  1
  Li  Li16  1  0.83192745  0.26058655  0.73108733  1
  Li  Li17  1  0.16807255  0.73941345  0.73108733  1
  Li  Li18  1  0.66807255  0.76058655  0.76891267  1
  Li  Li19  1  0.33192745  0.23941345  0.76891267  1
  Li  Li20  1  0.16807255  0.73941345  0.26891267  1
  Li  Li21  1  0.83192745  0.26058655  0.26891267  1
  Li  Li22  1  0.33192745  0.23941345  0.23108733  1
  Li  Li23  1  0.66807255  0.76058655  0.23108733  1
  Li  Li24  1  0.27138627  0.10887114  0.00000000  1
  Li  Li25  1  0.72861373  0.89112886  0.00000000  1
  Li  Li26  1  0.22861373  0.60887114  0.50000000  1
  Li  Li27  1  0.77138627  0.39112886  0.50000000  1
  Li  Li28  1  0.46588515  0.85465553  0.00000000  1
  Li  Li29  1  0.53411485  0.14534447  0.00000000  1
  Li  Li30  1  0.03411485  0.35465553  0.50000000  1
  Li  Li31  1  0.96588515  0.64534447  0.50000000  1
