# generated using pymatgen
data_Li2Ca2TiSO4
_symmetry_space_group_name_H-M   'P 1'
_cell_length_a   7.87350338
_cell_length_b   7.87350338
_cell_length_c   21.07636189
_cell_angle_alpha   90.00000000
_cell_angle_beta   90.00000000
_cell_angle_gamma   120.00000000
_symmetry_Int_Tables_number   1
_chemical_formula_structural   Li2Ca2TiSO4
_chemical_formula_sum   'Li12 Ca12 Ti6 S6 O24'
_cell_volume   1131.52020916
_cell_formula_units_Z   6
loop_
 _symmetry_equiv_pos_site_id
 _symmetry_equiv_pos_as_xyz
  1  'x, y, z'
loop_
 _atom_site_type_symbol
 _atom_site_label
 _atom_site_symmetry_multiplicity
 _atom_site_fract_x
 _atom_site_fract_y
 _atom_site_fract_z
 _atom_site_occupancy
  Ca  Ca0  1  0.56294261  0.12588522  0.25000000  1
  Ca  Ca1  1  0.87411478  0.43705739  0.25000000  1
  Ca  Ca2  1  0.56294261  0.43705739  0.25000000  1
  Ca  Ca3  1  0.43705739  0.87411478  0.75000000  1
  Ca  Ca4  1  0.12588522  0.56294261  0.75000000  1
  Ca  Ca5  1  0.43705739  0.56294261  0.75000000  1
  Ca  Ca6  1  0.50000000  0.00000000  -0.00000000  1
  Ca  Ca7  1  0.00000000  0.50000000  -0.00000000  1
  Ca  Ca8  1  0.50000000  0.50000000  -0.00000000  1
  Ca  Ca9  1  0.50000000  0.00000000  0.50000000  1
  Ca  Ca10  1  0.00000000  0.50000000  0.50000000  1
  Ca  Ca11  1  0.50000000  0.50000000  0.50000000  1
  Li  Li12  1  0.00000000  0.00000000  0.37531627  1
  Li  Li13  1  0.00000000  0.00000000  0.87531627  1
  Li  Li14  1  0.00000000  0.00000000  0.62468373  1
  Li  Li15  1  0.00000000  0.00000000  0.12468373  1
  Li  Li16  1  0.20774075  0.41548149  0.25000000  1
  Li  Li17  1  0.58451851  0.79225925  0.25000000  1
  Li  Li18  1  0.20774075  0.79225925  0.25000000  1
  Li  Li19  1  0.79225925  0.58451851  0.75000000  1
  Li  Li20  1  0.41548149  0.20774075  0.75000000  1
  Li  Li21  1  0.79225925  0.20774075  0.75000000  1
  Li  Li22  1  0.33333333  0.66666667  0.25000000  1
  Li  Li23  1  0.66666667  0.33333333  0.75000000  1
  O  O24  1  0.00000000  0.00000000  0.25000000  1
  O  O25  1  0.00000000  0.00000000  0.75000000  1
  O  O26  1  0.33333333  0.66666667  0.84812296  1
  O  O27  1  0.66666667  0.33333333  0.34812296  1
  O  O28  1  0.66666667  0.33333333  0.15187704  1
  O  O29  1  0.33333333  0.66666667  0.65187704  1
  O  O30  1  0.33333333  0.66666667  0.49328639  1
  O  O31  1  0.66666667  0.33333333  0.99328639  1
  O  O32  1  0.66666667  0.33333333  0.50671361  1
  O  O33  1  0.33333333  0.66666667  0.00671361  1
  O  O34  1  0.41773916  0.83547832  0.59737900  1
  O  O35  1  -0.83547832  -0.41773916  0.59737900  1
  O  O36  1  0.41773916  -0.41773916  0.59737900  1
  O  O37  1  -0.41773916  -0.83547832  1.09737900  1
  O  O38  1  0.83547832  0.41773916  1.09737900  1
  O  O39  1  -0.41773916  0.41773916  1.09737900  1
  O  O40  1  0.83547832  0.41773916  -0.59737900  1
  O  O41  1  -0.41773916  -0.83547832  -0.59737900  1
  O  O42  1  -0.41773916  0.41773916  -0.59737900  1
  O  O43  1  -0.83547832  -0.41773916  -0.09737900  1
  O  O44  1  0.41773916  0.83547832  -0.09737900  1
  O  O45  1  0.41773916  -0.41773916  -0.09737900  1
  O  O46  1  0.00000000  0.00000000  0.00000000  1
  O  O47  1  0.00000000  0.00000000  0.50000000  1
  S  S48  1  0.07443871  0.14887743  0.25000000  1
  S  S49  1  0.85112257  0.92556129  0.25000000  1
  S  S50  1  0.07443871  0.92556129  0.25000000  1
  S  S51  1  0.92556129  0.85112257  0.75000000  1
  S  S52  1  0.14887743  0.07443871  0.75000000  1
  S  S53  1  0.92556129  0.07443871  0.75000000  1
  Ti  Ti54  1  0.84182989  0.68365978  0.25000000  1
  Ti  Ti55  1  0.31634022  0.15817011  0.25000000  1
  Ti  Ti56  1  0.84182989  0.15817011  0.25000000  1
  Ti  Ti57  1  0.15817011  0.31634022  0.75000000  1
  Ti  Ti58  1  0.68365978  0.84182989  0.75000000  1
  Ti  Ti59  1  0.15817011  0.84182989  0.75000000  1
