# generated using pymatgen
data_LiF
_symmetry_space_group_name_H-M   'P 1'
_cell_length_a   7.19396829
_cell_length_b   11.15058961
_cell_length_c   4.63976787
_cell_angle_alpha   90.00000000
_cell_angle_beta   90.00000000
_cell_angle_gamma   90.00000000
_symmetry_Int_Tables_number   1
_chemical_formula_structural   LiF
_chemical_formula_sum   'Li14 F14'
_cell_volume   372.18820358
_cell_formula_units_Z   14
loop_
 _symmetry_equiv_pos_site_id
 _symmetry_equiv_pos_as_xyz
  1  'x, y, z'
loop_
 _atom_site_type_symbol
 _atom_site_label
 _atom_site_symmetry_multiplicity
 _atom_site_fract_x
 _atom_site_fract_y
 _atom_site_fract_z
 _atom_site_occupancy
  F  F0  1  0.00000000  0.50000000  0.22879119  1
  F  F1  1  0.50000000  -0.00000000  0.77120881  1
  F  F2  1  0.00000000  0.50000000  0.77120881  1
  F  F3  1  0.50000000  -0.00000000  0.22879119  1
  F  F4  1  0.33958860  0.60331670  0.20004054  1
  F  F5  1  -0.33958860  -0.60331670  0.20004054  1
  F  F6  1  0.16041140  1.10331670  -0.20004054  1
  F  F7  1  0.83958860  -0.10331670  -0.20004054  1
  F  F8  1  -0.33958860  -0.60331670  -0.20004054  1
  F  F9  1  0.33958860  0.60331670  -0.20004054  1
  F  F10  1  0.83958860  -0.10331670  0.20004054  1
  F  F11  1  0.16041140  1.10331670  0.20004054  1
  F  F12  1  0.00000000  0.50000000  0.00000000  1
  F  F13  1  0.50000000  -0.00000000  -0.00000000  1
  Li  Li14  1  0.64385581  0.11865153  -0.00000000  1
  Li  Li15  1  0.35614419  0.88134847  0.00000000  1
  Li  Li16  1  0.85614419  0.61865153  0.00000000  1
  Li  Li17  1  0.14385581  0.38134847  0.00000000  1
  Li  Li18  1  0.00000000  0.50000000  0.50000000  1
  Li  Li19  1  0.50000000  -0.00000000  0.50000000  1
  Li  Li20  1  0.75333379  0.57969969  0.31628935  1
  Li  Li21  1  0.24666621  0.42030031  0.31628935  1
  Li  Li22  1  0.74666621  0.07969969  0.68371065  1
  Li  Li23  1  0.25333379  0.92030031  0.68371065  1
  Li  Li24  1  0.24666621  0.42030031  0.68371065  1
  Li  Li25  1  0.75333379  0.57969969  0.68371065  1
  Li  Li26  1  0.25333379  0.92030031  0.31628935  1
  Li  Li27  1  0.74666621  0.07969969  0.31628935  1
