# generated using pymatgen
data_Li2YP2Se
_symmetry_space_group_name_H-M   'P 1'
_cell_length_a   5.19136365
_cell_length_b   5.25826615
_cell_length_c   6.84529848
_cell_angle_alpha   94.42509674
_cell_angle_beta   98.35019411
_cell_angle_gamma   105.75589562
_symmetry_Int_Tables_number   1
_chemical_formula_structural   Li2YP2Se
_chemical_formula_sum   'Li2 Y1 P2 Se1'
_cell_volume   176.59394513
_cell_formula_units_Z   1
loop_
 _symmetry_equiv_pos_site_id
 _symmetry_equiv_pos_as_xyz
  1  'x, y, z'
loop_
 _atom_site_type_symbol
 _atom_site_label
 _atom_site_symmetry_multiplicity
 _atom_site_fract_x
 _atom_site_fract_y
 _atom_site_fract_z
 _atom_site_occupancy
  Y  Y0  1  0.00000000  0.00000000  0.00000000  1
  P  P1  1  0.50000000  0.50000000  0.50000000  1
  P  P2  1  0.25000000  0.25000000  0.25000000  1
  Se  Se3  1  0.75000000  0.25000000  0.00000000  1
  Li  Li4  1  0.25000000  0.75000000  0.50000000  1
  Li  Li5  1  0.26512759  0.79862930  0.63906119  1
