# generated using pymatgen
data_Li2AlO2
_symmetry_space_group_name_H-M   'P 1'
_cell_length_a   3.45958954
_cell_length_b   3.49421450
_cell_length_c   4.41273431
_cell_angle_alpha   96.78286883
_cell_angle_beta   100.20609235
_cell_angle_gamma   95.34131047
_symmetry_Int_Tables_number   1
_chemical_formula_structural   Li2AlO2
_chemical_formula_sum   'Li2 Al1 O2'
_cell_volume   51.77603664
_cell_formula_units_Z   1
loop_
 _symmetry_equiv_pos_site_id
 _symmetry_equiv_pos_as_xyz
  1  'x, y, z'
loop_
 _atom_site_type_symbol
 _atom_site_label
 _atom_site_symmetry_multiplicity
 _atom_site_fract_x
 _atom_site_fract_y
 _atom_site_fract_z
 _atom_site_occupancy
  Al  Al0  1  0.00000000  0.00000000  0.00000000  1
  Li  Li1  1  0.50000000  0.50000000  0.50000000  1
  Li  Li2  1  0.25000000  0.25000000  0.25000000  1
  O  O3  1  0.75000000  0.25000000  0.00000000  1
  O  O4  1  0.25000000  0.75000000  0.50000000  1
