# generated using pymatgen
data_Li2Y2As3P2Se
_symmetry_space_group_name_H-M   'P 1'
_cell_length_a   5.11969462
_cell_length_b   5.16893208
_cell_length_c   6.93194707
_cell_angle_alpha   94.27284060
_cell_angle_beta   98.77309742
_cell_angle_gamma   106.30321472
_symmetry_Int_Tables_number   1
_chemical_formula_structural   Li2Y2As3P2Se
_chemical_formula_sum   'Li2 Y2 As3 P2 Se1'
_cell_volume   172.67021334
_cell_formula_units_Z   1
loop_
 _symmetry_equiv_pos_site_id
 _symmetry_equiv_pos_as_xyz
  1  'x, y, z'
loop_
 _atom_site_type_symbol
 _atom_site_label
 _atom_site_symmetry_multiplicity
 _atom_site_fract_x
 _atom_site_fract_y
 _atom_site_fract_z
 _atom_site_occupancy
  Se  Se0  1  0.12500000  0.00000000  0.25000000  1
  Y  Y1  1  0.00000000  0.00000000  0.00000000  1
  Y  Y2  1  0.37500000  0.00000000  0.25000000  1
  P  P3  1  0.25000000  0.25000000  0.25000000  1
  P  P4  1  0.00000000  0.25000000  0.12500000  1
  As  As5  1  0.76959560  0.57982587  0.54492032  1
  As  As6  1  0.55232332  0.82496839  0.21731737  1
  As  As7  1  0.03856406  0.05931705  0.87735530  1
  Li  Li8  1  0.05079013  0.38712309  0.69899369  1
  Li  Li9  1  0.07392107  0.91170574  0.58353062  1
