# generated using pymatgen
data_LiF
_symmetry_space_group_name_H-M   'P 1'
_cell_length_a   5.49907999
_cell_length_b   9.60070626
_cell_length_c   5.38098945
_cell_angle_alpha   90.00000000
_cell_angle_beta   90.00000000
_cell_angle_gamma   90.00000000
_symmetry_Int_Tables_number   1
_chemical_formula_structural   LiF
_chemical_formula_sum   'Li14 F14'
_cell_volume   284.08961632
_cell_formula_units_Z   14
loop_
 _symmetry_equiv_pos_site_id
 _symmetry_equiv_pos_as_xyz
  1  'x, y, z'
loop_
 _atom_site_type_symbol
 _atom_site_label
 _atom_site_symmetry_multiplicity
 _atom_site_fract_x
 _atom_site_fract_y
 _atom_site_fract_z
 _atom_site_occupancy
  F  F0  1  0.00000000  0.50000000  0.32237365  1
  F  F1  1  0.50000000  -0.00000000  0.67762635  1
  F  F2  1  0.00000000  0.50000000  0.67762635  1
  F  F3  1  0.50000000  -0.00000000  0.32237365  1
  F  F4  1  0.00000000  0.00000000  0.11980442  1
  F  F5  1  0.50000000  0.50000000  0.88019558  1
  F  F6  1  0.00000000  0.00000000  0.88019558  1
  F  F7  1  0.50000000  0.50000000  0.11980442  1
  F  F8  1  0.12880651  0.71331432  0.00000000  1
  F  F9  1  0.87119349  0.28668568  0.00000000  1
  F  F10  1  0.37119349  0.21331432  0.00000000  1
  F  F11  1  0.62880651  0.78668568  0.00000000  1
  F  F12  1  0.00000000  0.50000000  0.50000000  1
  F  F13  1  0.50000000  -0.00000000  0.50000000  1
  Li  Li14  1  0.20694298  0.36827195  0.76732078  1
  Li  Li15  1  -0.20694298  -0.36827195  0.76732078  1
  Li  Li16  1  0.29305702  0.86827195  -0.76732078  1
  Li  Li17  1  0.70694298  0.13172805  -0.76732078  1
  Li  Li18  1  -0.20694298  -0.36827195  -0.76732078  1
  Li  Li19  1  0.20694298  0.36827195  -0.76732078  1
  Li  Li20  1  0.70694298  0.13172805  0.76732078  1
  Li  Li21  1  0.29305702  0.86827195  0.76732078  1
  Li  Li22  1  0.43706160  0.81738898  0.50000000  1
  Li  Li23  1  0.56293840  0.18261102  0.50000000  1
  Li  Li24  1  0.06293840  0.31738898  0.50000000  1
  Li  Li25  1  0.93706160  0.68261102  0.50000000  1
  Li  Li26  1  0.00000000  0.50000000  0.00000000  1
  Li  Li27  1  0.50000000  -0.00000000  0.00000000  1
