# generated using pymatgen
data_LiF
_symmetry_space_group_name_H-M   'P 1'
_cell_length_a   7.82536777
_cell_length_b   16.69173892
_cell_length_c   10.82906872
_cell_angle_alpha   90.00000000
_cell_angle_beta   90.00000000
_cell_angle_gamma   90.00000000
_symmetry_Int_Tables_number   1
_chemical_formula_structural   LiF
_chemical_formula_sum   'Li54 F54'
_cell_volume   1414.48208281
_cell_formula_units_Z   54
loop_
 _symmetry_equiv_pos_site_id
 _symmetry_equiv_pos_as_xyz
  1  'x, y, z'
loop_
 _atom_site_type_symbol
 _atom_site_label
 _atom_site_symmetry_multiplicity
 _atom_site_fract_x
 _atom_site_fract_y
 _atom_site_fract_z
 _atom_site_occupancy
  F  F0  1  0.86591792  0.41537313  0.50000000  1
  F  F1  1  0.13408208  0.58462687  0.50000000  1
  F  F2  1  0.63408208  0.91537313  0.50000000  1
  F  F3  1  0.36591792  0.08462687  0.50000000  1
  F  F4  1  0.02779555  0.63287130  0.29425106  1
  F  F5  1  0.97220445  0.36712870  0.29425106  1
  F  F6  1  0.47220445  0.13287130  0.70574894  1
  F  F7  1  0.52779555  0.86712870  0.70574894  1
  F  F8  1  0.97220445  0.36712870  0.70574894  1
  F  F9  1  0.02779555  0.63287130  0.70574894  1
  F  F10  1  0.52779555  0.86712870  0.29425106  1
  F  F11  1  0.47220445  0.13287130  0.29425106  1
  F  F12  1  0.08144625  0.43407673  0.37571024  1
  F  F13  1  0.91855375  0.56592327  0.37571024  1
  F  F14  1  0.41855375  0.93407673  0.62428976  1
  F  F15  1  0.58144625  0.06592327  0.62428976  1
  F  F16  1  0.91855375  0.56592327  0.62428976  1
  F  F17  1  0.08144625  0.43407673  0.62428976  1
  F  F18  1  0.58144625  0.06592327  0.37571024  1
  F  F19  1  0.41855375  0.93407673  0.37571024  1
  F  F20  1  0.16863327  0.17797308  0.50000000  1
  F  F21  1  0.83136673  0.82202692  0.50000000  1
  F  F22  1  0.33136673  0.67797308  0.50000000  1
  F  F23  1  0.66863327  0.32202692  0.50000000  1
  F  F24  1  0.69543503  0.88105652  0.05555339  1
  F  F25  1  0.30456497  0.11894348  0.05555339  1
  F  F26  1  0.80456497  0.38105652  0.94444661  1
  F  F27  1  0.19543503  0.61894348  0.94444661  1
  F  F28  1  0.30456497  0.11894348  0.94444661  1
  F  F29  1  0.69543503  0.88105652  0.94444661  1
  F  F30  1  0.19543503  0.61894348  0.05555339  1
  F  F31  1  0.80456497  0.38105652  0.05555339  1
  F  F32  1  0.48469397  0.21474732  0.70970354  1
  F  F33  1  0.51530603  0.78525268  0.70970354  1
  F  F34  1  0.01530603  0.71474732  0.29029646  1
  F  F35  1  0.98469397  0.28525268  0.29029646  1
  F  F36  1  0.51530603  0.78525268  0.29029646  1
  F  F37  1  0.48469397  0.21474732  0.29029646  1
  F  F38  1  0.98469397  0.28525268  0.70970354  1
  F  F39  1  0.01530603  0.71474732  0.70970354  1
  F  F40  1  0.00860284  0.83430346  0.24231474  1
  F  F41  1  0.99139716  0.16569654  0.24231474  1
  F  F42  1  0.49139716  0.33430346  0.75768526  1
  F  F43  1  0.50860284  0.66569654  0.75768526  1
  F  F44  1  0.99139716  0.16569654  0.75768526  1
  F  F45  1  0.00860284  0.83430346  0.75768526  1
  F  F46  1  0.50860284  0.66569654  0.24231474  1
  F  F47  1  0.49139716  0.33430346  0.24231474  1
  F  F48  1  0.53331267  0.37907087  0.50000000  1
  F  F49  1  0.46668733  0.62092913  0.50000000  1
  F  F50  1  0.96668733  0.87907087  0.50000000  1
  F  F51  1  0.03331267  0.12092913  0.50000000  1
  F  F52  1  0.00000000  0.50000000  0.00000000  1
  F  F53  1  0.50000000  -0.00000000  0.00000000  1
  Li  Li54  1  0.52247783  0.33208187  0.85316635  1
  Li  Li55  1  -0.52247783  -0.33208187  0.85316635  1
  Li  Li56  1  -0.02247783  0.83208187  -0.85316635  1
  Li  Li57  1  1.02247783  0.16791813  -0.85316635  1
  Li  Li58  1  -0.52247783  -0.33208187  -0.85316635  1
  Li  Li59  1  0.52247783  0.33208187  -0.85316635  1
  Li  Li60  1  1.02247783  0.16791813  0.85316635  1
  Li  Li61  1  -0.02247783  0.83208187  0.85316635  1
  Li  Li62  1  0.76195100  0.31605242  0.33189280  1
  Li  Li63  1  0.23804900  0.68394758  0.33189280  1
  Li  Li64  1  0.73804900  0.81605242  0.66810720  1
  Li  Li65  1  0.26195100  0.18394758  0.66810720  1
  Li  Li66  1  0.23804900  0.68394758  0.66810720  1
  Li  Li67  1  0.76195100  0.31605242  0.66810720  1
  Li  Li68  1  0.26195100  0.18394758  0.33189280  1
  Li  Li69  1  0.73804900  0.81605242  0.33189280  1
  Li  Li70  1  0.38748240  0.51522049  0.92618525  1
  Li  Li71  1  0.61251760  0.48477951  0.92618525  1
  Li  Li72  1  0.11251760  0.01522049  0.07381475  1
  Li  Li73  1  0.88748240  0.98477951  0.07381475  1
  Li  Li74  1  0.61251760  0.48477951  0.07381475  1
  Li  Li75  1  0.38748240  0.51522049  0.07381475  1
  Li  Li76  1  0.88748240  0.98477951  0.92618525  1
  Li  Li77  1  0.11251760  0.01522049  0.92618525  1
  Li  Li78  1  0.25298551  0.88384272  0.71545845  1
  Li  Li79  1  0.74701449  0.11615728  0.71545845  1
  Li  Li80  1  0.24701449  0.38384272  0.28454155  1
  Li  Li81  1  0.75298551  0.61615728  0.28454155  1
  Li  Li82  1  0.74701449  0.11615728  0.28454155  1
  Li  Li83  1  0.25298551  0.88384272  0.28454155  1
  Li  Li84  1  0.75298551  0.61615728  0.71545845  1
  Li  Li85  1  0.24701449  0.38384272  0.71545845  1
  Li  Li86  1  0.00000000  0.50000000  0.50000000  1
  Li  Li87  1  0.50000000  -0.00000000  0.50000000  1
  Li  Li88  1  0.01302805  0.93312911  0.93473776  1
  Li  Li89  1  0.98697195  0.06687089  0.93473776  1
  Li  Li90  1  0.48697195  0.43312911  0.06526224  1
  Li  Li91  1  0.51302805  0.56687089  0.06526224  1
  Li  Li92  1  0.98697195  0.06687089  0.06526224  1
  Li  Li93  1  0.01302805  0.93312911  0.06526224  1
  Li  Li94  1  0.51302805  0.56687089  0.93473776  1
  Li  Li95  1  0.48697195  0.43312911  0.93473776  1
  Li  Li96  1  0.00000000  0.50000000  0.82163799  1
  Li  Li97  1  0.50000000  -0.00000000  0.17836201  1
  Li  Li98  1  0.00000000  0.50000000  0.17836201  1
  Li  Li99  1  0.50000000  -0.00000000  0.82163799  1
  Li  Li100  1  0.52159109  0.84332942  0.50000000  1
  Li  Li101  1  0.47840891  0.15667058  0.50000000  1
  Li  Li102  1  0.97840891  0.34332942  0.50000000  1
  Li  Li103  1  0.02159109  0.65667058  0.50000000  1
  Li  Li104  1  0.00000000  0.00000000  0.60533484  1
  Li  Li105  1  0.50000000  0.50000000  0.39466516  1
  Li  Li106  1  0.00000000  0.00000000  0.39466516  1
  Li  Li107  1  0.50000000  0.50000000  0.60533484  1
