# generated using pymatgen
data_LiF
_symmetry_space_group_name_H-M   'P 1'
_cell_length_a   6.62788113
_cell_length_b   9.28712054
_cell_length_c   8.38670706
_cell_angle_alpha   90.00000000
_cell_angle_beta   90.00000000
_cell_angle_gamma   90.00000000
_symmetry_Int_Tables_number   1
_chemical_formula_structural   LiF
_chemical_formula_sum   'Li24 F24'
_cell_volume   516.23478761
_cell_formula_units_Z   24
loop_
 _symmetry_equiv_pos_site_id
 _symmetry_equiv_pos_as_xyz
  1  'x, y, z'
loop_
 _atom_site_type_symbol
 _atom_site_label
 _atom_site_symmetry_multiplicity
 _atom_site_fract_x
 _atom_site_fract_y
 _atom_site_fract_z
 _atom_site_occupancy
  F  F0  1  0.33429803  0.25000000  0.55140013  1
  F  F1  1  0.16570197  0.75000000  0.05140013  1
  F  F2  1  0.66570197  0.75000000  0.44859987  1
  F  F3  1  0.83429803  0.25000000  0.94859987  1
  F  F4  1  0.37064510  0.63437199  0.80796115  1
  F  F5  1  0.12935490  0.36562801  0.30796115  1
  F  F6  1  0.62935490  0.13437199  0.19203885  1
  F  F7  1  0.87064510  0.86562801  0.69203885  1
  F  F8  1  0.62935490  0.36562801  0.19203885  1
  F  F9  1  0.87064510  0.63437199  0.69203885  1
  F  F10  1  0.37064510  0.86562801  0.80796115  1
  F  F11  1  0.12935490  0.13437199  0.30796115  1
  F  F12  1  0.43334135  0.99004152  0.32648012  1
  F  F13  1  0.06665865  0.00995848  0.82648012  1
  F  F14  1  0.56665865  0.49004152  0.67351988  1
  F  F15  1  0.93334135  0.50995848  0.17351988  1
  F  F16  1  0.56665865  0.00995848  0.67351988  1
  F  F17  1  0.93334135  0.99004152  0.17351988  1
  F  F18  1  0.43334135  0.50995848  0.32648012  1
  F  F19  1  0.06665865  0.49004152  0.82648012  1
  F  F20  1  0.00000000  0.00000000  0.00000000  1
  F  F21  1  0.50000000  0.00000000  0.50000000  1
  F  F22  1  0.00000000  0.50000000  0.00000000  1
  F  F23  1  0.50000000  0.50000000  0.50000000  1
  Li  Li24  1  0.06990575  0.11857580  0.71382999  1
  Li  Li25  1  0.43009425  -0.11857580  1.21382999  1
  Li  Li26  1  -0.06990575  0.61857580  -0.71382999  1
  Li  Li27  1  0.56990575  0.38142420  -0.21382999  1
  Li  Li28  1  -0.06990575  -0.11857580  -0.71382999  1
  Li  Li29  1  0.56990575  0.11857580  -0.21382999  1
  Li  Li30  1  0.06990575  0.38142420  0.71382999  1
  Li  Li31  1  0.43009425  0.61857580  1.21382999  1
  Li  Li32  1  0.90556066  0.25000000  0.38521914  1
  Li  Li33  1  0.59443934  0.75000000  0.88521914  1
  Li  Li34  1  0.09443934  0.75000000  0.61478086  1
  Li  Li35  1  0.40556066  0.25000000  0.11478086  1
  Li  Li36  1  0.78874891  0.93670674  0.58267312  1
  Li  Li37  1  0.71125109  0.06329326  0.08267312  1
  Li  Li38  1  0.21125109  0.43670674  0.41732688  1
  Li  Li39  1  0.28874891  0.56329326  0.91732688  1
  Li  Li40  1  0.21125109  0.06329326  0.41732688  1
  Li  Li41  1  0.28874891  0.93670674  0.91732688  1
  Li  Li42  1  0.78874891  0.56329326  0.58267312  1
  Li  Li43  1  0.71125109  0.43670674  0.08267312  1
  Li  Li44  1  0.00000000  0.00000000  0.50000000  1
  Li  Li45  1  0.50000000  0.00000000  0.00000000  1
  Li  Li46  1  0.00000000  0.50000000  0.50000000  1
  Li  Li47  1  0.50000000  0.50000000  0.00000000  1
