# generated using pymatgen
data_Li2Si4Te3F12
_symmetry_space_group_name_H-M   'P 1'
_cell_length_a   19.05516043
_cell_length_b   19.05516043
_cell_length_c   3.94027789
_cell_angle_alpha   90.00000000
_cell_angle_beta   90.00000000
_cell_angle_gamma   90.00000000
_symmetry_Int_Tables_number   1
_chemical_formula_structural   Li2Si4Te3F12
_chemical_formula_sum   'Li8 Si16 Te12 F48'
_cell_volume   1430.71150891
_cell_formula_units_Z   4
loop_
 _symmetry_equiv_pos_site_id
 _symmetry_equiv_pos_as_xyz
  1  'x, y, z'
loop_
 _atom_site_type_symbol
 _atom_site_label
 _atom_site_symmetry_multiplicity
 _atom_site_fract_x
 _atom_site_fract_y
 _atom_site_fract_z
 _atom_site_occupancy
  F  F0  1  0.00000000  0.79566142  0.36391027  1
  F  F1  1  0.50000000  0.20433858  0.86391027  1
  F  F2  1  0.45433858  0.75000000  0.61391027  1
  F  F3  1  0.04566142  0.25000000  0.11391027  1
  F  F4  1  0.50000000  0.79566142  0.13608973  1
  F  F5  1  0.00000000  0.20433858  0.63608973  1
  F  F6  1  0.04566142  0.75000000  0.88608973  1
  F  F7  1  0.45433858  0.25000000  0.38608973  1
  F  F8  1  0.50000000  0.29566142  0.86391027  1
  F  F9  1  0.00000000  0.70433858  0.36391027  1
  F  F10  1  0.95433858  0.25000000  0.11391027  1
  F  F11  1  0.54566142  0.75000000  0.61391027  1
  F  F12  1  0.00000000  0.29566142  0.63608973  1
  F  F13  1  0.50000000  0.70433858  0.13608973  1
  F  F14  1  0.54566142  0.25000000  0.38608973  1
  F  F15  1  0.95433858  0.75000000  0.88608973  1
  F  F16  1  0.84292956  0.59843236  0.76796780  1
  F  F17  1  -0.34292956  -0.59843236  1.26796780  1
  F  F18  1  -0.34843236  1.59292956  1.01796780  1
  F  F19  1  0.84843236  -0.59292956  1.51796780  1
  F  F20  1  -0.34292956  0.59843236  -0.26796780  1
  F  F21  1  0.84292956  -0.59843236  -0.76796780  1
  F  F22  1  0.84843236  1.59292956  -0.51796780  1
  F  F23  1  -0.34843236  -0.59292956  -0.01796780  1
  F  F24  1  -0.84292956  -0.59843236  -0.76796780  1
  F  F25  1  1.34292956  0.59843236  -0.26796780  1
  F  F26  1  1.34843236  -0.59292956  -0.01796780  1
  F  F27  1  0.15156764  1.59292956  -0.51796780  1
  F  F28  1  1.34292956  -0.59843236  1.26796780  1
  F  F29  1  -0.84292956  0.59843236  0.76796780  1
  F  F30  1  0.15156764  -0.59292956  1.51796780  1
  F  F31  1  1.34843236  1.59292956  1.01796780  1
  F  F32  1  1.34292956  1.09843236  1.26796780  1
  F  F33  1  0.15707044  -0.09843236  1.76796780  1
  F  F34  1  0.15156764  2.09292956  1.51796780  1
  F  F35  1  1.34843236  -0.09292956  2.01796780  1
  F  F36  1  0.15707044  1.09843236  0.23203220  1
  F  F37  1  1.34292956  -0.09843236  -0.26796780  1
  F  F38  1  1.34843236  2.09292956  -0.01796780  1
  F  F39  1  0.15156764  -0.09292956  0.48203220  1
  F  F40  1  -0.34292956  -0.09843236  -0.26796780  1
  F  F41  1  1.84292956  1.09843236  0.23203220  1
  F  F42  1  1.84843236  -0.09292956  0.48203220  1
  F  F43  1  0.65156764  2.09292956  -0.01796780  1
  F  F44  1  1.84292956  -0.09843236  1.76796780  1
  F  F45  1  -0.34292956  1.09843236  1.26796780  1
  F  F46  1  0.65156764  -0.09292956  2.01796780  1
  F  F47  1  1.84843236  2.09292956  1.51796780  1
  Li  Li48  1  0.00000000  0.00000000  0.00000000  1
  Li  Li49  1  0.50000000  0.00000000  0.50000000  1
  Li  Li50  1  0.25000000  0.75000000  0.25000000  1
  Li  Li51  1  0.25000000  0.25000000  0.75000000  1
  Li  Li52  1  0.50000000  0.50000000  0.50000000  1
  Li  Li53  1  0.00000000  0.50000000  0.00000000  1
  Li  Li54  1  0.75000000  0.25000000  0.75000000  1
  Li  Li55  1  0.75000000  0.75000000  0.25000000  1
  Si  Si56  1  0.38685013  0.63685013  0.87500000  1
  Si  Si57  1  0.11314987  0.36314987  0.37500000  1
  Si  Si58  1  0.61314987  0.13685013  0.12500000  1
  Si  Si59  1  0.88685013  0.86314987  0.62500000  1
  Si  Si60  1  0.61314987  0.36314987  0.12500000  1
  Si  Si61  1  0.88685013  0.63685013  0.62500000  1
  Si  Si62  1  0.38685013  0.86314987  0.87500000  1
  Si  Si63  1  0.11314987  0.13685013  0.37500000  1
  Si  Si64  1  0.88685013  0.13685013  0.37500000  1
  Si  Si65  1  0.61314987  0.86314987  0.87500000  1
  Si  Si66  1  0.11314987  0.63685013  0.62500000  1
  Si  Si67  1  0.38685013  0.36314987  0.12500000  1
  Si  Si68  1  0.11314987  0.86314987  0.62500000  1
  Si  Si69  1  0.38685013  0.13685013  0.12500000  1
  Si  Si70  1  0.88685013  0.36314987  0.37500000  1
  Si  Si71  1  0.61314987  0.63685013  0.87500000  1
  Te  Te72  1  0.00000000  0.00000000  0.50000000  1
  Te  Te73  1  0.50000000  0.00000000  0.00000000  1
  Te  Te74  1  0.25000000  0.75000000  0.75000000  1
  Te  Te75  1  0.25000000  0.25000000  0.25000000  1
  Te  Te76  1  0.50000000  0.50000000  0.00000000  1
  Te  Te77  1  0.00000000  0.50000000  0.50000000  1
  Te  Te78  1  0.75000000  0.25000000  0.25000000  1
  Te  Te79  1  0.75000000  0.75000000  0.75000000  1
  Te  Te80  1  0.00000000  0.25000000  0.37500000  1
  Te  Te81  1  0.00000000  0.75000000  0.62500000  1
  Te  Te82  1  0.50000000  0.75000000  0.87500000  1
  Te  Te83  1  0.50000000  0.25000000  0.12500000  1
