# generated using pymatgen
data_LiCu3MoPSe
_symmetry_space_group_name_H-M   'P 1'
_cell_length_a   4.73616788
_cell_length_b   5.07296251
_cell_length_c   6.41659857
_cell_angle_alpha   94.66108192
_cell_angle_beta   97.76612296
_cell_angle_gamma   104.98180314
_symmetry_Int_Tables_number   1
_chemical_formula_structural   LiCu3MoPSe
_chemical_formula_sum   'Li1 Cu3 Mo1 P1 Se1'
_cell_volume   146.46998153
_cell_formula_units_Z   1
loop_
 _symmetry_equiv_pos_site_id
 _symmetry_equiv_pos_as_xyz
  1  'x, y, z'
loop_
 _atom_site_type_symbol
 _atom_site_label
 _atom_site_symmetry_multiplicity
 _atom_site_fract_x
 _atom_site_fract_y
 _atom_site_fract_z
 _atom_site_occupancy
  Se  Se0  1  0.00000000  0.00000000  0.00000000  1
  Cu  Cu1  1  0.50000000  0.50000000  0.50000000  1
  Cu  Cu2  1  0.25000000  0.25000000  0.25000000  1
  Cu  Cu3  1  0.75000000  0.25000000  0.00000000  1
  P  P4  1  0.25000000  0.75000000  0.50000000  1
  Mo  Mo5  1  0.36794429  0.68614490  0.43373780  1
  Li  Li6  1  0.16263392  0.88554090  0.25612972  1
