# generated using pymatgen
data_Li2Si4Te3F12
_symmetry_space_group_name_H-M   'P 1'
_cell_length_a   14.79926986
_cell_length_b   9.86166075
_cell_length_c   11.22538741
_cell_angle_alpha   90.00000000
_cell_angle_beta   90.00000000
_cell_angle_gamma   90.00000000
_symmetry_Int_Tables_number   1
_chemical_formula_structural   Li2Si4Te3F12
_chemical_formula_sum   'Li8 Si16 Te12 F48'
_cell_volume   1638.29341793
_cell_formula_units_Z   4
loop_
 _symmetry_equiv_pos_site_id
 _symmetry_equiv_pos_as_xyz
  1  'x, y, z'
loop_
 _atom_site_type_symbol
 _atom_site_label
 _atom_site_symmetry_multiplicity
 _atom_site_fract_x
 _atom_site_fract_y
 _atom_site_fract_z
 _atom_site_occupancy
  F  F0  1  0.00000000  0.50000000  0.04592746  1
  F  F1  1  0.50000000  0.00000000  0.45407254  1
  F  F2  1  0.00000000  0.50000000  0.95407254  1
  F  F3  1  0.50000000  0.00000000  0.54592746  1
  F  F4  1  0.69067215  0.68560959  0.24976339  1
  F  F5  1  0.30932785  0.31439041  0.24976339  1
  F  F6  1  0.80932785  0.18560959  0.25023661  1
  F  F7  1  0.19067215  0.81439041  0.25023661  1
  F  F8  1  0.30932785  0.31439041  0.75023661  1
  F  F9  1  0.69067215  0.68560959  0.75023661  1
  F  F10  1  0.19067215  0.81439041  0.74976339  1
  F  F11  1  0.80932785  0.18560959  0.74976339  1
  F  F12  1  0.67899863  0.33342401  0.73288084  1
  F  F13  1  0.32100137  0.66657599  0.73288084  1
  F  F14  1  0.82100137  0.83342401  0.76711916  1
  F  F15  1  0.17899863  0.16657599  0.76711916  1
  F  F16  1  0.32100137  0.66657599  0.26711916  1
  F  F17  1  0.67899863  0.33342401  0.26711916  1
  F  F18  1  0.17899863  0.16657599  0.23288084  1
  F  F19  1  0.82100137  0.83342401  0.23288084  1
  F  F20  1  0.02031247  0.12704956  -0.00000000  1
  F  F21  1  0.97968753  0.87295044  0.00000000  1
  F  F22  1  0.47968753  0.62704956  0.50000000  1
  F  F23  1  0.52031247  0.37295044  0.50000000  1
  F  F24  1  0.59319377  0.41063872  0.00000000  1
  F  F25  1  0.40680623  0.58936128  0.00000000  1
  F  F26  1  0.90680623  0.91063872  0.50000000  1
  F  F27  1  0.09319377  0.08936128  0.50000000  1
  F  F28  1  0.75707842  0.71930426  0.59776127  1
  F  F29  1  0.24292158  0.28069574  0.59776127  1
  F  F30  1  0.74292158  0.21930426  0.90223873  1
  F  F31  1  0.25707842  0.78069574  0.90223873  1
  F  F32  1  0.24292158  0.28069574  0.40223873  1
  F  F33  1  0.75707842  0.71930426  0.40223873  1
  F  F34  1  0.25707842  0.78069574  0.09776127  1
  F  F35  1  0.74292158  0.21930426  0.09776127  1
  F  F36  1  0.98306215  0.40651706  0.70160409  1
  F  F37  1  0.01693785  0.59348294  0.70160409  1
  F  F38  1  0.51693785  0.90651706  0.79839591  1
  F  F39  1  0.48306215  0.09348294  0.79839591  1
  F  F40  1  0.01693785  0.59348294  0.29839591  1
  F  F41  1  0.98306215  0.40651706  0.29839591  1
  F  F42  1  0.48306215  0.09348294  0.20160409  1
  F  F43  1  0.51693785  0.90651706  0.20160409  1
  F  F44  1  0.00000000  0.00000000  0.08706054  1
  F  F45  1  0.50000000  0.50000000  0.41293946  1
  F  F46  1  0.00000000  0.00000000  0.91293946  1
  F  F47  1  0.50000000  0.50000000  0.58706054  1
  Li  Li48  1  0.84206437  0.66635789  0.64848028  1
  Li  Li49  1  0.15793563  0.33364211  0.64848028  1
  Li  Li50  1  0.65793563  0.16635789  0.85151972  1
  Li  Li51  1  0.34206437  0.83364211  0.85151972  1
  Li  Li52  1  0.15793563  0.33364211  0.35151972  1
  Li  Li53  1  0.84206437  0.66635789  0.35151972  1
  Li  Li54  1  0.34206437  0.83364211  0.14848028  1
  Li  Li55  1  0.65793563  0.16635789  0.14848028  1
  Si  Si56  1  0.89436206  0.84607624  0.85986508  1
  Si  Si57  1  0.10563794  0.15392376  0.85986508  1
  Si  Si58  1  0.60563794  0.34607624  0.64013492  1
  Si  Si59  1  0.39436206  0.65392376  0.64013492  1
  Si  Si60  1  0.10563794  0.15392376  0.14013492  1
  Si  Si61  1  0.89436206  0.84607624  0.14013492  1
  Si  Si62  1  0.39436206  0.65392376  0.35986508  1
  Si  Si63  1  0.60563794  0.34607624  0.35986508  1
  Si  Si64  1  0.83247810  0.35261044  0.60204179  1
  Si  Si65  1  0.16752190  0.64738956  0.60204179  1
  Si  Si66  1  0.66752190  0.85261044  0.89795821  1
  Si  Si67  1  0.33247810  0.14738956  0.89795821  1
  Si  Si68  1  0.16752190  0.64738956  0.39795821  1
  Si  Si69  1  0.83247810  0.35261044  0.39795821  1
  Si  Si70  1  0.33247810  0.14738956  0.10204179  1
  Si  Si71  1  0.66752190  0.85261044  0.10204179  1
  Te  Te72  1  0.00000000  0.00000000  0.00000000  1
  Te  Te73  1  0.50000000  0.50000000  0.50000000  1
  Te  Te74  1  0.14827078  0.96922075  0.24800992  1
  Te  Te75  1  -0.14827078  -0.96922075  0.24800992  1
  Te  Te76  1  0.35172922  1.46922075  0.25199008  1
  Te  Te77  1  0.64827078  -0.46922075  0.25199008  1
  Te  Te78  1  -0.14827078  -0.96922075  -0.24800992  1
  Te  Te79  1  0.14827078  0.96922075  -0.24800992  1
  Te  Te80  1  0.64827078  -0.46922075  0.74800992  1
  Te  Te81  1  0.35172922  1.46922075  0.74800992  1
  Te  Te82  1  0.00000000  0.00000000  0.50000000  1
  Te  Te83  1  0.50000000  0.50000000  0.00000000  1
