# generated using pymatgen
data_LiF
_symmetry_space_group_name_H-M   'P 1'
_cell_length_a   10.33074755
_cell_length_b   12.17963592
_cell_length_c   19.09727082
_cell_angle_alpha   90.00000000
_cell_angle_beta   90.00000000
_cell_angle_gamma   90.00000000
_symmetry_Int_Tables_number   1
_chemical_formula_structural   LiF
_chemical_formula_sum   'Li68 F68'
_cell_volume   2402.90921126
_cell_formula_units_Z   68
loop_
 _symmetry_equiv_pos_site_id
 _symmetry_equiv_pos_as_xyz
  1  'x, y, z'
loop_
 _atom_site_type_symbol
 _atom_site_label
 _atom_site_symmetry_multiplicity
 _atom_site_fract_x
 _atom_site_fract_y
 _atom_site_fract_z
 _atom_site_occupancy
  F  F0  1  0.96768664  0.25000000  0.88485837  1
  F  F1  1  0.53231336  0.75000000  0.38485837  1
  F  F2  1  0.03231336  0.75000000  0.11514163  1
  F  F3  1  0.46768664  0.25000000  0.61514163  1
  F  F4  1  0.89716779  0.25000000  0.01248606  1
  F  F5  1  0.60283221  0.75000000  0.51248606  1
  F  F6  1  0.10283221  0.75000000  0.98751394  1
  F  F7  1  0.39716779  0.25000000  0.48751394  1
  F  F8  1  0.35541951  0.63531073  0.65620267  1
  F  F9  1  0.14458049  0.36468927  0.15620267  1
  F  F10  1  0.64458049  0.13531073  0.34379733  1
  F  F11  1  0.85541951  0.86468927  0.84379733  1
  F  F12  1  0.64458049  0.36468927  0.34379733  1
  F  F13  1  0.85541951  0.63531073  0.84379733  1
  F  F14  1  0.35541951  0.86468927  0.65620267  1
  F  F15  1  0.14458049  0.13531073  0.15620267  1
  F  F16  1  0.72329637  0.07977034  0.11079632  1
  F  F17  1  0.77670363  0.92022966  0.61079632  1
  F  F18  1  0.27670363  0.57977034  0.88920368  1
  F  F19  1  0.22329637  0.42022966  0.38920368  1
  F  F20  1  0.27670363  0.92022966  0.88920368  1
  F  F21  1  0.22329637  0.07977034  0.38920368  1
  F  F22  1  0.72329637  0.42022966  0.11079632  1
  F  F23  1  0.77670363  0.57977034  0.61079632  1
  F  F24  1  0.75362948  0.25000000  0.12564885  1
  F  F25  1  0.74637052  0.75000000  0.62564885  1
  F  F26  1  0.24637052  0.75000000  0.87435115  1
  F  F27  1  0.25362948  0.25000000  0.37435115  1
  F  F28  1  0.31504101  0.03484605  0.15708549  1
  F  F29  1  0.18495899  0.96515395  0.65708549  1
  F  F30  1  0.68495899  0.53484605  0.84291451  1
  F  F31  1  0.81504101  0.46515395  0.34291451  1
  F  F32  1  0.68495899  0.96515395  0.84291451  1
  F  F33  1  0.81504101  0.03484605  0.34291451  1
  F  F34  1  0.31504101  0.46515395  0.15708549  1
  F  F35  1  0.18495899  0.53484605  0.65708549  1
  F  F36  1  0.92406972  0.46156393  0.89392791  1
  F  F37  1  0.57593028  0.53843607  0.39392791  1
  F  F38  1  0.07593028  0.96156393  0.10607209  1
  F  F39  1  0.42406972  0.03843607  0.60607209  1
  F  F40  1  0.07593028  0.53843607  0.10607209  1
  F  F41  1  0.42406972  0.46156393  0.60607209  1
  F  F42  1  0.92406972  0.03843607  0.89392791  1
  F  F43  1  0.57593028  0.96156393  0.39392791  1
  F  F44  1  0.34998444  0.34619769  0.56041492  1
  F  F45  1  0.15001556  0.65380231  0.06041492  1
  F  F46  1  0.65001556  0.84619769  0.43958508  1
  F  F47  1  0.84998444  0.15380231  0.93958508  1
  F  F48  1  0.65001556  0.65380231  0.43958508  1
  F  F49  1  0.84998444  0.34619769  0.93958508  1
  F  F50  1  0.34998444  0.15380231  0.56041492  1
  F  F51  1  0.15001556  0.84619769  0.06041492  1
  F  F52  1  0.86943570  0.25000000  0.23219250  1
  F  F53  1  0.63056430  0.75000000  0.73219250  1
  F  F54  1  0.13056430  0.75000000  0.76780750  1
  F  F55  1  0.36943570  0.25000000  0.26780750  1
  F  F56  1  0.69640958  0.11659098  0.26161302  1
  F  F57  1  0.80359042  0.88340902  0.76161302  1
  F  F58  1  0.30359042  0.61659098  0.73838698  1
  F  F59  1  0.19640958  0.38340902  0.23838698  1
  F  F60  1  0.30359042  0.88340902  0.73838698  1
  F  F61  1  0.19640958  0.11659098  0.23838698  1
  F  F62  1  0.69640958  0.38340902  0.26161302  1
  F  F63  1  0.80359042  0.61659098  0.76161302  1
  F  F64  1  0.00000000  0.00000000  0.50000000  1
  F  F65  1  0.50000000  0.00000000  0.00000000  1
  F  F66  1  0.00000000  0.50000000  0.50000000  1
  F  F67  1  0.50000000  0.50000000  0.00000000  1
  Li  Li68  1  0.52433629  0.53187650  0.60927062  1
  Li  Li69  1  -0.02433629  -0.53187650  1.10927062  1
  Li  Li70  1  -0.52433629  1.03187650  -0.60927062  1
  Li  Li71  1  1.02433629  -0.03187650  -0.10927062  1
  Li  Li72  1  -0.52433629  -0.53187650  -0.60927062  1
  Li  Li73  1  1.02433629  0.53187650  -0.10927062  1
  Li  Li74  1  0.52433629  -0.03187650  0.60927062  1
  Li  Li75  1  -0.02433629  1.03187650  1.10927062  1
  Li  Li76  1  0.10644082  0.54860570  0.04156773  1
  Li  Li77  1  0.39355918  0.45139430  0.54156773  1
  Li  Li78  1  0.89355918  0.04860570  0.95843227  1
  Li  Li79  1  0.60644082  0.95139430  0.45843227  1
  Li  Li80  1  0.89355918  0.45139430  0.95843227  1
  Li  Li81  1  0.60644082  0.54860570  0.45843227  1
  Li  Li82  1  0.10644082  0.95139430  0.04156773  1
  Li  Li83  1  0.39355918  0.04860570  0.54156773  1
  Li  Li84  1  0.58475677  0.59736202  0.34894018  1
  Li  Li85  1  0.91524323  0.40263798  0.84894018  1
  Li  Li86  1  0.41524323  0.09736202  0.65105982  1
  Li  Li87  1  0.08475677  0.90263798  0.15105982  1
  Li  Li88  1  0.41524323  0.40263798  0.65105982  1
  Li  Li89  1  0.08475677  0.59736202  0.15105982  1
  Li  Li90  1  0.58475677  0.90263798  0.34894018  1
  Li  Li91  1  0.91524323  0.09736202  0.84894018  1
  Li  Li92  1  0.12592056  0.69060931  0.86027506  1
  Li  Li93  1  0.37407944  0.30939069  0.36027506  1
  Li  Li94  1  0.87407944  0.19060931  0.13972494  1
  Li  Li95  1  0.62592056  0.80939069  0.63972494  1
  Li  Li96  1  0.87407944  0.30939069  0.13972494  1
  Li  Li97  1  0.62592056  0.69060931  0.63972494  1
  Li  Li98  1  0.12592056  0.80939069  0.86027506  1
  Li  Li99  1  0.37407944  0.19060931  0.36027506  1
  Li  Li100  1  0.48986243  0.30389281  0.77951826  1
  Li  Li101  1  0.01013757  0.69610719  0.27951826  1
  Li  Li102  1  0.51013757  0.80389281  0.22048174  1
  Li  Li103  1  0.98986243  0.19610719  0.72048174  1
  Li  Li104  1  0.51013757  0.69610719  0.22048174  1
  Li  Li105  1  0.98986243  0.30389281  0.72048174  1
  Li  Li106  1  0.48986243  0.19610719  0.77951826  1
  Li  Li107  1  0.01013757  0.80389281  0.27951826  1
  Li  Li108  1  0.94823283  0.58279744  0.39813993  1
  Li  Li109  1  0.55176717  0.41720256  0.89813993  1
  Li  Li110  1  0.05176717  0.08279744  0.60186007  1
  Li  Li111  1  0.44823283  0.91720256  0.10186007  1
  Li  Li112  1  0.05176717  0.41720256  0.60186007  1
  Li  Li113  1  0.44823283  0.58279744  0.10186007  1
  Li  Li114  1  0.94823283  0.91720256  0.39813993  1
  Li  Li115  1  0.55176717  0.08279744  0.89813993  1
  Li  Li116  1  0.41816323  0.94991491  0.01561950  1
  Li  Li117  1  0.08183677  0.05008509  0.51561950  1
  Li  Li118  1  0.58183677  0.44991491  0.98438050  1
  Li  Li119  1  0.91816323  0.55008509  0.48438050  1
  Li  Li120  1  0.58183677  0.05008509  0.98438050  1
  Li  Li121  1  0.91816323  0.94991491  0.48438050  1
  Li  Li122  1  0.41816323  0.55008509  0.01561950  1
  Li  Li123  1  0.08183677  0.44991491  0.51561950  1
  Li  Li124  1  0.13255036  0.25000000  0.61291985  1
  Li  Li125  1  0.36744964  0.75000000  0.11291985  1
  Li  Li126  1  0.86744964  0.75000000  0.38708015  1
  Li  Li127  1  0.63255036  0.25000000  0.88708015  1
  Li  Li128  1  0.62767668  0.25000000  0.62165967  1
  Li  Li129  1  0.87232332  0.75000000  0.12165967  1
  Li  Li130  1  0.37232332  0.75000000  0.37834033  1
  Li  Li131  1  0.12767668  0.25000000  0.87834033  1
  Li  Li132  1  0.63431097  0.25000000  0.02641910  1
  Li  Li133  1  0.86568903  0.75000000  0.52641910  1
  Li  Li134  1  0.36568903  0.75000000  0.97358090  1
  Li  Li135  1  0.13431097  0.25000000  0.47358090  1
