# generated using pymatgen
data_LiF
_symmetry_space_group_name_H-M   'P 1'
_cell_length_a   10.00291937
_cell_length_b   10.00291937
_cell_length_c   23.46554972
_cell_angle_alpha   90.00000000
_cell_angle_beta   90.00000000
_cell_angle_gamma   90.00000000
_symmetry_Int_Tables_number   1
_chemical_formula_structural   LiF
_chemical_formula_sum   'Li64 F64'
_cell_volume   2347.92526450
_cell_formula_units_Z   64
loop_
 _symmetry_equiv_pos_site_id
 _symmetry_equiv_pos_as_xyz
  1  'x, y, z'
loop_
 _atom_site_type_symbol
 _atom_site_label
 _atom_site_symmetry_multiplicity
 _atom_site_fract_x
 _atom_site_fract_y
 _atom_site_fract_z
 _atom_site_occupancy
  F  F0  1  0.06880230  0.95980596  0.62595247  1
  F  F1  1  0.43119770  0.04019404  0.12595247  1
  F  F2  1  0.29019404  0.81880230  0.87595247  1
  F  F3  1  0.20980596  0.18119770  0.37595247  1
  F  F4  1  0.43119770  0.95980596  0.37404753  1
  F  F5  1  0.06880230  0.04019404  0.87404753  1
  F  F6  1  0.20980596  0.81880230  0.12404753  1
  F  F7  1  0.29019404  0.18119770  0.62404753  1
  F  F8  1  0.93119770  0.04019404  0.37404753  1
  F  F9  1  0.56880230  0.95980596  0.87404753  1
  F  F10  1  0.70980596  0.18119770  0.12404753  1
  F  F11  1  0.79019404  0.81880230  0.62404753  1
  F  F12  1  0.56880230  0.04019404  0.62595247  1
  F  F13  1  0.93119770  0.95980596  0.12595247  1
  F  F14  1  0.79019404  0.18119770  0.87595247  1
  F  F15  1  0.70980596  0.81880230  0.37595247  1
  F  F16  1  0.56880230  0.45980596  0.12595247  1
  F  F17  1  0.93119770  0.54019404  0.62595247  1
  F  F18  1  0.79019404  0.31880230  0.37595247  1
  F  F19  1  0.70980596  0.68119770  0.87595247  1
  F  F20  1  0.93119770  0.45980596  0.87404753  1
  F  F21  1  0.56880230  0.54019404  0.37404753  1
  F  F22  1  0.70980596  0.31880230  0.62404753  1
  F  F23  1  0.79019404  0.68119770  0.12404753  1
  F  F24  1  0.43119770  0.54019404  0.87404753  1
  F  F25  1  0.06880230  0.45980596  0.37404753  1
  F  F26  1  0.20980596  0.68119770  0.62404753  1
  F  F27  1  0.29019404  0.31880230  0.12404753  1
  F  F28  1  0.06880230  0.54019404  0.12595247  1
  F  F29  1  0.43119770  0.45980596  0.62595247  1
  F  F30  1  0.29019404  0.68119770  0.37595247  1
  F  F31  1  0.20980596  0.31880230  0.87595247  1
  F  F32  1  0.00000000  0.25000000  0.37500000  1
  F  F33  1  0.00000000  0.75000000  0.62500000  1
  F  F34  1  0.50000000  0.25000000  0.62500000  1
  F  F35  1  0.50000000  0.75000000  0.37500000  1
  F  F36  1  0.50000000  0.75000000  0.87500000  1
  F  F37  1  0.50000000  0.25000000  0.12500000  1
  F  F38  1  0.00000000  0.75000000  0.12500000  1
  F  F39  1  0.00000000  0.25000000  0.87500000  1
  F  F40  1  0.30300339  0.00000000  0.25000000  1
  F  F41  1  0.19699661  0.00000000  0.75000000  1
  F  F42  1  0.25000000  0.05300339  0.50000000  1
  F  F43  1  0.25000000  0.94699661  0.00000000  1
  F  F44  1  0.69699661  0.00000000  0.75000000  1
  F  F45  1  0.80300339  0.00000000  0.25000000  1
  F  F46  1  0.75000000  0.94699661  0.50000000  1
  F  F47  1  0.75000000  0.05300339  0.00000000  1
  F  F48  1  0.80300339  0.50000000  0.75000000  1
  F  F49  1  0.69699661  0.50000000  0.25000000  1
  F  F50  1  0.75000000  0.55300339  0.00000000  1
  F  F51  1  0.75000000  0.44699661  0.50000000  1
  F  F52  1  0.19699661  0.50000000  0.25000000  1
  F  F53  1  0.30300339  0.50000000  0.75000000  1
  F  F54  1  0.25000000  0.44699661  0.00000000  1
  F  F55  1  0.25000000  0.55300339  0.50000000  1
  F  F56  1  0.00000000  0.25000000  0.12500000  1
  F  F57  1  0.00000000  0.75000000  0.37500000  1
  F  F58  1  0.00000000  0.75000000  0.87500000  1
  F  F59  1  0.00000000  0.25000000  0.62500000  1
  F  F60  1  0.50000000  0.75000000  0.62500000  1
  F  F61  1  0.50000000  0.25000000  0.87500000  1
  F  F62  1  0.50000000  0.25000000  0.37500000  1
  F  F63  1  0.50000000  0.75000000  0.12500000  1
  Li  Li64  1  0.00000000  0.00000000  0.00000000  1
  Li  Li65  1  0.50000000  0.00000000  0.50000000  1
  Li  Li66  1  0.25000000  0.75000000  0.25000000  1
  Li  Li67  1  0.25000000  0.25000000  0.75000000  1
  Li  Li68  1  0.50000000  0.00000000  0.00000000  1
  Li  Li69  1  0.00000000  0.00000000  0.50000000  1
  Li  Li70  1  0.25000000  0.75000000  0.75000000  1
  Li  Li71  1  0.25000000  0.25000000  0.25000000  1
  Li  Li72  1  0.50000000  0.50000000  0.50000000  1
  Li  Li73  1  0.00000000  0.50000000  0.00000000  1
  Li  Li74  1  0.75000000  0.25000000  0.75000000  1
  Li  Li75  1  0.75000000  0.75000000  0.25000000  1
  Li  Li76  1  0.00000000  0.50000000  0.50000000  1
  Li  Li77  1  0.50000000  0.50000000  0.00000000  1
  Li  Li78  1  0.75000000  0.25000000  0.25000000  1
  Li  Li79  1  0.75000000  0.75000000  0.75000000  1
  Li  Li80  1  0.98551779  0.99470992  0.08540236  1
  Li  Li81  1  -0.48551779  -0.99470992  0.58540236  1
  Li  Li82  1  -0.74470992  1.73551779  0.33540236  1
  Li  Li83  1  1.24470992  -0.73551779  0.83540236  1
  Li  Li84  1  -0.48551779  0.99470992  -0.08540236  1
  Li  Li85  1  0.98551779  -0.99470992  0.41459764  1
  Li  Li86  1  1.24470992  1.73551779  0.66459764  1
  Li  Li87  1  -0.74470992  -0.73551779  0.16459764  1
  Li  Li88  1  -0.98551779  -0.99470992  -0.08540236  1
  Li  Li89  1  1.48551779  0.99470992  0.41459764  1
  Li  Li90  1  1.74470992  -0.73551779  0.66459764  1
  Li  Li91  1  -0.24470992  1.73551779  0.16459764  1
  Li  Li92  1  1.48551779  -0.99470992  0.08540236  1
  Li  Li93  1  -0.98551779  0.99470992  0.58540236  1
  Li  Li94  1  -0.24470992  -0.73551779  0.33540236  1
  Li  Li95  1  1.74470992  1.73551779  0.83540236  1
  Li  Li96  1  1.48551779  1.49470992  0.58540236  1
  Li  Li97  1  0.01448221  -0.49470992  1.08540236  1
  Li  Li98  1  -0.24470992  2.23551779  0.83540236  1
  Li  Li99  1  1.74470992  -0.23551779  1.33540236  1
  Li  Li100  1  0.01448221  1.49470992  0.41459764  1
  Li  Li101  1  1.48551779  -0.49470992  0.91459764  1
  Li  Li102  1  1.74470992  2.23551779  1.16459764  1
  Li  Li103  1  -0.24470992  -0.23551779  0.66459764  1
  Li  Li104  1  -0.48551779  -0.49470992  0.41459764  1
  Li  Li105  1  1.98551779  1.49470992  0.91459764  1
  Li  Li106  1  2.24470992  -0.23551779  1.16459764  1
  Li  Li107  1  0.25529008  2.23551779  0.66459764  1
  Li  Li108  1  1.98551779  -0.49470992  0.58540236  1
  Li  Li109  1  -0.48551779  1.49470992  1.08540236  1
  Li  Li110  1  0.25529008  -0.23551779  0.83540236  1
  Li  Li111  1  2.24470992  2.23551779  1.33540236  1
  Li  Li112  1  0.00000000  0.25000000  0.43858763  1
  Li  Li113  1  0.00000000  0.75000000  0.68858763  1
  Li  Li114  1  0.50000000  0.25000000  0.56141237  1
  Li  Li115  1  0.50000000  0.75000000  0.31141237  1
  Li  Li116  1  0.00000000  0.75000000  0.56141237  1
  Li  Li117  1  0.00000000  0.25000000  0.31141237  1
  Li  Li118  1  0.50000000  0.75000000  0.43858763  1
  Li  Li119  1  0.50000000  0.25000000  0.68858763  1
  Li  Li120  1  0.50000000  0.75000000  0.93858763  1
  Li  Li121  1  0.50000000  0.25000000  0.18858763  1
  Li  Li122  1  0.00000000  0.75000000  0.06141237  1
  Li  Li123  1  0.00000000  0.25000000  0.81141237  1
  Li  Li124  1  0.50000000  0.25000000  0.06141237  1
  Li  Li125  1  0.50000000  0.75000000  0.81141237  1
  Li  Li126  1  0.00000000  0.25000000  0.93858763  1
  Li  Li127  1  0.00000000  0.75000000  0.18858763  1
