# generated using pymatgen
data_LiCaF3
_symmetry_space_group_name_H-M   'P 1'
_cell_length_a   10.23402622
_cell_length_b   10.23402622
_cell_length_c   19.84298470
_cell_angle_alpha   90.00000000
_cell_angle_beta   90.00000000
_cell_angle_gamma   120.00000000
_symmetry_Int_Tables_number   1
_chemical_formula_structural   LiCaF3
_chemical_formula_sum   'Li18 Ca18 F54'
_cell_volume   1799.82665732
_cell_formula_units_Z   18
loop_
 _symmetry_equiv_pos_site_id
 _symmetry_equiv_pos_as_xyz
  1  'x, y, z'
loop_
 _atom_site_type_symbol
 _atom_site_label
 _atom_site_symmetry_multiplicity
 _atom_site_fract_x
 _atom_site_fract_y
 _atom_site_fract_z
 _atom_site_occupancy
  Ca  Ca0  1  0.40080241  0.00000000  0.25000000  1
  Ca  Ca1  1  0.00000000  0.40080241  0.25000000  1
  Ca  Ca2  1  0.59919759  0.59919759  0.25000000  1
  Ca  Ca3  1  0.59919759  -0.00000000  0.75000000  1
  Ca  Ca4  1  0.00000000  0.59919759  0.75000000  1
  Ca  Ca5  1  0.40080241  0.40080241  0.75000000  1
  Ca  Ca6  1  0.06746907  0.33333333  0.58333333  1
  Ca  Ca7  1  0.66666667  0.73413574  0.58333333  1
  Ca  Ca8  1  0.26586426  0.93253093  0.58333333  1
  Ca  Ca9  1  0.26586426  0.33333333  0.08333333  1
  Ca  Ca10  1  0.66666667  0.93253093  0.08333333  1
  Ca  Ca11  1  0.06746907  0.73413574  0.08333333  1
  Ca  Ca12  1  0.73413574  0.66666667  0.91666667  1
  Ca  Ca13  1  0.33333333  0.06746907  0.91666667  1
  Ca  Ca14  1  0.93253093  0.26586426  0.91666667  1
  Ca  Ca15  1  0.93253093  0.66666667  0.41666667  1
  Ca  Ca16  1  0.33333333  0.26586426  0.41666667  1
  Ca  Ca17  1  0.73413574  0.06746907  0.41666667  1
  F  F18  1  0.50000000  0.00000000  0.00000000  1
  F  F19  1  0.00000000  0.50000000  0.00000000  1
  F  F20  1  0.50000000  0.50000000  0.00000000  1
  F  F21  1  0.00000000  0.50000000  0.50000000  1
  F  F22  1  0.50000000  0.00000000  0.50000000  1
  F  F23  1  0.50000000  0.50000000  0.50000000  1
  F  F24  1  0.16666667  0.33333333  0.33333333  1
  F  F25  1  0.66666667  0.83333333  0.33333333  1
  F  F26  1  0.16666667  0.83333333  0.33333333  1
  F  F27  1  0.66666667  0.83333333  0.83333333  1
  F  F28  1  0.16666667  0.33333333  0.83333333  1
  F  F29  1  0.16666667  0.83333333  0.83333333  1
  F  F30  1  0.83333333  0.66666667  0.66666667  1
  F  F31  1  0.33333333  0.16666667  0.66666667  1
  F  F32  1  0.83333333  0.16666667  0.66666667  1
  F  F33  1  0.33333333  0.16666667  0.16666667  1
  F  F34  1  0.83333333  0.66666667  0.16666667  1
  F  F35  1  0.83333333  0.16666667  0.16666667  1
  F  F36  1  0.31432906  0.46792235  0.96749153  1
  F  F37  1  -0.46792235  -0.15359330  0.96749153  1
  F  F38  1  0.15359330  -0.31432906  0.96749153  1
  F  F39  1  0.46792235  0.31432906  -0.46749153  1
  F  F40  1  -0.15359330  -0.46792235  -0.46749153  1
  F  F41  1  -0.31432906  0.15359330  -0.46749153  1
  F  F42  1  -0.31432906  -0.46792235  -0.96749153  1
  F  F43  1  0.46792235  0.15359330  -0.96749153  1
  F  F44  1  -0.15359330  0.31432906  -0.96749153  1
  F  F45  1  -0.46792235  -0.31432906  1.46749153  1
  F  F46  1  0.15359330  0.46792235  1.46749153  1
  F  F47  1  0.31432906  -0.15359330  1.46749153  1
  F  F48  1  0.98099572  0.80125569  1.30082486  1
  F  F49  1  0.19874431  0.17974004  1.30082486  1
  F  F50  1  0.82025996  0.01900428  1.30082486  1
  F  F51  1  1.13458902  0.64766239  -0.13415819  1
  F  F52  1  0.51307337  -0.13458902  -0.13415819  1
  F  F53  1  0.35233761  0.48692663  -0.13415819  1
  F  F54  1  0.35233761  -0.13458902  -0.63415819  1
  F  F55  1  1.13458902  0.48692663  -0.63415819  1
  F  F56  1  0.51307337  0.64766239  -0.63415819  1
  F  F57  1  0.19874431  0.01900428  1.80082486  1
  F  F58  1  0.82025996  0.80125569  1.80082486  1
  F  F59  1  0.98099572  0.17974004  1.80082486  1
  F  F60  1  0.64766239  1.13458902  1.63415819  1
  F  F61  1  -0.13458902  0.51307337  1.63415819  1
  F  F62  1  0.48692663  0.35233761  1.63415819  1
  F  F63  1  0.80125569  0.98099572  0.19917514  1
  F  F64  1  0.17974004  0.19874431  0.19917514  1
  F  F65  1  0.01900428  0.82025996  0.19917514  1
  F  F66  1  0.01900428  0.19874431  -0.30082486  1
  F  F67  1  0.80125569  0.82025996  -0.30082486  1
  F  F68  1  0.17974004  0.98099572  -0.30082486  1
  F  F69  1  -0.13458902  0.35233761  2.13415819  1
  F  F70  1  0.48692663  1.13458902  2.13415819  1
  F  F71  1  0.64766239  0.51307337  2.13415819  1
  Li  Li72  1  0.00000000  0.00000000  0.00000000  1
  Li  Li73  1  0.00000000  0.00000000  0.50000000  1
  Li  Li74  1  0.66666667  0.33333333  0.33333333  1
  Li  Li75  1  0.66666667  0.33333333  0.83333333  1
  Li  Li76  1  0.33333333  0.66666667  0.66666667  1
  Li  Li77  1  0.33333333  0.66666667  0.16666667  1
  Li  Li78  1  0.00000000  0.00000000  0.79346565  1
  Li  Li79  1  0.00000000  0.00000000  0.70653435  1
  Li  Li80  1  0.00000000  0.00000000  0.20653435  1
  Li  Li81  1  0.00000000  0.00000000  0.29346565  1
  Li  Li82  1  0.66666667  0.33333333  0.12679898  1
  Li  Li83  1  0.66666667  0.33333333  0.03986769  1
  Li  Li84  1  0.66666667  0.33333333  0.53986769  1
  Li  Li85  1  0.66666667  0.33333333  0.62679898  1
  Li  Li86  1  0.33333333  0.66666667  0.46013231  1
  Li  Li87  1  0.33333333  0.66666667  0.37320102  1
  Li  Li88  1  0.33333333  0.66666667  0.87320102  1
  Li  Li89  1  0.33333333  0.66666667  0.96013231  1
