# generated using pymatgen
data_Li2Ca3F8
_symmetry_space_group_name_H-M   'P 1'
_cell_length_a   18.79182107
_cell_length_b   18.79182107
_cell_length_c   3.80821473
_cell_angle_alpha   90.00000000
_cell_angle_beta   90.00000000
_cell_angle_gamma   90.00000000
_symmetry_Int_Tables_number   1
_chemical_formula_structural   Li2Ca3F8
_chemical_formula_sum   'Li16 Ca24 F64'
_cell_volume   1344.80453652
_cell_formula_units_Z   8
loop_
 _symmetry_equiv_pos_site_id
 _symmetry_equiv_pos_as_xyz
  1  'x, y, z'
loop_
 _atom_site_type_symbol
 _atom_site_label
 _atom_site_symmetry_multiplicity
 _atom_site_fract_x
 _atom_site_fract_y
 _atom_site_fract_z
 _atom_site_occupancy
  Ca  Ca0  1  0.39299819  0.00000000  0.25000000  1
  Ca  Ca1  1  0.10700181  0.00000000  0.75000000  1
  Ca  Ca2  1  0.25000000  0.14299819  0.50000000  1
  Ca  Ca3  1  0.25000000  0.85700181  -0.00000000  1
  Ca  Ca4  1  0.60700181  0.00000000  0.75000000  1
  Ca  Ca5  1  0.89299819  0.00000000  0.25000000  1
  Ca  Ca6  1  0.75000000  0.85700181  0.50000000  1
  Ca  Ca7  1  0.75000000  0.14299819  0.00000000  1
  Ca  Ca8  1  0.89299819  0.50000000  0.75000000  1
  Ca  Ca9  1  0.60700181  0.50000000  0.25000000  1
  Ca  Ca10  1  0.75000000  0.64299819  0.00000000  1
  Ca  Ca11  1  0.75000000  0.35700181  0.50000000  1
  Ca  Ca12  1  0.10700181  0.50000000  0.25000000  1
  Ca  Ca13  1  0.39299819  0.50000000  0.75000000  1
  Ca  Ca14  1  0.25000000  0.35700181  -0.00000000  1
  Ca  Ca15  1  0.25000000  0.64299819  0.50000000  1
  Ca  Ca16  1  0.00000000  0.25000000  0.37500000  1
  Ca  Ca17  1  0.00000000  0.75000000  0.62500000  1
  Ca  Ca18  1  0.50000000  0.25000000  0.62500000  1
  Ca  Ca19  1  0.50000000  0.75000000  0.37500000  1
  Ca  Ca20  1  0.50000000  0.75000000  0.87500000  1
  Ca  Ca21  1  0.50000000  0.25000000  0.12500000  1
  Ca  Ca22  1  0.00000000  0.75000000  0.12500000  1
  Ca  Ca23  1  0.00000000  0.25000000  0.87500000  1
  F  F24  1  0.02674111  0.31198706  0.21572244  1
  F  F25  1  0.47325889  -0.31198706  0.71572244  1
  F  F26  1  -0.06198706  0.77674111  0.46572244  1
  F  F27  1  0.56198706  0.22325889  0.96572244  1
  F  F28  1  0.47325889  0.31198706  -0.21572244  1
  F  F29  1  0.02674111  -0.31198706  0.28427756  1
  F  F30  1  0.56198706  0.77674111  0.53427756  1
  F  F31  1  -0.06198706  0.22325889  0.03427756  1
  F  F32  1  -0.02674111  -0.31198706  -0.21572244  1
  F  F33  1  0.52674111  0.31198706  0.28427756  1
  F  F34  1  1.06198706  0.22325889  0.53427756  1
  F  F35  1  0.43801294  0.77674111  0.03427756  1
  F  F36  1  0.52674111  -0.31198706  0.21572244  1
  F  F37  1  -0.02674111  0.31198706  0.71572244  1
  F  F38  1  0.43801294  0.22325889  0.46572244  1
  F  F39  1  1.06198706  0.77674111  0.96572244  1
  F  F40  1  0.52674111  0.81198706  0.71572244  1
  F  F41  1  0.97325889  0.18801294  1.21572244  1
  F  F42  1  0.43801294  1.27674111  0.96572244  1
  F  F43  1  1.06198706  0.72325889  1.46572244  1
  F  F44  1  0.97325889  0.81198706  0.28427756  1
  F  F45  1  0.52674111  0.18801294  0.78427756  1
  F  F46  1  1.06198706  1.27674111  1.03427756  1
  F  F47  1  0.43801294  0.72325889  0.53427756  1
  F  F48  1  0.47325889  0.18801294  0.28427756  1
  F  F49  1  1.02674111  0.81198706  0.78427756  1
  F  F50  1  1.56198706  0.72325889  1.03427756  1
  F  F51  1  0.93801294  1.27674111  0.53427756  1
  F  F52  1  1.02674111  0.18801294  0.71572244  1
  F  F53  1  0.47325889  0.81198706  1.21572244  1
  F  F54  1  0.93801294  0.72325889  0.96572244  1
  F  F55  1  1.56198706  1.27674111  1.46572244  1
  F  F56  1  0.26180909  0.47325324  0.78354172  1
  F  F57  1  0.23819091  0.52674676  0.28354172  1
  F  F58  1  0.77674676  0.01180909  0.03354172  1
  F  F59  1  0.72325324  0.98819091  0.53354172  1
  F  F60  1  0.23819091  0.47325324  0.21645828  1
  F  F61  1  0.26180909  0.52674676  0.71645828  1
  F  F62  1  0.72325324  0.01180909  0.96645828  1
  F  F63  1  0.77674676  0.98819091  0.46645828  1
  F  F64  1  0.73819091  0.52674676  0.21645828  1
  F  F65  1  0.76180909  0.47325324  0.71645828  1
  F  F66  1  0.22325324  0.98819091  0.96645828  1
  F  F67  1  0.27674676  0.01180909  0.46645828  1
  F  F68  1  0.76180909  0.52674676  0.78354172  1
  F  F69  1  0.73819091  0.47325324  0.28354172  1
  F  F70  1  0.27674676  0.98819091  0.03354172  1
  F  F71  1  0.22325324  0.01180909  0.53354172  1
  F  F72  1  0.76180909  0.97325324  0.28354172  1
  F  F73  1  0.73819091  0.02674676  0.78354172  1
  F  F74  1  0.27674676  0.51180909  0.53354172  1
  F  F75  1  0.22325324  0.48819091  0.03354172  1
  F  F76  1  0.73819091  0.97325324  0.71645828  1
  F  F77  1  0.76180909  0.02674676  0.21645828  1
  F  F78  1  0.22325324  0.51180909  0.46645828  1
  F  F79  1  0.27674676  0.48819091  0.96645828  1
  F  F80  1  0.23819091  0.02674676  0.71645828  1
  F  F81  1  0.26180909  0.97325324  0.21645828  1
  F  F82  1  0.72325324  0.48819091  0.46645828  1
  F  F83  1  0.77674676  0.51180909  0.96645828  1
  F  F84  1  0.26180909  0.02674676  0.28354172  1
  F  F85  1  0.23819091  0.97325324  0.78354172  1
  F  F86  1  0.77674676  0.48819091  0.53354172  1
  F  F87  1  0.72325324  0.51180909  0.03354172  1
  Li  Li88  1  0.30887476  0.55887476  0.12500000  1
  Li  Li89  1  0.19112524  0.44112524  0.62500000  1
  Li  Li90  1  0.69112524  0.05887476  0.37500000  1
  Li  Li91  1  0.80887476  0.94112524  0.87500000  1
  Li  Li92  1  0.69112524  0.44112524  0.87500000  1
  Li  Li93  1  0.80887476  0.55887476  0.37500000  1
  Li  Li94  1  0.30887476  0.94112524  0.62500000  1
  Li  Li95  1  0.19112524  0.05887476  0.12500000  1
  Li  Li96  1  0.80887476  0.05887476  0.62500000  1
  Li  Li97  1  0.69112524  0.94112524  0.12500000  1
  Li  Li98  1  0.19112524  0.55887476  0.87500000  1
  Li  Li99  1  0.30887476  0.44112524  0.37500000  1
  Li  Li100  1  0.19112524  0.94112524  0.37500000  1
  Li  Li101  1  0.30887476  0.05887476  0.87500000  1
  Li  Li102  1  0.80887476  0.44112524  0.12500000  1
  Li  Li103  1  0.69112524  0.55887476  0.62500000  1
