# generated using pymatgen
data_LiF
_symmetry_space_group_name_H-M   'P 1'
_cell_length_a   4.18281296
_cell_length_b   4.18281296
_cell_length_c   26.20507606
_cell_angle_alpha   90.00000000
_cell_angle_beta   90.00000000
_cell_angle_gamma   120.00000000
_symmetry_Int_Tables_number   1
_chemical_formula_structural   LiF
_chemical_formula_sum   'Li18 F18'
_cell_volume   397.05708213
_cell_formula_units_Z   18
loop_
 _symmetry_equiv_pos_site_id
 _symmetry_equiv_pos_as_xyz
  1  'x, y, z'
loop_
 _atom_site_type_symbol
 _atom_site_label
 _atom_site_symmetry_multiplicity
 _atom_site_fract_x
 _atom_site_fract_y
 _atom_site_fract_z
 _atom_site_occupancy
  F  F0  1  0.33333333  0.66666667  0.66729076  1
  F  F1  1  0.66666667  0.33333333  0.16729076  1
  F  F2  1  0.66666667  0.33333333  0.33270924  1
  F  F3  1  0.33333333  0.66666667  0.83270924  1
  F  F4  1  0.59806715  0.15547065  0.38755758  1
  F  F5  1  -0.15547065  0.44259650  0.38755758  1
  F  F6  1  -0.44259650  -0.59806715  0.38755758  1
  F  F7  1  -0.59806715  -0.15547065  0.88755758  1
  F  F8  1  0.15547065  -0.44259650  0.88755758  1
  F  F9  1  0.44259650  0.59806715  0.88755758  1
  F  F10  1  -0.59806715  -0.15547065  -0.38755758  1
  F  F11  1  0.15547065  -0.44259650  -0.38755758  1
  F  F12  1  0.44259650  0.59806715  -0.38755758  1
  F  F13  1  0.59806715  0.15547065  0.11244242  1
  F  F14  1  -0.15547065  0.44259650  0.11244242  1
  F  F15  1  -0.44259650  -0.59806715  0.11244242  1
  F  F16  1  0.66666667  0.33333333  0.25000000  1
  F  F17  1  0.33333333  0.66666667  0.75000000  1
  Li  Li18  1  0.28538658  0.86577757  0.98150569  1
  Li  Li19  1  0.13422243  0.41960901  0.98150569  1
  Li  Li20  1  0.58039099  0.71461342  0.98150569  1
  Li  Li21  1  0.71461342  0.13422243  0.48150569  1
  Li  Li22  1  0.86577757  0.58039099  0.48150569  1
  Li  Li23  1  0.41960901  0.28538658  0.48150569  1
  Li  Li24  1  0.71461342  0.13422243  0.01849431  1
  Li  Li25  1  0.86577757  0.58039099  0.01849431  1
  Li  Li26  1  0.41960901  0.28538658  0.01849431  1
  Li  Li27  1  0.28538658  0.86577757  0.51849431  1
  Li  Li28  1  0.13422243  0.41960901  0.51849431  1
  Li  Li29  1  0.58039099  0.71461342  0.51849431  1
  Li  Li30  1  0.00000000  0.00000000  0.25000000  1
  Li  Li31  1  0.00000000  0.00000000  0.75000000  1
  Li  Li32  1  0.33333333  0.66666667  0.25000000  1
  Li  Li33  1  0.66666667  0.33333333  0.75000000  1
  Li  Li34  1  0.00000000  0.00000000  0.00000000  1
  Li  Li35  1  0.00000000  0.00000000  0.50000000  1
