# generated using pymatgen
data_LiF
_symmetry_space_group_name_H-M   'P 1'
_cell_length_a   8.76056888
_cell_length_b   8.90351104
_cell_length_c   7.13035093
_cell_angle_alpha   90.00000000
_cell_angle_beta   90.00000000
_cell_angle_gamma   90.00000000
_symmetry_Int_Tables_number   1
_chemical_formula_structural   LiF
_chemical_formula_sum   'Li22 F22'
_cell_volume   556.16610204
_cell_formula_units_Z   22
loop_
 _symmetry_equiv_pos_site_id
 _symmetry_equiv_pos_as_xyz
  1  'x, y, z'
loop_
 _atom_site_type_symbol
 _atom_site_label
 _atom_site_symmetry_multiplicity
 _atom_site_fract_x
 _atom_site_fract_y
 _atom_site_fract_z
 _atom_site_occupancy
  F  F0  1  0.00000000  0.50000000  0.50000000  1
  F  F1  1  0.50000000  0.00000000  0.50000000  1
  F  F2  1  0.79124374  0.72980984  0.50000000  1
  F  F3  1  0.20875626  0.27019016  0.50000000  1
  F  F4  1  0.70875626  0.22980984  0.50000000  1
  F  F5  1  0.29124374  0.77019016  0.50000000  1
  F  F6  1  0.97788104  0.89124554  0.00000000  1
  F  F7  1  0.02211896  0.10875446  0.00000000  1
  F  F8  1  0.52211896  0.39124554  0.00000000  1
  F  F9  1  0.47788104  0.60875446  0.00000000  1
  F  F10  1  0.06851314  0.61591922  0.21561601  1
  F  F11  1  0.93148686  0.38408078  0.21561601  1
  F  F12  1  0.43148686  0.11591922  0.78438399  1
  F  F13  1  0.56851314  0.88408078  0.78438399  1
  F  F14  1  0.93148686  0.38408078  0.78438399  1
  F  F15  1  0.06851314  0.61591922  0.78438399  1
  F  F16  1  0.56851314  0.88408078  0.21561601  1
  F  F17  1  0.43148686  0.11591922  0.21561601  1
  F  F18  1  0.00000000  0.00000000  0.00000000  1
  F  F19  1  0.50000000  0.50000000  0.00000000  1
  F  F20  1  0.00000000  0.50000000  0.00000000  1
  F  F21  1  0.50000000  0.00000000  0.00000000  1
  Li  Li22  1  0.67564950  0.02459251  0.00000000  1
  Li  Li23  1  0.32435050  0.97540749  0.00000000  1
  Li  Li24  1  0.82435050  0.52459251  0.00000000  1
  Li  Li25  1  0.17564950  0.47540749  0.00000000  1
  Li  Li26  1  0.69761636  0.52481972  0.50000000  1
  Li  Li27  1  0.30238364  0.47518028  0.50000000  1
  Li  Li28  1  0.80238364  0.02481972  0.50000000  1
  Li  Li29  1  0.19761636  0.97518028  0.50000000  1
  Li  Li30  1  0.00000000  0.00000000  0.50000000  1
  Li  Li31  1  0.50000000  0.50000000  0.50000000  1
  Li  Li32  1  0.22614072  0.81347848  0.00000000  1
  Li  Li33  1  0.77385928  0.18652152  0.00000000  1
  Li  Li34  1  0.27385928  0.31347848  0.00000000  1
  Li  Li35  1  0.72614072  0.68652152  0.00000000  1
  Li  Li36  1  0.85251232  0.65540558  0.30441908  1
  Li  Li37  1  -0.85251232  -0.65540558  0.30441908  1
  Li  Li38  1  -0.35251232  1.15540558  -0.30441908  1
  Li  Li39  1  1.35251232  -0.15540558  -0.30441908  1
  Li  Li40  1  -0.85251232  -0.65540558  -0.30441908  1
  Li  Li41  1  0.85251232  0.65540558  -0.30441908  1
  Li  Li42  1  1.35251232  -0.15540558  0.30441908  1
  Li  Li43  1  -0.35251232  1.15540558  0.30441908  1
