# generated using pymatgen
data_LiY2Cu3P2Se
_symmetry_space_group_name_H-M   'P 1'
_cell_length_a   4.34212953
_cell_length_b   4.56315987
_cell_length_c   6.17671662
_cell_angle_alpha   95.79206702
_cell_angle_beta   100.19799275
_cell_angle_gamma   107.44899359
_symmetry_Int_Tables_number   1
_chemical_formula_structural   LiY2Cu3P2Se
_chemical_formula_sum   'Li1 Y2 Cu3 P2 Se1'
_cell_volume   113.35197012
_cell_formula_units_Z   1
loop_
 _symmetry_equiv_pos_site_id
 _symmetry_equiv_pos_as_xyz
  1  'x, y, z'
loop_
 _atom_site_type_symbol
 _atom_site_label
 _atom_site_symmetry_multiplicity
 _atom_site_fract_x
 _atom_site_fract_y
 _atom_site_fract_z
 _atom_site_occupancy
  P  P0  1  0.00000000  0.00000000  0.00000000  1
  P  P1  1  0.50000000  0.50000000  0.50000000  1
  Se  Se2  1  0.25000000  0.25000000  0.25000000  1
  Li  Li3  1  0.75000000  0.25000000  0.00000000  1
  Y  Y4  1  0.25000000  0.75000000  0.50000000  1
  Y  Y5  1  0.30441089  0.83345674  0.10781431  1
  Cu  Cu6  1  0.86945686  0.65896505  0.51455921  1
  Cu  Cu7  1  0.40359084  0.87843726  0.61944295  1
  Cu  Cu8  1  0.54784048  0.13785985  0.12905872  1
