# generated using pymatgen
data_LiF
_symmetry_space_group_name_H-M   'P 1'
_cell_length_a   4.52640404
_cell_length_b   4.52640404
_cell_length_c   15.26578826
_cell_angle_alpha   90.00000000
_cell_angle_beta   90.00000000
_cell_angle_gamma   120.00000000
_symmetry_Int_Tables_number   1
_chemical_formula_structural   LiF
_chemical_formula_sum   'Li20 F20'
_cell_volume   270.86725234
_cell_formula_units_Z   20
loop_
 _symmetry_equiv_pos_site_id
 _symmetry_equiv_pos_as_xyz
  1  'x, y, z'
loop_
 _atom_site_type_symbol
 _atom_site_label
 _atom_site_symmetry_multiplicity
 _atom_site_fract_x
 _atom_site_fract_y
 _atom_site_fract_z
 _atom_site_occupancy
  F  F0  1  0.30391979  0.55187416  0.39881436  1
  F  F1  1  0.44812584  0.75204563  0.39881436  1
  F  F2  1  0.24795437  0.69608021  0.39881436  1
  F  F3  1  0.44812584  0.69608021  0.60118564  1
  F  F4  1  0.24795437  0.55187416  0.60118564  1
  F  F5  1  0.30391979  0.75204563  0.60118564  1
  F  F6  1  0.00000000  0.00000000  0.50000000  1
  F  F7  1  0.92659387  0.41377577  0.55367019  1
  F  F8  1  0.58622423  0.51281809  0.55367019  1
  F  F9  1  0.48718191  0.07340613  0.55367019  1
  F  F10  1  0.58622423  0.07340613  0.44632981  1
  F  F11  1  0.48718191  0.41377577  0.44632981  1
  F  F12  1  0.92659387  0.51281809  0.44632981  1
  F  F13  1  0.66666667  0.33333333  0.50000000  1
  F  F14  1  0.25267007  0.74732993  0.50000000  1
  F  F15  1  0.25267007  0.50534013  0.50000000  1
  F  F16  1  0.49465987  0.74732993  0.50000000  1
  F  F17  1  0.58224607  0.41775393  0.50000000  1
  F  F18  1  0.58224607  0.16449214  0.50000000  1
  F  F19  1  0.83550786  0.41775393  0.50000000  1
  Li  Li20  1  0.15747742  0.39100454  0.92298584  1
  Li  Li21  1  -0.39100454  -0.23352712  0.92298584  1
  Li  Li22  1  0.23352712  -0.15747742  0.92298584  1
  Li  Li23  1  -0.39100454  -0.15747742  -0.92298584  1
  Li  Li24  1  0.23352712  0.39100454  -0.92298584  1
  Li  Li25  1  0.15747742  -0.23352712  -0.92298584  1
  Li  Li26  1  0.00000000  0.00000000  0.00000000  1
  Li  Li27  1  0.37679969  0.89883485  0.79671882  1
  Li  Li28  1  0.10116515  0.47796485  0.79671882  1
  Li  Li29  1  0.52203515  0.62320031  0.79671882  1
  Li  Li30  1  0.10116515  0.62320031  0.20328118  1
  Li  Li31  1  0.52203515  0.89883485  0.20328118  1
  Li  Li32  1  0.37679969  0.47796485  0.20328118  1
  Li  Li33  1  0.35175204  0.44274204  0.33343393  1
  Li  Li34  1  0.55725796  0.90901000  0.33343393  1
  Li  Li35  1  0.09099000  0.64824796  0.33343393  1
  Li  Li36  1  0.55725796  0.64824796  0.66656607  1
  Li  Li37  1  0.09099000  0.44274204  0.66656607  1
  Li  Li38  1  0.35175204  0.90901000  0.66656607  1
  Li  Li39  1  0.66666667  0.33333333  0.00000000  1
