# generated using pymatgen
data_LiF
_symmetry_space_group_name_H-M   'P 1'
_cell_length_a   7.77758554
_cell_length_b   6.02650304
_cell_length_c   12.04798910
_cell_angle_alpha   90.00000000
_cell_angle_beta   90.00000000
_cell_angle_gamma   90.00000000
_symmetry_Int_Tables_number   1
_chemical_formula_structural   LiF
_chemical_formula_sum   'Li20 F20'
_cell_volume   564.70904277
_cell_formula_units_Z   20
loop_
 _symmetry_equiv_pos_site_id
 _symmetry_equiv_pos_as_xyz
  1  'x, y, z'
loop_
 _atom_site_type_symbol
 _atom_site_label
 _atom_site_symmetry_multiplicity
 _atom_site_fract_x
 _atom_site_fract_y
 _atom_site_fract_z
 _atom_site_occupancy
  F  F0  1  0.14843562  0.25000000  0.05482292  1
  F  F1  1  0.35156438  0.75000000  0.55482292  1
  F  F2  1  0.85156438  0.75000000  0.94517708  1
  F  F3  1  0.64843562  0.25000000  0.44517708  1
  F  F4  1  0.95058894  0.25000000  0.11085910  1
  F  F5  1  0.54941106  0.75000000  0.61085910  1
  F  F6  1  0.04941106  0.75000000  0.88914090  1
  F  F7  1  0.45058894  0.25000000  0.38914090  1
  F  F8  1  0.55317590  0.54173746  0.31998998  1
  F  F9  1  0.94682410  0.45826254  0.81998998  1
  F  F10  1  0.44682410  0.04173746  0.68001002  1
  F  F11  1  0.05317590  0.95826254  0.18001002  1
  F  F12  1  0.44682410  0.45826254  0.68001002  1
  F  F13  1  0.05317590  0.54173746  0.18001002  1
  F  F14  1  0.55317590  0.95826254  0.31998998  1
  F  F15  1  0.94682410  0.04173746  0.81998998  1
  F  F16  1  0.00000000  0.00000000  0.00000000  1
  F  F17  1  0.50000000  0.00000000  0.50000000  1
  F  F18  1  0.00000000  0.50000000  0.00000000  1
  F  F19  1  0.50000000  0.50000000  0.50000000  1
  Li  Li20  1  0.92919604  0.39994643  0.25715394  1
  Li  Li21  1  -0.42919604  -0.39994643  0.75715394  1
  Li  Li22  1  -0.92919604  0.89994643  -0.25715394  1
  Li  Li23  1  1.42919604  0.10005357  0.24284606  1
  Li  Li24  1  -0.92919604  -0.39994643  -0.25715394  1
  Li  Li25  1  1.42919604  0.39994643  0.24284606  1
  Li  Li26  1  0.92919604  0.10005357  0.25715394  1
  Li  Li27  1  -0.42919604  0.89994643  0.75715394  1
  Li  Li28  1  0.00000000  0.00000000  0.50000000  1
  Li  Li29  1  0.50000000  0.00000000  0.00000000  1
  Li  Li30  1  0.00000000  0.50000000  0.50000000  1
  Li  Li31  1  0.50000000  0.50000000  -0.00000000  1
  Li  Li32  1  0.58233924  0.25000000  0.33991130  1
  Li  Li33  1  0.91766076  0.75000000  0.83991130  1
  Li  Li34  1  0.41766076  0.75000000  0.66008870  1
  Li  Li35  1  0.08233924  0.25000000  0.16008870  1
  Li  Li36  1  0.51152586  0.25000000  0.09785350  1
  Li  Li37  1  0.98847414  0.75000000  0.59785350  1
  Li  Li38  1  0.48847414  0.75000000  0.90214650  1
  Li  Li39  1  0.01152586  0.25000000  0.40214650  1
