# generated using pymatgen
data_LiF
_symmetry_space_group_name_H-M   'P 1'
_cell_length_a   6.94903826
_cell_length_b   6.94903826
_cell_length_c   8.14370780
_cell_angle_alpha   90.00000000
_cell_angle_beta   90.00000000
_cell_angle_gamma   90.00000000
_symmetry_Int_Tables_number   1
_chemical_formula_structural   LiF
_chemical_formula_sum   'Li17 F17'
_cell_volume   393.25258653
_cell_formula_units_Z   17
loop_
 _symmetry_equiv_pos_site_id
 _symmetry_equiv_pos_as_xyz
  1  'x, y, z'
loop_
 _atom_site_type_symbol
 _atom_site_label
 _atom_site_symmetry_multiplicity
 _atom_site_fract_x
 _atom_site_fract_y
 _atom_site_fract_z
 _atom_site_occupancy
  F  F0  1  0.23473894  0.15505510  0.00000000  1
  F  F1  1  -0.23473894  -0.15505510  -0.00000000  1
  F  F2  1  -0.15505510  0.23473894  -0.00000000  1
  F  F3  1  0.15505510  -0.23473894  0.00000000  1
  F  F4  1  -0.23473894  0.15505510  -0.00000000  1
  F  F5  1  0.23473894  -0.15505510  0.00000000  1
  F  F6  1  0.15505510  0.23473894  0.00000000  1
  F  F7  1  -0.15505510  -0.23473894  0.00000000  1
  F  F8  1  0.78528482  0.00000000  0.79461815  1
  F  F9  1  0.21471518  0.00000000  0.79461815  1
  F  F10  1  0.00000000  0.78528482  0.79461815  1
  F  F11  1  0.00000000  0.21471518  0.79461815  1
  F  F12  1  0.21471518  0.00000000  0.20538185  1
  F  F13  1  0.78528482  0.00000000  0.20538185  1
  F  F14  1  0.00000000  0.78528482  0.20538185  1
  F  F15  1  0.00000000  0.21471518  0.20538185  1
  F  F16  1  0.00000000  0.00000000  0.50000000  1
  Li  Li17  1  0.50000000  0.50000000  0.50000000  1
  Li  Li18  1  0.00000000  0.50000000  0.50000000  1
  Li  Li19  1  0.50000000  0.00000000  0.50000000  1
  Li  Li20  1  0.68986070  0.68986070  0.50000000  1
  Li  Li21  1  0.31013930  0.31013930  0.50000000  1
  Li  Li22  1  0.31013930  0.68986070  0.50000000  1
  Li  Li23  1  0.68986070  0.31013930  0.50000000  1
  Li  Li24  1  0.16898213  0.50000000  0.73814228  1
  Li  Li25  1  0.83101787  0.50000000  0.73814228  1
  Li  Li26  1  0.50000000  0.16898213  0.73814228  1
  Li  Li27  1  0.50000000  0.83101787  0.73814228  1
  Li  Li28  1  0.83101787  0.50000000  0.26185772  1
  Li  Li29  1  0.16898213  0.50000000  0.26185772  1
  Li  Li30  1  0.50000000  0.16898213  0.26185772  1
  Li  Li31  1  0.50000000  0.83101787  0.26185772  1
  Li  Li32  1  0.00000000  0.00000000  0.68840038  1
  Li  Li33  1  0.00000000  0.00000000  0.31159962  1
