# generated using pymatgen
data_Li2Ti2N5
_symmetry_space_group_name_H-M   'P 1'
_cell_length_a   3.34120314
_cell_length_b   3.60736863
_cell_length_c   5.98839803
_cell_angle_alpha   97.64215890
_cell_angle_beta   98.98961323
_cell_angle_gamma   119.62565230
_symmetry_Int_Tables_number   1
_chemical_formula_structural   Li2Ti2N5
_chemical_formula_sum   'Li2 Ti2 N5'
_cell_volume   60.08527741
_cell_formula_units_Z   1
loop_
 _symmetry_equiv_pos_site_id
 _symmetry_equiv_pos_as_xyz
  1  'x, y, z'
loop_
 _atom_site_type_symbol
 _atom_site_label
 _atom_site_symmetry_multiplicity
 _atom_site_fract_x
 _atom_site_fract_y
 _atom_site_fract_z
 _atom_site_occupancy
  N  N0  1  0.00000000  0.00000000  0.00000000  1
  N  N1  1  0.50000000  0.50000000  0.50000000  1
  N  N2  1  0.50000000  0.50000000  0.00000000  1
  N  N3  1  0.50000000  0.00000000  0.50000000  1
  N  N4  1  0.00000000  0.50000000  0.50000000  1
  Ti  Ti5  1  0.95260895  0.97150291  0.68051179  1
  Ti  Ti6  1  0.21765134  0.58154285  0.45351098  1
  Li  Li7  1  0.02916522  0.44223758  0.65781176  1
  Li  Li8  1  0.13136197  0.69454251  0.97866435  1
