# generated using pymatgen
data_LiF
_symmetry_space_group_name_H-M   'P 1'
_cell_length_a   8.70965330
_cell_length_b   8.70965330
_cell_length_c   8.70423871
_cell_angle_alpha   90.00000000
_cell_angle_beta   90.00000000
_cell_angle_gamma   90.00000000
_symmetry_Int_Tables_number   1
_chemical_formula_structural   LiF
_chemical_formula_sum   'Li36 F36'
_cell_volume   660.28666679
_cell_formula_units_Z   36
loop_
 _symmetry_equiv_pos_site_id
 _symmetry_equiv_pos_as_xyz
  1  'x, y, z'
loop_
 _atom_site_type_symbol
 _atom_site_label
 _atom_site_symmetry_multiplicity
 _atom_site_fract_x
 _atom_site_fract_y
 _atom_site_fract_z
 _atom_site_occupancy
  F  F0  1  0.00000000  0.00000000  0.50000000  1
  F  F1  1  0.50000000  0.00000000  0.00000000  1
  F  F2  1  0.25000000  0.75000000  0.75000000  1
  F  F3  1  0.25000000  0.25000000  0.25000000  1
  F  F4  1  0.50000000  0.50000000  0.00000000  1
  F  F5  1  0.00000000  0.50000000  0.50000000  1
  F  F6  1  0.75000000  0.25000000  0.25000000  1
  F  F7  1  0.75000000  0.75000000  0.75000000  1
  F  F8  1  0.00000000  0.00000000  0.00000000  1
  F  F9  1  0.50000000  0.00000000  0.50000000  1
  F  F10  1  0.25000000  0.75000000  0.25000000  1
  F  F11  1  0.25000000  0.25000000  0.75000000  1
  F  F12  1  0.50000000  0.50000000  0.50000000  1
  F  F13  1  0.00000000  0.50000000  0.00000000  1
  F  F14  1  0.75000000  0.25000000  0.75000000  1
  F  F15  1  0.75000000  0.75000000  0.25000000  1
  F  F16  1  0.00000000  0.25000000  0.13918153  1
  F  F17  1  0.00000000  0.75000000  0.38918153  1
  F  F18  1  0.50000000  0.25000000  0.36081847  1
  F  F19  1  0.50000000  0.75000000  0.11081847  1
  F  F20  1  0.50000000  0.75000000  0.63918153  1
  F  F21  1  0.50000000  0.25000000  0.88918153  1
  F  F22  1  0.00000000  0.75000000  0.86081847  1
  F  F23  1  0.00000000  0.25000000  0.61081847  1
  F  F24  1  0.00000000  0.25000000  0.98015510  1
  F  F25  1  0.00000000  0.75000000  0.23015510  1
  F  F26  1  0.50000000  0.25000000  0.51984490  1
  F  F27  1  0.50000000  0.75000000  0.26984490  1
  F  F28  1  0.50000000  0.75000000  0.48015510  1
  F  F29  1  0.50000000  0.25000000  0.73015510  1
  F  F30  1  0.00000000  0.75000000  0.01984490  1
  F  F31  1  0.00000000  0.25000000  0.76984490  1
  F  F32  1  0.00000000  0.75000000  0.12500000  1
  F  F33  1  0.50000000  0.75000000  0.37500000  1
  F  F34  1  0.50000000  0.25000000  0.62500000  1
  F  F35  1  0.00000000  0.25000000  0.87500000  1
  Li  Li36  1  0.19331807  0.56687826  0.45599988  1
  Li  Li37  1  0.30668193  -0.56687826  0.95599988  1
  Li  Li38  1  -0.31687826  0.94331807  0.70599988  1
  Li  Li39  1  0.81687826  0.05668193  1.20599988  1
  Li  Li40  1  0.30668193  0.56687826  0.04400012  1
  Li  Li41  1  0.19331807  -0.56687826  -0.45599988  1
  Li  Li42  1  0.81687826  0.94331807  -0.20599988  1
  Li  Li43  1  -0.31687826  0.05668193  0.29400012  1
  Li  Li44  1  -0.19331807  -0.56687826  -0.45599988  1
  Li  Li45  1  0.69331807  0.56687826  0.04400012  1
  Li  Li46  1  1.31687826  0.05668193  0.29400012  1
  Li  Li47  1  0.18312174  0.94331807  -0.20599988  1
  Li  Li48  1  0.69331807  -0.56687826  0.95599988  1
  Li  Li49  1  -0.19331807  0.56687826  0.45599988  1
  Li  Li50  1  0.18312174  0.05668193  1.20599988  1
  Li  Li51  1  1.31687826  0.94331807  0.70599988  1
  Li  Li52  1  0.69331807  1.06687826  0.95599988  1
  Li  Li53  1  0.80668193  -0.06687826  1.45599988  1
  Li  Li54  1  0.18312174  1.44331807  1.20599988  1
  Li  Li55  1  1.31687826  0.55668193  1.70599988  1
  Li  Li56  1  0.80668193  1.06687826  0.54400012  1
  Li  Li57  1  0.69331807  -0.06687826  0.04400012  1
  Li  Li58  1  1.31687826  1.44331807  0.29400012  1
  Li  Li59  1  0.18312174  0.55668193  0.79400012  1
  Li  Li60  1  0.30668193  -0.06687826  0.04400012  1
  Li  Li61  1  1.19331807  1.06687826  0.54400012  1
  Li  Li62  1  1.81687826  0.55668193  0.79400012  1
  Li  Li63  1  0.68312174  1.44331807  0.29400012  1
  Li  Li64  1  1.19331807  -0.06687826  1.45599988  1
  Li  Li65  1  0.30668193  1.06687826  0.95599988  1
  Li  Li66  1  0.68312174  0.55668193  1.70599988  1
  Li  Li67  1  1.81687826  1.44331807  1.20599988  1
  Li  Li68  1  0.00000000  0.25000000  0.37500000  1
  Li  Li69  1  0.00000000  0.75000000  0.62500000  1
  Li  Li70  1  0.50000000  0.75000000  0.87500000  1
  Li  Li71  1  0.50000000  0.25000000  0.12500000  1
