# generated using pymatgen
data_LiCaF3
_symmetry_space_group_name_H-M   'P 1'
_cell_length_a   6.57214936
_cell_length_b   6.57214936
_cell_length_c   33.92723176
_cell_angle_alpha   90.00000000
_cell_angle_beta   90.00000000
_cell_angle_gamma   120.00000000
_symmetry_Int_Tables_number   1
_chemical_formula_structural   LiCaF3
_chemical_formula_sum   'Li18 Ca18 F54'
_cell_volume   1269.09433859
_cell_formula_units_Z   18
loop_
 _symmetry_equiv_pos_site_id
 _symmetry_equiv_pos_as_xyz
  1  'x, y, z'
loop_
 _atom_site_type_symbol
 _atom_site_label
 _atom_site_symmetry_multiplicity
 _atom_site_fract_x
 _atom_site_fract_y
 _atom_site_fract_z
 _atom_site_occupancy
  Ca  Ca0  1  0.50825200  0.04234815  0.62241375  1
  Ca  Ca1  1  -0.04234815  0.46590384  0.62241375  1
  Ca  Ca2  1  -0.46590384  -0.50825200  0.62241375  1
  Ca  Ca3  1  -0.04234815  -0.50825200  -0.62241375  1
  Ca  Ca4  1  -0.46590384  0.04234815  -0.62241375  1
  Ca  Ca5  1  0.50825200  0.46590384  -0.62241375  1
  Ca  Ca6  1  0.33333333  0.66666667  0.50000000  1
  Ca  Ca7  1  0.66666667  0.33333333  0.00000000  1
  Ca  Ca8  1  0.01018266  0.24732641  0.56624116  1
  Ca  Ca9  1  0.75267359  0.76285625  0.56624116  1
  Ca  Ca10  1  0.23714375  0.98981734  0.56624116  1
  Ca  Ca11  1  0.75267359  0.98981734  0.43375884  1
  Ca  Ca12  1  0.23714375  0.24732641  0.43375884  1
  Ca  Ca13  1  0.01018266  0.76285625  0.43375884  1
  Ca  Ca14  1  0.00000000  0.00000000  0.50000000  1
  Ca  Ca15  1  0.33333333  0.66666667  0.85035441  1
  Ca  Ca16  1  0.33333333  0.66666667  0.14964559  1
  Ca  Ca17  1  0.66666667  0.33333333  0.50000000  1
  F  F18  1  0.66666667  0.33333333  0.10673269  1
  F  F19  1  0.66666667  0.33333333  0.89326731  1
  F  F20  1  0.82549663  0.17930026  0.06292256  1
  F  F21  1  0.82069974  0.64619637  0.06292256  1
  F  F22  1  0.35380363  0.17450337  0.06292256  1
  F  F23  1  0.82069974  0.17450337  0.93707744  1
  F  F24  1  0.35380363  0.17930026  0.93707744  1
  F  F25  1  0.82549663  0.64619637  0.93707744  1
  F  F26  1  0.13928259  0.29871570  0.16985889  1
  F  F27  1  0.70128430  0.84056690  0.16985889  1
  F  F28  1  0.15943310  0.86071741  0.16985889  1
  F  F29  1  0.70128430  0.86071741  0.83014111  1
  F  F30  1  0.15943310  0.29871570  0.83014111  1
  F  F31  1  0.13928259  0.84056690  0.83014111  1
  F  F32  1  0.30943764  0.26749518  0.06109886  1
  F  F33  1  0.73250482  0.04194246  0.06109886  1
  F  F34  1  0.95805754  0.69056236  0.06109886  1
  F  F35  1  0.73250482  0.69056236  0.93890114  1
  F  F36  1  0.95805754  0.26749518  0.93890114  1
  F  F37  1  0.30943764  0.04194246  0.93890114  1
  F  F38  1  0.47921762  0.69490993  0.87978858  1
  F  F39  1  0.30509007  0.78430769  0.87978858  1
  F  F40  1  0.21569231  0.52078238  0.87978858  1
  F  F41  1  0.30509007  0.52078238  0.12021142  1
  F  F42  1  0.21569231  0.69490993  0.12021142  1
  F  F43  1  0.47921762  0.78430769  0.12021142  1
  F  F44  1  0.96235129  0.91320758  0.79739744  1
  F  F45  1  0.08679242  0.04914371  0.79739744  1
  F  F46  1  0.95085629  0.03764871  0.79739744  1
  F  F47  1  0.08679242  0.03764871  0.20260256  1
  F  F48  1  0.95085629  0.91320758  0.20260256  1
  F  F49  1  0.96235129  0.04914371  0.20260256  1
  F  F50  1  0.43700753  0.80035104  0.54016178  1
  F  F51  1  0.19964896  0.63665648  0.54016178  1
  F  F52  1  0.36334352  0.56299247  0.54016178  1
  F  F53  1  0.19964896  0.56299247  0.45983822  1
  F  F54  1  0.36334352  0.80035104  0.45983822  1
  F  F55  1  0.43700753  0.63665648  0.45983822  1
  F  F56  1  0.46863198  0.74010496  0.09903046  1
  F  F57  1  0.25989504  0.72852702  0.09903046  1
  F  F58  1  0.27147298  0.53136802  0.09903046  1
  F  F59  1  0.25989504  0.53136802  0.90096954  1
  F  F60  1  0.27147298  0.74010496  0.90096954  1
  F  F61  1  0.46863198  0.72852702  0.90096954  1
  F  F62  1  0.00000000  0.00000000  0.00000000  1
  F  F63  1  0.86132255  0.38698984  0.54957100  1
  F  F64  1  0.61301016  0.47433271  0.54957100  1
  F  F65  1  0.52566729  0.13867745  0.54957100  1
  F  F66  1  0.61301016  0.13867745  0.45042900  1
  F  F67  1  0.52566729  0.38698984  0.45042900  1
  F  F68  1  0.86132255  0.47433271  0.45042900  1
  F  F69  1  0.00000000  0.00000000  0.65780234  1
  F  F70  1  0.00000000  0.00000000  0.34219766  1
  F  F71  1  0.33333333  0.66666667  0.00000000  1
  Li  Li72  1  0.29082770  0.01033982  0.50975047  1
  Li  Li73  1  0.98966018  0.28048788  0.50975047  1
  Li  Li74  1  0.71951212  0.70917230  0.50975047  1
  Li  Li75  1  0.98966018  0.70917230  0.49024953  1
  Li  Li76  1  0.71951212  0.01033982  0.49024953  1
  Li  Li77  1  0.29082770  0.28048788  0.49024953  1
  Li  Li78  1  0.33333333  0.66666667  0.71573273  1
  Li  Li79  1  0.33333333  0.66666667  0.28426727  1
  Li  Li80  1  0.66666667  0.33333333  0.70358284  1
  Li  Li81  1  0.66666667  0.33333333  0.29641716  1
  Li  Li82  1  0.37454830  0.99802216  0.90547998  1
  Li  Li83  1  0.00197784  0.37652615  0.90547998  1
  Li  Li84  1  0.62347385  0.62545170  0.90547998  1
  Li  Li85  1  0.00197784  0.62545170  0.09452002  1
  Li  Li86  1  0.62347385  0.99802216  0.09452002  1
  Li  Li87  1  0.37454830  0.37652615  0.09452002  1
  Li  Li88  1  0.00000000  0.00000000  0.88770199  1
  Li  Li89  1  0.00000000  0.00000000  0.11229801  1
