# generated using pymatgen
data_Li2O
_symmetry_space_group_name_H-M   'P 1'
_cell_length_a   6.45833647
_cell_length_b   6.45833647
_cell_length_c   6.79512557
_cell_angle_alpha   90.00000000
_cell_angle_beta   90.00000000
_cell_angle_gamma   120.00000000
_symmetry_Int_Tables_number   1
_chemical_formula_structural   Li2O
_chemical_formula_sum   'Li18 O9'
_cell_volume   245.45362669
_cell_formula_units_Z   9
loop_
 _symmetry_equiv_pos_site_id
 _symmetry_equiv_pos_as_xyz
  1  'x, y, z'
loop_
 _atom_site_type_symbol
 _atom_site_label
 _atom_site_symmetry_multiplicity
 _atom_site_fract_x
 _atom_site_fract_y
 _atom_site_fract_z
 _atom_site_occupancy
  Li  Li0  1  0.18928600  0.00000000  -0.00000000  1
  Li  Li1  1  0.00000000  0.18928600  0.00000000  1
  Li  Li2  1  0.81071400  0.81071400  0.00000000  1
  Li  Li3  1  0.84210891  -0.00000000  0.77273441  1
  Li  Li4  1  0.00000000  0.84210891  0.77273441  1
  Li  Li5  1  0.15789109  0.15789109  0.77273441  1
  Li  Li6  1  0.84210891  -0.00000000  0.22726559  1
  Li  Li7  1  0.00000000  0.84210891  0.22726559  1
  Li  Li8  1  0.15789109  0.15789109  0.22726559  1
  Li  Li9  1  0.49087403  0.00000000  0.68227528  1
  Li  Li10  1  0.00000000  0.49087403  0.68227528  1
  Li  Li11  1  0.50912597  0.50912597  0.68227528  1
  Li  Li12  1  0.49087403  0.00000000  0.31772472  1
  Li  Li13  1  0.00000000  0.49087403  0.31772472  1
  Li  Li14  1  0.50912597  0.50912597  0.31772472  1
  Li  Li15  1  0.00000000  0.00000000  0.50000000  1
  Li  Li16  1  0.33333333  0.66666667  0.50000000  1
  Li  Li17  1  0.66666667  0.33333333  0.50000000  1
  O  O18  1  0.33333333  0.66666667  0.00000000  1
  O  O19  1  0.66666667  0.33333333  0.00000000  1
  O  O20  1  0.93553583  0.00000000  0.64700113  1
  O  O21  1  0.00000000  0.93553583  0.64700113  1
  O  O22  1  -0.93553583  -0.93553583  0.64700113  1
  O  O23  1  0.93553583  0.00000000  -0.64700113  1
  O  O24  1  0.00000000  0.93553583  -0.64700113  1
  O  O25  1  -0.93553583  -0.93553583  -0.64700113  1
  O  O26  1  0.00000000  0.00000000  0.00000000  1
