# generated using pymatgen
data_LiF
_symmetry_space_group_name_H-M   'P 1'
_cell_length_a   9.75414423
_cell_length_b   8.37322372
_cell_length_c   8.11542840
_cell_angle_alpha   90.00000000
_cell_angle_beta   90.00000000
_cell_angle_gamma   90.00000000
_symmetry_Int_Tables_number   1
_chemical_formula_structural   LiF
_chemical_formula_sum   'Li24 F24'
_cell_volume   662.81651167
_cell_formula_units_Z   24
loop_
 _symmetry_equiv_pos_site_id
 _symmetry_equiv_pos_as_xyz
  1  'x, y, z'
loop_
 _atom_site_type_symbol
 _atom_site_label
 _atom_site_symmetry_multiplicity
 _atom_site_fract_x
 _atom_site_fract_y
 _atom_site_fract_z
 _atom_site_occupancy
  F  F0  1  0.67157677  0.04441460  0.67594732  1
  F  F1  1  0.82842323  0.95558540  0.17594732  1
  F  F2  1  0.32842323  0.54441460  0.32405268  1
  F  F3  1  0.17157677  0.45558540  0.82405268  1
  F  F4  1  0.32842323  0.95558540  0.32405268  1
  F  F5  1  0.17157677  0.04441460  0.82405268  1
  F  F6  1  0.67157677  0.45558540  0.67594732  1
  F  F7  1  0.82842323  0.54441460  0.17594732  1
  F  F8  1  0.87438868  0.65542537  0.49062244  1
  F  F9  1  0.62561132  0.34457463  0.99062244  1
  F  F10  1  0.12561132  0.15542537  0.50937756  1
  F  F11  1  0.37438868  0.84457463  0.00937756  1
  F  F12  1  0.12561132  0.34457463  0.50937756  1
  F  F13  1  0.37438868  0.65542537  0.00937756  1
  F  F14  1  0.87438868  0.84457463  0.49062244  1
  F  F15  1  0.62561132  0.15542537  0.99062244  1
  F  F16  1  0.00000000  0.00000000  0.00000000  1
  F  F17  1  0.50000000  -0.00000000  0.50000000  1
  F  F18  1  0.00000000  0.50000000  0.00000000  1
  F  F19  1  0.50000000  0.50000000  0.50000000  1
  F  F20  1  0.35187313  0.25000000  0.13246104  1
  F  F21  1  0.14812687  0.75000000  0.63246104  1
  F  F22  1  0.64812687  0.75000000  0.86753896  1
  F  F23  1  0.85187313  0.25000000  0.36753896  1
  Li  Li24  1  0.00000000  0.00000000  0.50000000  1
  Li  Li25  1  0.50000000  -0.00000000  0.00000000  1
  Li  Li26  1  0.00000000  0.50000000  0.50000000  1
  Li  Li27  1  0.50000000  0.50000000  0.00000000  1
  Li  Li28  1  0.75399058  0.25000000  0.02583600  1
  Li  Li29  1  0.74600942  0.75000000  0.52583600  1
  Li  Li30  1  0.24600942  0.75000000  0.97416400  1
  Li  Li31  1  0.25399058  0.25000000  0.47416400  1
  Li  Li32  1  0.07273561  0.57684185  0.05508027  1
  Li  Li33  1  0.42726439  -0.57684185  0.55508027  1
  Li  Li34  1  -0.07273561  1.07684185  -0.05508027  1
  Li  Li35  1  0.57273561  -0.07684185  0.44491973  1
  Li  Li36  1  -0.07273561  -0.57684185  -0.05508027  1
  Li  Li37  1  0.57273561  0.57684185  0.44491973  1
  Li  Li38  1  0.07273561  -0.07684185  0.05508027  1
  Li  Li39  1  0.42726439  1.07684185  0.55508027  1
  Li  Li40  1  0.97192080  0.08905931  0.25950695  1
  Li  Li41  1  0.52807920  0.91094069  0.75950695  1
  Li  Li42  1  0.02807920  0.58905931  0.74049305  1
  Li  Li43  1  0.47192080  0.41094069  0.24049305  1
  Li  Li44  1  0.02807920  0.91094069  0.74049305  1
  Li  Li45  1  0.47192080  0.08905931  0.24049305  1
  Li  Li46  1  0.97192080  0.41094069  0.25950695  1
  Li  Li47  1  0.52807920  0.58905931  0.75950695  1
