# generated using pymatgen
data_LiF
_symmetry_space_group_name_H-M   'P 1'
_cell_length_a   5.22187871
_cell_length_b   5.22187871
_cell_length_c   24.95466039
_cell_angle_alpha   90.00000000
_cell_angle_beta   90.00000000
_cell_angle_gamma   120.00000000
_symmetry_Int_Tables_number   1
_chemical_formula_structural   LiF
_chemical_formula_sum   'Li27 F27'
_cell_volume   589.29920700
_cell_formula_units_Z   27
loop_
 _symmetry_equiv_pos_site_id
 _symmetry_equiv_pos_as_xyz
  1  'x, y, z'
loop_
 _atom_site_type_symbol
 _atom_site_label
 _atom_site_symmetry_multiplicity
 _atom_site_fract_x
 _atom_site_fract_y
 _atom_site_fract_z
 _atom_site_occupancy
  F  F0  1  0.86322463  0.41840757  0.89553799  1
  F  F1  1  -0.41840757  0.44481706  0.89553799  1
  F  F2  1  -0.44481706  -0.86322463  0.89553799  1
  F  F3  1  0.86322463  0.41840757  -0.89553799  1
  F  F4  1  -0.41840757  0.44481706  -0.89553799  1
  F  F5  1  -0.44481706  -0.86322463  -0.89553799  1
  F  F6  1  0.41840757  0.86322463  -0.89553799  1
  F  F7  1  0.44481706  -0.41840757  -0.89553799  1
  F  F8  1  -0.86322463  -0.44481706  -0.89553799  1
  F  F9  1  0.41840757  0.86322463  0.89553799  1
  F  F10  1  0.44481706  -0.41840757  0.89553799  1
  F  F11  1  -0.86322463  -0.44481706  0.89553799  1
  F  F12  1  0.89383424  0.73923613  0.60832688  1
  F  F13  1  0.26076387  0.15459811  0.60832688  1
  F  F14  1  0.84540189  0.10616576  0.60832688  1
  F  F15  1  0.89383424  0.73923613  0.39167312  1
  F  F16  1  0.26076387  0.15459811  0.39167312  1
  F  F17  1  0.84540189  0.10616576  0.39167312  1
  F  F18  1  0.73923613  0.89383424  0.39167312  1
  F  F19  1  0.15459811  0.26076387  0.39167312  1
  F  F20  1  0.10616576  0.84540189  0.39167312  1
  F  F21  1  0.73923613  0.89383424  0.60832688  1
  F  F22  1  0.15459811  0.26076387  0.60832688  1
  F  F23  1  0.10616576  0.84540189  0.60832688  1
  F  F24  1  0.77001523  0.00000000  0.50000000  1
  F  F25  1  0.00000000  0.77001523  0.50000000  1
  F  F26  1  0.22998477  0.22998477  0.50000000  1
  Li  Li27  1  0.83355559  -0.00000000  0.32551934  1
  Li  Li28  1  0.00000000  0.83355559  0.32551934  1
  Li  Li29  1  0.16644441  0.16644441  0.32551934  1
  Li  Li30  1  0.83355559  -0.00000000  0.67448066  1
  Li  Li31  1  0.00000000  0.83355559  0.67448066  1
  Li  Li32  1  0.16644441  0.16644441  0.67448066  1
  Li  Li33  1  0.00000000  0.00000000  0.10720526  1
  Li  Li34  1  0.00000000  0.00000000  0.89279474  1
  Li  Li35  1  0.33333333  0.66666667  0.50000000  1
  Li  Li36  1  0.66666667  0.33333333  0.50000000  1
  Li  Li37  1  0.33333333  0.66666667  0.00000000  1
  Li  Li38  1  0.66666667  0.33333333  0.00000000  1
  Li  Li39  1  0.53865741  0.00000000  0.50000000  1
  Li  Li40  1  0.00000000  0.53865741  0.50000000  1
  Li  Li41  1  0.46134259  0.46134259  0.50000000  1
  Li  Li42  1  0.00000000  0.00000000  0.41210255  1
  Li  Li43  1  0.00000000  0.00000000  0.58789745  1
  Li  Li44  1  0.19381183  0.00000000  0.75435819  1
  Li  Li45  1  0.00000000  0.19381183  0.75435819  1
  Li  Li46  1  0.80618817  0.80618817  0.75435819  1
  Li  Li47  1  0.19381183  0.00000000  0.24564181  1
  Li  Li48  1  0.00000000  0.19381183  0.24564181  1
  Li  Li49  1  0.80618817  0.80618817  0.24564181  1
  Li  Li50  1  0.00000000  0.00000000  0.00000000  1
  Li  Li51  1  0.27589567  0.00000000  0.50000000  1
  Li  Li52  1  0.00000000  0.27589567  0.50000000  1
  Li  Li53  1  0.72410433  0.72410433  0.50000000  1
