# generated using pymatgen
data_LiF
_symmetry_space_group_name_H-M   'P 1'
_cell_length_a   4.90923716
_cell_length_b   8.04995598
_cell_length_c   5.90272930
_cell_angle_alpha   90.00000000
_cell_angle_beta   90.00000000
_cell_angle_gamma   90.00000000
_symmetry_Int_Tables_number   1
_chemical_formula_structural   LiF
_chemical_formula_sum   'Li8 F8'
_cell_volume   233.27080367
_cell_formula_units_Z   8
loop_
 _symmetry_equiv_pos_site_id
 _symmetry_equiv_pos_as_xyz
  1  'x, y, z'
loop_
 _atom_site_type_symbol
 _atom_site_label
 _atom_site_symmetry_multiplicity
 _atom_site_fract_x
 _atom_site_fract_y
 _atom_site_fract_z
 _atom_site_occupancy
  F  F0  1  0.41229179  0.50259228  0.43297207  1
  F  F1  1  -0.41229179  -0.50259228  0.43297207  1
  F  F2  1  0.08770821  1.00259228  -0.43297207  1
  F  F3  1  0.91229179  -0.00259228  -0.43297207  1
  F  F4  1  -0.41229179  -0.50259228  -0.43297207  1
  F  F5  1  0.41229179  0.50259228  -0.43297207  1
  F  F6  1  0.91229179  -0.00259228  0.43297207  1
  F  F7  1  0.08770821  1.00259228  0.43297207  1
  Li  Li8  1  0.87580346  0.22756810  0.76334849  1
  Li  Li9  1  0.12419654  0.77243190  0.76334849  1
  Li  Li10  1  0.62419654  0.72756810  0.23665151  1
  Li  Li11  1  0.37580346  0.27243190  0.23665151  1
  Li  Li12  1  0.12419654  0.77243190  0.23665151  1
  Li  Li13  1  0.87580346  0.22756810  0.23665151  1
  Li  Li14  1  0.37580346  0.27243190  0.76334849  1
  Li  Li15  1  0.62419654  0.72756810  0.76334849  1
