# generated using pymatgen
data_LiF
_symmetry_space_group_name_H-M   'P 1'
_cell_length_a   12.25383322
_cell_length_b   7.97793900
_cell_length_c   6.35767748
_cell_angle_alpha   90.00000000
_cell_angle_beta   90.00000000
_cell_angle_gamma   90.00000000
_symmetry_Int_Tables_number   1
_chemical_formula_structural   LiF
_chemical_formula_sum   'Li30 F30'
_cell_volume   621.52867390
_cell_formula_units_Z   30
loop_
 _symmetry_equiv_pos_site_id
 _symmetry_equiv_pos_as_xyz
  1  'x, y, z'
loop_
 _atom_site_type_symbol
 _atom_site_label
 _atom_site_symmetry_multiplicity
 _atom_site_fract_x
 _atom_site_fract_y
 _atom_site_fract_z
 _atom_site_occupancy
  F  F0  1  0.00000000  0.00000000  0.00000000  1
  F  F1  1  0.50000000  0.50000000  -0.00000000  1
  F  F2  1  0.62216798  0.99497124  0.41705094  1
  F  F3  1  -0.62216798  -0.99497124  0.41705094  1
  F  F4  1  -0.12216798  1.49497124  -0.41705094  1
  F  F5  1  1.12216798  -0.49497124  -0.41705094  1
  F  F6  1  -0.62216798  -0.99497124  -0.41705094  1
  F  F7  1  0.62216798  0.99497124  -0.41705094  1
  F  F8  1  1.12216798  -0.49497124  0.41705094  1
  F  F9  1  -0.12216798  1.49497124  0.41705094  1
  F  F10  1  0.71876091  0.12724787  0.91382133  1
  F  F11  1  0.28123909  0.87275213  0.91382133  1
  F  F12  1  0.78123909  0.62724787  0.08617867  1
  F  F13  1  0.21876091  0.37275213  0.08617867  1
  F  F14  1  0.28123909  0.87275213  0.08617867  1
  F  F15  1  0.71876091  0.12724787  0.08617867  1
  F  F16  1  0.21876091  0.37275213  0.91382133  1
  F  F17  1  0.78123909  0.62724787  0.91382133  1
  F  F18  1  0.00000000  0.00000000  0.64144916  1
  F  F19  1  0.50000000  0.50000000  0.35855084  1
  F  F20  1  0.00000000  0.00000000  0.35855084  1
  F  F21  1  0.50000000  0.50000000  0.64144916  1
  F  F22  1  0.15342854  0.17921757  0.23001638  1
  F  F23  1  0.84657146  0.82078243  0.23001638  1
  F  F24  1  0.34657146  0.67921757  0.76998362  1
  F  F25  1  0.65342854  0.32078243  0.76998362  1
  F  F26  1  0.84657146  0.82078243  0.76998362  1
  F  F27  1  0.15342854  0.17921757  0.76998362  1
  F  F28  1  0.65342854  0.32078243  0.23001638  1
  F  F29  1  0.34657146  0.67921757  0.23001638  1
  Li  Li30  1  0.23093191  0.97182863  0.50000000  1
  Li  Li31  1  0.76906809  0.02817137  0.50000000  1
  Li  Li32  1  0.26906809  0.47182863  0.50000000  1
  Li  Li33  1  0.73093191  0.52817137  0.50000000  1
  Li  Li34  1  0.20365784  0.05861612  0.00000000  1
  Li  Li35  1  0.79634216  0.94138388  0.00000000  1
  Li  Li36  1  0.29634216  0.55861612  0.00000000  1
  Li  Li37  1  0.70365784  0.44138388  0.00000000  1
  Li  Li38  1  0.37032203  0.81119150  0.50000000  1
  Li  Li39  1  0.62967797  0.18880850  0.50000000  1
  Li  Li40  1  0.12967797  0.31119150  0.50000000  1
  Li  Li41  1  0.87032203  0.68880850  0.50000000  1
  Li  Li42  1  0.11718510  0.72287701  -0.00000000  1
  Li  Li43  1  0.88281490  0.27712299  0.00000000  1
  Li  Li44  1  0.38281490  0.22287701  -0.00000000  1
  Li  Li45  1  0.61718510  0.77712299  0.00000000  1
  Li  Li46  1  0.00000000  0.00000000  0.16721622  1
  Li  Li47  1  0.50000000  0.50000000  0.83278378  1
  Li  Li48  1  0.00000000  0.00000000  0.83278378  1
  Li  Li49  1  0.50000000  0.50000000  0.16721622  1
  Li  Li50  1  0.14775352  0.41787704  0.73824805  1
  Li  Li51  1  0.85224648  0.58212296  0.73824805  1
  Li  Li52  1  0.35224648  0.91787704  0.26175195  1
  Li  Li53  1  0.64775352  0.08212296  0.26175195  1
  Li  Li54  1  0.85224648  0.58212296  0.26175195  1
  Li  Li55  1  0.14775352  0.41787704  0.26175195  1
  Li  Li56  1  0.64775352  0.08212296  0.73824805  1
  Li  Li57  1  0.35224648  0.91787704  0.73824805  1
  Li  Li58  1  0.00000000  0.50000000  0.50000000  1
  Li  Li59  1  0.50000000  0.00000000  0.50000000  1
