# generated using pymatgen
data_LiYAs2P
_symmetry_space_group_name_H-M   'P 1'
_cell_length_a   5.60981094
_cell_length_b   5.70438066
_cell_length_c   7.01808792
_cell_angle_alpha   93.41477289
_cell_angle_beta   97.61640155
_cell_angle_gamma   103.93280660
_symmetry_Int_Tables_number   1
_chemical_formula_structural   LiYAs2P
_chemical_formula_sum   'Li2 Y2 As4 P2'
_cell_volume   215.07278004
_cell_formula_units_Z   2
loop_
 _symmetry_equiv_pos_site_id
 _symmetry_equiv_pos_as_xyz
  1  'x, y, z'
loop_
 _atom_site_type_symbol
 _atom_site_label
 _atom_site_symmetry_multiplicity
 _atom_site_fract_x
 _atom_site_fract_y
 _atom_site_fract_z
 _atom_site_occupancy
  P  P0  1  0.12500000  0.00000000  0.25000000  1
  P  P1  1  0.00000000  0.00000000  0.00000000  1
  As  As2  1  0.37500000  0.00000000  0.25000000  1
  As  As3  1  0.25000000  0.25000000  0.25000000  1
  As  As4  1  0.00000000  0.25000000  0.12500000  1
  As  As5  1  0.39406524  0.87356909  0.25541976  1
  Li  Li6  1  0.31404066  0.84117287  0.41800349  1
  Li  Li7  1  0.43975015  0.86574635  0.09831285  1
  Y  Y8  1  0.11465352  0.04527730  0.78154453  1
  Y  Y9  1  0.15207994  0.34327113  0.42897586  1
