# generated using pymatgen
data_LiF
_symmetry_space_group_name_H-M   'P 1'
_cell_length_a   6.31982691
_cell_length_b   4.82748357
_cell_length_c   15.25652526
_cell_angle_alpha   90.00000000
_cell_angle_beta   90.00000000
_cell_angle_gamma   90.00000000
_symmetry_Int_Tables_number   1
_chemical_formula_structural   LiF
_chemical_formula_sum   'Li24 F24'
_cell_volume   465.45920158
_cell_formula_units_Z   24
loop_
 _symmetry_equiv_pos_site_id
 _symmetry_equiv_pos_as_xyz
  1  'x, y, z'
loop_
 _atom_site_type_symbol
 _atom_site_label
 _atom_site_symmetry_multiplicity
 _atom_site_fract_x
 _atom_site_fract_y
 _atom_site_fract_z
 _atom_site_occupancy
  F  F0  1  0.10826145  0.25000000  0.28621534  1
  F  F1  1  0.39173855  0.75000000  0.78621534  1
  F  F2  1  0.89173855  0.75000000  0.71378466  1
  F  F3  1  0.60826145  0.25000000  0.21378466  1
  F  F4  1  0.09890269  0.10669428  0.89629396  1
  F  F5  1  0.40109731  0.89330572  0.39629396  1
  F  F6  1  0.90109731  0.60669428  0.10370604  1
  F  F7  1  0.59890269  0.39330572  0.60370604  1
  F  F8  1  0.90109731  0.89330572  0.10370604  1
  F  F9  1  0.59890269  0.10669428  0.60370604  1
  F  F10  1  0.09890269  0.39330572  0.89629396  1
  F  F11  1  0.40109731  0.60669428  0.39629396  1
  F  F12  1  0.17677761  0.25000000  0.42010439  1
  F  F13  1  0.32322239  0.75000000  0.92010439  1
  F  F14  1  0.82322239  0.75000000  0.57989561  1
  F  F15  1  0.67677761  0.25000000  0.07989561  1
  F  F16  1  0.33493993  0.25000000  0.60600620  1
  F  F17  1  0.16506007  0.75000000  0.10600620  1
  F  F18  1  0.66506007  0.75000000  0.39399380  1
  F  F19  1  0.83493993  0.25000000  0.89399380  1
  F  F20  1  0.15296252  0.25000000  0.90645718  1
  F  F21  1  0.34703748  0.75000000  0.40645718  1
  F  F22  1  0.84703748  0.75000000  0.09354282  1
  F  F23  1  0.65296252  0.25000000  0.59354282  1
  Li  Li24  1  0.81737327  0.25000000  0.43728464  1
  Li  Li25  1  0.68262673  0.75000000  0.93728464  1
  Li  Li26  1  0.18262673  0.75000000  0.56271536  1
  Li  Li27  1  0.31737327  0.25000000  0.06271536  1
  Li  Li28  1  0.62775727  0.98141094  0.54764931  1
  Li  Li29  1  -0.12775727  -0.98141094  1.04764931  1
  Li  Li30  1  -0.62775727  1.48141094  -0.54764931  1
  Li  Li31  1  1.12775727  -0.48141094  -0.04764931  1
  Li  Li32  1  -0.62775727  -0.98141094  -0.54764931  1
  Li  Li33  1  1.12775727  0.98141094  -0.04764931  1
  Li  Li34  1  0.62775727  -0.48141094  0.54764931  1
  Li  Li35  1  -0.12775727  1.48141094  1.04764931  1
  Li  Li36  1  0.44052503  0.25000000  0.68438218  1
  Li  Li37  1  0.05947497  0.75000000  0.18438218  1
  Li  Li38  1  0.55947497  0.75000000  0.31561782  1
  Li  Li39  1  0.94052503  0.25000000  0.81561782  1
  Li  Li40  1  0.00000000  0.00000000  0.50000000  1
  Li  Li41  1  0.50000000  -0.00000000  0.00000000  1
  Li  Li42  1  0.00000000  0.50000000  0.50000000  1
  Li  Li43  1  0.50000000  0.50000000  -0.00000000  1
  Li  Li44  1  0.02813444  0.25000000  0.07594126  1
  Li  Li45  1  0.47186556  0.75000000  0.57594126  1
  Li  Li46  1  0.97186556  0.75000000  0.92405874  1
  Li  Li47  1  0.52813444  0.25000000  0.42405874  1
