# generated using pymatgen
data_LiF
_symmetry_space_group_name_H-M   'P 1'
_cell_length_a   9.78053919
_cell_length_b   12.34682750
_cell_length_c   5.40960910
_cell_angle_alpha   90.00000000
_cell_angle_beta   90.00000000
_cell_angle_gamma   90.00000000
_symmetry_Int_Tables_number   1
_chemical_formula_structural   LiF
_chemical_formula_sum   'Li22 F22'
_cell_volume   653.25698513
_cell_formula_units_Z   22
loop_
 _symmetry_equiv_pos_site_id
 _symmetry_equiv_pos_as_xyz
  1  'x, y, z'
loop_
 _atom_site_type_symbol
 _atom_site_label
 _atom_site_symmetry_multiplicity
 _atom_site_fract_x
 _atom_site_fract_y
 _atom_site_fract_z
 _atom_site_occupancy
  F  F0  1  0.73622440  0.09901351  0.06097612  1
  F  F1  1  -0.73622440  -0.09901351  0.06097612  1
  F  F2  1  -0.23622440  0.59901351  0.43902388  1
  F  F3  1  1.23622440  0.40098649  0.43902388  1
  F  F4  1  -0.73622440  -0.09901351  -0.06097612  1
  F  F5  1  0.73622440  0.09901351  -0.06097612  1
  F  F6  1  1.23622440  0.40098649  0.56097612  1
  F  F7  1  -0.23622440  0.59901351  0.56097612  1
  F  F8  1  0.00000000  0.50000000  0.94629064  1
  F  F9  1  0.50000000  -0.00000000  0.55370936  1
  F  F10  1  0.00000000  0.50000000  0.05370936  1
  F  F11  1  0.50000000  -0.00000000  0.44629064  1
  F  F12  1  0.00000000  0.00000000  0.00000000  1
  F  F13  1  0.50000000  0.50000000  0.50000000  1
  F  F14  1  0.22283950  0.84666109  -0.00000000  1
  F  F15  1  0.77716050  0.15333891  0.00000000  1
  F  F16  1  0.27716050  0.34666109  0.50000000  1
  F  F17  1  0.72283950  0.65333891  0.50000000  1
  F  F18  1  0.29367651  0.72780474  -0.00000000  1
  F  F19  1  0.70632349  0.27219526  0.00000000  1
  F  F20  1  0.20632349  0.22780474  0.50000000  1
  F  F21  1  0.79367651  0.77219526  0.50000000  1
  Li  Li22  1  0.00000000  0.00000000  0.50000000  1
  Li  Li23  1  0.50000000  0.50000000  0.00000000  1
  Li  Li24  1  0.12923712  0.02058599  0.32292058  1
  Li  Li25  1  0.87076288  0.97941401  0.32292058  1
  Li  Li26  1  0.37076288  0.52058599  0.17707942  1
  Li  Li27  1  0.62923712  0.47941401  0.17707942  1
  Li  Li28  1  0.87076288  0.97941401  0.67707942  1
  Li  Li29  1  0.12923712  0.02058599  0.67707942  1
  Li  Li30  1  0.62923712  0.47941401  0.82292058  1
  Li  Li31  1  0.37076288  0.52058599  0.82292058  1
  Li  Li32  1  0.00000000  0.50000000  0.62258172  1
  Li  Li33  1  0.50000000  -0.00000000  0.87741828  1
  Li  Li34  1  0.00000000  0.50000000  0.37741828  1
  Li  Li35  1  0.50000000  -0.00000000  0.12258172  1
  Li  Li36  1  0.86232830  0.29472587  0.00000000  1
  Li  Li37  1  0.13767170  0.70527413  0.00000000  1
  Li  Li38  1  0.63767170  0.79472587  0.50000000  1
  Li  Li39  1  0.36232830  0.20527413  0.50000000  1
  Li  Li40  1  0.92893070  0.13633002  0.00000000  1
  Li  Li41  1  0.07106930  0.86366998  0.00000000  1
  Li  Li42  1  0.57106930  0.63633002  0.50000000  1
  Li  Li43  1  0.42893070  0.36366998  0.50000000  1
