# generated using pymatgen
data_Li2Y2MoP3Se
_symmetry_space_group_name_H-M   'P 1'
_cell_length_a   5.55307416
_cell_length_b   5.78224937
_cell_length_c   7.03878314
_cell_angle_alpha   92.94235857
_cell_angle_beta   96.85055496
_cell_angle_gamma   102.35283161
_symmetry_Int_Tables_number   1
_chemical_formula_structural   Li2Y2MoP3Se
_chemical_formula_sum   'Li2 Y2 Mo1 P3 Se1'
_cell_volume   218.51228825
_cell_formula_units_Z   1
loop_
 _symmetry_equiv_pos_site_id
 _symmetry_equiv_pos_as_xyz
  1  'x, y, z'
loop_
 _atom_site_type_symbol
 _atom_site_label
 _atom_site_symmetry_multiplicity
 _atom_site_fract_x
 _atom_site_fract_y
 _atom_site_fract_z
 _atom_site_occupancy
  Se  Se0  1  0.00000000  0.00000000  0.00000000  1
  P  P1  1  0.50000000  0.50000000  0.50000000  1
  P  P2  1  0.25000000  0.25000000  0.25000000  1
  P  P3  1  0.75000000  0.25000000  0.00000000  1
  Mo  Mo4  1  0.25000000  0.75000000  0.50000000  1
  Li  Li5  1  0.62890838  0.19684864  0.92686326  1
  Li  Li6  1  0.39407842  0.91364844  0.37057275  1
  Y  Y7  1  0.18543049  0.95737220  0.59314877  1
  Y  Y8  1  0.36778138  0.47671385  0.08415372  1
