# generated using pymatgen
data_LiF
_symmetry_space_group_name_H-M   'P 1'
_cell_length_a   7.25350480
_cell_length_b   13.16212759
_cell_length_c   8.11072146
_cell_angle_alpha   90.00000000
_cell_angle_beta   90.00000000
_cell_angle_gamma   90.00000000
_symmetry_Int_Tables_number   1
_chemical_formula_structural   LiF
_chemical_formula_sum   'Li24 F24'
_cell_volume   774.34319549
_cell_formula_units_Z   24
loop_
 _symmetry_equiv_pos_site_id
 _symmetry_equiv_pos_as_xyz
  1  'x, y, z'
loop_
 _atom_site_type_symbol
 _atom_site_label
 _atom_site_symmetry_multiplicity
 _atom_site_fract_x
 _atom_site_fract_y
 _atom_site_fract_z
 _atom_site_occupancy
  F  F0  1  0.13975924  0.44494106  0.86722931  1
  F  F1  1  0.36024076  0.55505894  0.36722931  1
  F  F2  1  0.86024076  0.94494106  0.13277069  1
  F  F3  1  0.63975924  0.05505894  0.63277069  1
  F  F4  1  0.86024076  0.55505894  0.13277069  1
  F  F5  1  0.63975924  0.44494106  0.63277069  1
  F  F6  1  0.13975924  0.05505894  0.86722931  1
  F  F7  1  0.36024076  0.94494106  0.36722931  1
  F  F8  1  0.10680144  0.64710922  0.10005413  1
  F  F9  1  0.39319856  0.35289078  0.60005413  1
  F  F10  1  0.89319856  0.14710922  0.89994587  1
  F  F11  1  0.60680144  0.85289078  0.39994587  1
  F  F12  1  0.89319856  0.35289078  0.89994587  1
  F  F13  1  0.60680144  0.64710922  0.39994587  1
  F  F14  1  0.10680144  0.85289078  0.10005413  1
  F  F15  1  0.39319856  0.14710922  0.60005413  1
  F  F16  1  0.11098438  0.25000000  0.65953552  1
  F  F17  1  0.38901562  0.75000000  0.15953552  1
  F  F18  1  0.88901562  0.75000000  0.34046448  1
  F  F19  1  0.61098438  0.25000000  0.84046448  1
  F  F20  1  0.78018538  0.25000000  0.81430966  1
  F  F21  1  0.71981462  0.75000000  0.31430966  1
  F  F22  1  0.21981462  0.75000000  0.18569034  1
  F  F23  1  0.28018538  0.25000000  0.68569034  1
  Li  Li24  1  0.74448813  0.56337376  0.39220478  1
  Li  Li25  1  -0.24448813  -0.56337376  0.89220478  1
  Li  Li26  1  -0.74448813  1.06337376  -0.39220478  1
  Li  Li27  1  1.24448813  -0.06337376  0.10779522  1
  Li  Li28  1  -0.74448813  -0.56337376  -0.39220478  1
  Li  Li29  1  1.24448813  0.56337376  0.10779522  1
  Li  Li30  1  0.74448813  -0.06337376  0.39220478  1
  Li  Li31  1  -0.24448813  1.06337376  0.89220478  1
  Li  Li32  1  0.42717070  0.25000000  0.22874699  1
  Li  Li33  1  0.07282930  0.75000000  0.72874699  1
  Li  Li34  1  0.57282930  0.75000000  0.77125301  1
  Li  Li35  1  0.92717070  0.25000000  0.27125301  1
  Li  Li36  1  0.00000000  0.00000000  0.50000000  1
  Li  Li37  1  0.50000000  0.00000000  0.00000000  1
  Li  Li38  1  0.00000000  0.50000000  0.50000000  1
  Li  Li39  1  0.50000000  0.50000000  0.00000000  1
  Li  Li40  1  0.73169980  0.87256474  0.96391036  1
  Li  Li41  1  0.76830020  0.12743526  0.46391036  1
  Li  Li42  1  0.26830020  0.37256474  0.03608964  1
  Li  Li43  1  0.23169980  0.62743526  0.53608964  1
  Li  Li44  1  0.26830020  0.12743526  0.03608964  1
  Li  Li45  1  0.23169980  0.87256474  0.53608964  1
  Li  Li46  1  0.73169980  0.62743526  0.96391036  1
  Li  Li47  1  0.76830020  0.37256474  0.46391036  1
