# generated using pymatgen
data_LiF
_symmetry_space_group_name_H-M   'P 1'
_cell_length_a   6.97001695
_cell_length_b   6.97001695
_cell_length_c   13.10590504
_cell_angle_alpha   90.00000000
_cell_angle_beta   90.00000000
_cell_angle_gamma   120.00000000
_symmetry_Int_Tables_number   1
_chemical_formula_structural   LiF
_chemical_formula_sum   'Li16 F16'
_cell_volume   551.39816583
_cell_formula_units_Z   16
loop_
 _symmetry_equiv_pos_site_id
 _symmetry_equiv_pos_as_xyz
  1  'x, y, z'
loop_
 _atom_site_type_symbol
 _atom_site_label
 _atom_site_symmetry_multiplicity
 _atom_site_fract_x
 _atom_site_fract_y
 _atom_site_fract_z
 _atom_site_occupancy
  F  F0  1  0.93067484  0.06932516  0.00000000  1
  F  F1  1  0.93067484  0.86134968  0.00000000  1
  F  F2  1  0.13865032  0.06932516  0.00000000  1
  F  F3  1  0.66666667  0.33333333  0.93379585  1
  F  F4  1  0.66666667  0.33333333  0.06620415  1
  F  F5  1  0.29742120  0.16771221  0.89151135  1
  F  F6  1  0.83228779  0.12970899  0.89151135  1
  F  F7  1  0.87029101  0.70257880  0.89151135  1
  F  F8  1  0.83228779  0.70257880  0.10848865  1
  F  F9  1  0.87029101  0.16771221  0.10848865  1
  F  F10  1  0.29742120  0.12970899  0.10848865  1
  F  F11  1  0.41055507  0.58944493  0.50000000  1
  F  F12  1  0.41055507  0.82111014  0.50000000  1
  F  F13  1  0.17888986  0.58944493  0.50000000  1
  F  F14  1  0.33333333  0.66666667  0.35061180  1
  F  F15  1  0.33333333  0.66666667  0.64938820  1
  Li  Li16  1  0.33333333  0.66666667  0.57445026  1
  Li  Li17  1  0.33333333  0.66666667  0.42554974  1
  Li  Li18  1  0.52987732  0.46906498  0.85237682  1
  Li  Li19  1  -0.46906498  0.06081235  0.85237682  1
  Li  Li20  1  -0.06081235  -0.52987732  0.85237682  1
  Li  Li21  1  -0.46906498  -0.52987732  -0.85237682  1
  Li  Li22  1  -0.06081235  0.46906498  -0.85237682  1
  Li  Li23  1  0.52987732  0.06081235  -0.85237682  1
  Li  Li24  1  0.59012209  0.96157194  0.78202930  1
  Li  Li25  1  0.03842806  0.62855015  0.78202930  1
  Li  Li26  1  0.37144985  0.40987791  0.78202930  1
  Li  Li27  1  0.03842806  0.40987791  0.21797070  1
  Li  Li28  1  0.37144985  0.96157194  0.21797070  1
  Li  Li29  1  0.59012209  0.62855015  0.21797070  1
  Li  Li30  1  0.33333333  0.66666667  0.00000000  1
  Li  Li31  1  0.00000000  0.00000000  0.50000000  1
