# generated using pymatgen
data_LiF
_symmetry_space_group_name_H-M   'P 1'
_cell_length_a   12.90286931
_cell_length_b   12.90286931
_cell_length_c   11.38448646
_cell_angle_alpha   90.00000000
_cell_angle_beta   90.00000000
_cell_angle_gamma   120.00000000
_symmetry_Int_Tables_number   1
_chemical_formula_structural   LiF
_chemical_formula_sum   'Li47 F47'
_cell_volume   1641.40848384
_cell_formula_units_Z   47
loop_
 _symmetry_equiv_pos_site_id
 _symmetry_equiv_pos_as_xyz
  1  'x, y, z'
loop_
 _atom_site_type_symbol
 _atom_site_label
 _atom_site_symmetry_multiplicity
 _atom_site_fract_x
 _atom_site_fract_y
 _atom_site_fract_z
 _atom_site_occupancy
  F  F0  1  0.72643651  0.60262257  0.95184632  1
  F  F1  1  0.39737743  0.12381395  0.95184632  1
  F  F2  1  0.87618605  0.27356349  0.95184632  1
  F  F3  1  0.39737743  0.27356349  0.04815368  1
  F  F4  1  0.87618605  0.60262257  0.04815368  1
  F  F5  1  0.72643651  0.12381395  0.04815368  1
  F  F6  1  0.06303302  0.15020659  0.83548148  1
  F  F7  1  0.84979341  0.91282643  0.83548148  1
  F  F8  1  0.08717357  0.93696698  0.83548148  1
  F  F9  1  0.84979341  0.93696698  0.16451852  1
  F  F10  1  0.08717357  0.15020659  0.16451852  1
  F  F11  1  0.06303302  0.91282643  0.16451852  1
  F  F12  1  0.00000000  0.00000000  0.50000000  1
  F  F13  1  0.79370422  0.46912195  0.26707337  1
  F  F14  1  0.53087805  0.32458227  0.26707337  1
  F  F15  1  0.67541773  0.20629578  0.26707337  1
  F  F16  1  0.53087805  0.20629578  0.73292663  1
  F  F17  1  0.67541773  0.46912195  0.73292663  1
  F  F18  1  0.79370422  0.32458227  0.73292663  1
  F  F19  1  0.73908688  0.56486209  0.96179441  1
  F  F20  1  0.43513791  0.17422479  0.96179441  1
  F  F21  1  0.82577521  0.26091312  0.96179441  1
  F  F22  1  0.43513791  0.26091312  0.03820559  1
  F  F23  1  0.82577521  0.56486209  0.03820559  1
  F  F24  1  0.73908688  0.17422479  0.03820559  1
  F  F25  1  0.07083927  0.76925986  0.89632952  1
  F  F26  1  0.23074014  0.30157941  0.89632952  1
  F  F27  1  0.69842059  0.92916073  0.89632952  1
  F  F28  1  0.23074014  0.92916073  0.10367048  1
  F  F29  1  0.69842059  0.76925986  0.10367048  1
  F  F30  1  0.07083927  0.30157941  0.10367048  1
  F  F31  1  0.16721060  0.97938107  0.05144967  1
  F  F32  1  0.02061893  0.18782953  0.05144967  1
  F  F33  1  0.81217047  0.83278940  0.05144967  1
  F  F34  1  0.02061893  0.83278940  0.94855033  1
  F  F35  1  0.81217047  0.97938107  0.94855033  1
  F  F36  1  0.16721060  0.18782953  0.94855033  1
  F  F37  1  0.66666667  0.33333333  0.50000000  1
  F  F38  1  0.10464001  0.25292539  0.33128304  1
  F  F39  1  0.74707461  0.85171462  0.33128304  1
  F  F40  1  0.14828538  0.89535999  0.33128304  1
  F  F41  1  0.74707461  0.89535999  0.66871696  1
  F  F42  1  0.14828538  0.25292539  0.66871696  1
  F  F43  1  0.10464001  0.85171462  0.66871696  1
  F  F44  1  0.61585805  0.38414195  0.50000000  1
  F  F45  1  0.61585805  0.23171610  0.50000000  1
  F  F46  1  0.76828390  0.38414195  0.50000000  1
  Li  Li47  1  0.71568895  0.28431105  0.50000000  1
  Li  Li48  1  0.71568895  0.43137790  0.50000000  1
  Li  Li49  1  0.56862210  0.28431105  0.50000000  1
  Li  Li50  1  0.67172259  0.50383095  0.92162966  1
  Li  Li51  1  -0.50383095  0.16789164  0.92162966  1
  Li  Li52  1  -0.16789164  -0.67172259  0.92162966  1
  Li  Li53  1  -0.50383095  -0.67172259  -0.92162966  1
  Li  Li54  1  -0.16789164  0.50383095  -0.92162966  1
  Li  Li55  1  0.67172259  0.16789164  -0.92162966  1
  Li  Li56  1  0.13087265  0.94137068  0.93189086  1
  Li  Li57  1  0.05862932  0.18950198  0.93189086  1
  Li  Li58  1  0.81049802  0.86912735  0.93189086  1
  Li  Li59  1  0.05862932  0.86912735  0.06810914  1
  Li  Li60  1  0.81049802  0.94137068  0.06810914  1
  Li  Li61  1  0.13087265  0.18950198  0.06810914  1
  Li  Li62  1  0.19345515  0.80654485  0.00000000  1
  Li  Li63  1  0.19345515  0.38691031  -0.00000000  1
  Li  Li64  1  0.61308969  0.80654485  -0.00000000  1
  Li  Li65  1  0.95226005  0.15345515  0.41720464  1
  Li  Li66  1  0.84654485  0.79880490  0.41720464  1
  Li  Li67  1  0.20119510  0.04773995  0.41720464  1
  Li  Li68  1  0.84654485  0.04773995  0.58279536  1
  Li  Li69  1  0.20119510  0.15345515  0.58279536  1
  Li  Li70  1  0.95226005  0.79880490  0.58279536  1
  Li  Li71  1  0.97502116  0.58351934  0.68052589  1
  Li  Li72  1  0.41648066  0.39150182  0.68052589  1
  Li  Li73  1  0.60849818  0.02497884  0.68052589  1
  Li  Li74  1  0.41648066  0.02497884  0.31947411  1
  Li  Li75  1  0.60849818  0.58351934  0.31947411  1
  Li  Li76  1  0.97502116  0.39150182  0.31947411  1
  Li  Li77  1  0.99628319  0.11960708  0.69680082  1
  Li  Li78  1  0.88039292  0.87667610  0.69680082  1
  Li  Li79  1  0.12332390  0.00371681  0.69680082  1
  Li  Li80  1  0.88039292  0.00371681  0.30319918  1
  Li  Li81  1  0.12332390  0.11960708  0.30319918  1
  Li  Li82  1  0.99628319  0.87667610  0.30319918  1
  Li  Li83  1  0.66666667  0.33333333  -0.00000000  1
  Li  Li84  1  0.33333333  0.66666667  0.50000000  1
  Li  Li85  1  0.61184042  0.48860890  0.61105664  1
  Li  Li86  1  0.51139110  0.12323152  0.61105664  1
  Li  Li87  1  0.87676848  0.38815958  0.61105664  1
  Li  Li88  1  0.51139110  0.38815958  0.38894336  1
  Li  Li89  1  0.87676848  0.48860890  0.38894336  1
  Li  Li90  1  0.61184042  0.12323152  0.38894336  1
  Li  Li91  1  0.33333333  0.66666667  0.00000000  1
  Li  Li92  1  0.66666667  0.33333333  0.20980366  1
  Li  Li93  1  0.66666667  0.33333333  0.79019634  1
