# generated using pymatgen
data_LiF
_symmetry_space_group_name_H-M   'P 1'
_cell_length_a   12.73579332
_cell_length_b   12.73579332
_cell_length_c   3.53832019
_cell_angle_alpha   90.00000000
_cell_angle_beta   90.00000000
_cell_angle_gamma   120.00000000
_symmetry_Int_Tables_number   1
_chemical_formula_structural   LiF
_chemical_formula_sum   'Li18 F18'
_cell_volume   497.02675453
_cell_formula_units_Z   18
loop_
 _symmetry_equiv_pos_site_id
 _symmetry_equiv_pos_as_xyz
  1  'x, y, z'
loop_
 _atom_site_type_symbol
 _atom_site_label
 _atom_site_symmetry_multiplicity
 _atom_site_fract_x
 _atom_site_fract_y
 _atom_site_fract_z
 _atom_site_occupancy
  F  F0  1  0.52254947  0.00000000  0.25000000  1
  F  F1  1  0.00000000  0.52254947  0.25000000  1
  F  F2  1  -0.52254947  -0.52254947  0.25000000  1
  F  F3  1  -0.52254947  -0.00000000  0.75000000  1
  F  F4  1  0.00000000  -0.52254947  0.75000000  1
  F  F5  1  0.52254947  0.52254947  0.75000000  1
  F  F6  1  1.18921613  0.33333333  0.58333333  1
  F  F7  1  0.66666667  0.85588280  0.58333333  1
  F  F8  1  0.14411720  -0.18921613  0.58333333  1
  F  F9  1  0.14411720  0.33333333  1.08333333  1
  F  F10  1  0.66666667  -0.18921613  1.08333333  1
  F  F11  1  1.18921613  0.85588280  1.08333333  1
  F  F12  1  0.85588280  0.66666667  0.91666667  1
  F  F13  1  0.33333333  1.18921613  0.91666667  1
  F  F14  1  -0.18921613  0.14411720  0.91666667  1
  F  F15  1  -0.18921613  0.66666667  1.41666667  1
  F  F16  1  0.33333333  0.14411720  1.41666667  1
  F  F17  1  0.85588280  1.18921613  1.41666667  1
  Li  Li18  1  0.50000000  0.00000000  0.00000000  1
  Li  Li19  1  0.00000000  0.50000000  0.00000000  1
  Li  Li20  1  0.50000000  0.50000000  0.00000000  1
  Li  Li21  1  0.00000000  0.50000000  0.50000000  1
  Li  Li22  1  0.50000000  0.00000000  0.50000000  1
  Li  Li23  1  0.50000000  0.50000000  0.50000000  1
  Li  Li24  1  0.16666667  0.33333333  0.33333333  1
  Li  Li25  1  0.66666667  0.83333333  0.33333333  1
  Li  Li26  1  0.16666667  0.83333333  0.33333333  1
  Li  Li27  1  0.66666667  0.83333333  0.83333333  1
  Li  Li28  1  0.16666667  0.33333333  0.83333333  1
  Li  Li29  1  0.16666667  0.83333333  0.83333333  1
  Li  Li30  1  0.83333333  0.66666667  0.66666667  1
  Li  Li31  1  0.33333333  0.16666667  0.66666667  1
  Li  Li32  1  0.83333333  0.16666667  0.66666667  1
  Li  Li33  1  0.33333333  0.16666667  0.16666667  1
  Li  Li34  1  0.83333333  0.66666667  0.16666667  1
  Li  Li35  1  0.83333333  0.16666667  0.16666667  1
