# generated using pymatgen
data_LiF
_symmetry_space_group_name_H-M   'P 1'
_cell_length_a   7.32686737
_cell_length_b   7.32686737
_cell_length_c   5.85067529
_cell_angle_alpha   90.00000000
_cell_angle_beta   90.00000000
_cell_angle_gamma   120.00000000
_symmetry_Int_Tables_number   1
_chemical_formula_structural   LiF
_chemical_formula_sum   'Li12 F12'
_cell_volume   272.00274536
_cell_formula_units_Z   12
loop_
 _symmetry_equiv_pos_site_id
 _symmetry_equiv_pos_as_xyz
  1  'x, y, z'
loop_
 _atom_site_type_symbol
 _atom_site_label
 _atom_site_symmetry_multiplicity
 _atom_site_fract_x
 _atom_site_fract_y
 _atom_site_fract_z
 _atom_site_occupancy
  F  F0  1  0.66666667  0.33333333  0.50000000  1
  F  F1  1  0.69546565  0.07623031  0.61668473  1
  F  F2  1  -0.07623031  0.61923534  0.61668473  1
  F  F3  1  -0.61923534  -0.69546565  0.61668473  1
  F  F4  1  -0.07623031  -0.69546565  -0.61668473  1
  F  F5  1  -0.61923534  0.07623031  -0.61668473  1
  F  F6  1  0.69546565  0.61923534  -0.61668473  1
  F  F7  1  0.80317554  0.19682446  0.00000000  1
  F  F8  1  0.80317554  0.60635108  -0.00000000  1
  F  F9  1  0.39364892  0.19682446  -0.00000000  1
  F  F10  1  0.00000000  0.00000000  0.68284575  1
  F  F11  1  0.00000000  0.00000000  0.31715425  1
  Li  Li12  1  0.51534670  0.48465330  0.00000000  1
  Li  Li13  1  0.51534670  0.03069341  -0.00000000  1
  Li  Li14  1  0.96930659  0.48465330  -0.00000000  1
  Li  Li15  1  0.33333333  0.66666667  0.50000000  1
  Li  Li16  1  0.14156884  0.85843116  0.00000000  1
  Li  Li17  1  0.14156884  0.28313768  0.00000000  1
  Li  Li18  1  0.71686232  0.85843116  0.00000000  1
  Li  Li19  1  0.79980835  0.20019165  0.50000000  1
  Li  Li20  1  0.79980835  0.59961671  0.50000000  1
  Li  Li21  1  0.40038329  0.20019165  0.50000000  1
  Li  Li22  1  0.33333333  0.66666667  0.83757761  1
  Li  Li23  1  0.33333333  0.66666667  0.16242239  1
