# generated using pymatgen
data_Li2Ca3F8
_symmetry_space_group_name_H-M   'P 1'
_cell_length_a   17.19140853
_cell_length_b   17.19140853
_cell_length_c   9.08441946
_cell_angle_alpha   90.00000000
_cell_angle_beta   90.00000000
_cell_angle_gamma   120.00000000
_symmetry_Int_Tables_number   1
_chemical_formula_structural   Li2Ca3F8
_chemical_formula_sum   'Li16 Ca24 F64'
_cell_volume   2325.14869943
_cell_formula_units_Z   8
loop_
 _symmetry_equiv_pos_site_id
 _symmetry_equiv_pos_as_xyz
  1  'x, y, z'
loop_
 _atom_site_type_symbol
 _atom_site_label
 _atom_site_symmetry_multiplicity
 _atom_site_fract_x
 _atom_site_fract_y
 _atom_site_fract_z
 _atom_site_occupancy
  Ca  Ca0  1  0.01073412  0.51087938  0.62428476  1
  Ca  Ca1  1  0.48912062  0.49985474  0.62428476  1
  Ca  Ca2  1  0.50014526  0.98926588  0.62428476  1
  Ca  Ca3  1  0.48912062  0.98926588  0.37571524  1
  Ca  Ca4  1  0.50014526  0.51087938  0.37571524  1
  Ca  Ca5  1  0.01073412  0.49985474  0.37571524  1
  Ca  Ca6  1  0.31596885  0.89254223  0.09725975  1
  Ca  Ca7  1  0.10745777  0.42342662  0.09725975  1
  Ca  Ca8  1  0.57657338  0.68403115  0.09725975  1
  Ca  Ca9  1  0.10745777  0.68403115  0.90274025  1
  Ca  Ca10  1  0.57657338  0.89254223  0.90274025  1
  Ca  Ca11  1  0.31596885  0.42342662  0.90274025  1
  Ca  Ca12  1  0.90607725  0.03519662  0.76149523  1
  Ca  Ca13  1  0.96480338  0.87088064  0.76149523  1
  Ca  Ca14  1  0.12911936  0.09392275  0.76149523  1
  Ca  Ca15  1  0.96480338  0.09392275  0.23850477  1
  Ca  Ca16  1  0.12911936  0.03519662  0.23850477  1
  Ca  Ca17  1  0.90607725  0.87088064  0.23850477  1
  Ca  Ca18  1  0.84353140  0.15646860  0.50000000  1
  Ca  Ca19  1  0.84353140  0.68706280  0.50000000  1
  Ca  Ca20  1  0.31293720  0.15646860  0.50000000  1
  Ca  Ca21  1  0.23680520  0.76319480  0.50000000  1
  Ca  Ca22  1  0.23680520  0.47361040  0.50000000  1
  Ca  Ca23  1  0.52638960  0.76319480  0.50000000  1
  F  F24  1  0.33333333  0.66666667  0.32771800  1
  F  F25  1  0.33333333  0.66666667  0.67228200  1
  F  F26  1  0.93305765  0.25882948  0.52693219  1
  F  F27  1  -0.25882948  0.67422817  0.52693219  1
  F  F28  1  -0.67422817  -0.93305765  0.52693219  1
  F  F29  1  -0.25882948  -0.93305765  -0.52693219  1
  F  F30  1  -0.67422817  0.25882948  -0.52693219  1
  F  F31  1  0.93305765  0.67422817  -0.52693219  1
  F  F32  1  0.97651619  0.47422263  0.98120524  1
  F  F33  1  0.52577737  0.50229355  0.98120524  1
  F  F34  1  0.49770645  0.02348381  0.98120524  1
  F  F35  1  0.52577737  0.02348381  0.01879476  1
  F  F36  1  0.49770645  0.47422263  0.01879476  1
  F  F37  1  0.97651619  0.50229355  0.01879476  1
  F  F38  1  0.37253668  0.41362852  0.41711039  1
  F  F39  1  0.58637148  0.95890816  0.41711039  1
  F  F40  1  0.04109184  0.62746332  0.41711039  1
  F  F41  1  0.58637148  0.62746332  0.58288961  1
  F  F42  1  0.04109184  0.41362852  0.58288961  1
  F  F43  1  0.37253668  0.95890816  0.58288961  1
  F  F44  1  0.66236147  0.23908252  0.46540076  1
  F  F45  1  0.76091748  0.42327895  0.46540076  1
  F  F46  1  0.57672105  0.33763853  0.46540076  1
  F  F47  1  0.76091748  0.33763853  0.53459924  1
  F  F48  1  0.57672105  0.23908252  0.53459924  1
  F  F49  1  0.66236147  0.42327895  0.53459924  1
  F  F50  1  0.60052828  0.39947172  0.50000000  1
  F  F51  1  0.60052828  0.20105657  0.50000000  1
  F  F52  1  0.79894343  0.39947172  0.50000000  1
  F  F53  1  0.42355255  0.65097320  0.50116058  1
  F  F54  1  0.34902680  0.77257935  0.50116058  1
  F  F55  1  0.22742065  0.57644745  0.50116058  1
  F  F56  1  0.34902680  0.57644745  0.49883942  1
  F  F57  1  0.22742065  0.65097320  0.49883942  1
  F  F58  1  0.42355255  0.77257935  0.49883942  1
  F  F59  1  0.55749065  0.44250935  0.00000000  1
  F  F60  1  0.55749065  0.11498131  0.00000000  1
  F  F61  1  0.88501869  0.44250935  0.00000000  1
  F  F62  1  0.85493963  0.49882013  0.74900452  1
  F  F63  1  0.50117987  0.35611950  0.74900452  1
  F  F64  1  0.64388050  0.14506037  0.74900452  1
  F  F65  1  0.50117987  0.14506037  0.25099548  1
  F  F66  1  0.64388050  0.49882013  0.25099548  1
  F  F67  1  0.85493963  0.35611950  0.25099548  1
  F  F68  1  0.39184221  0.76070804  0.31265380  1
  F  F69  1  0.23929196  0.63113417  0.31265380  1
  F  F70  1  0.36886583  0.60815779  0.31265380  1
  F  F71  1  0.23929196  0.60815779  0.68734620  1
  F  F72  1  0.36886583  0.76070804  0.68734620  1
  F  F73  1  0.39184221  0.63113417  0.68734620  1
  F  F74  1  0.00000000  0.00000000  0.50000000  1
  F  F75  1  0.77604923  0.28096904  0.89575330  1
  F  F76  1  0.71903096  0.49508019  0.89575330  1
  F  F77  1  0.50491981  0.22395077  0.89575330  1
  F  F78  1  0.71903096  0.22395077  0.10424670  1
  F  F79  1  0.50491981  0.28096904  0.10424670  1
  F  F80  1  0.77604923  0.49508019  0.10424670  1
  F  F81  1  0.86966326  0.13033674  0.00000000  1
  F  F82  1  0.86966326  0.73932652  0.00000000  1
  F  F83  1  0.26067348  0.13033674  0.00000000  1
  F  F84  1  0.66666667  0.33333333  0.00000000  1
  F  F85  1  0.89539853  0.10460147  0.50000000  1
  F  F86  1  0.89539853  0.79079706  0.50000000  1
  F  F87  1  0.20920294  0.10460147  0.50000000  1
  Li  Li88  1  0.62646287  0.74614784  0.29928658  1
  Li  Li89  1  0.25385216  0.88031503  0.29928658  1
  Li  Li90  1  0.11968497  0.37353713  0.29928658  1
  Li  Li91  1  0.25385216  0.37353713  0.70071342  1
  Li  Li92  1  0.11968497  0.74614784  0.70071342  1
  Li  Li93  1  0.62646287  0.88031503  0.70071342  1
  Li  Li94  1  0.92890815  0.39866913  0.90895623  1
  Li  Li95  1  0.60133087  0.53023901  0.90895623  1
  Li  Li96  1  0.46976099  0.07109185  0.90895623  1
  Li  Li97  1  0.60133087  0.07109185  0.09104377  1
  Li  Li98  1  0.46976099  0.39866913  0.09104377  1
  Li  Li99  1  0.92890815  0.53023901  0.09104377  1
  Li  Li100  1  0.36340590  0.63659410  0.50000000  1
  Li  Li101  1  0.36340590  0.72681181  0.50000000  1
  Li  Li102  1  0.27318819  0.63659410  0.50000000  1
  Li  Li103  1  0.00000000  0.00000000  0.00000000  1
