# generated using pymatgen
data_Li2Si4Te3F12
_symmetry_space_group_name_H-M   'P 1'
_cell_length_a   13.03633380
_cell_length_b   13.03633380
_cell_length_c   4.33763193
_cell_angle_alpha   90.00000000
_cell_angle_beta   90.00000000
_cell_angle_gamma   90.00000000
_symmetry_Int_Tables_number   1
_chemical_formula_structural   Li2Si4Te3F12
_chemical_formula_sum   'Li8 Si16 Te12 F48'
_cell_volume   737.16319216
_cell_formula_units_Z   4
loop_
 _symmetry_equiv_pos_site_id
 _symmetry_equiv_pos_as_xyz
  1  'x, y, z'
loop_
 _atom_site_type_symbol
 _atom_site_label
 _atom_site_symmetry_multiplicity
 _atom_site_fract_x
 _atom_site_fract_y
 _atom_site_fract_z
 _atom_site_occupancy
  F  F0  1  0.76190253  0.18458140  0.02454997  1
  F  F1  1  -0.26190253  -0.18458140  0.52454997  1
  F  F2  1  0.06541860  1.51190253  0.27454997  1
  F  F3  1  0.43458140  -0.51190253  0.77454997  1
  F  F4  1  -0.26190253  0.18458140  0.47545003  1
  F  F5  1  0.76190253  -0.18458140  -0.02454997  1
  F  F6  1  0.43458140  1.51190253  0.22545003  1
  F  F7  1  0.06541860  -0.51190253  0.72545003  1
  F  F8  1  -0.76190253  -0.18458140  -0.02454997  1
  F  F9  1  1.26190253  0.18458140  0.47545003  1
  F  F10  1  0.93458140  -0.51190253  0.72545003  1
  F  F11  1  0.56541860  1.51190253  0.22545003  1
  F  F12  1  1.26190253  -0.18458140  0.52454997  1
  F  F13  1  -0.76190253  0.18458140  0.02454997  1
  F  F14  1  0.56541860  -0.51190253  0.77454997  1
  F  F15  1  0.93458140  1.51190253  0.27454997  1
  F  F16  1  1.26190253  0.68458140  0.52454997  1
  F  F17  1  0.23809747  0.31541860  1.02454997  1
  F  F18  1  0.56541860  2.01190253  0.77454997  1
  F  F19  1  0.93458140  -0.01190253  1.27454997  1
  F  F20  1  0.23809747  0.68458140  0.97545003  1
  F  F21  1  1.26190253  0.31541860  0.47545003  1
  F  F22  1  0.93458140  2.01190253  0.72545003  1
  F  F23  1  0.56541860  -0.01190253  1.22545003  1
  F  F24  1  -0.26190253  0.31541860  0.47545003  1
  F  F25  1  1.76190253  0.68458140  0.97545003  1
  F  F26  1  1.43458140  -0.01190253  1.22545003  1
  F  F27  1  1.06541860  2.01190253  0.72545003  1
  F  F28  1  1.76190253  0.31541860  1.02454997  1
  F  F29  1  -0.26190253  0.68458140  0.52454997  1
  F  F30  1  1.06541860  -0.01190253  1.27454997  1
  F  F31  1  1.43458140  2.01190253  0.77454997  1
  F  F32  1  0.00000000  0.80680668  0.59080570  1
  F  F33  1  0.50000000  0.19319332  0.09080570  1
  F  F34  1  0.44319332  0.75000000  0.84080570  1
  F  F35  1  0.05680668  0.25000000  0.34080570  1
  F  F36  1  0.50000000  0.80680668  0.90919430  1
  F  F37  1  0.00000000  0.19319332  0.40919430  1
  F  F38  1  0.05680668  0.75000000  0.65919430  1
  F  F39  1  0.44319332  0.25000000  0.15919430  1
  F  F40  1  0.50000000  0.30680668  0.09080570  1
  F  F41  1  0.00000000  0.69319332  0.59080570  1
  F  F42  1  0.94319332  0.25000000  0.34080570  1
  F  F43  1  0.55680668  0.75000000  0.84080570  1
  F  F44  1  0.00000000  0.30680668  0.40919430  1
  F  F45  1  0.50000000  0.69319332  0.90919430  1
  F  F46  1  0.55680668  0.25000000  0.15919430  1
  F  F47  1  0.94319332  0.75000000  0.65919430  1
  Li  Li48  1  0.00000000  0.00000000  0.50000000  1
  Li  Li49  1  0.50000000  0.00000000  0.00000000  1
  Li  Li50  1  0.25000000  0.75000000  0.75000000  1
  Li  Li51  1  0.25000000  0.25000000  0.25000000  1
  Li  Li52  1  0.50000000  0.50000000  0.00000000  1
  Li  Li53  1  0.00000000  0.50000000  0.50000000  1
  Li  Li54  1  0.75000000  0.25000000  0.25000000  1
  Li  Li55  1  0.75000000  0.75000000  0.75000000  1
  Si  Si56  1  0.23371043  0.48371043  0.87500000  1
  Si  Si57  1  0.26628957  0.51628957  0.37500000  1
  Si  Si58  1  0.76628957  0.98371043  0.12500000  1
  Si  Si59  1  0.73371043  0.01628957  0.62500000  1
  Si  Si60  1  0.76628957  0.51628957  0.12500000  1
  Si  Si61  1  0.73371043  0.48371043  0.62500000  1
  Si  Si62  1  0.23371043  0.01628957  0.87500000  1
  Si  Si63  1  0.26628957  0.98371043  0.37500000  1
  Si  Si64  1  0.73371043  0.98371043  0.37500000  1
  Si  Si65  1  0.76628957  0.01628957  0.87500000  1
  Si  Si66  1  0.26628957  0.48371043  0.62500000  1
  Si  Si67  1  0.23371043  0.51628957  0.12500000  1
  Si  Si68  1  0.26628957  0.01628957  0.62500000  1
  Si  Si69  1  0.23371043  0.98371043  0.12500000  1
  Si  Si70  1  0.73371043  0.51628957  0.37500000  1
  Si  Si71  1  0.76628957  0.48371043  0.87500000  1
  Te  Te72  1  0.00000000  0.00000000  0.00000000  1
  Te  Te73  1  0.50000000  0.00000000  0.50000000  1
  Te  Te74  1  0.25000000  0.75000000  0.25000000  1
  Te  Te75  1  0.25000000  0.25000000  0.75000000  1
  Te  Te76  1  0.50000000  0.50000000  0.50000000  1
  Te  Te77  1  0.00000000  0.50000000  0.00000000  1
  Te  Te78  1  0.75000000  0.25000000  0.75000000  1
  Te  Te79  1  0.75000000  0.75000000  0.25000000  1
  Te  Te80  1  0.00000000  0.75000000  0.12500000  1
  Te  Te81  1  0.50000000  0.75000000  0.37500000  1
  Te  Te82  1  0.50000000  0.25000000  0.62500000  1
  Te  Te83  1  0.00000000  0.25000000  0.87500000  1
