# generated using pymatgen
data_Li2O
_symmetry_space_group_name_H-M   'P 1'
_cell_length_a   11.04158985
_cell_length_b   11.04158985
_cell_length_c   4.79011555
_cell_angle_alpha   90.00000000
_cell_angle_beta   90.00000000
_cell_angle_gamma   120.00000000
_symmetry_Int_Tables_number   1
_chemical_formula_structural   Li2O
_chemical_formula_sum   'Li24 O12'
_cell_volume   505.75460213
_cell_formula_units_Z   12
loop_
 _symmetry_equiv_pos_site_id
 _symmetry_equiv_pos_as_xyz
  1  'x, y, z'
loop_
 _atom_site_type_symbol
 _atom_site_label
 _atom_site_symmetry_multiplicity
 _atom_site_fract_x
 _atom_site_fract_y
 _atom_site_fract_z
 _atom_site_occupancy
  Li  Li0  1  0.20250098  0.00000000  0.50000000  1
  Li  Li1  1  0.00000000  0.20250098  0.50000000  1
  Li  Li2  1  -0.20250098  -0.20250098  0.50000000  1
  Li  Li3  1  -0.20250098  0.00000000  0.50000000  1
  Li  Li4  1  0.00000000  -0.20250098  0.50000000  1
  Li  Li5  1  0.20250098  0.20250098  0.50000000  1
  Li  Li6  1  0.86916765  0.33333333  0.83333333  1
  Li  Li7  1  0.66666667  0.53583431  0.83333333  1
  Li  Li8  1  0.46416569  0.13083235  0.83333333  1
  Li  Li9  1  0.46416569  0.33333333  0.83333333  1
  Li  Li10  1  0.66666667  0.13083235  0.83333333  1
  Li  Li11  1  0.86916765  0.53583431  0.83333333  1
  Li  Li12  1  0.53583431  0.66666667  1.16666667  1
  Li  Li13  1  0.33333333  0.86916765  1.16666667  1
  Li  Li14  1  0.13083235  0.46416569  1.16666667  1
  Li  Li15  1  0.13083235  0.66666667  1.16666667  1
  Li  Li16  1  0.33333333  0.46416569  1.16666667  1
  Li  Li17  1  0.53583431  0.86916765  1.16666667  1
  Li  Li18  1  0.00000000  0.00000000  0.66220661  1
  Li  Li19  1  0.00000000  0.00000000  0.33779339  1
  Li  Li20  1  0.66666667  0.33333333  0.99553995  1
  Li  Li21  1  0.66666667  0.33333333  0.67112672  1
  Li  Li22  1  0.33333333  0.66666667  0.32887328  1
  Li  Li23  1  0.33333333  0.66666667  0.00446005  1
  O  O24  1  0.50000000  0.00000000  0.00000000  1
  O  O25  1  0.00000000  0.50000000  0.00000000  1
  O  O26  1  0.50000000  0.50000000  0.00000000  1
  O  O27  1  0.16666667  0.33333333  0.33333333  1
  O  O28  1  0.66666667  0.83333333  0.33333333  1
  O  O29  1  0.16666667  0.83333333  0.33333333  1
  O  O30  1  0.83333333  0.66666667  0.66666667  1
  O  O31  1  0.33333333  0.16666667  0.66666667  1
  O  O32  1  0.83333333  0.16666667  0.66666667  1
  O  O33  1  0.00000000  0.00000000  0.00000000  1
  O  O34  1  0.66666667  0.33333333  0.33333333  1
  O  O35  1  0.33333333  0.66666667  0.66666667  1
