# generated using pymatgen
data_Li2Ca3F8
_symmetry_space_group_name_H-M   'P 1'
_cell_length_a   12.20331244
_cell_length_b   12.20331244
_cell_length_c   14.27059842
_cell_angle_alpha   90.00000000
_cell_angle_beta   90.00000000
_cell_angle_gamma   120.00000000
_symmetry_Int_Tables_number   1
_chemical_formula_structural   Li2Ca3F8
_chemical_formula_sum   'Li16 Ca24 F64'
_cell_volume   1840.46803077
_cell_formula_units_Z   8
loop_
 _symmetry_equiv_pos_site_id
 _symmetry_equiv_pos_as_xyz
  1  'x, y, z'
loop_
 _atom_site_type_symbol
 _atom_site_label
 _atom_site_symmetry_multiplicity
 _atom_site_fract_x
 _atom_site_fract_y
 _atom_site_fract_z
 _atom_site_occupancy
  Ca  Ca0  1  0.80063781  0.00000000  -0.00000000  1
  Ca  Ca1  1  0.00000000  0.80063781  0.00000000  1
  Ca  Ca2  1  0.19936219  0.19936219  -0.00000000  1
  Ca  Ca3  1  0.27788705  0.00000000  0.50000000  1
  Ca  Ca4  1  0.00000000  0.27788705  0.50000000  1
  Ca  Ca5  1  0.72211295  0.72211295  0.50000000  1
  Ca  Ca6  1  0.75996777  0.10483670  0.18011454  1
  Ca  Ca7  1  0.89516330  0.65513107  0.18011454  1
  Ca  Ca8  1  0.34486893  0.24003223  0.18011454  1
  Ca  Ca9  1  0.75996777  0.10483670  0.81988546  1
  Ca  Ca10  1  0.89516330  0.65513107  0.81988546  1
  Ca  Ca11  1  0.34486893  0.24003223  0.81988546  1
  Ca  Ca12  1  0.10483670  0.75996777  0.81988546  1
  Ca  Ca13  1  0.65513107  0.89516330  0.81988546  1
  Ca  Ca14  1  0.24003223  0.34486893  0.81988546  1
  Ca  Ca15  1  0.10483670  0.75996777  0.18011454  1
  Ca  Ca16  1  0.65513107  0.89516330  0.18011454  1
  Ca  Ca17  1  0.24003223  0.34486893  0.18011454  1
  Ca  Ca18  1  0.33333333  0.66666667  0.00000000  1
  Ca  Ca19  1  0.66666667  0.33333333  0.00000000  1
  Ca  Ca20  1  0.00000000  0.00000000  0.00000000  1
  Ca  Ca21  1  0.71364798  0.00000000  0.50000000  1
  Ca  Ca22  1  0.00000000  0.71364798  0.50000000  1
  Ca  Ca23  1  0.28635202  0.28635202  0.50000000  1
  F  F24  1  0.46686912  0.37974489  0.82889887  1
  F  F25  1  -0.37974489  0.08712423  0.82889887  1
  F  F26  1  -0.08712423  -0.46686912  0.82889887  1
  F  F27  1  0.46686912  0.37974489  -0.82889887  1
  F  F28  1  -0.37974489  0.08712423  -0.82889887  1
  F  F29  1  -0.08712423  -0.46686912  -0.82889887  1
  F  F30  1  0.37974489  0.46686912  -0.82889887  1
  F  F31  1  0.08712423  -0.37974489  -0.82889887  1
  F  F32  1  -0.46686912  -0.08712423  -0.82889887  1
  F  F33  1  0.37974489  0.46686912  0.82889887  1
  F  F34  1  0.08712423  -0.37974489  0.82889887  1
  F  F35  1  -0.46686912  -0.08712423  0.82889887  1
  F  F36  1  0.30255074  0.60180184  0.40311385  1
  F  F37  1  0.39819816  0.70074889  0.40311385  1
  F  F38  1  0.29925111  0.69744926  0.40311385  1
  F  F39  1  0.30255074  0.60180184  0.59688615  1
  F  F40  1  0.39819816  0.70074889  0.59688615  1
  F  F41  1  0.29925111  0.69744926  0.59688615  1
  F  F42  1  0.60180184  0.30255074  0.59688615  1
  F  F43  1  0.70074889  0.39819816  0.59688615  1
  F  F44  1  0.69744926  0.29925111  0.59688615  1
  F  F45  1  0.60180184  0.30255074  0.40311385  1
  F  F46  1  0.70074889  0.39819816  0.40311385  1
  F  F47  1  0.69744926  0.29925111  0.40311385  1
  F  F48  1  0.69733306  0.90939495  0.33147238  1
  F  F49  1  0.09060505  0.78793811  0.33147238  1
  F  F50  1  0.21206189  0.30266694  0.33147238  1
  F  F51  1  0.69733306  0.90939495  0.66852762  1
  F  F52  1  0.09060505  0.78793811  0.66852762  1
  F  F53  1  0.21206189  0.30266694  0.66852762  1
  F  F54  1  0.90939495  0.69733306  0.66852762  1
  F  F55  1  0.78793811  0.09060505  0.66852762  1
  F  F56  1  0.30266694  0.21206189  0.66852762  1
  F  F57  1  0.90939495  0.69733306  0.33147238  1
  F  F58  1  0.78793811  0.09060505  0.33147238  1
  F  F59  1  0.30266694  0.21206189  0.33147238  1
  F  F60  1  0.78380636  0.47336970  0.24345099  1
  F  F61  1  0.52663030  0.31043666  0.24345099  1
  F  F62  1  0.68956334  0.21619364  0.24345099  1
  F  F63  1  0.78380636  0.47336970  0.75654901  1
  F  F64  1  0.52663030  0.31043666  0.75654901  1
  F  F65  1  0.68956334  0.21619364  0.75654901  1
  F  F66  1  0.47336970  0.78380636  0.75654901  1
  F  F67  1  0.31043666  0.52663030  0.75654901  1
  F  F68  1  0.21619364  0.68956334  0.75654901  1
  F  F69  1  0.47336970  0.78380636  0.24345099  1
  F  F70  1  0.31043666  0.52663030  0.24345099  1
  F  F71  1  0.21619364  0.68956334  0.24345099  1
  F  F72  1  0.83467923  0.00000000  0.18769498  1
  F  F73  1  0.00000000  0.83467923  0.18769498  1
  F  F74  1  0.16532077  0.16532077  0.18769498  1
  F  F75  1  0.83467923  0.00000000  0.81230502  1
  F  F76  1  0.00000000  0.83467923  0.81230502  1
  F  F77  1  0.16532077  0.16532077  0.81230502  1
  F  F78  1  0.31701649  0.00000000  0.00000000  1
  F  F79  1  0.00000000  0.31701649  0.00000000  1
  F  F80  1  0.68298351  0.68298351  0.00000000  1
  F  F81  1  0.08152552  0.63422910  0.00000000  1
  F  F82  1  0.36577090  0.44729643  -0.00000000  1
  F  F83  1  0.55270357  0.91847448  -0.00000000  1
  F  F84  1  0.63422910  0.08152552  -0.00000000  1
  F  F85  1  0.44729643  0.36577090  0.00000000  1
  F  F86  1  0.91847448  0.55270357  0.00000000  1
  F  F87  1  0.00000000  0.00000000  0.50000000  1
  Li  Li88  1  0.81746844  0.34741627  0.92498871  1
  Li  Li89  1  0.65258373  0.47005217  0.92498871  1
  Li  Li90  1  0.52994783  0.18253156  0.92498871  1
  Li  Li91  1  0.81746844  0.34741627  0.07501129  1
  Li  Li92  1  0.65258373  0.47005217  0.07501129  1
  Li  Li93  1  0.52994783  0.18253156  0.07501129  1
  Li  Li94  1  0.34741627  0.81746844  0.07501129  1
  Li  Li95  1  0.47005217  0.65258373  0.07501129  1
  Li  Li96  1  0.18253156  0.52994783  0.07501129  1
  Li  Li97  1  0.34741627  0.81746844  0.92498871  1
  Li  Li98  1  0.47005217  0.65258373  0.92498871  1
  Li  Li99  1  0.18253156  0.52994783  0.92498871  1
  Li  Li100  1  0.33333333  0.66666667  0.54758419  1
  Li  Li101  1  0.33333333  0.66666667  0.45241581  1
  Li  Li102  1  0.66666667  0.33333333  0.45241581  1
  Li  Li103  1  0.66666667  0.33333333  0.54758419  1
