# generated using pymatgen
data_LiF
_symmetry_space_group_name_H-M   'P 1'
_cell_length_a   12.99613932
_cell_length_b   12.99613932
_cell_length_c   11.52187907
_cell_angle_alpha   90.00000000
_cell_angle_beta   90.00000000
_cell_angle_gamma   120.00000000
_symmetry_Int_Tables_number   1
_chemical_formula_structural   LiF
_chemical_formula_sum   'Li90 F90'
_cell_volume   1685.32111262
_cell_formula_units_Z   90
loop_
 _symmetry_equiv_pos_site_id
 _symmetry_equiv_pos_as_xyz
  1  'x, y, z'
loop_
 _atom_site_type_symbol
 _atom_site_label
 _atom_site_symmetry_multiplicity
 _atom_site_fract_x
 _atom_site_fract_y
 _atom_site_fract_z
 _atom_site_occupancy
  F  F0  1  0.02777676  -0.00000000  0.25000000  1
  F  F1  1  0.00000000  0.02777676  0.25000000  1
  F  F2  1  0.97222324  0.97222324  0.25000000  1
  F  F3  1  0.97222324  -0.00000000  0.75000000  1
  F  F4  1  0.00000000  0.97222324  0.75000000  1
  F  F5  1  0.02777676  0.02777676  0.75000000  1
  F  F6  1  0.69444342  0.33333333  0.58333333  1
  F  F7  1  0.66666667  0.36111009  0.58333333  1
  F  F8  1  0.63888991  0.30555658  0.58333333  1
  F  F9  1  0.63888991  0.33333333  0.08333333  1
  F  F10  1  0.66666667  0.30555658  0.08333333  1
  F  F11  1  0.69444342  0.36111009  0.08333333  1
  F  F12  1  0.36111009  0.66666667  0.91666667  1
  F  F13  1  0.33333333  0.69444342  0.91666667  1
  F  F14  1  0.30555658  0.63888991  0.91666667  1
  F  F15  1  0.30555658  0.66666667  0.41666667  1
  F  F16  1  0.33333333  0.63888991  0.41666667  1
  F  F17  1  0.36111009  0.69444342  0.41666667  1
  F  F18  1  0.58427336  0.13140158  0.28444349  1
  F  F19  1  0.86859842  0.45287178  0.28444349  1
  F  F20  1  0.54712822  0.41572664  0.28444349  1
  F  F21  1  0.13140158  0.58427336  0.21555651  1
  F  F22  1  0.45287178  0.86859842  0.21555651  1
  F  F23  1  0.41572664  0.54712822  0.21555651  1
  F  F24  1  0.41572664  0.86859842  0.71555651  1
  F  F25  1  0.13140158  0.54712822  0.71555651  1
  F  F26  1  0.45287178  0.58427336  0.71555651  1
  F  F27  1  0.86859842  0.41572664  0.78444349  1
  F  F28  1  0.54712822  0.13140158  0.78444349  1
  F  F29  1  0.58427336  0.45287178  0.78444349  1
  F  F30  1  0.25094003  0.46473492  0.61777683  1
  F  F31  1  0.53526508  0.78620511  0.61777683  1
  F  F32  1  0.21379489  0.74905997  0.61777683  1
  F  F33  1  0.79806825  0.91760670  0.54888984  1
  F  F34  1  0.11953845  0.20193175  0.54888984  1
  F  F35  1  0.08239330  0.88046155  0.54888984  1
  F  F36  1  0.08239330  0.20193175  0.04888984  1
  F  F37  1  0.79806825  0.88046155  0.04888984  1
  F  F38  1  0.11953845  0.91760670  0.04888984  1
  F  F39  1  0.53526508  0.74905997  0.11777683  1
  F  F40  1  0.21379489  0.46473492  0.11777683  1
  F  F41  1  0.25094003  0.78620511  0.11777683  1
  F  F42  1  0.91760670  0.79806825  0.95111016  1
  F  F43  1  0.20193175  0.11953845  0.95111016  1
  F  F44  1  0.88046155  0.08239330  0.95111016  1
  F  F45  1  0.46473492  0.25094003  0.88222317  1
  F  F46  1  0.78620511  0.53526508  0.88222317  1
  F  F47  1  0.74905997  0.21379489  0.88222317  1
  F  F48  1  0.74905997  0.53526508  0.38222317  1
  F  F49  1  0.46473492  0.21379489  0.38222317  1
  F  F50  1  0.78620511  0.25094003  0.38222317  1
  F  F51  1  0.20193175  0.08239330  0.45111016  1
  F  F52  1  0.88046155  0.79806825  0.45111016  1
  F  F53  1  0.91760670  0.11953845  0.45111016  1
  F  F54  1  0.73919003  0.46867271  0.39142039  1
  F  F55  1  0.53132729  0.27051732  0.39142039  1
  F  F56  1  0.72948268  0.26080997  0.39142039  1
  F  F57  1  0.46867271  0.73919003  0.10857961  1
  F  F58  1  0.27051732  0.53132729  0.10857961  1
  F  F59  1  0.26080997  0.72948268  0.10857961  1
  F  F60  1  0.26080997  0.53132729  0.60857961  1
  F  F61  1  0.46867271  0.72948268  0.60857961  1
  F  F62  1  0.27051732  0.73919003  0.60857961  1
  F  F63  1  0.53132729  0.26080997  0.89142039  1
  F  F64  1  0.72948268  0.46867271  0.89142039  1
  F  F65  1  0.73919003  0.27051732  0.89142039  1
  F  F66  1  0.40585670  0.80200605  0.72475373  1
  F  F67  1  0.19799395  0.60385065  0.72475373  1
  F  F68  1  0.39614935  0.59414330  0.72475373  1
  F  F69  1  0.13533938  0.07252337  0.44191294  1
  F  F70  1  0.93718399  0.86466062  0.44191294  1
  F  F71  1  0.92747663  0.06281601  0.44191294  1
  F  F72  1  0.92747663  0.86466062  0.94191294  1
  F  F73  1  0.13533938  0.06281601  0.94191294  1
  F  F74  1  0.93718399  0.07252337  0.94191294  1
  F  F75  1  0.19799395  0.59414330  0.22475373  1
  F  F76  1  0.39614935  0.80200605  0.22475373  1
  F  F77  1  0.40585670  0.60385065  0.22475373  1
  F  F78  1  0.07252337  0.13533938  0.05808706  1
  F  F79  1  0.86466062  0.93718399  0.05808706  1
  F  F80  1  0.06281601  0.92747663  0.05808706  1
  F  F81  1  0.80200605  0.40585670  0.77524627  1
  F  F82  1  0.60385065  0.19799395  0.77524627  1
  F  F83  1  0.59414330  0.39614935  0.77524627  1
  F  F84  1  0.59414330  0.19799395  0.27524627  1
  F  F85  1  0.80200605  0.39614935  0.27524627  1
  F  F86  1  0.60385065  0.40585670  0.27524627  1
  F  F87  1  0.86466062  0.92747663  0.55808706  1
  F  F88  1  0.06281601  0.13533938  0.55808706  1
  F  F89  1  0.07252337  0.93718399  0.55808706  1
  Li  Li90  1  0.78780462  0.85073638  0.18889396  1
  Li  Li91  1  -0.85073638  -0.06293177  0.18889396  1
  Li  Li92  1  0.06293177  -0.78780462  0.18889396  1
  Li  Li93  1  0.85073638  0.78780462  0.31110604  1
  Li  Li94  1  -0.06293177  -0.85073638  0.31110604  1
  Li  Li95  1  -0.78780462  0.06293177  0.31110604  1
  Li  Li96  1  -0.78780462  -0.85073638  -0.18889396  1
  Li  Li97  1  0.85073638  0.06293177  -0.18889396  1
  Li  Li98  1  -0.06293177  0.78780462  -0.18889396  1
  Li  Li99  1  -0.85073638  -0.78780462  0.68889396  1
  Li  Li100  1  0.06293177  0.85073638  0.68889396  1
  Li  Li101  1  0.78780462  -0.06293177  0.68889396  1
  Li  Li102  1  1.45447128  1.18406972  0.52222730  1
  Li  Li103  1  -0.18406972  0.27040157  0.52222730  1
  Li  Li104  1  0.72959843  -0.45447128  0.52222730  1
  Li  Li105  1  1.51740305  1.12113795  0.64443937  1
  Li  Li106  1  0.60373490  -0.51740305  0.64443937  1
  Li  Li107  1  -0.12113795  0.39626510  0.64443937  1
  Li  Li108  1  -0.12113795  -0.51740305  0.14443937  1
  Li  Li109  1  1.51740305  0.39626510  0.14443937  1
  Li  Li110  1  0.60373490  1.12113795  0.14443937  1
  Li  Li111  1  -0.18406972  -0.45447128  1.02222730  1
  Li  Li112  1  0.72959843  1.18406972  1.02222730  1
  Li  Li113  1  1.45447128  0.27040157  1.02222730  1
  Li  Li114  1  1.12113795  1.51740305  0.85556063  1
  Li  Li115  1  -0.51740305  0.60373490  0.85556063  1
  Li  Li116  1  0.39626510  -0.12113795  0.85556063  1
  Li  Li117  1  1.18406972  1.45447128  0.97777270  1
  Li  Li118  1  0.27040157  -0.18406972  0.97777270  1
  Li  Li119  1  -0.45447128  0.72959843  0.97777270  1
  Li  Li120  1  -0.45447128  -0.18406972  0.47777270  1
  Li  Li121  1  1.18406972  0.72959843  0.47777270  1
  Li  Li122  1  0.27040157  1.45447128  0.47777270  1
  Li  Li123  1  -0.51740305  -0.12113795  1.35556063  1
  Li  Li124  1  0.39626510  1.51740305  1.35556063  1
  Li  Li125  1  1.12113795  0.60373490  1.35556063  1
  Li  Li126  1  0.05770252  0.63134150  0.22492575  1
  Li  Li127  1  0.36865850  0.42636102  0.22492575  1
  Li  Li128  1  0.57363898  0.94229748  0.22492575  1
  Li  Li129  1  0.63134150  0.05770252  0.27507425  1
  Li  Li130  1  0.42636102  0.36865850  0.27507425  1
  Li  Li131  1  0.94229748  0.57363898  0.27507425  1
  Li  Li132  1  0.94229748  0.36865850  0.77507425  1
  Li  Li133  1  0.63134150  0.57363898  0.77507425  1
  Li  Li134  1  0.42636102  0.05770252  0.77507425  1
  Li  Li135  1  0.36865850  0.94229748  0.72492575  1
  Li  Li136  1  0.57363898  0.63134150  0.72492575  1
  Li  Li137  1  0.05770252  0.42636102  0.72492575  1
  Li  Li138  1  0.72436919  0.96467483  0.55825908  1
  Li  Li139  1  0.03532517  0.75969435  0.55825908  1
  Li  Li140  1  0.24030565  0.27563081  0.55825908  1
  Li  Li141  1  0.29800817  0.39103586  0.60840759  1
  Li  Li142  1  0.09302769  0.70199183  0.60840759  1
  Li  Li143  1  0.60896414  0.90697231  0.60840759  1
  Li  Li144  1  0.60896414  0.70199183  0.10840759  1
  Li  Li145  1  0.29800817  0.90697231  0.10840759  1
  Li  Li146  1  0.09302769  0.39103586  0.10840759  1
  Li  Li147  1  0.03532517  0.27563081  0.05825908  1
  Li  Li148  1  0.24030565  0.96467483  0.05825908  1
  Li  Li149  1  0.72436919  0.75969435  0.05825908  1
  Li  Li150  1  0.39103586  0.29800817  0.89159241  1
  Li  Li151  1  0.70199183  0.09302769  0.89159241  1
  Li  Li152  1  0.90697231  0.60896414  0.89159241  1
  Li  Li153  1  0.96467483  0.72436919  0.94174092  1
  Li  Li154  1  0.75969435  0.03532517  0.94174092  1
  Li  Li155  1  0.27563081  0.24030565  0.94174092  1
  Li  Li156  1  0.27563081  0.03532517  0.44174092  1
  Li  Li157  1  0.96467483  0.24030565  0.44174092  1
  Li  Li158  1  0.75969435  0.72436919  0.44174092  1
  Li  Li159  1  0.70199183  0.60896414  0.39159241  1
  Li  Li160  1  0.90697231  0.29800817  0.39159241  1
  Li  Li161  1  0.39103586  0.09302769  0.39159241  1
  Li  Li162  1  0.76151585  -0.00000000  0.25000000  1
  Li  Li163  1  0.00000000  0.76151585  0.25000000  1
  Li  Li164  1  0.23848415  0.23848415  0.25000000  1
  Li  Li165  1  0.23848415  -0.00000000  0.75000000  1
  Li  Li166  1  0.00000000  0.23848415  0.75000000  1
  Li  Li167  1  0.76151585  0.76151585  0.75000000  1
  Li  Li168  1  0.42818252  0.33333333  0.58333333  1
  Li  Li169  1  0.66666667  0.09484919  0.58333333  1
  Li  Li170  1  0.90515081  0.57181748  0.58333333  1
  Li  Li171  1  0.90515081  0.33333333  0.08333333  1
  Li  Li172  1  0.66666667  0.57181748  0.08333333  1
  Li  Li173  1  0.42818252  0.09484919  0.08333333  1
  Li  Li174  1  0.09484919  0.66666667  0.91666667  1
  Li  Li175  1  0.33333333  0.42818252  0.91666667  1
  Li  Li176  1  0.57181748  0.90515081  0.91666667  1
  Li  Li177  1  0.57181748  0.66666667  0.41666667  1
  Li  Li178  1  0.33333333  0.90515081  0.41666667  1
  Li  Li179  1  0.09484919  0.42818252  0.41666667  1
