# generated using pymatgen
data_LiF
_symmetry_space_group_name_H-M   'P 1'
_cell_length_a   6.62683916
_cell_length_b   6.62683916
_cell_length_c   3.88057934
_cell_angle_alpha   90.00000000
_cell_angle_beta   90.00000000
_cell_angle_gamma   120.00000000
_symmetry_Int_Tables_number   1
_chemical_formula_structural   LiF
_chemical_formula_sum   'Li7 F7'
_cell_volume   147.58426549
_cell_formula_units_Z   7
loop_
 _symmetry_equiv_pos_site_id
 _symmetry_equiv_pos_as_xyz
  1  'x, y, z'
loop_
 _atom_site_type_symbol
 _atom_site_label
 _atom_site_symmetry_multiplicity
 _atom_site_fract_x
 _atom_site_fract_y
 _atom_site_fract_z
 _atom_site_occupancy
  F  F0  1  0.00000000  0.00000000  0.00000000  1
  F  F1  1  0.15981190  0.27729871  0.20404465  1
  F  F2  1  -0.27729871  -0.11748681  0.20404465  1
  F  F3  1  0.11748681  -0.15981190  0.20404465  1
  F  F4  1  -0.27729871  -0.15981190  -0.20404465  1
  F  F5  1  0.11748681  0.27729871  -0.20404465  1
  F  F6  1  0.15981190  -0.11748681  -0.20404465  1
  Li  Li7  1  0.25676428  0.74323572  0.50000000  1
  Li  Li8  1  0.25676428  0.51352856  0.50000000  1
  Li  Li9  1  0.48647144  0.74323572  0.50000000  1
  Li  Li10  1  0.66666667  0.33333333  0.00000000  1
  Li  Li11  1  0.25381998  0.74618002  0.00000000  1
  Li  Li12  1  0.25381998  0.50763997  0.00000000  1
  Li  Li13  1  0.49236003  0.74618002  0.00000000  1
