# generated using pymatgen
data_LiF
_symmetry_space_group_name_H-M   'P 1'
_cell_length_a   7.24837046
_cell_length_b   10.50240942
_cell_length_c   10.37626114
_cell_angle_alpha   90.00000000
_cell_angle_beta   90.00000000
_cell_angle_gamma   90.00000000
_symmetry_Int_Tables_number   1
_chemical_formula_structural   LiF
_chemical_formula_sum   'Li24 F24'
_cell_volume   789.89655408
_cell_formula_units_Z   24
loop_
 _symmetry_equiv_pos_site_id
 _symmetry_equiv_pos_as_xyz
  1  'x, y, z'
loop_
 _atom_site_type_symbol
 _atom_site_label
 _atom_site_symmetry_multiplicity
 _atom_site_fract_x
 _atom_site_fract_y
 _atom_site_fract_z
 _atom_site_occupancy
  F  F0  1  0.35024270  0.64954278  0.43030654  1
  F  F1  1  0.14975730  -0.64954278  0.93030654  1
  F  F2  1  -0.35024270  1.14954278  -0.43030654  1
  F  F3  1  0.85024270  -0.14954278  0.06969346  1
  F  F4  1  -0.35024270  -0.64954278  -0.43030654  1
  F  F5  1  0.85024270  0.64954278  0.06969346  1
  F  F6  1  0.35024270  -0.14954278  0.43030654  1
  F  F7  1  0.14975730  1.14954278  0.93030654  1
  F  F8  1  0.71297632  0.25000000  0.56653217  1
  F  F9  1  0.78702368  0.75000000  0.06653217  1
  F  F10  1  0.28702368  0.75000000  0.43346783  1
  F  F11  1  0.21297632  0.25000000  0.93346783  1
  F  F12  1  0.14357340  0.44686418  0.34632548  1
  F  F13  1  0.35642660  0.55313582  0.84632548  1
  F  F14  1  0.85642660  0.94686418  0.65367452  1
  F  F15  1  0.64357340  0.05313582  0.15367452  1
  F  F16  1  0.85642660  0.55313582  0.65367452  1
  F  F17  1  0.64357340  0.44686418  0.15367452  1
  F  F18  1  0.14357340  0.05313582  0.34632548  1
  F  F19  1  0.35642660  0.94686418  0.84632548  1
  F  F20  1  0.78057902  0.25000000  0.07242131  1
  F  F21  1  0.71942098  0.75000000  0.57242131  1
  F  F22  1  0.21942098  0.75000000  0.92757869  1
  F  F23  1  0.28057902  0.25000000  0.42757869  1
  Li  Li24  1  0.00000000  0.00000000  0.00000000  1
  Li  Li25  1  0.50000000  0.00000000  0.50000000  1
  Li  Li26  1  0.00000000  0.50000000  0.00000000  1
  Li  Li27  1  0.50000000  0.50000000  0.50000000  1
  Li  Li28  1  0.00969990  0.25000000  0.68252723  1
  Li  Li29  1  0.49030010  0.75000000  0.18252723  1
  Li  Li30  1  0.99030010  0.75000000  0.31747277  1
  Li  Li31  1  0.50969990  0.25000000  0.81747277  1
  Li  Li32  1  0.69049984  0.25000000  0.93883555  1
  Li  Li33  1  0.80950016  0.75000000  0.43883555  1
  Li  Li34  1  0.30950016  0.75000000  0.06116445  1
  Li  Li35  1  0.19049984  0.25000000  0.56116445  1
  Li  Li36  1  0.00000000  0.00000000  0.50000000  1
  Li  Li37  1  0.50000000  0.00000000  0.00000000  1
  Li  Li38  1  0.00000000  0.50000000  0.50000000  1
  Li  Li39  1  0.50000000  0.50000000  0.00000000  1
  Li  Li40  1  0.87712501  0.25000000  0.85230913  1
  Li  Li41  1  0.62287499  0.75000000  0.35230913  1
  Li  Li42  1  0.12287499  0.75000000  0.14769087  1
  Li  Li43  1  0.37712501  0.25000000  0.64769087  1
  Li  Li44  1  0.65503815  0.25000000  0.27129940  1
  Li  Li45  1  0.84496185  0.75000000  0.77129940  1
  Li  Li46  1  0.34496185  0.75000000  0.72870060  1
  Li  Li47  1  0.15503815  0.25000000  0.22870060  1
