# generated using pymatgen
data_Li2Y2MoP3Se2
_symmetry_space_group_name_H-M   'P 1'
_cell_length_a   5.42060465
_cell_length_b   5.51399209
_cell_length_c   7.19911387
_cell_angle_alpha   94.06560037
_cell_angle_beta   98.85403237
_cell_angle_gamma   106.32990082
_symmetry_Int_Tables_number   1
_chemical_formula_structural   Li2Y2MoP3Se2
_chemical_formula_sum   'Li2 Y2 Mo1 P3 Se2'
_cell_volume   202.54992315
_cell_formula_units_Z   1
loop_
 _symmetry_equiv_pos_site_id
 _symmetry_equiv_pos_as_xyz
  1  'x, y, z'
loop_
 _atom_site_type_symbol
 _atom_site_label
 _atom_site_symmetry_multiplicity
 _atom_site_fract_x
 _atom_site_fract_y
 _atom_site_fract_z
 _atom_site_occupancy
  Se  Se0  1  0.00000000  0.00000000  0.00000000  1
  Se  Se1  1  0.50000000  0.50000000  0.50000000  1
  Y  Y2  1  0.25000000  0.25000000  0.25000000  1
  Y  Y3  1  0.75000000  0.25000000  0.00000000  1
  P  P4  1  0.25000000  0.75000000  0.50000000  1
  P  P5  1  0.54009220  0.21982459  0.50411291  1
  P  P6  1  0.15656765  0.73627141  0.78419685  1
  Mo  Mo7  1  0.67570856  0.52465026  0.60152225  1
  Li  Li8  1  0.87033058  0.42919680  0.65437016  1
  Li  Li9  1  0.37552773  0.19054757  0.63998921  1
