# generated using pymatgen
data_Li2Si4Te3F12
_symmetry_space_group_name_H-M   'P 1'
_cell_length_a   10.86704591
_cell_length_b   10.86704591
_cell_length_c   13.46246190
_cell_angle_alpha   90.00000000
_cell_angle_beta   90.00000000
_cell_angle_gamma   120.00000000
_symmetry_Int_Tables_number   1
_chemical_formula_structural   Li2Si4Te3F12
_chemical_formula_sum   'Li8 Si16 Te12 F48'
_cell_volume   1376.82303285
_cell_formula_units_Z   4
loop_
 _symmetry_equiv_pos_site_id
 _symmetry_equiv_pos_as_xyz
  1  'x, y, z'
loop_
 _atom_site_type_symbol
 _atom_site_label
 _atom_site_symmetry_multiplicity
 _atom_site_fract_x
 _atom_site_fract_y
 _atom_site_fract_z
 _atom_site_occupancy
  F  F0  1  0.17836424  0.14072874  0.37842879  1
  F  F1  1  -0.14072874  0.03763549  0.37842879  1
  F  F2  1  -0.03763549  -0.17836424  0.37842879  1
  F  F3  1  -0.17836424  -0.14072874  0.87842879  1
  F  F4  1  0.14072874  -0.03763549  0.87842879  1
  F  F5  1  0.03763549  0.17836424  0.87842879  1
  F  F6  1  0.14072874  0.17836424  -0.37842879  1
  F  F7  1  0.03763549  -0.14072874  -0.37842879  1
  F  F8  1  -0.17836424  -0.03763549  -0.37842879  1
  F  F9  1  -0.14072874  -0.17836424  0.12157121  1
  F  F10  1  -0.03763549  0.14072874  0.12157121  1
  F  F11  1  0.17836424  0.03763549  0.12157121  1
  F  F12  1  -0.17836424  -0.14072874  -0.37842879  1
  F  F13  1  0.14072874  -0.03763549  -0.37842879  1
  F  F14  1  0.03763549  0.17836424  -0.37842879  1
  F  F15  1  0.17836424  0.14072874  0.12157121  1
  F  F16  1  -0.14072874  0.03763549  0.12157121  1
  F  F17  1  -0.03763549  -0.17836424  0.12157121  1
  F  F18  1  -0.14072874  -0.17836424  0.37842879  1
  F  F19  1  -0.03763549  0.14072874  0.37842879  1
  F  F20  1  0.17836424  0.03763549  0.37842879  1
  F  F21  1  0.14072874  0.17836424  0.87842879  1
  F  F22  1  0.03763549  -0.14072874  0.87842879  1
  F  F23  1  -0.17836424  -0.03763549  0.87842879  1
  F  F24  1  0.00000000  0.00000000  0.58108379  1
  F  F25  1  0.00000000  0.00000000  0.08108379  1
  F  F26  1  0.00000000  0.00000000  0.41891621  1
  F  F27  1  0.00000000  0.00000000  0.91891621  1
  F  F28  1  0.70936484  0.41872969  0.79209955  1
  F  F29  1  0.58127031  0.29063516  0.79209955  1
  F  F30  1  0.70936484  0.29063516  0.79209955  1
  F  F31  1  0.29063516  0.58127031  0.29209955  1
  F  F32  1  0.41872969  0.70936484  0.29209955  1
  F  F33  1  0.29063516  0.70936484  0.29209955  1
  F  F34  1  0.41872969  0.70936484  0.20790045  1
  F  F35  1  0.29063516  0.58127031  0.20790045  1
  F  F36  1  0.29063516  0.70936484  0.20790045  1
  F  F37  1  0.58127031  0.29063516  0.70790045  1
  F  F38  1  0.70936484  0.41872969  0.70790045  1
  F  F39  1  0.70936484  0.29063516  0.70790045  1
  F  F40  1  0.00000000  0.00000000  0.00000000  1
  F  F41  1  0.00000000  0.00000000  0.50000000  1
  F  F42  1  0.19058685  0.38117370  0.25000000  1
  F  F43  1  0.61882630  0.80941315  0.25000000  1
  F  F44  1  0.19058685  0.80941315  0.25000000  1
  F  F45  1  0.80941315  0.61882630  0.75000000  1
  F  F46  1  0.38117370  0.19058685  0.75000000  1
  F  F47  1  0.80941315  0.19058685  0.75000000  1
  Li  Li48  1  0.33333333  0.66666667  0.25000000  1
  Li  Li49  1  0.66666667  0.33333333  0.75000000  1
  Li  Li50  1  0.00000000  0.00000000  0.25000000  1
  Li  Li51  1  0.00000000  0.00000000  0.75000000  1
  Li  Li52  1  0.33333333  0.66666667  0.91341307  1
  Li  Li53  1  0.66666667  0.33333333  0.41341307  1
  Li  Li54  1  0.66666667  0.33333333  0.08658693  1
  Li  Li55  1  0.33333333  0.66666667  0.58658693  1
  Si  Si56  1  0.00000000  0.00000000  0.65867392  1
  Si  Si57  1  0.00000000  0.00000000  0.15867392  1
  Si  Si58  1  0.00000000  0.00000000  0.34132608  1
  Si  Si59  1  0.00000000  0.00000000  0.84132608  1
  Si  Si60  1  0.45646814  0.37440783  0.25000000  1
  Si  Si61  1  0.62559217  0.08206031  0.25000000  1
  Si  Si62  1  0.91793969  0.54353186  0.25000000  1
  Si  Si63  1  0.54353186  0.62559217  0.75000000  1
  Si  Si64  1  0.37440783  0.91793969  0.75000000  1
  Si  Si65  1  0.08206031  0.45646814  0.75000000  1
  Si  Si66  1  0.37440783  0.45646814  0.75000000  1
  Si  Si67  1  0.08206031  0.62559217  0.75000000  1
  Si  Si68  1  0.54353186  0.91793969  0.75000000  1
  Si  Si69  1  0.62559217  0.54353186  0.25000000  1
  Si  Si70  1  0.91793969  0.37440783  0.25000000  1
  Si  Si71  1  0.45646814  0.08206031  0.25000000  1
  Te  Te72  1  0.19938702  0.39877403  0.82737180  1
  Te  Te73  1  0.60122597  0.80061298  0.82737180  1
  Te  Te74  1  0.19938702  0.80061298  0.82737180  1
  Te  Te75  1  0.80061298  0.60122597  0.32737180  1
  Te  Te76  1  0.39877403  0.19938702  0.32737180  1
  Te  Te77  1  0.80061298  0.19938702  0.32737180  1
  Te  Te78  1  0.39877403  0.19938702  0.17262820  1
  Te  Te79  1  0.80061298  0.60122597  0.17262820  1
  Te  Te80  1  0.80061298  0.19938702  0.17262820  1
  Te  Te81  1  0.60122597  0.80061298  0.67262820  1
  Te  Te82  1  0.19938702  0.39877403  0.67262820  1
  Te  Te83  1  0.19938702  0.80061298  0.67262820  1
