# generated using pymatgen
data_LiF
_symmetry_space_group_name_H-M   'P 1'
_cell_length_a   10.50940129
_cell_length_b   10.50940129
_cell_length_c   9.46124731
_cell_angle_alpha   90.00000000
_cell_angle_beta   90.00000000
_cell_angle_gamma   90.00000000
_symmetry_Int_Tables_number   1
_chemical_formula_structural   LiF
_chemical_formula_sum   'Li34 F34'
_cell_volume   1044.97125938
_cell_formula_units_Z   34
loop_
 _symmetry_equiv_pos_site_id
 _symmetry_equiv_pos_as_xyz
  1  'x, y, z'
loop_
 _atom_site_type_symbol
 _atom_site_label
 _atom_site_symmetry_multiplicity
 _atom_site_fract_x
 _atom_site_fract_y
 _atom_site_fract_z
 _atom_site_occupancy
  F  F0  1  0.74425367  0.74425367  0.91573603  1
  F  F1  1  0.25574633  0.25574633  0.91573603  1
  F  F2  1  0.25574633  0.74425367  0.91573603  1
  F  F3  1  0.74425367  0.25574633  0.91573603  1
  F  F4  1  0.25574633  0.74425367  0.08426397  1
  F  F5  1  0.74425367  0.25574633  0.08426397  1
  F  F6  1  0.74425367  0.74425367  0.08426397  1
  F  F7  1  0.25574633  0.25574633  0.08426397  1
  F  F8  1  0.68016882  0.06833874  0.00000000  1
  F  F9  1  0.31983118  0.93166126  0.00000000  1
  F  F10  1  0.93166126  0.68016882  -0.00000000  1
  F  F11  1  0.06833874  0.31983118  0.00000000  1
  F  F12  1  0.31983118  0.06833874  0.00000000  1
  F  F13  1  0.68016882  0.93166126  0.00000000  1
  F  F14  1  0.06833874  0.68016882  0.00000000  1
  F  F15  1  0.93166126  0.31983118  -0.00000000  1
  F  F16  1  0.13644306  -0.00000000  -0.00000000  1
  F  F17  1  0.86355694  0.00000000  0.00000000  1
  F  F18  1  0.00000000  0.13644306  -0.00000000  1
  F  F19  1  0.00000000  0.86355694  0.00000000  1
  F  F20  1  0.88974836  0.82543639  0.00000000  1
  F  F21  1  0.11025164  0.17456361  0.00000000  1
  F  F22  1  0.17456361  0.88974836  0.00000000  1
  F  F23  1  0.82543639  0.11025164  0.00000000  1
  F  F24  1  0.11025164  0.82543639  0.00000000  1
  F  F25  1  0.88974836  0.17456361  -0.00000000  1
  F  F26  1  0.82543639  0.88974836  0.00000000  1
  F  F27  1  0.17456361  0.11025164  0.00000000  1
  F  F28  1  0.29441851  0.00000000  0.00000000  1
  F  F29  1  0.70558149  0.00000000  0.00000000  1
  F  F30  1  0.00000000  0.29441851  0.00000000  1
  F  F31  1  0.00000000  0.70558149  0.00000000  1
  F  F32  1  0.50000000  0.50000000  0.42526241  1
  F  F33  1  0.50000000  0.50000000  0.57473759  1
  Li  Li34  1  0.38560322  0.00000000  -0.00000000  1
  Li  Li35  1  0.61439678  0.00000000  0.00000000  1
  Li  Li36  1  0.00000000  0.38560322  0.00000000  1
  Li  Li37  1  0.00000000  0.61439678  0.00000000  1
  Li  Li38  1  0.35679315  0.00000000  0.50000000  1
  Li  Li39  1  0.64320685  0.00000000  0.50000000  1
  Li  Li40  1  0.00000000  0.35679315  0.50000000  1
  Li  Li41  1  0.00000000  0.64320685  0.50000000  1
  Li  Li42  1  0.00000000  0.50000000  0.90512453  1
  Li  Li43  1  0.50000000  0.00000000  0.90512453  1
  Li  Li44  1  0.00000000  0.50000000  0.09487547  1
  Li  Li45  1  0.50000000  0.00000000  0.09487547  1
  Li  Li46  1  0.00000000  0.50000000  0.50000000  1
  Li  Li47  1  0.50000000  0.00000000  0.50000000  1
  Li  Li48  1  0.59720478  0.59720478  0.00000000  1
  Li  Li49  1  0.40279522  0.40279522  0.00000000  1
  Li  Li50  1  0.40279522  0.59720478  0.00000000  1
  Li  Li51  1  0.59720478  0.40279522  0.00000000  1
  Li  Li52  1  0.16323749  0.32439549  0.18858232  1
  Li  Li53  1  -0.16323749  -0.32439549  0.18858232  1
  Li  Li54  1  -0.32439549  0.16323749  0.18858232  1
  Li  Li55  1  0.32439549  -0.16323749  0.18858232  1
  Li  Li56  1  -0.16323749  0.32439549  -0.18858232  1
  Li  Li57  1  0.16323749  -0.32439549  -0.18858232  1
  Li  Li58  1  0.32439549  0.16323749  -0.18858232  1
  Li  Li59  1  -0.32439549  -0.16323749  -0.18858232  1
  Li  Li60  1  -0.16323749  -0.32439549  -0.18858232  1
  Li  Li61  1  0.16323749  0.32439549  -0.18858232  1
  Li  Li62  1  0.32439549  -0.16323749  -0.18858232  1
  Li  Li63  1  -0.32439549  0.16323749  -0.18858232  1
  Li  Li64  1  0.16323749  -0.32439549  0.18858232  1
  Li  Li65  1  -0.16323749  0.32439549  0.18858232  1
  Li  Li66  1  -0.32439549  -0.16323749  0.18858232  1
  Li  Li67  1  0.32439549  0.16323749  0.18858232  1
