# generated using pymatgen
data_Li2Y2As4P2Se
_symmetry_space_group_name_H-M   'P 1'
_cell_length_a   5.86214789
_cell_length_b   6.05328147
_cell_length_c   6.94103592
_cell_angle_alpha   92.27252172
_cell_angle_beta   94.34168779
_cell_angle_gamma   98.04500758
_symmetry_Int_Tables_number   1
_chemical_formula_structural   Li2Y2As4P2Se
_chemical_formula_sum   'Li2 Y2 As4 P2 Se1'
_cell_volume   242.86525258
_cell_formula_units_Z   1
loop_
 _symmetry_equiv_pos_site_id
 _symmetry_equiv_pos_as_xyz
  1  'x, y, z'
loop_
 _atom_site_type_symbol
 _atom_site_label
 _atom_site_symmetry_multiplicity
 _atom_site_fract_x
 _atom_site_fract_y
 _atom_site_fract_z
 _atom_site_occupancy
  Se  Se0  1  0.12500000  0.00000000  0.25000000  1
  P  P1  1  0.00000000  0.00000000  0.00000000  1
  P  P2  1  0.37500000  0.00000000  0.25000000  1
  As  As3  1  0.25000000  0.25000000  0.25000000  1
  As  As4  1  0.00000000  0.25000000  0.12500000  1
  As  As5  1  0.11605351  0.90045810  0.24314318  1
  As  As6  1  0.57120610  0.73803609  0.79535571  1
  Li  Li7  1  0.33090191  0.85055029  0.95583298  1
  Li  Li8  1  0.22767708  0.10793632  0.60661131  1
  Y  Y9  1  0.01486563  0.89142815  0.35936806  1
  Y  Y10  1  0.40826051  0.11627066  0.63291436  1
