# generated using pymatgen
data_LiF
_symmetry_space_group_name_H-M   'P 1'
_cell_length_a   6.83371445
_cell_length_b   12.11039345
_cell_length_c   12.92840169
_cell_angle_alpha   90.00000000
_cell_angle_beta   90.00000000
_cell_angle_gamma   90.00000000
_symmetry_Int_Tables_number   1
_chemical_formula_structural   LiF
_chemical_formula_sum   'Li52 F52'
_cell_volume   1069.94121755
_cell_formula_units_Z   52
loop_
 _symmetry_equiv_pos_site_id
 _symmetry_equiv_pos_as_xyz
  1  'x, y, z'
loop_
 _atom_site_type_symbol
 _atom_site_label
 _atom_site_symmetry_multiplicity
 _atom_site_fract_x
 _atom_site_fract_y
 _atom_site_fract_z
 _atom_site_occupancy
  F  F0  1  0.33294669  0.25000000  0.71924732  1
  F  F1  1  0.16705331  0.75000000  0.21924732  1
  F  F2  1  0.66705331  0.75000000  0.28075268  1
  F  F3  1  0.83294669  0.25000000  0.78075268  1
  F  F4  1  0.00000000  0.00000000  0.50000000  1
  F  F5  1  0.50000000  0.00000000  0.00000000  1
  F  F6  1  0.00000000  0.50000000  0.50000000  1
  F  F7  1  0.50000000  0.50000000  0.00000000  1
  F  F8  1  0.44465078  0.95993810  0.75541333  1
  F  F9  1  0.05534922  0.04006190  0.25541333  1
  F  F10  1  0.55534922  0.45993810  0.24458667  1
  F  F11  1  0.94465078  0.54006190  0.74458667  1
  F  F12  1  0.55534922  0.04006190  0.24458667  1
  F  F13  1  0.94465078  0.95993810  0.74458667  1
  F  F14  1  0.44465078  0.54006190  0.75541333  1
  F  F15  1  0.05534922  0.45993810  0.25541333  1
  F  F16  1  0.09682244  0.25000000  0.11009312  1
  F  F17  1  0.40317756  0.75000000  0.61009312  1
  F  F18  1  0.90317756  0.75000000  0.88990688  1
  F  F19  1  0.59682244  0.25000000  0.38990688  1
  F  F20  1  0.52678408  0.11410019  0.70784057  1
  F  F21  1  0.97321592  0.88589981  0.20784057  1
  F  F22  1  0.47321592  0.61410019  0.29215943  1
  F  F23  1  0.02678408  0.38589981  0.79215943  1
  F  F24  1  0.47321592  0.88589981  0.29215943  1
  F  F25  1  0.02678408  0.11410019  0.79215943  1
  F  F26  1  0.52678408  0.38589981  0.70784057  1
  F  F27  1  0.97321592  0.61410019  0.20784057  1
  F  F28  1  0.32243303  0.67099059  0.67219165  1
  F  F29  1  0.17756697  0.32900941  0.17219165  1
  F  F30  1  0.67756697  0.17099059  0.32780835  1
  F  F31  1  0.82243303  0.82900941  0.82780835  1
  F  F32  1  0.67756697  0.32900941  0.32780835  1
  F  F33  1  0.82243303  0.67099059  0.82780835  1
  F  F34  1  0.32243303  0.82900941  0.67219165  1
  F  F35  1  0.17756697  0.17099059  0.17219165  1
  F  F36  1  0.48645934  0.25000000  0.02324934  1
  F  F37  1  0.01354066  0.75000000  0.52324934  1
  F  F38  1  0.51354066  0.75000000  0.97675066  1
  F  F39  1  0.98645934  0.25000000  0.47675066  1
  F  F40  1  0.26397860  0.57362207  0.09982297  1
  F  F41  1  0.23602140  0.42637793  0.59982297  1
  F  F42  1  0.73602140  0.07362207  0.90017703  1
  F  F43  1  0.76397860  0.92637793  0.40017703  1
  F  F44  1  0.73602140  0.42637793  0.90017703  1
  F  F45  1  0.76397860  0.57362207  0.40017703  1
  F  F46  1  0.26397860  0.92637793  0.09982297  1
  F  F47  1  0.23602140  0.07362207  0.59982297  1
  F  F48  1  0.31937766  0.25000000  0.81953020  1
  F  F49  1  0.18062234  0.75000000  0.31953020  1
  F  F50  1  0.68062234  0.75000000  0.18046980  1
  F  F51  1  0.81937766  0.25000000  0.68046980  1
  Li  Li52  1  0.00000000  0.00000000  0.00000000  1
  Li  Li53  1  0.50000000  0.00000000  0.50000000  1
  Li  Li54  1  0.00000000  0.50000000  0.00000000  1
  Li  Li55  1  0.50000000  0.50000000  0.50000000  1
  Li  Li56  1  0.54417391  0.25000000  0.72619001  1
  Li  Li57  1  0.95582609  0.75000000  0.22619001  1
  Li  Li58  1  0.45582609  0.75000000  0.27380999  1
  Li  Li59  1  0.04417391  0.25000000  0.77380999  1
  Li  Li60  1  0.85721010  0.44272834  0.04970132  1
  Li  Li61  1  -0.35721010  -0.44272834  0.54970132  1
  Li  Li62  1  -0.85721010  0.94272834  -0.04970132  1
  Li  Li63  1  1.35721010  0.05727166  0.45029868  1
  Li  Li64  1  -0.85721010  -0.44272834  -0.04970132  1
  Li  Li65  1  1.35721010  0.44272834  0.45029868  1
  Li  Li66  1  0.85721010  0.05727166  0.04970132  1
  Li  Li67  1  -0.35721010  0.94272834  0.54970132  1
  Li  Li68  1  0.83567364  0.25000000  0.60432946  1
  Li  Li69  1  0.66432636  0.75000000  0.10432946  1
  Li  Li70  1  0.16432636  0.75000000  0.39567054  1
  Li  Li71  1  0.33567364  0.25000000  0.89567054  1
  Li  Li72  1  0.43621259  0.25000000  0.17531065  1
  Li  Li73  1  0.06378741  0.75000000  0.67531065  1
  Li  Li74  1  0.56378741  0.75000000  0.82468935  1
  Li  Li75  1  0.93621259  0.25000000  0.32468935  1
  Li  Li76  1  0.58305988  0.25000000  0.10744722  1
  Li  Li77  1  0.91694012  0.75000000  0.60744722  1
  Li  Li78  1  0.41694012  0.75000000  0.89255278  1
  Li  Li79  1  0.08305988  0.25000000  0.39255278  1
  Li  Li80  1  0.08314034  0.59568589  0.49728983  1
  Li  Li81  1  0.41685966  0.40431411  0.99728983  1
  Li  Li82  1  0.91685966  0.09568589  0.50271017  1
  Li  Li83  1  0.58314034  0.90431411  0.00271017  1
  Li  Li84  1  0.91685966  0.40431411  0.50271017  1
  Li  Li85  1  0.58314034  0.59568589  0.00271017  1
  Li  Li86  1  0.08314034  0.90431411  0.49728983  1
  Li  Li87  1  0.41685966  0.09568589  0.99728983  1
  Li  Li88  1  0.24748977  0.85593327  0.59136487  1
  Li  Li89  1  0.25251023  0.14406673  0.09136487  1
  Li  Li90  1  0.75251023  0.35593327  0.40863513  1
  Li  Li91  1  0.74748977  0.64406673  0.90863513  1
  Li  Li92  1  0.75251023  0.14406673  0.40863513  1
  Li  Li93  1  0.74748977  0.85593327  0.90863513  1
  Li  Li94  1  0.24748977  0.64406673  0.59136487  1
  Li  Li95  1  0.25251023  0.35593327  0.09136487  1
  Li  Li96  1  0.18334923  0.05321086  0.95387089  1
  Li  Li97  1  0.31665077  0.94678914  0.45387089  1
  Li  Li98  1  0.81665077  0.55321086  0.04612911  1
  Li  Li99  1  0.68334923  0.44678914  0.54612911  1
  Li  Li100  1  0.81665077  0.94678914  0.04612911  1
  Li  Li101  1  0.68334923  0.05321086  0.54612911  1
  Li  Li102  1  0.18334923  0.44678914  0.95387089  1
  Li  Li103  1  0.31665077  0.55321086  0.45387089  1
