# generated using pymatgen
data_LiF
_symmetry_space_group_name_H-M   'P 1'
_cell_length_a   15.59492899
_cell_length_b   15.59492899
_cell_length_c   3.35838093
_cell_angle_alpha   90.00000000
_cell_angle_beta   90.00000000
_cell_angle_gamma   120.00000000
_symmetry_Int_Tables_number   1
_chemical_formula_structural   LiF
_chemical_formula_sum   'Li24 F24'
_cell_volume   707.33865121
_cell_formula_units_Z   24
loop_
 _symmetry_equiv_pos_site_id
 _symmetry_equiv_pos_as_xyz
  1  'x, y, z'
loop_
 _atom_site_type_symbol
 _atom_site_label
 _atom_site_symmetry_multiplicity
 _atom_site_fract_x
 _atom_site_fract_y
 _atom_site_fract_z
 _atom_site_occupancy
  F  F0  1  0.27262093  0.46368755  0.79845996  1
  F  F1  1  0.53631245  0.80893337  0.79845996  1
  F  F2  1  0.19106663  0.72737907  0.79845996  1
  F  F3  1  0.53631245  0.72737907  0.20154004  1
  F  F4  1  0.19106663  0.46368755  0.20154004  1
  F  F5  1  0.27262093  0.80893337  0.20154004  1
  F  F6  1  0.37437200  0.67993310  0.78411670  1
  F  F7  1  0.32006690  0.69443890  0.78411670  1
  F  F8  1  0.30556110  0.62562800  0.78411670  1
  F  F9  1  0.32006690  0.62562800  0.21588330  1
  F  F10  1  0.30556110  0.67993310  0.21588330  1
  F  F11  1  0.37437200  0.69443890  0.21588330  1
  F  F12  1  0.11820132  0.88464880  0.68822089  1
  F  F13  1  0.11535120  0.23355252  0.68822089  1
  F  F14  1  0.76644748  0.88179868  0.68822089  1
  F  F15  1  0.11535120  0.88179868  0.31177911  1
  F  F16  1  0.76644748  0.88464880  0.31177911  1
  F  F17  1  0.11820132  0.23355252  0.31177911  1
  F  F18  1  0.53743190  0.04239358  0.88433601  1
  F  F19  1  0.95760642  0.49503832  0.88433601  1
  F  F20  1  0.50496168  0.46256810  0.88433601  1
  F  F21  1  0.95760642  0.46256810  0.11566399  1
  F  F22  1  0.50496168  0.04239358  0.11566399  1
  F  F23  1  0.53743190  0.49503832  0.11566399  1
  Li  Li24  1  0.27771765  0.94470399  0.44022734  1
  Li  Li25  1  -0.94470399  -0.66698635  0.44022734  1
  Li  Li26  1  0.66698635  -0.27771765  0.44022734  1
  Li  Li27  1  -0.94470399  -0.27771765  -0.44022734  1
  Li  Li28  1  0.66698635  0.94470399  -0.44022734  1
  Li  Li29  1  0.27771765  -0.66698635  -0.44022734  1
  Li  Li30  1  0.09908330  0.51254963  0.80106134  1
  Li  Li31  1  0.48745037  0.58653368  0.80106134  1
  Li  Li32  1  0.41346632  0.90091670  0.80106134  1
  Li  Li33  1  0.48745037  0.90091670  0.19893866  1
  Li  Li34  1  0.41346632  0.51254963  0.19893866  1
  Li  Li35  1  0.09908330  0.58653368  0.19893866  1
  Li  Li36  1  0.87809529  0.45609247  0.29532989  1
  Li  Li37  1  0.54390753  0.42200282  0.29532989  1
  Li  Li38  1  0.57799718  0.12190471  0.29532989  1
  Li  Li39  1  0.54390753  0.12190471  0.70467011  1
  Li  Li40  1  0.57799718  0.45609247  0.70467011  1
  Li  Li41  1  0.87809529  0.42200282  0.70467011  1
  Li  Li42  1  0.00000000  0.00000000  0.00000000  1
  Li  Li43  1  0.66666667  0.33333333  0.00000000  1
  Li  Li44  1  0.24859283  0.75140717  0.50000000  1
  Li  Li45  1  0.24859283  0.49718567  0.50000000  1
  Li  Li46  1  0.50281433  0.75140717  0.50000000  1
  Li  Li47  1  0.33333333  0.66666667  0.50000000  1
