# generated using pymatgen
data_LiF
_symmetry_space_group_name_H-M   'P 1'
_cell_length_a   7.17518543
_cell_length_b   7.17518543
_cell_length_c   19.79712749
_cell_angle_alpha   90.00000000
_cell_angle_beta   90.00000000
_cell_angle_gamma   120.00000000
_symmetry_Int_Tables_number   1
_chemical_formula_structural   LiF
_chemical_formula_sum   'Li27 F27'
_cell_volume   882.67143088
_cell_formula_units_Z   27
loop_
 _symmetry_equiv_pos_site_id
 _symmetry_equiv_pos_as_xyz
  1  'x, y, z'
loop_
 _atom_site_type_symbol
 _atom_site_label
 _atom_site_symmetry_multiplicity
 _atom_site_fract_x
 _atom_site_fract_y
 _atom_site_fract_z
 _atom_site_occupancy
  F  F0  1  0.75036607  0.00000000  0.00000000  1
  F  F1  1  0.00000000  0.75036607  0.00000000  1
  F  F2  1  0.24963393  0.24963393  0.00000000  1
  F  F3  1  0.72369019  0.22043831  0.28604852  1
  F  F4  1  0.77956169  0.50325188  0.28604852  1
  F  F5  1  0.49674812  0.27630981  0.28604852  1
  F  F6  1  0.72369019  0.22043831  0.71395148  1
  F  F7  1  0.77956169  0.50325188  0.71395148  1
  F  F8  1  0.49674812  0.27630981  0.71395148  1
  F  F9  1  0.22043831  0.72369019  0.71395148  1
  F  F10  1  0.50325188  0.77956169  0.71395148  1
  F  F11  1  0.27630981  0.49674812  0.71395148  1
  F  F12  1  0.22043831  0.72369019  0.28604852  1
  F  F13  1  0.50325188  0.77956169  0.28604852  1
  F  F14  1  0.27630981  0.49674812  0.28604852  1
  F  F15  1  0.59843887  0.69554883  0.17353531  1
  F  F16  1  0.30445117  0.90289005  0.17353531  1
  F  F17  1  0.09710995  0.40156113  0.17353531  1
  F  F18  1  0.59843887  0.69554883  0.82646469  1
  F  F19  1  0.30445117  0.90289005  0.82646469  1
  F  F20  1  0.09710995  0.40156113  0.82646469  1
  F  F21  1  0.69554883  0.59843887  0.82646469  1
  F  F22  1  0.90289005  0.30445117  0.82646469  1
  F  F23  1  0.40156113  0.09710995  0.82646469  1
  F  F24  1  0.69554883  0.59843887  0.17353531  1
  F  F25  1  0.90289005  0.30445117  0.17353531  1
  F  F26  1  0.40156113  0.09710995  0.17353531  1
  Li  Li27  1  0.30048521  0.00000000  0.91627055  1
  Li  Li28  1  0.00000000  0.30048521  0.91627055  1
  Li  Li29  1  0.69951479  0.69951479  0.91627055  1
  Li  Li30  1  0.30048521  0.00000000  0.08372945  1
  Li  Li31  1  0.00000000  0.30048521  0.08372945  1
  Li  Li32  1  0.69951479  0.69951479  0.08372945  1
  Li  Li33  1  0.84639680  0.27800798  0.37535672  1
  Li  Li34  1  -0.27800798  0.56838882  0.37535672  1
  Li  Li35  1  -0.56838882  -0.84639680  0.37535672  1
  Li  Li36  1  0.84639680  0.27800798  -0.37535672  1
  Li  Li37  1  -0.27800798  0.56838882  -0.37535672  1
  Li  Li38  1  -0.56838882  -0.84639680  -0.37535672  1
  Li  Li39  1  0.27800798  0.84639680  -0.37535672  1
  Li  Li40  1  0.56838882  -0.27800798  -0.37535672  1
  Li  Li41  1  -0.84639680  -0.56838882  -0.37535672  1
  Li  Li42  1  0.27800798  0.84639680  0.37535672  1
  Li  Li43  1  0.56838882  -0.27800798  0.37535672  1
  Li  Li44  1  -0.84639680  -0.56838882  0.37535672  1
  Li  Li45  1  0.24011051  0.00000000  0.24334304  1
  Li  Li46  1  0.00000000  0.24011051  0.24334304  1
  Li  Li47  1  0.75988949  0.75988949  0.24334304  1
  Li  Li48  1  0.24011051  0.00000000  0.75665696  1
  Li  Li49  1  0.00000000  0.24011051  0.75665696  1
  Li  Li50  1  0.75988949  0.75988949  0.75665696  1
  Li  Li51  1  0.44674925  -0.00000000  0.00000000  1
  Li  Li52  1  0.00000000  0.44674925  0.00000000  1
  Li  Li53  1  0.55325075  0.55325075  0.00000000  1
