# generated using pymatgen
data_Li3Y2As4P3Se
_symmetry_space_group_name_H-M   'P 1'
_cell_length_a   5.67125700
_cell_length_b   5.89942770
_cell_length_c   7.20437018
_cell_angle_alpha   93.38209759
_cell_angle_beta   96.82276051
_cell_angle_gamma   102.73337416
_symmetry_Int_Tables_number   1
_chemical_formula_structural   Li3Y2As4P3Se
_chemical_formula_sum   'Li3 Y2 As4 P3 Se1'
_cell_volume   232.54025823
_cell_formula_units_Z   1
loop_
 _symmetry_equiv_pos_site_id
 _symmetry_equiv_pos_as_xyz
  1  'x, y, z'
loop_
 _atom_site_type_symbol
 _atom_site_label
 _atom_site_symmetry_multiplicity
 _atom_site_fract_x
 _atom_site_fract_y
 _atom_site_fract_z
 _atom_site_occupancy
  Se  Se0  1  0.00000000  0.00000000  0.00000000  1
  P  P1  1  0.50000000  0.50000000  0.50000000  1
  P  P2  1  0.25000000  0.25000000  0.25000000  1
  P  P3  1  0.75000000  0.25000000  0.00000000  1
  As  As4  1  0.25000000  0.75000000  0.50000000  1
  As  As5  1  0.43055800  0.66851608  0.46907303  1
  As  As6  1  0.53935274  0.69964326  0.88920880  1
  As  As7  1  0.02678032  0.46497670  0.15810782  1
  Li  Li8  1  0.11136574  0.87865096  0.08317526  1
  Li  Li9  1  0.45669323  0.26085693  0.32343421  1
  Li  Li10  1  0.51623871  0.83432225  0.58093631  1
  Y  Y11  1  0.86505061  0.33786598  0.46573504  1
  Y  Y12  1  0.16600411  0.25108653  0.08893429  1
