# generated using pymatgen
data_Li2Y2P3Se2
_symmetry_space_group_name_H-M   'P 1'
_cell_length_a   5.38212716
_cell_length_b   5.71502271
_cell_length_c   7.32983765
_cell_angle_alpha   94.05605770
_cell_angle_beta   98.83325043
_cell_angle_gamma   106.29157172
_symmetry_Int_Tables_number   1
_chemical_formula_structural   Li2Y2P3Se2
_chemical_formula_sum   'Li2 Y2 P3 Se2'
_cell_volume   212.29363980
_cell_formula_units_Z   1
loop_
 _symmetry_equiv_pos_site_id
 _symmetry_equiv_pos_as_xyz
  1  'x, y, z'
loop_
 _atom_site_type_symbol
 _atom_site_label
 _atom_site_symmetry_multiplicity
 _atom_site_fract_x
 _atom_site_fract_y
 _atom_site_fract_z
 _atom_site_occupancy
  Se  Se0  1  0.00000000  0.00000000  0.00000000  1
  Se  Se1  1  0.50000000  0.50000000  0.50000000  1
  P  P2  1  0.25000000  0.25000000  0.25000000  1
  P  P3  1  0.75000000  0.25000000  0.00000000  1
  P  P4  1  0.25000000  0.75000000  0.50000000  1
  Li  Li5  1  0.09140731  0.65199438  0.06599414  1
  Li  Li6  1  0.06958591  0.40241387  0.20775146  1
  Y  Y7  1  0.71231210  0.64222092  0.33615402  1
  Y  Y8  1  0.09634973  0.86039749  0.22093515  1
