# generated using pymatgen
data_Li2Y2As4P3
_symmetry_space_group_name_H-M   'P 1'
_cell_length_a   4.29043629
_cell_length_b   4.52499889
_cell_length_c   6.84570458
_cell_angle_alpha   95.98182432
_cell_angle_beta   103.02716977
_cell_angle_gamma   114.02661087
_symmetry_Int_Tables_number   1
_chemical_formula_structural   Li2Y2As4P3
_chemical_formula_sum   'Li2 Y2 As4 P3'
_cell_volume   115.36032948
_cell_formula_units_Z   1
loop_
 _symmetry_equiv_pos_site_id
 _symmetry_equiv_pos_as_xyz
  1  'x, y, z'
loop_
 _atom_site_type_symbol
 _atom_site_label
 _atom_site_symmetry_multiplicity
 _atom_site_fract_x
 _atom_site_fract_y
 _atom_site_fract_z
 _atom_site_occupancy
  P  P0  1  0.00000000  0.00000000  0.00000000  1
  P  P1  1  0.50000000  0.50000000  0.50000000  1
  P  P2  1  0.25000000  0.25000000  0.25000000  1
  As  As3  1  0.75000000  0.25000000  0.00000000  1
  As  As4  1  0.25000000  0.75000000  0.50000000  1
  As  As5  1  0.71501677  0.28751005  0.56242027  1
  As  As6  1  0.20293753  0.98830905  0.52932044  1
  Li  Li7  1  0.35587906  0.28103432  0.43187599  1
  Li  Li8  1  0.81243760  0.92747426  0.01170540  1
  Y  Y9  1  0.41778091  0.12178468  0.62034601  1
  Y  Y10  1  0.48415976  0.80871154  0.57483245  1
