# generated using pymatgen
data_LiF
_symmetry_space_group_name_H-M   'P 1'
_cell_length_a   13.32800470
_cell_length_b   8.57124072
_cell_length_c   7.69192984
_cell_angle_alpha   90.00000000
_cell_angle_beta   90.00000000
_cell_angle_gamma   90.00000000
_symmetry_Int_Tables_number   1
_chemical_formula_structural   LiF
_chemical_formula_sum   'Li24 F24'
_cell_volume   878.70711698
_cell_formula_units_Z   24
loop_
 _symmetry_equiv_pos_site_id
 _symmetry_equiv_pos_as_xyz
  1  'x, y, z'
loop_
 _atom_site_type_symbol
 _atom_site_label
 _atom_site_symmetry_multiplicity
 _atom_site_fract_x
 _atom_site_fract_y
 _atom_site_fract_z
 _atom_site_occupancy
  F  F0  1  0.16999489  0.69957159  0.96123414  1
  F  F1  1  0.33000511  0.30042841  0.46123414  1
  F  F2  1  0.83000511  0.19957159  0.03876586  1
  F  F3  1  0.66999489  0.80042841  0.53876586  1
  F  F4  1  0.83000511  0.30042841  0.03876586  1
  F  F5  1  0.66999489  0.69957159  0.53876586  1
  F  F6  1  0.16999489  0.80042841  0.96123414  1
  F  F7  1  0.33000511  0.19957159  0.46123414  1
  F  F8  1  0.00000000  0.00000000  0.00000000  1
  F  F9  1  0.50000000  0.00000000  0.50000000  1
  F  F10  1  0.00000000  0.50000000  0.00000000  1
  F  F11  1  0.50000000  0.50000000  0.50000000  1
  F  F12  1  0.99080569  0.25000000  0.96802330  1
  F  F13  1  0.50919431  0.75000000  0.46802330  1
  F  F14  1  0.00919431  0.75000000  0.03197670  1
  F  F15  1  0.49080569  0.25000000  0.53197670  1
  F  F16  1  0.88249084  0.06333120  0.49931655  1
  F  F17  1  0.61750916  0.93666880  0.99931655  1
  F  F18  1  0.11750916  0.56333120  0.50068345  1
  F  F19  1  0.38249084  0.43666880  0.00068345  1
  F  F20  1  0.11750916  0.93666880  0.50068345  1
  F  F21  1  0.38249084  0.06333120  0.00068345  1
  F  F22  1  0.88249084  0.43666880  0.49931655  1
  F  F23  1  0.61750916  0.56333120  0.99931655  1
  Li  Li24  1  0.87277192  0.25000000  0.78405901  1
  Li  Li25  1  0.62722808  0.75000000  0.28405901  1
  Li  Li26  1  0.12722808  0.75000000  0.21594099  1
  Li  Li27  1  0.37277192  0.25000000  0.71594099  1
  Li  Li28  1  0.55179211  0.25000000  0.07256685  1
  Li  Li29  1  0.94820789  0.75000000  0.57256685  1
  Li  Li30  1  0.44820789  0.75000000  0.92743315  1
  Li  Li31  1  0.05179211  0.25000000  0.42743315  1
  Li  Li32  1  0.27826385  0.47159696  0.51043141  1
  Li  Li33  1  0.22173615  -0.47159696  1.01043141  1
  Li  Li34  1  -0.27826385  0.97159696  -0.51043141  1
  Li  Li35  1  0.77826385  0.02840304  -0.01043141  1
  Li  Li36  1  -0.27826385  -0.47159696  -0.51043141  1
  Li  Li37  1  0.77826385  0.47159696  -0.01043141  1
  Li  Li38  1  0.27826385  0.02840304  0.51043141  1
  Li  Li39  1  0.22173615  0.97159696  1.01043141  1
  Li  Li40  1  0.50467408  0.38586887  0.44044328  1
  Li  Li41  1  0.99532592  0.61413113  0.94044328  1
  Li  Li42  1  0.49532592  0.88586887  0.55955672  1
  Li  Li43  1  0.00467408  0.11413113  0.05955672  1
  Li  Li44  1  0.49532592  0.61413113  0.55955672  1
  Li  Li45  1  0.00467408  0.38586887  0.05955672  1
  Li  Li46  1  0.50467408  0.11413113  0.44044328  1
  Li  Li47  1  0.99532592  0.88586887  0.94044328  1
