# generated using pymatgen
data_LiF
_symmetry_space_group_name_H-M   'P 1'
_cell_length_a   6.54575372
_cell_length_b   9.33033908
_cell_length_c   5.83330288
_cell_angle_alpha   90.00000000
_cell_angle_beta   90.00000000
_cell_angle_gamma   90.00000000
_symmetry_Int_Tables_number   1
_chemical_formula_structural   LiF
_chemical_formula_sum   'Li24 F24'
_cell_volume   356.26373407
_cell_formula_units_Z   24
loop_
 _symmetry_equiv_pos_site_id
 _symmetry_equiv_pos_as_xyz
  1  'x, y, z'
loop_
 _atom_site_type_symbol
 _atom_site_label
 _atom_site_symmetry_multiplicity
 _atom_site_fract_x
 _atom_site_fract_y
 _atom_site_fract_z
 _atom_site_occupancy
  F  F0  1  0.56319091  0.00700244  0.74621794  1
  F  F1  1  0.93680909  0.99299756  0.24621794  1
  F  F2  1  0.43680909  0.50700244  0.25378206  1
  F  F3  1  0.06319091  0.49299756  0.75378206  1
  F  F4  1  0.43680909  0.99299756  0.25378206  1
  F  F5  1  0.06319091  0.00700244  0.75378206  1
  F  F6  1  0.56319091  0.49299756  0.74621794  1
  F  F7  1  0.93680909  0.50700244  0.24621794  1
  F  F8  1  0.18097685  0.35364211  0.89787439  1
  F  F9  1  0.31902315  0.64635789  0.39787439  1
  F  F10  1  0.81902315  0.85364211  0.10212561  1
  F  F11  1  0.68097685  0.14635789  0.60212561  1
  F  F12  1  0.81902315  0.64635789  0.10212561  1
  F  F13  1  0.68097685  0.35364211  0.60212561  1
  F  F14  1  0.18097685  0.14635789  0.89787439  1
  F  F15  1  0.31902315  0.85364211  0.39787439  1
  F  F16  1  0.42757860  0.25000000  0.08244517  1
  F  F17  1  0.07242140  0.75000000  0.58244517  1
  F  F18  1  0.57242140  0.75000000  0.91755483  1
  F  F19  1  0.92757860  0.25000000  0.41755483  1
  F  F20  1  0.09911875  0.25000000  0.69485465  1
  F  F21  1  0.40088125  0.75000000  0.19485465  1
  F  F22  1  0.90088125  0.75000000  0.30514535  1
  F  F23  1  0.59911875  0.25000000  0.80514535  1
  Li  Li24  1  0.29727375  0.25000000  0.95511873  1
  Li  Li25  1  0.20272625  0.75000000  0.45511873  1
  Li  Li26  1  0.70272625  0.75000000  0.04488127  1
  Li  Li27  1  0.79727375  0.25000000  0.54488127  1
  Li  Li28  1  0.00000000  0.00000000  0.50000000  1
  Li  Li29  1  0.50000000  0.00000000  0.00000000  1
  Li  Li30  1  0.00000000  0.50000000  0.50000000  1
  Li  Li31  1  0.50000000  0.50000000  0.00000000  1
  Li  Li32  1  0.97740598  0.25000000  0.13987351  1
  Li  Li33  1  0.52259402  0.75000000  0.63987351  1
  Li  Li34  1  0.02259402  0.75000000  0.86012649  1
  Li  Li35  1  0.47740598  0.25000000  0.36012649  1
  Li  Li36  1  0.64695305  0.61331928  0.21715504  1
  Li  Li37  1  -0.14695305  -0.61331928  0.71715504  1
  Li  Li38  1  -0.64695305  1.11331928  -0.21715504  1
  Li  Li39  1  1.14695305  -0.11331928  0.28284496  1
  Li  Li40  1  -0.64695305  -0.61331928  -0.21715504  1
  Li  Li41  1  1.14695305  0.61331928  0.28284496  1
  Li  Li42  1  0.64695305  -0.11331928  0.21715504  1
  Li  Li43  1  -0.14695305  1.11331928  0.71715504  1
  Li  Li44  1  0.00000000  0.00000000  0.00000000  1
  Li  Li45  1  0.50000000  0.00000000  0.50000000  1
  Li  Li46  1  0.00000000  0.50000000  0.00000000  1
  Li  Li47  1  0.50000000  0.50000000  0.50000000  1
