# generated using pymatgen
data_LiF
_symmetry_space_group_name_H-M   'P 1'
_cell_length_a   19.57421196
_cell_length_b   19.57421196
_cell_length_c   3.80464146
_cell_angle_alpha   90.00000000
_cell_angle_beta   90.00000000
_cell_angle_gamma   120.00000000
_symmetry_Int_Tables_number   1
_chemical_formula_structural   LiF
_chemical_formula_sum   'Li43 F43'
_cell_volume   1262.44637976
_cell_formula_units_Z   43
loop_
 _symmetry_equiv_pos_site_id
 _symmetry_equiv_pos_as_xyz
  1  'x, y, z'
loop_
 _atom_site_type_symbol
 _atom_site_label
 _atom_site_symmetry_multiplicity
 _atom_site_fract_x
 _atom_site_fract_y
 _atom_site_fract_z
 _atom_site_occupancy
  F  F0  1  0.12852549  0.05982618  0.26902286  1
  F  F1  1  0.94017382  0.06869930  0.26902286  1
  F  F2  1  0.93130070  0.87147451  0.26902286  1
  F  F3  1  0.94017382  0.87147451  0.73097714  1
  F  F4  1  0.93130070  0.05982618  0.73097714  1
  F  F5  1  0.12852549  0.06869930  0.73097714  1
  F  F6  1  0.90623741  0.68033891  0.85853009  1
  F  F7  1  0.31966109  0.22589850  0.85853009  1
  F  F8  1  0.77410150  0.09376259  0.85853009  1
  F  F9  1  0.31966109  0.09376259  0.14146991  1
  F  F10  1  0.77410150  0.68033891  0.14146991  1
  F  F11  1  0.90623741  0.22589850  0.14146991  1
  F  F12  1  0.34092784  0.10339914  0.42035361  1
  F  F13  1  0.89660086  0.23752870  0.42035361  1
  F  F14  1  0.76247130  0.65907216  0.42035361  1
  F  F15  1  0.89660086  0.65907216  0.57964639  1
  F  F16  1  0.76247130  0.10339914  0.57964639  1
  F  F17  1  0.34092784  0.23752870  0.57964639  1
  F  F18  1  0.02834397  0.73983626  0.13712018  1
  F  F19  1  0.26016374  0.28850771  0.13712018  1
  F  F20  1  0.71149229  0.97165603  0.13712018  1
  F  F21  1  0.26016374  0.97165603  0.86287982  1
  F  F22  1  0.71149229  0.73983626  0.86287982  1
  F  F23  1  0.02834397  0.28850771  0.86287982  1
  F  F24  1  0.35252670  0.41120871  0.69844562  1
  F  F25  1  0.58879129  0.94131799  0.69844562  1
  F  F26  1  0.05868201  0.64747330  0.69844562  1
  F  F27  1  0.58879129  0.64747330  0.30155438  1
  F  F28  1  0.05868201  0.41120871  0.30155438  1
  F  F29  1  0.35252670  0.94131799  0.30155438  1
  F  F30  1  0.89309476  0.99856973  0.95581003  1
  F  F31  1  0.00143027  0.89452503  0.95581003  1
  F  F32  1  0.10547497  0.10690524  0.95581003  1
  F  F33  1  0.00143027  0.10690524  0.04418997  1
  F  F34  1  0.10547497  0.99856973  0.04418997  1
  F  F35  1  0.89309476  0.89452503  0.04418997  1
  F  F36  1  0.00000000  0.00000000  0.50000000  1
  F  F37  1  0.33333333  0.66666667  0.24148872  1
  F  F38  1  0.33333333  0.66666667  0.75851128  1
  F  F39  1  0.33333333  0.66666667  0.50000000  1
  F  F40  1  0.58155503  0.41844497  -0.00000000  1
  F  F41  1  0.58155503  0.16311005  -0.00000000  1
  F  F42  1  0.83688995  0.41844497  -0.00000000  1
  Li  Li43  1  0.73107242  0.04937951  0.09587018  1
  Li  Li44  1  -0.04937951  0.68169291  0.09587018  1
  Li  Li45  1  -0.68169291  -0.73107242  0.09587018  1
  Li  Li46  1  -0.04937951  -0.73107242  -0.09587018  1
  Li  Li47  1  -0.68169291  0.04937951  -0.09587018  1
  Li  Li48  1  0.73107242  0.68169291  -0.09587018  1
  Li  Li49  1  0.17128096  0.01280797  0.45439014  1
  Li  Li50  1  0.98719203  0.15847299  0.45439014  1
  Li  Li51  1  0.84152701  0.82871904  0.45439014  1
  Li  Li52  1  0.98719203  0.82871904  0.54560986  1
  Li  Li53  1  0.84152701  0.01280797  0.54560986  1
  Li  Li54  1  0.17128096  0.15847299  0.54560986  1
  Li  Li55  1  0.21644749  0.60435800  0.22665771  1
  Li  Li56  1  0.39564200  0.61208949  0.22665771  1
  Li  Li57  1  0.38791051  0.78355251  0.22665771  1
  Li  Li58  1  0.39564200  0.78355251  0.77334229  1
  Li  Li59  1  0.38791051  0.60435800  0.77334229  1
  Li  Li60  1  0.21644749  0.61208949  0.77334229  1
  Li  Li61  1  0.10519557  0.33583300  0.33084777  1
  Li  Li62  1  0.66416700  0.76936257  0.33084777  1
  Li  Li63  1  0.23063743  0.89480443  0.33084777  1
  Li  Li64  1  0.66416700  0.89480443  0.66915223  1
  Li  Li65  1  0.23063743  0.33583300  0.66915223  1
  Li  Li66  1  0.10519557  0.76936257  0.66915223  1
  Li  Li67  1  0.59523262  0.40476738  0.50000000  1
  Li  Li68  1  0.59523262  0.19046524  0.50000000  1
  Li  Li69  1  0.80953476  0.40476738  0.50000000  1
  Li  Li70  1  0.00000000  0.00000000  0.00000000  1
  Li  Li71  1  0.90073992  0.19580835  0.52800231  1
  Li  Li72  1  0.80419165  0.70493157  0.52800231  1
  Li  Li73  1  0.29506843  0.09926008  0.52800231  1
  Li  Li74  1  0.80419165  0.09926008  0.47199769  1
  Li  Li75  1  0.29506843  0.19580835  0.47199769  1
  Li  Li76  1  0.90073992  0.70493157  0.47199769  1
  Li  Li77  1  0.43308418  0.95929544  0.10732237  1
  Li  Li78  1  0.04070456  0.47378874  0.10732237  1
  Li  Li79  1  0.52621126  0.56691582  0.10732237  1
  Li  Li80  1  0.04070456  0.56691582  0.89267763  1
  Li  Li81  1  0.52621126  0.95929544  0.89267763  1
  Li  Li82  1  0.43308418  0.47378874  0.89267763  1
  Li  Li83  1  0.16859766  0.83140234  0.50000000  1
  Li  Li84  1  0.16859766  0.33719532  0.50000000  1
  Li  Li85  1  0.66280468  0.83140234  0.50000000  1
