# generated using pymatgen
data_Li3Y2MoP3
_symmetry_space_group_name_H-M   'P 1'
_cell_length_a   5.13542537
_cell_length_b   5.28241684
_cell_length_c   7.16575742
_cell_angle_alpha   94.50967420
_cell_angle_beta   99.82113286
_cell_angle_gamma   108.11356892
_symmetry_Int_Tables_number   1
_chemical_formula_structural   Li3Y2MoP3
_chemical_formula_sum   'Li3 Y2 Mo1 P3'
_cell_volume   180.23974622
_cell_formula_units_Z   1
loop_
 _symmetry_equiv_pos_site_id
 _symmetry_equiv_pos_as_xyz
  1  'x, y, z'
loop_
 _atom_site_type_symbol
 _atom_site_label
 _atom_site_symmetry_multiplicity
 _atom_site_fract_x
 _atom_site_fract_y
 _atom_site_fract_z
 _atom_site_occupancy
  P  P0  1  0.00000000  0.00000000  0.00000000  1
  P  P1  1  0.33300000  0.66700000  0.25000000  1
  P  P2  1  0.66700000  0.33300000  0.50000000  1
  Mo  Mo3  1  0.00000000  0.00000000  0.75000000  1
  Li  Li4  1  0.74775491  0.40714819  0.76224648  1
  Li  Li5  1  0.34983079  0.19704062  0.96136984  1
  Li  Li6  1  0.15926766  0.05621819  0.78237284  1
  Y  Y7  1  0.47757777  0.45114672  0.59730453  1
  Y  Y8  1  0.09199900  0.40110029  0.72324268  1
