# generated using pymatgen
data_Li3Y2MoP3Se2
_symmetry_space_group_name_H-M   'P 1'
_cell_length_a   5.67290184
_cell_length_b   5.89608194
_cell_length_c   7.31151317
_cell_angle_alpha   93.54380861
_cell_angle_beta   97.71767841
_cell_angle_gamma   104.23407072
_symmetry_Int_Tables_number   1
_chemical_formula_structural   Li3Y2MoP3Se2
_chemical_formula_sum   'Li3 Y2 Mo1 P3 Se2'
_cell_volume   233.75185027
_cell_formula_units_Z   1
loop_
 _symmetry_equiv_pos_site_id
 _symmetry_equiv_pos_as_xyz
  1  'x, y, z'
loop_
 _atom_site_type_symbol
 _atom_site_label
 _atom_site_symmetry_multiplicity
 _atom_site_fract_x
 _atom_site_fract_y
 _atom_site_fract_z
 _atom_site_occupancy
  Se  Se0  1  0.00000000  0.00000000  0.00000000  1
  Se  Se1  1  0.50000000  0.50000000  0.50000000  1
  Y  Y2  1  0.50000000  0.50000000  0.00000000  1
  Y  Y3  1  0.50000000  0.00000000  0.50000000  1
  P  P4  1  0.00000000  0.50000000  0.50000000  1
  P  P5  1  0.54471530  0.22891118  0.36629278  1
  P  P6  1  0.05949663  0.69171493  0.77285680  1
  Mo  Mo7  1  0.81205823  0.14549242  0.48057485  1
  Li  Li8  1  0.33147293  0.45364323  0.19424791  1
  Li  Li9  1  0.09435492  0.50266905  0.22931123  1
  Li  Li10  1  0.91266926  0.59098703  0.12459141  1
