# generated using pymatgen
data_LiF
_symmetry_space_group_name_H-M   'P 1'
_cell_length_a   8.91894523
_cell_length_b   8.91894523
_cell_length_c   17.13429868
_cell_angle_alpha   90.00000000
_cell_angle_beta   90.00000000
_cell_angle_gamma   120.00000000
_symmetry_Int_Tables_number   1
_chemical_formula_structural   LiF
_chemical_formula_sum   'Li48 F48'
_cell_volume   1180.38575158
_cell_formula_units_Z   48
loop_
 _symmetry_equiv_pos_site_id
 _symmetry_equiv_pos_as_xyz
  1  'x, y, z'
loop_
 _atom_site_type_symbol
 _atom_site_label
 _atom_site_symmetry_multiplicity
 _atom_site_fract_x
 _atom_site_fract_y
 _atom_site_fract_z
 _atom_site_occupancy
  F  F0  1  0.88126336  0.79056206  0.22544645  1
  F  F1  1  0.20943794  0.09070129  0.22544645  1
  F  F2  1  0.90929871  0.11873664  0.22544645  1
  F  F3  1  0.79056206  0.88126336  0.27455355  1
  F  F4  1  0.09070129  0.20943794  0.27455355  1
  F  F5  1  0.11873664  0.90929871  0.27455355  1
  F  F6  1  0.11873664  0.20943794  0.77455355  1
  F  F7  1  0.79056206  0.90929871  0.77455355  1
  F  F8  1  0.09070129  0.88126336  0.77455355  1
  F  F9  1  0.20943794  0.11873664  0.72544645  1
  F  F10  1  0.90929871  0.79056206  0.72544645  1
  F  F11  1  0.88126336  0.09070129  0.72544645  1
  F  F12  1  0.54793002  0.12389540  0.55877978  1
  F  F13  1  0.87610460  0.42403462  0.55877978  1
  F  F14  1  0.57596538  0.45206998  0.55877978  1
  F  F15  1  0.45722873  0.21459669  0.60788688  1
  F  F16  1  0.75736796  0.54277127  0.60788688  1
  F  F17  1  0.78540331  0.24263204  0.60788688  1
  F  F18  1  0.78540331  0.54277127  0.10788688  1
  F  F19  1  0.45722873  0.24263204  0.10788688  1
  F  F20  1  0.75736796  0.21459669  0.10788688  1
  F  F21  1  0.87610460  0.45206998  0.05877978  1
  F  F22  1  0.57596538  0.12389540  0.05877978  1
  F  F23  1  0.54793002  0.42403462  0.05877978  1
  F  F24  1  0.21459669  0.45722873  0.89211312  1
  F  F25  1  0.54277127  0.75736796  0.89211312  1
  F  F26  1  0.24263204  0.78540331  0.89211312  1
  F  F27  1  0.12389540  0.54793002  0.94122022  1
  F  F28  1  0.42403462  0.87610460  0.94122022  1
  F  F29  1  0.45206998  0.57596538  0.94122022  1
  F  F30  1  0.45206998  0.87610460  0.44122022  1
  F  F31  1  0.12389540  0.57596538  0.44122022  1
  F  F32  1  0.42403462  0.54793002  0.44122022  1
  F  F33  1  0.54277127  0.78540331  0.39211312  1
  F  F34  1  0.24263204  0.45722873  0.39211312  1
  F  F35  1  0.21459669  0.75736796  0.39211312  1
  F  F36  1  0.00000000  0.00000000  0.43933542  1
  F  F37  1  0.00000000  0.00000000  0.06066458  1
  F  F38  1  0.00000000  0.00000000  0.56066458  1
  F  F39  1  0.00000000  0.00000000  0.93933542  1
  F  F40  1  0.66666667  0.33333333  0.77266875  1
  F  F41  1  0.66666667  0.33333333  0.39399792  1
  F  F42  1  0.66666667  0.33333333  0.89399792  1
  F  F43  1  0.66666667  0.33333333  0.27266875  1
  F  F44  1  0.33333333  0.66666667  0.10600208  1
  F  F45  1  0.33333333  0.66666667  0.72733125  1
  F  F46  1  0.33333333  0.66666667  0.22733125  1
  F  F47  1  0.33333333  0.66666667  0.60600208  1
  Li  Li48  1  0.00000000  0.00000000  0.25000000  1
  Li  Li49  1  0.00000000  0.00000000  0.75000000  1
  Li  Li50  1  0.66666667  0.33333333  0.58333333  1
  Li  Li51  1  0.66666667  0.33333333  0.08333333  1
  Li  Li52  1  0.33333333  0.66666667  0.91666667  1
  Li  Li53  1  0.33333333  0.66666667  0.41666667  1
  Li  Li54  1  0.04877234  0.80029726  0.17613076  1
  Li  Li55  1  -0.80029726  -0.75152492  0.17613076  1
  Li  Li56  1  0.75152492  -0.04877234  0.17613076  1
  Li  Li57  1  0.80029726  0.04877234  0.32386924  1
  Li  Li58  1  -0.75152492  -0.80029726  0.32386924  1
  Li  Li59  1  -0.04877234  0.75152492  0.32386924  1
  Li  Li60  1  -0.04877234  -0.80029726  -0.17613076  1
  Li  Li61  1  0.80029726  0.75152492  -0.17613076  1
  Li  Li62  1  -0.75152492  0.04877234  -0.17613076  1
  Li  Li63  1  -0.80029726  -0.04877234  0.67613076  1
  Li  Li64  1  0.75152492  0.80029726  0.67613076  1
  Li  Li65  1  0.04877234  -0.75152492  0.67613076  1
  Li  Li66  1  0.71543901  1.13363059  0.50946409  1
  Li  Li67  1  -0.13363059  -0.41819158  0.50946409  1
  Li  Li68  1  1.41819158  0.28456099  0.50946409  1
  Li  Li69  1  1.46696392  0.38210567  0.65720257  1
  Li  Li70  1  -0.08485825  -0.46696392  0.65720257  1
  Li  Li71  1  0.61789433  1.08485825  0.65720257  1
  Li  Li72  1  0.61789433  -0.46696392  0.15720257  1
  Li  Li73  1  1.46696392  1.08485825  0.15720257  1
  Li  Li74  1  -0.08485825  0.38210567  0.15720257  1
  Li  Li75  1  -0.13363059  0.28456099  1.00946409  1
  Li  Li76  1  1.41819158  1.13363059  1.00946409  1
  Li  Li77  1  0.71543901  -0.41819158  1.00946409  1
  Li  Li78  1  0.38210567  1.46696392  0.84279743  1
  Li  Li79  1  -0.46696392  -0.08485825  0.84279743  1
  Li  Li80  1  1.08485825  0.61789433  0.84279743  1
  Li  Li81  1  1.13363059  0.71543901  0.99053591  1
  Li  Li82  1  -0.41819158  -0.13363059  0.99053591  1
  Li  Li83  1  0.28456099  1.41819158  0.99053591  1
  Li  Li84  1  0.28456099  -0.13363059  0.49053591  1
  Li  Li85  1  1.13363059  1.41819158  0.49053591  1
  Li  Li86  1  -0.41819158  0.71543901  0.49053591  1
  Li  Li87  1  -0.46696392  0.61789433  1.34279743  1
  Li  Li88  1  1.08485825  1.46696392  1.34279743  1
  Li  Li89  1  0.38210567  -0.08485825  1.34279743  1
  Li  Li90  1  0.00000000  0.00000000  0.00000000  1
  Li  Li91  1  0.00000000  0.00000000  0.50000000  1
  Li  Li92  1  0.66666667  0.33333333  0.33333333  1
  Li  Li93  1  0.66666667  0.33333333  0.83333333  1
  Li  Li94  1  0.33333333  0.66666667  0.66666667  1
  Li  Li95  1  0.33333333  0.66666667  0.16666667  1
