# generated using pymatgen
data_LiF
_symmetry_space_group_name_H-M   'P 1'
_cell_length_a   9.96189692
_cell_length_b   13.45710801
_cell_length_c   5.24136500
_cell_angle_alpha   90.00000000
_cell_angle_beta   90.00000000
_cell_angle_gamma   90.00000000
_symmetry_Int_Tables_number   1
_chemical_formula_structural   LiF
_chemical_formula_sum   'Li24 F24'
_cell_volume   702.64860141
_cell_formula_units_Z   24
loop_
 _symmetry_equiv_pos_site_id
 _symmetry_equiv_pos_as_xyz
  1  'x, y, z'
loop_
 _atom_site_type_symbol
 _atom_site_label
 _atom_site_symmetry_multiplicity
 _atom_site_fract_x
 _atom_site_fract_y
 _atom_site_fract_z
 _atom_site_occupancy
  F  F0  1  0.10473995  0.25000000  0.54925341  1
  F  F1  1  0.39526005  0.75000000  0.04925341  1
  F  F2  1  0.89526005  0.75000000  0.45074659  1
  F  F3  1  0.60473995  0.25000000  0.95074659  1
  F  F4  1  0.53068744  0.13415253  0.14865576  1
  F  F5  1  0.96931256  0.86584747  0.64865576  1
  F  F6  1  0.46931256  0.63415253  0.85134424  1
  F  F7  1  0.03068744  0.36584747  0.35134424  1
  F  F8  1  0.46931256  0.86584747  0.85134424  1
  F  F9  1  0.03068744  0.13415253  0.35134424  1
  F  F10  1  0.53068744  0.36584747  0.14865576  1
  F  F11  1  0.96931256  0.63415253  0.64865576  1
  F  F12  1  0.03156893  0.32335975  0.88548332  1
  F  F13  1  0.46843107  0.67664025  0.38548332  1
  F  F14  1  0.96843107  0.82335975  0.11451668  1
  F  F15  1  0.53156893  0.17664025  0.61451668  1
  F  F16  1  0.96843107  0.67664025  0.11451668  1
  F  F17  1  0.53156893  0.32335975  0.61451668  1
  F  F18  1  0.03156893  0.17664025  0.88548332  1
  F  F19  1  0.46843107  0.82335975  0.38548332  1
  F  F20  1  0.00000000  0.00000000  0.00000000  1
  F  F21  1  0.50000000  -0.00000000  0.50000000  1
  F  F22  1  0.00000000  0.50000000  0.00000000  1
  F  F23  1  0.50000000  0.50000000  0.50000000  1
  Li  Li24  1  0.55476343  0.25000000  0.48347574  1
  Li  Li25  1  0.94523657  0.75000000  0.98347574  1
  Li  Li26  1  0.44523657  0.75000000  0.51652426  1
  Li  Li27  1  0.05476343  0.25000000  0.01652426  1
  Li  Li28  1  0.99043746  0.94254910  0.18872305  1
  Li  Li29  1  -0.49043746  -0.94254910  0.68872305  1
  Li  Li30  1  -0.99043746  1.44254910  -0.18872305  1
  Li  Li31  1  1.49043746  -0.44254910  0.31127695  1
  Li  Li32  1  -0.99043746  -0.94254910  -0.18872305  1
  Li  Li33  1  1.49043746  0.94254910  0.31127695  1
  Li  Li34  1  0.99043746  -0.44254910  0.18872305  1
  Li  Li35  1  -0.49043746  1.44254910  0.68872305  1
  Li  Li36  1  0.83228628  0.25000000  0.05471116  1
  Li  Li37  1  0.66771372  0.75000000  0.55471116  1
  Li  Li38  1  0.16771372  0.75000000  0.94528884  1
  Li  Li39  1  0.33228628  0.25000000  0.44528884  1
  Li  Li40  1  0.00000000  0.00000000  0.50000000  1
  Li  Li41  1  0.50000000  -0.00000000  0.00000000  1
  Li  Li42  1  0.00000000  0.50000000  0.50000000  1
  Li  Li43  1  0.50000000  0.50000000  0.00000000  1
  Li  Li44  1  0.76462362  0.25000000  0.72288711  1
  Li  Li45  1  0.73537638  0.75000000  0.22288711  1
  Li  Li46  1  0.23537638  0.75000000  0.27711289  1
  Li  Li47  1  0.26462362  0.25000000  0.77711289  1
