# generated using pymatgen
data_LiF
_symmetry_space_group_name_H-M   'P 1'
_cell_length_a   9.32379683
_cell_length_b   9.59241751
_cell_length_c   9.12788776
_cell_angle_alpha   90.00000000
_cell_angle_beta   90.00000000
_cell_angle_gamma   90.00000000
_symmetry_Int_Tables_number   1
_chemical_formula_structural   LiF
_chemical_formula_sum   'Li24 F24'
_cell_volume   816.37776144
_cell_formula_units_Z   24
loop_
 _symmetry_equiv_pos_site_id
 _symmetry_equiv_pos_as_xyz
  1  'x, y, z'
loop_
 _atom_site_type_symbol
 _atom_site_label
 _atom_site_symmetry_multiplicity
 _atom_site_fract_x
 _atom_site_fract_y
 _atom_site_fract_z
 _atom_site_occupancy
  F  F0  1  0.73097843  0.41343818  0.57985651  1
  F  F1  1  0.76902157  0.58656182  0.07985651  1
  F  F2  1  0.26902157  0.91343818  0.42014349  1
  F  F3  1  0.23097843  0.08656182  0.92014349  1
  F  F4  1  0.26902157  0.58656182  0.42014349  1
  F  F5  1  0.23097843  0.41343818  0.92014349  1
  F  F6  1  0.73097843  0.08656182  0.57985651  1
  F  F7  1  0.76902157  0.91343818  0.07985651  1
  F  F8  1  0.24951139  0.12772219  0.87376765  1
  F  F9  1  0.25048861  0.87227781  0.37376765  1
  F  F10  1  0.75048861  0.62772219  0.12623235  1
  F  F11  1  0.74951139  0.37227781  0.62623235  1
  F  F12  1  0.75048861  0.87227781  0.12623235  1
  F  F13  1  0.74951139  0.12772219  0.62623235  1
  F  F14  1  0.24951139  0.37227781  0.87376765  1
  F  F15  1  0.25048861  0.62772219  0.37376765  1
  F  F16  1  0.84134148  0.25000000  0.48688899  1
  F  F17  1  0.65865852  0.75000000  0.98688899  1
  F  F18  1  0.15865852  0.75000000  0.51311101  1
  F  F19  1  0.34134148  0.25000000  0.01311101  1
  F  F20  1  0.00000000  0.00000000  0.50000000  1
  F  F21  1  0.50000000  0.00000000  0.00000000  1
  F  F22  1  0.00000000  0.50000000  0.50000000  1
  F  F23  1  0.50000000  0.50000000  0.00000000  1
  Li  Li24  1  0.31184254  0.25000000  0.76085040  1
  Li  Li25  1  0.18815746  0.75000000  0.26085040  1
  Li  Li26  1  0.68815746  0.75000000  0.23914960  1
  Li  Li27  1  0.81184254  0.25000000  0.73914960  1
  Li  Li28  1  0.61896248  0.25000000  0.86119861  1
  Li  Li29  1  0.88103752  0.75000000  0.36119861  1
  Li  Li30  1  0.38103752  0.75000000  0.13880139  1
  Li  Li31  1  0.11896248  0.25000000  0.63880139  1
  Li  Li32  1  0.07077266  0.25000000  0.89395158  1
  Li  Li33  1  0.42922734  0.75000000  0.39395158  1
  Li  Li34  1  0.92922734  0.75000000  0.10604842  1
  Li  Li35  1  0.57077266  0.25000000  0.60604842  1
  Li  Li36  1  0.46769373  0.60435102  0.73551087  1
  Li  Li37  1  0.03230627  -0.60435102  1.23551087  1
  Li  Li38  1  -0.46769373  1.10435102  -0.73551087  1
  Li  Li39  1  0.96769373  -0.10435102  -0.23551087  1
  Li  Li40  1  -0.46769373  -0.60435102  -0.73551087  1
  Li  Li41  1  0.96769373  0.60435102  -0.23551087  1
  Li  Li42  1  0.46769373  -0.10435102  0.73551087  1
  Li  Li43  1  0.03230627  1.10435102  1.23551087  1
  Li  Li44  1  0.26487983  0.25000000  0.61271307  1
  Li  Li45  1  0.23512017  0.75000000  0.11271307  1
  Li  Li46  1  0.73512017  0.75000000  0.38728693  1
  Li  Li47  1  0.76487983  0.25000000  0.88728693  1
