# generated using pymatgen
data_LiF
_symmetry_space_group_name_H-M   'P 1'
_cell_length_a   11.57213659
_cell_length_b   11.57213659
_cell_length_c   6.71532408
_cell_angle_alpha   90.00000000
_cell_angle_beta   90.00000000
_cell_angle_gamma   120.00000000
_symmetry_Int_Tables_number   1
_chemical_formula_structural   LiF
_chemical_formula_sum   'Li41 F41'
_cell_volume   778.79778969
_cell_formula_units_Z   41
loop_
 _symmetry_equiv_pos_site_id
 _symmetry_equiv_pos_as_xyz
  1  'x, y, z'
loop_
 _atom_site_type_symbol
 _atom_site_label
 _atom_site_symmetry_multiplicity
 _atom_site_fract_x
 _atom_site_fract_y
 _atom_site_fract_z
 _atom_site_occupancy
  F  F0  1  0.96251888  0.10723772  0.74406392  1
  F  F1  1  0.89276228  0.85528116  0.74406392  1
  F  F2  1  0.14471884  0.03748112  0.74406392  1
  F  F3  1  0.89276228  0.03748112  0.25593608  1
  F  F4  1  0.14471884  0.10723772  0.25593608  1
  F  F5  1  0.96251888  0.85528116  0.25593608  1
  F  F6  1  0.37892048  0.88669545  0.36512842  1
  F  F7  1  0.11330455  0.49222503  0.36512842  1
  F  F8  1  0.50777497  0.62107952  0.36512842  1
  F  F9  1  0.11330455  0.62107952  0.63487158  1
  F  F10  1  0.50777497  0.88669545  0.63487158  1
  F  F11  1  0.37892048  0.49222503  0.63487158  1
  F  F12  1  0.95290433  0.44019189  0.88874942  1
  F  F13  1  0.55980811  0.51271244  0.88874942  1
  F  F14  1  0.48728756  0.04709567  0.88874942  1
  F  F15  1  0.55980811  0.04709567  0.11125058  1
  F  F16  1  0.48728756  0.44019189  0.11125058  1
  F  F17  1  0.95290433  0.51271244  0.11125058  1
  F  F18  1  0.95732253  0.62461455  0.41908872  1
  F  F19  1  0.37538545  0.33270798  0.41908872  1
  F  F20  1  0.66729202  0.04267747  0.41908872  1
  F  F21  1  0.37538545  0.04267747  0.58091128  1
  F  F22  1  0.66729202  0.62461455  0.58091128  1
  F  F23  1  0.95732253  0.33270798  0.58091128  1
  F  F24  1  0.33091644  0.42123120  0.67539368  1
  F  F25  1  0.57876880  0.90968524  0.67539368  1
  F  F26  1  0.09031476  0.66908356  0.67539368  1
  F  F27  1  0.57876880  0.66908356  0.32460632  1
  F  F28  1  0.09031476  0.42123120  0.32460632  1
  F  F29  1  0.33091644  0.90968524  0.32460632  1
  F  F30  1  0.26884864  0.01145515  0.89134096  1
  F  F31  1  0.98854485  0.25739349  0.89134096  1
  F  F32  1  0.74260651  0.73115136  0.89134096  1
  F  F33  1  0.98854485  0.73115136  0.10865904  1
  F  F34  1  0.74260651  0.01145515  0.10865904  1
  F  F35  1  0.26884864  0.25739349  0.10865904  1
  F  F36  1  0.03997789  0.96002211  -0.00000000  1
  F  F37  1  0.03997789  0.07995578  -0.00000000  1
  F  F38  1  0.92004422  0.96002211  0.00000000  1
  F  F39  1  0.00000000  0.00000000  0.92848411  1
  F  F40  1  0.00000000  0.00000000  0.07151589  1
  Li  Li41  1  0.34369970  0.30736500  0.19803068  1
  Li  Li42  1  -0.30736500  0.03633470  0.19803068  1
  Li  Li43  1  -0.03633470  -0.34369970  0.19803068  1
  Li  Li44  1  -0.30736500  -0.34369970  -0.19803068  1
  Li  Li45  1  -0.03633470  0.30736500  -0.19803068  1
  Li  Li46  1  0.34369970  0.03633470  -0.19803068  1
  Li  Li47  1  0.09548055  0.30956864  0.42646034  1
  Li  Li48  1  0.69043136  0.78591191  0.42646034  1
  Li  Li49  1  0.21408809  0.90451945  0.42646034  1
  Li  Li50  1  0.69043136  0.90451945  0.57353966  1
  Li  Li51  1  0.21408809  0.30956864  0.57353966  1
  Li  Li52  1  0.09548055  0.78591191  0.57353966  1
  Li  Li53  1  0.38480043  0.48527338  0.39410620  1
  Li  Li54  1  0.51472662  0.89952704  0.39410620  1
  Li  Li55  1  0.10047296  0.61519957  0.39410620  1
  Li  Li56  1  0.51472662  0.61519957  0.60589380  1
  Li  Li57  1  0.10047296  0.48527338  0.60589380  1
  Li  Li58  1  0.38480043  0.89952704  0.60589380  1
  Li  Li59  1  0.33397308  0.54912939  0.84602625  1
  Li  Li60  1  0.45087061  0.78484369  0.84602625  1
  Li  Li61  1  0.21515631  0.66602692  0.84602625  1
  Li  Li62  1  0.45087061  0.66602692  0.15397375  1
  Li  Li63  1  0.21515631  0.54912939  0.15397375  1
  Li  Li64  1  0.33397308  0.78484369  0.15397375  1
  Li  Li65  1  0.71002316  0.28997684  -0.00000000  1
  Li  Li66  1  0.71002316  0.42004633  -0.00000000  1
  Li  Li67  1  0.57995367  0.28997684  -0.00000000  1
  Li  Li68  1  0.33333333  0.66666667  -0.00000000  1
  Li  Li69  1  0.73357842  0.85749322  0.21809981  1
  Li  Li70  1  0.14250678  0.87608519  0.21809981  1
  Li  Li71  1  0.12391481  0.26642158  0.21809981  1
  Li  Li72  1  0.14250678  0.26642158  0.78190019  1
  Li  Li73  1  0.12391481  0.85749322  0.78190019  1
  Li  Li74  1  0.73357842  0.87608519  0.78190019  1
  Li  Li75  1  0.55805767  0.44194233  -0.00000000  1
  Li  Li76  1  0.55805767  0.11611533  -0.00000000  1
  Li  Li77  1  0.88388467  0.44194233  -0.00000000  1
  Li  Li78  1  0.12424005  0.87575995  -0.00000000  1
  Li  Li79  1  0.12424005  0.24848009  0.00000000  1
  Li  Li80  1  0.75151991  0.87575995  -0.00000000  1
  Li  Li81  1  0.33333333  0.66666667  0.50000000  1
