# generated using pymatgen
data_LiYAs2P
_symmetry_space_group_name_H-M   'P 1'
_cell_length_a   4.95605667
_cell_length_b   5.08323737
_cell_length_c   6.93186808
_cell_angle_alpha   94.87753490
_cell_angle_beta   100.62225699
_cell_angle_gamma   109.59111915
_symmetry_Int_Tables_number   1
_chemical_formula_structural   LiYAs2P
_chemical_formula_sum   'Li2 Y2 As4 P2'
_cell_volume   159.65829408
_cell_formula_units_Z   2
loop_
 _symmetry_equiv_pos_site_id
 _symmetry_equiv_pos_as_xyz
  1  'x, y, z'
loop_
 _atom_site_type_symbol
 _atom_site_label
 _atom_site_symmetry_multiplicity
 _atom_site_fract_x
 _atom_site_fract_y
 _atom_site_fract_z
 _atom_site_occupancy
  P  P0  1  0.00000000  0.00000000  0.00000000  1
  P  P1  1  0.50000000  0.50000000  0.50000000  1
  As  As2  1  0.25000000  0.25000000  0.25000000  1
  As  As3  1  0.75000000  0.25000000  0.00000000  1
  As  As4  1  0.25000000  0.75000000  0.50000000  1
  As  As5  1  0.83435324  0.27844471  0.56387285  1
  Li  Li6  1  0.03575258  0.72071912  0.94169675  1
  Li  Li7  1  0.86994578  0.60090057  0.52543101  1
  Y  Y8  1  0.27674287  0.80004966  0.52042919  1
  Y  Y9  1  0.77631713  0.57457433  0.84474700  1
