# generated using pymatgen
data_LiF
_symmetry_space_group_name_H-M   'P 1'
_cell_length_a   5.08635054
_cell_length_b   5.08635054
_cell_length_c   15.48844457
_cell_angle_alpha   90.00000000
_cell_angle_beta   90.00000000
_cell_angle_gamma   120.00000000
_symmetry_Int_Tables_number   1
_chemical_formula_structural   LiF
_chemical_formula_sum   'Li21 F21'
_cell_volume   347.01720964
_cell_formula_units_Z   21
loop_
 _symmetry_equiv_pos_site_id
 _symmetry_equiv_pos_as_xyz
  1  'x, y, z'
loop_
 _atom_site_type_symbol
 _atom_site_label
 _atom_site_symmetry_multiplicity
 _atom_site_fract_x
 _atom_site_fract_y
 _atom_site_fract_z
 _atom_site_occupancy
  F  F0  1  0.00000000  0.00000000  0.50000000  1
  F  F1  1  0.72975131  0.56317109  0.04064757  1
  F  F2  1  0.43682891  0.16658022  0.04064757  1
  F  F3  1  0.83341978  0.27024869  0.04064757  1
  F  F4  1  0.43682891  0.27024869  0.95935243  1
  F  F5  1  0.83341978  0.56317109  0.95935243  1
  F  F6  1  0.72975131  0.16658022  0.95935243  1
  F  F7  1  0.00000000  0.00000000  0.00000000  1
  F  F8  1  0.80518347  0.19481653  0.00000000  1
  F  F9  1  0.80518347  0.61036694  0.00000000  1
  F  F10  1  0.38963306  0.19481653  0.00000000  1
  F  F11  1  0.95698825  0.04456482  0.82106769  1
  F  F12  1  0.95543518  0.91242342  0.82106769  1
  F  F13  1  0.08757658  0.04301175  0.82106769  1
  F  F14  1  0.95543518  0.04301175  0.17893231  1
  F  F15  1  0.08757658  0.04456482  0.17893231  1
  F  F16  1  0.95698825  0.91242342  0.17893231  1
  F  F17  1  0.00000000  0.00000000  0.39256213  1
  F  F18  1  0.00000000  0.00000000  0.60743787  1
  F  F19  1  0.33333333  0.66666667  0.50000000  1
  F  F20  1  0.66666667  0.33333333  0.00000000  1
  Li  Li21  1  0.75417429  0.24582571  0.50000000  1
  Li  Li22  1  0.75417429  0.50834858  0.50000000  1
  Li  Li23  1  0.49165142  0.24582571  0.50000000  1
  Li  Li24  1  0.11826085  0.44643971  0.43818844  1
  Li  Li25  1  -0.44643971  -0.32817886  0.43818844  1
  Li  Li26  1  0.32817886  -0.11826085  0.43818844  1
  Li  Li27  1  -0.44643971  -0.11826085  -0.43818844  1
  Li  Li28  1  0.32817886  0.44643971  -0.43818844  1
  Li  Li29  1  0.11826085  -0.32817886  -0.43818844  1
  Li  Li30  1  0.93664153  0.79973207  0.92534495  1
  Li  Li31  1  0.20026793  0.13690946  0.92534495  1
  Li  Li32  1  0.86309054  0.06335847  0.92534495  1
  Li  Li33  1  0.20026793  0.06335847  0.07465505  1
  Li  Li34  1  0.86309054  0.79973207  0.07465505  1
  Li  Li35  1  0.93664153  0.13690946  0.07465505  1
  Li  Li36  1  0.66537127  0.91799576  0.84195155  1
  Li  Li37  1  0.08200424  0.74737551  0.84195155  1
  Li  Li38  1  0.25262449  0.33462873  0.84195155  1
  Li  Li39  1  0.08200424  0.33462873  0.15804845  1
  Li  Li40  1  0.25262449  0.91799576  0.15804845  1
  Li  Li41  1  0.66537127  0.74737551  0.15804845  1
