# generated using pymatgen
data_LiHoTi3Al2O
_symmetry_space_group_name_H-M   'P 1'
_cell_length_a   6.06629326
_cell_length_b   5.88098166
_cell_length_c   7.63614873
_cell_angle_alpha   99.19987745
_cell_angle_beta   100.56619649
_cell_angle_gamma   90.66827160
_symmetry_Int_Tables_number   1
_chemical_formula_structural   LiHoTi3Al2O
_chemical_formula_sum   'Li1 Ho1 Ti3 Al2 O1'
_cell_volume   264.12534553
_cell_formula_units_Z   1
loop_
 _symmetry_equiv_pos_site_id
 _symmetry_equiv_pos_as_xyz
  1  'x, y, z'
loop_
 _atom_site_type_symbol
 _atom_site_label
 _atom_site_symmetry_multiplicity
 _atom_site_fract_x
 _atom_site_fract_y
 _atom_site_fract_z
 _atom_site_occupancy
  Al  Al0  1  0.12500000  0.00000000  0.25000000  1
  Al  Al1  1  0.00000000  0.00000000  0.00000000  1
  Ho  Ho2  1  0.37500000  0.00000000  0.25000000  1
  Ti  Ti3  1  0.25000000  0.25000000  0.25000000  1
  Ti  Ti4  1  0.00000000  0.25000000  0.12500000  1
  Ti  Ti5  1  0.81433227  0.75225332  0.00778755  1
  O  O6  1  0.50375852  0.00770707  0.71618562  1
  Li  Li7  1  0.43805789  0.17103857  0.29618353  1
