# generated using pymatgen
data_Li2Y2P3Se2
_symmetry_space_group_name_H-M   'P 1'
_cell_length_a   4.45701391
_cell_length_b   4.67172885
_cell_length_c   6.88440550
_cell_angle_alpha   95.68168032
_cell_angle_beta   102.37351854
_cell_angle_gamma   112.82105171
_symmetry_Int_Tables_number   1
_chemical_formula_structural   Li2Y2P3Se2
_chemical_formula_sum   'Li2 Y2 P3 Se2'
_cell_volume   126.38881250
_cell_formula_units_Z   1
loop_
 _symmetry_equiv_pos_site_id
 _symmetry_equiv_pos_as_xyz
  1  'x, y, z'
loop_
 _atom_site_type_symbol
 _atom_site_label
 _atom_site_symmetry_multiplicity
 _atom_site_fract_x
 _atom_site_fract_y
 _atom_site_fract_z
 _atom_site_occupancy
  P  P0  1  0.00000000  0.00000000  0.00000000  1
  P  P1  1  0.33300000  0.66700000  0.25000000  1
  P  P2  1  0.66700000  0.33300000  0.50000000  1
  Se  Se3  1  0.00000000  0.00000000  0.75000000  1
  Se  Se4  1  0.46294242  0.51130524  0.46023366  1
  Li  Li5  1  0.04321555  0.76317439  0.85657692  1
  Li  Li6  1  0.74974516  0.57517202  0.02281022  1
  Y  Y7  1  0.95658678  0.33535882  0.48441567  1
  Y  Y8  1  0.97864971  0.73851061  0.22842236  1
