# generated using pymatgen
data_LiF
_symmetry_space_group_name_H-M   'P 1'
_cell_length_a   8.96490380
_cell_length_b   8.96490380
_cell_length_c   7.97393632
_cell_angle_alpha   90.00000000
_cell_angle_beta   90.00000000
_cell_angle_gamma   120.00000000
_symmetry_Int_Tables_number   1
_chemical_formula_structural   LiF
_chemical_formula_sum   'Li22 F22'
_cell_volume   555.00214597
_cell_formula_units_Z   22
loop_
 _symmetry_equiv_pos_site_id
 _symmetry_equiv_pos_as_xyz
  1  'x, y, z'
loop_
 _atom_site_type_symbol
 _atom_site_label
 _atom_site_symmetry_multiplicity
 _atom_site_fract_x
 _atom_site_fract_y
 _atom_site_fract_z
 _atom_site_occupancy
  F  F0  1  0.66666667  0.33333333  0.03753766  1
  F  F1  1  0.66666667  0.33333333  0.96246234  1
  F  F2  1  0.00000000  0.00000000  0.00000000  1
  F  F3  1  0.66974759  0.54426114  0.77188049  1
  F  F4  1  0.45573886  0.12548645  0.77188049  1
  F  F5  1  0.87451355  0.33025241  0.77188049  1
  F  F6  1  0.45573886  0.33025241  0.22811951  1
  F  F7  1  0.87451355  0.54426114  0.22811951  1
  F  F8  1  0.66974759  0.12548645  0.22811951  1
  F  F9  1  0.59514954  0.12147939  0.44931627  1
  F  F10  1  0.87852061  0.47367015  0.44931627  1
  F  F11  1  0.52632985  0.40485046  0.44931627  1
  F  F12  1  0.87852061  0.40485046  0.55068373  1
  F  F13  1  0.52632985  0.12147939  0.55068373  1
  F  F14  1  0.59514954  0.47367015  0.55068373  1
  F  F15  1  0.00000000  0.00000000  0.50000000  1
  F  F16  1  0.45958708  0.54041292  0.00000000  1
  F  F17  1  0.45958708  0.91917416  -0.00000000  1
  F  F18  1  0.08082584  0.54041292  0.00000000  1
  F  F19  1  0.73750962  0.26249038  -0.00000000  1
  F  F20  1  0.73750962  0.47501924  -0.00000000  1
  F  F21  1  0.52498076  0.26249038  -0.00000000  1
  Li  Li22  1  0.03958248  0.33535335  0.69457470  1
  Li  Li23  1  -0.33535335  -0.29577086  0.69457470  1
  Li  Li24  1  0.29577086  -0.03958248  0.69457470  1
  Li  Li25  1  -0.33535335  -0.03958248  -0.69457470  1
  Li  Li26  1  0.29577086  0.33535335  -0.69457470  1
  Li  Li27  1  0.03958248  -0.29577086  -0.69457470  1
  Li  Li28  1  0.22203957  0.99984496  0.53470143  1
  Li  Li29  1  0.00015504  0.22219461  0.53470143  1
  Li  Li30  1  0.77780539  0.77796043  0.53470143  1
  Li  Li31  1  0.00015504  0.77796043  0.46529857  1
  Li  Li32  1  0.77780539  0.99984496  0.46529857  1
  Li  Li33  1  0.22203957  0.22219461  0.46529857  1
  Li  Li34  1  0.66666667  0.33333333  0.50000000  1
  Li  Li35  1  0.47663742  0.52937792  0.34584545  1
  Li  Li36  1  0.47062208  0.94725951  0.34584545  1
  Li  Li37  1  0.05274049  0.52336258  0.34584545  1
  Li  Li38  1  0.47062208  0.52336258  0.65415455  1
  Li  Li39  1  0.05274049  0.52937792  0.65415455  1
  Li  Li40  1  0.47663742  0.94725951  0.65415455  1
  Li  Li41  1  0.07384488  0.92615512  0.00000000  1
  Li  Li42  1  0.07384488  0.14768976  0.00000000  1
  Li  Li43  1  0.85231024  0.92615512  0.00000000  1
