# generated using pymatgen
data_Li2Ca3F8
_symmetry_space_group_name_H-M   'P 1'
_cell_length_a   12.08440304
_cell_length_b   12.08440304
_cell_length_c   8.60299979
_cell_angle_alpha   90.00000000
_cell_angle_beta   90.00000000
_cell_angle_gamma   90.00000000
_symmetry_Int_Tables_number   1
_chemical_formula_structural   Li2Ca3F8
_chemical_formula_sum   'Li16 Ca24 F64'
_cell_volume   1256.32011921
_cell_formula_units_Z   8
loop_
 _symmetry_equiv_pos_site_id
 _symmetry_equiv_pos_as_xyz
  1  'x, y, z'
loop_
 _atom_site_type_symbol
 _atom_site_label
 _atom_site_symmetry_multiplicity
 _atom_site_fract_x
 _atom_site_fract_y
 _atom_site_fract_z
 _atom_site_occupancy
  Ca  Ca0  1  0.01601513  0.00000000  0.25000000  1
  Ca  Ca1  1  0.48398487  0.00000000  0.75000000  1
  Ca  Ca2  1  0.25000000  0.76601513  0.50000000  1
  Ca  Ca3  1  0.25000000  0.23398487  -0.00000000  1
  Ca  Ca4  1  0.98398487  0.00000000  0.75000000  1
  Ca  Ca5  1  0.51601513  0.00000000  0.25000000  1
  Ca  Ca6  1  0.75000000  0.23398487  0.50000000  1
  Ca  Ca7  1  0.75000000  0.76601513  0.00000000  1
  Ca  Ca8  1  0.51601513  0.50000000  0.75000000  1
  Ca  Ca9  1  0.98398487  0.50000000  0.25000000  1
  Ca  Ca10  1  0.75000000  0.26601513  -0.00000000  1
  Ca  Ca11  1  0.75000000  0.73398487  0.50000000  1
  Ca  Ca12  1  0.48398487  0.50000000  0.25000000  1
  Ca  Ca13  1  0.01601513  0.50000000  0.75000000  1
  Ca  Ca14  1  0.25000000  0.73398487  -0.00000000  1
  Ca  Ca15  1  0.25000000  0.26601513  0.50000000  1
  Ca  Ca16  1  0.00000000  0.25000000  0.12500000  1
  Ca  Ca17  1  0.00000000  0.75000000  0.37500000  1
  Ca  Ca18  1  0.00000000  0.75000000  0.87500000  1
  Ca  Ca19  1  0.00000000  0.25000000  0.62500000  1
  Ca  Ca20  1  0.50000000  0.75000000  0.62500000  1
  Ca  Ca21  1  0.50000000  0.25000000  0.87500000  1
  Ca  Ca22  1  0.50000000  0.25000000  0.37500000  1
  Ca  Ca23  1  0.50000000  0.75000000  0.12500000  1
  F  F24  1  0.62553554  0.64932434  0.87359545  1
  F  F25  1  -0.12553554  -0.64932434  1.37359545  1
  F  F26  1  -0.39932434  1.37553554  1.12359545  1
  F  F27  1  0.89932434  -0.37553554  1.62359545  1
  F  F28  1  -0.12553554  0.64932434  -0.87359545  1
  F  F29  1  0.62553554  -0.64932434  -0.37359545  1
  F  F30  1  0.89932434  1.37553554  -0.12359545  1
  F  F31  1  -0.39932434  -0.37553554  -0.62359545  1
  F  F32  1  -0.62553554  -0.64932434  -0.87359545  1
  F  F33  1  1.12553554  0.64932434  -0.37359545  1
  F  F34  1  1.39932434  -0.37553554  -0.12359545  1
  F  F35  1  0.10067566  1.37553554  -0.62359545  1
  F  F36  1  1.12553554  -0.64932434  0.87359545  1
  F  F37  1  -0.62553554  0.64932434  1.37359545  1
  F  F38  1  0.10067566  -0.37553554  1.12359545  1
  F  F39  1  1.39932434  1.37553554  1.62359545  1
  F  F40  1  1.12553554  1.14932434  1.37359545  1
  F  F41  1  0.37446446  -0.14932434  1.87359545  1
  F  F42  1  0.10067566  1.87553554  1.62359545  1
  F  F43  1  1.39932434  0.12446446  2.12359545  1
  F  F44  1  0.37446446  1.14932434  -0.37359545  1
  F  F45  1  1.12553554  -0.14932434  0.12640455  1
  F  F46  1  1.39932434  1.87553554  0.37640455  1
  F  F47  1  0.10067566  0.12446446  -0.12359545  1
  F  F48  1  -0.12553554  -0.14932434  -0.37359545  1
  F  F49  1  1.62553554  1.14932434  0.12640455  1
  F  F50  1  1.89932434  0.12446446  0.37640455  1
  F  F51  1  0.60067566  1.87553554  -0.12359545  1
  F  F52  1  1.62553554  -0.14932434  1.37359545  1
  F  F53  1  -0.12553554  1.14932434  1.87359545  1
  F  F54  1  0.60067566  0.12446446  1.62359545  1
  F  F55  1  1.89932434  1.87553554  2.12359545  1
  F  F56  1  0.32464373  0.98789497  0.86396135  1
  F  F57  1  0.17535627  0.01210503  0.36396135  1
  F  F58  1  0.26210503  0.07464373  0.11396135  1
  F  F59  1  0.23789497  0.92535627  0.61396135  1
  F  F60  1  0.17535627  0.98789497  0.13603865  1
  F  F61  1  0.32464373  0.01210503  0.63603865  1
  F  F62  1  0.23789497  0.07464373  0.88603865  1
  F  F63  1  0.26210503  0.92535627  0.38603865  1
  F  F64  1  0.67535627  0.01210503  0.13603865  1
  F  F65  1  0.82464373  0.98789497  0.63603865  1
  F  F66  1  0.73789497  0.92535627  0.88603865  1
  F  F67  1  0.76210503  0.07464373  0.38603865  1
  F  F68  1  0.82464373  0.01210503  0.86396135  1
  F  F69  1  0.67535627  0.98789497  0.36396135  1
  F  F70  1  0.76210503  0.92535627  0.11396135  1
  F  F71  1  0.73789497  0.07464373  0.61396135  1
  F  F72  1  0.82464373  0.48789497  0.36396135  1
  F  F73  1  0.67535627  0.51210503  0.86396135  1
  F  F74  1  0.76210503  0.57464373  0.61396135  1
  F  F75  1  0.73789497  0.42535627  0.11396135  1
  F  F76  1  0.67535627  0.48789497  0.63603865  1
  F  F77  1  0.82464373  0.51210503  0.13603865  1
  F  F78  1  0.73789497  0.57464373  0.38603865  1
  F  F79  1  0.76210503  0.42535627  0.88603865  1
  F  F80  1  0.17535627  0.51210503  0.63603865  1
  F  F81  1  0.32464373  0.48789497  0.13603865  1
  F  F82  1  0.23789497  0.42535627  0.38603865  1
  F  F83  1  0.26210503  0.57464373  0.88603865  1
  F  F84  1  0.32464373  0.51210503  0.36396135  1
  F  F85  1  0.17535627  0.48789497  0.86396135  1
  F  F86  1  0.26210503  0.42535627  0.61396135  1
  F  F87  1  0.23789497  0.57464373  0.11396135  1
  Li  Li88  1  0.00000000  0.00000000  0.00000000  1
  Li  Li89  1  0.50000000  0.00000000  0.50000000  1
  Li  Li90  1  0.25000000  0.75000000  0.25000000  1
  Li  Li91  1  0.25000000  0.25000000  0.75000000  1
  Li  Li92  1  0.50000000  0.00000000  -0.00000000  1
  Li  Li93  1  0.00000000  0.00000000  0.50000000  1
  Li  Li94  1  0.25000000  0.75000000  0.75000000  1
  Li  Li95  1  0.25000000  0.25000000  0.25000000  1
  Li  Li96  1  0.50000000  0.50000000  0.50000000  1
  Li  Li97  1  0.00000000  0.50000000  -0.00000000  1
  Li  Li98  1  0.75000000  0.25000000  0.75000000  1
  Li  Li99  1  0.75000000  0.75000000  0.25000000  1
  Li  Li100  1  0.00000000  0.50000000  0.50000000  1
  Li  Li101  1  0.50000000  0.50000000  -0.00000000  1
  Li  Li102  1  0.75000000  0.25000000  0.25000000  1
  Li  Li103  1  0.75000000  0.75000000  0.75000000  1
