# generated using pymatgen
data_LiF
_symmetry_space_group_name_H-M   'P 1'
_cell_length_a   11.96843064
_cell_length_b   6.41114465
_cell_length_c   7.41142786
_cell_angle_alpha   90.00000000
_cell_angle_beta   90.00000000
_cell_angle_gamma   90.00000000
_symmetry_Int_Tables_number   1
_chemical_formula_structural   LiF
_chemical_formula_sum   'Li24 F24'
_cell_volume   568.68879142
_cell_formula_units_Z   24
loop_
 _symmetry_equiv_pos_site_id
 _symmetry_equiv_pos_as_xyz
  1  'x, y, z'
loop_
 _atom_site_type_symbol
 _atom_site_label
 _atom_site_symmetry_multiplicity
 _atom_site_fract_x
 _atom_site_fract_y
 _atom_site_fract_z
 _atom_site_occupancy
  F  F0  1  0.49465447  0.57176685  0.22704533  1
  F  F1  1  0.00534553  0.42823315  0.72704533  1
  F  F2  1  0.50534553  0.07176685  0.77295467  1
  F  F3  1  0.99465447  0.92823315  0.27295467  1
  F  F4  1  0.50534553  0.42823315  0.77295467  1
  F  F5  1  0.99465447  0.57176685  0.27295467  1
  F  F6  1  0.49465447  0.92823315  0.22704533  1
  F  F7  1  0.00534553  0.07176685  0.72704533  1
  F  F8  1  0.82836312  0.34700784  0.01979073  1
  F  F9  1  0.67163688  0.65299216  0.51979073  1
  F  F10  1  0.17163688  0.84700784  0.98020927  1
  F  F11  1  0.32836312  0.15299216  0.48020927  1
  F  F12  1  0.17163688  0.65299216  0.98020927  1
  F  F13  1  0.32836312  0.34700784  0.48020927  1
  F  F14  1  0.82836312  0.15299216  0.01979073  1
  F  F15  1  0.67163688  0.84700784  0.51979073  1
  F  F16  1  0.43933304  0.25000000  0.41524646  1
  F  F17  1  0.06066696  0.75000000  0.91524646  1
  F  F18  1  0.56066696  0.75000000  0.58475354  1
  F  F19  1  0.93933304  0.25000000  0.08475354  1
  F  F20  1  0.51548724  0.25000000  0.55496314  1
  F  F21  1  0.98451276  0.75000000  0.05496314  1
  F  F22  1  0.48451276  0.75000000  0.44503686  1
  F  F23  1  0.01548724  0.25000000  0.94503686  1
  Li  Li24  1  0.00000000  0.00000000  0.50000000  1
  Li  Li25  1  0.50000000  0.00000000  0.00000000  1
  Li  Li26  1  0.00000000  0.50000000  0.50000000  1
  Li  Li27  1  0.50000000  0.50000000  0.00000000  1
  Li  Li28  1  0.88416961  0.49396331  0.92599483  1
  Li  Li29  1  -0.38416961  -0.49396331  1.42599483  1
  Li  Li30  1  -0.88416961  0.99396331  -0.92599483  1
  Li  Li31  1  1.38416961  0.00603669  -0.42599483  1
  Li  Li32  1  -0.88416961  -0.49396331  -0.92599483  1
  Li  Li33  1  1.38416961  0.49396331  -0.42599483  1
  Li  Li34  1  0.88416961  0.00603669  0.92599483  1
  Li  Li35  1  -0.38416961  0.99396331  1.42599483  1
  Li  Li36  1  0.36300310  0.44604032  0.12396785  1
  Li  Li37  1  0.13699690  0.55395968  0.62396785  1
  Li  Li38  1  0.63699690  0.94604032  0.87603215  1
  Li  Li39  1  0.86300310  0.05395968  0.37603215  1
  Li  Li40  1  0.63699690  0.55395968  0.87603215  1
  Li  Li41  1  0.86300310  0.44604032  0.37603215  1
  Li  Li42  1  0.36300310  0.05395968  0.12396785  1
  Li  Li43  1  0.13699690  0.94604032  0.62396785  1
  Li  Li44  1  0.63383460  0.25000000  0.70096325  1
  Li  Li45  1  0.86616540  0.75000000  0.20096325  1
  Li  Li46  1  0.36616540  0.75000000  0.29903675  1
  Li  Li47  1  0.13383460  0.25000000  0.79903675  1
