# generated using pymatgen
data_Li3TiO
_symmetry_space_group_name_H-M   'P 1'
_cell_length_a   3.51005587
_cell_length_b   3.15061692
_cell_length_c   4.96569041
_cell_angle_alpha   96.14485793
_cell_angle_beta   103.01933867
_cell_angle_gamma   95.41591682
_symmetry_Int_Tables_number   1
_chemical_formula_structural   Li3TiO
_chemical_formula_sum   'Li3 Ti1 O1'
_cell_volume   52.79622307
_cell_formula_units_Z   1
loop_
 _symmetry_equiv_pos_site_id
 _symmetry_equiv_pos_as_xyz
  1  'x, y, z'
loop_
 _atom_site_type_symbol
 _atom_site_label
 _atom_site_symmetry_multiplicity
 _atom_site_fract_x
 _atom_site_fract_y
 _atom_site_fract_z
 _atom_site_occupancy
  Li  Li0  1  0.12500000  0.12500000  0.12500000  1
  Li  Li1  1  0.50000000  0.50000000  0.50000000  1
  Li  Li2  1  0.25000000  0.25000000  0.25000000  1
  O  O3  1  0.75000000  0.75000000  0.75000000  1
  Ti  Ti4  1  0.62280722  0.53831303  0.06430685  1
