# generated using pymatgen
data_LiF
_symmetry_space_group_name_H-M   'P 1'
_cell_length_a   12.94423497
_cell_length_b   12.94423497
_cell_length_c   4.65791727
_cell_angle_alpha   90.00000000
_cell_angle_beta   90.00000000
_cell_angle_gamma   120.00000000
_symmetry_Int_Tables_number   1
_chemical_formula_structural   LiF
_chemical_formula_sum   'Li30 F30'
_cell_volume   675.88868741
_cell_formula_units_Z   30
loop_
 _symmetry_equiv_pos_site_id
 _symmetry_equiv_pos_as_xyz
  1  'x, y, z'
loop_
 _atom_site_type_symbol
 _atom_site_label
 _atom_site_symmetry_multiplicity
 _atom_site_fract_x
 _atom_site_fract_y
 _atom_site_fract_z
 _atom_site_occupancy
  F  F0  1  0.00000000  0.00000000  0.64939419  1
  F  F1  1  0.00000000  0.00000000  0.35060581  1
  F  F2  1  0.80754579  0.58766339  0.00000000  1
  F  F3  1  0.41233661  0.21988240  0.00000000  1
  F  F4  1  0.78011760  0.19245421  -0.00000000  1
  F  F5  1  0.58766339  0.80754579  0.00000000  1
  F  F6  1  0.21988240  0.41233661  0.00000000  1
  F  F7  1  0.19245421  0.78011760  -0.00000000  1
  F  F8  1  0.42713786  0.00000000  0.00000000  1
  F  F9  1  0.00000000  0.42713786  0.00000000  1
  F  F10  1  0.57286214  0.57286214  -0.00000000  1
  F  F11  1  0.33333333  0.66666667  0.50000000  1
  F  F12  1  0.66666667  0.33333333  0.50000000  1
  F  F13  1  0.52971958  0.35769988  0.00000000  1
  F  F14  1  0.64230012  0.17201969  0.00000000  1
  F  F15  1  0.82798031  0.47028042  0.00000000  1
  F  F16  1  0.35769988  0.52971958  0.00000000  1
  F  F17  1  0.17201969  0.64230012  0.00000000  1
  F  F18  1  0.47028042  0.82798031  0.00000000  1
  F  F19  1  0.38081102  0.58266487  0.00000000  1
  F  F20  1  0.41733513  0.79814615  0.00000000  1
  F  F21  1  0.20185385  0.61918898  0.00000000  1
  F  F22  1  0.58266487  0.38081102  0.00000000  1
  F  F23  1  0.79814615  0.41733513  0.00000000  1
  F  F24  1  0.61918898  0.20185385  0.00000000  1
  F  F25  1  0.33333333  0.66666667  0.00000000  1
  F  F26  1  0.66666667  0.33333333  0.00000000  1
  F  F27  1  0.29668246  0.00000000  0.00000000  1
  F  F28  1  0.00000000  0.29668246  0.00000000  1
  F  F29  1  0.70331754  0.70331754  0.00000000  1
  Li  Li30  1  0.35109767  0.00000000  0.68845057  1
  Li  Li31  1  0.00000000  0.35109767  0.68845057  1
  Li  Li32  1  0.64890233  0.64890233  0.68845057  1
  Li  Li33  1  0.35109767  0.00000000  0.31154943  1
  Li  Li34  1  0.00000000  0.35109767  0.31154943  1
  Li  Li35  1  0.64890233  0.64890233  0.31154943  1
  Li  Li36  1  0.77513428  0.37034304  0.24727431  1
  Li  Li37  1  -0.37034304  0.40479124  0.24727431  1
  Li  Li38  1  -0.40479124  -0.77513428  0.24727431  1
  Li  Li39  1  0.77513428  0.37034304  -0.24727431  1
  Li  Li40  1  -0.37034304  0.40479124  -0.24727431  1
  Li  Li41  1  -0.40479124  -0.77513428  -0.24727431  1
  Li  Li42  1  0.37034304  0.77513428  -0.24727431  1
  Li  Li43  1  0.40479124  -0.37034304  -0.24727431  1
  Li  Li44  1  -0.77513428  -0.40479124  -0.24727431  1
  Li  Li45  1  0.37034304  0.77513428  0.24727431  1
  Li  Li46  1  0.40479124  -0.37034304  0.24727431  1
  Li  Li47  1  -0.77513428  -0.40479124  0.24727431  1
  Li  Li48  1  0.11170867  0.29115405  0.22496687  1
  Li  Li49  1  0.70884595  0.82055462  0.22496687  1
  Li  Li50  1  0.17944538  0.88829133  0.22496687  1
  Li  Li51  1  0.11170867  0.29115405  0.77503313  1
  Li  Li52  1  0.70884595  0.82055462  0.77503313  1
  Li  Li53  1  0.17944538  0.88829133  0.77503313  1
  Li  Li54  1  0.29115405  0.11170867  0.77503313  1
  Li  Li55  1  0.82055462  0.70884595  0.77503313  1
  Li  Li56  1  0.88829133  0.17944538  0.77503313  1
  Li  Li57  1  0.29115405  0.11170867  0.22496687  1
  Li  Li58  1  0.82055462  0.70884595  0.22496687  1
  Li  Li59  1  0.88829133  0.17944538  0.22496687  1
