# generated using pymatgen
data_LiYP2Se
_symmetry_space_group_name_H-M   'P 1'
_cell_length_a   4.59006445
_cell_length_b   4.89527300
_cell_length_c   7.02858018
_cell_angle_alpha   95.44634550
_cell_angle_beta   101.86100823
_cell_angle_gamma   111.87580527
_symmetry_Int_Tables_number   1
_chemical_formula_structural   LiYP2Se
_chemical_formula_sum   'Li2 Y2 P4 Se2'
_cell_volume   140.84800504
_cell_formula_units_Z   2
loop_
 _symmetry_equiv_pos_site_id
 _symmetry_equiv_pos_as_xyz
  1  'x, y, z'
loop_
 _atom_site_type_symbol
 _atom_site_label
 _atom_site_symmetry_multiplicity
 _atom_site_fract_x
 _atom_site_fract_y
 _atom_site_fract_z
 _atom_site_occupancy
  Se  Se0  1  0.12500000  0.00000000  0.25000000  1
  Se  Se1  1  0.00000000  0.00000000  0.00000000  1
  Y  Y2  1  0.37500000  0.00000000  0.25000000  1
  Y  Y3  1  0.25000000  0.25000000  0.25000000  1
  P  P4  1  0.00000000  0.25000000  0.12500000  1
  P  P5  1  0.01244668  0.50301136  0.96578266  1
  P  P6  1  0.87426839  0.38341435  0.88096218  1
  P  P7  1  0.62729230  0.19728843  0.08009613  1
  Li  Li8  1  0.61299249  0.23982621  0.92110904  1
  Li  Li9  1  0.44737242  0.88793312  0.64293317  1
