# generated using pymatgen
data_LiF
_symmetry_space_group_name_H-M   'P 1'
_cell_length_a   6.12625772
_cell_length_b   9.93473529
_cell_length_c   9.77937623
_cell_angle_alpha   90.00000000
_cell_angle_beta   90.00000000
_cell_angle_gamma   90.00000000
_symmetry_Int_Tables_number   1
_chemical_formula_structural   LiF
_chemical_formula_sum   'Li20 F20'
_cell_volume   595.19971933
_cell_formula_units_Z   20
loop_
 _symmetry_equiv_pos_site_id
 _symmetry_equiv_pos_as_xyz
  1  'x, y, z'
loop_
 _atom_site_type_symbol
 _atom_site_label
 _atom_site_symmetry_multiplicity
 _atom_site_fract_x
 _atom_site_fract_y
 _atom_site_fract_z
 _atom_site_occupancy
  F  F0  1  0.76666982  0.89307801  0.72955482  1
  F  F1  1  0.73333018  0.10692199  0.22955482  1
  F  F2  1  0.23333018  0.39307801  0.27044518  1
  F  F3  1  0.26666982  0.60692199  0.77044518  1
  F  F4  1  0.23333018  0.10692199  0.27044518  1
  F  F5  1  0.26666982  0.89307801  0.77044518  1
  F  F6  1  0.76666982  0.60692199  0.72955482  1
  F  F7  1  0.73333018  0.39307801  0.22955482  1
  F  F8  1  0.00000000  0.00000000  0.50000000  1
  F  F9  1  0.50000000  0.00000000  0.00000000  1
  F  F10  1  0.00000000  0.50000000  0.50000000  1
  F  F11  1  0.50000000  0.50000000  0.00000000  1
  F  F12  1  0.46306686  0.82824853  0.36420998  1
  F  F13  1  0.03693314  0.17175147  0.86420998  1
  F  F14  1  0.53693314  0.32824853  0.63579002  1
  F  F15  1  0.96306686  0.67175147  0.13579002  1
  F  F16  1  0.53693314  0.17175147  0.63579002  1
  F  F17  1  0.96306686  0.82824853  0.13579002  1
  F  F18  1  0.46306686  0.67175147  0.36420998  1
  F  F19  1  0.03693314  0.32824853  0.86420998  1
  Li  Li20  1  0.68635908  0.25000000  0.71552195  1
  Li  Li21  1  0.81364092  0.75000000  0.21552195  1
  Li  Li22  1  0.31364092  0.75000000  0.28447805  1
  Li  Li23  1  0.18635908  0.25000000  0.78447805  1
  Li  Li24  1  0.00000000  0.00000000  0.00000000  1
  Li  Li25  1  0.50000000  0.00000000  0.50000000  1
  Li  Li26  1  0.00000000  0.50000000  0.00000000  1
  Li  Li27  1  0.50000000  0.50000000  0.50000000  1
  Li  Li28  1  0.95910472  0.03358049  0.87486278  1
  Li  Li29  1  -0.45910472  -0.03358049  1.37486278  1
  Li  Li30  1  -0.95910472  0.53358049  -0.87486278  1
  Li  Li31  1  1.45910472  0.46641951  -0.37486278  1
  Li  Li32  1  -0.95910472  -0.03358049  -0.87486278  1
  Li  Li33  1  1.45910472  0.03358049  -0.37486278  1
  Li  Li34  1  0.95910472  0.46641951  0.87486278  1
  Li  Li35  1  -0.45910472  0.53358049  1.37486278  1
  Li  Li36  1  0.37793838  0.25000000  0.24417986  1
  Li  Li37  1  0.12206162  0.75000000  0.74417986  1
  Li  Li38  1  0.62206162  0.75000000  0.75582014  1
  Li  Li39  1  0.87793838  0.25000000  0.25582014  1
