# generated using pymatgen
data_LiF
_symmetry_space_group_name_H-M   'P 1'
_cell_length_a   5.54927722
_cell_length_b   5.54927722
_cell_length_c   12.31873235
_cell_angle_alpha   90.00000000
_cell_angle_beta   90.00000000
_cell_angle_gamma   120.00000000
_symmetry_Int_Tables_number   1
_chemical_formula_structural   LiF
_chemical_formula_sum   'Li12 F12'
_cell_volume   328.52580930
_cell_formula_units_Z   12
loop_
 _symmetry_equiv_pos_site_id
 _symmetry_equiv_pos_as_xyz
  1  'x, y, z'
loop_
 _atom_site_type_symbol
 _atom_site_label
 _atom_site_symmetry_multiplicity
 _atom_site_fract_x
 _atom_site_fract_y
 _atom_site_fract_z
 _atom_site_occupancy
  F  F0  1  0.00000000  0.00000000  0.25000000  1
  F  F1  1  0.00000000  0.00000000  0.75000000  1
  F  F2  1  0.66666667  0.33333333  0.58333333  1
  F  F3  1  0.66666667  0.33333333  0.08333333  1
  F  F4  1  0.33333333  0.66666667  0.91666667  1
  F  F5  1  0.33333333  0.66666667  0.41666667  1
  F  F6  1  0.00000000  0.00000000  0.00000000  1
  F  F7  1  0.00000000  0.00000000  0.50000000  1
  F  F8  1  0.66666667  0.33333333  0.33333333  1
  F  F9  1  0.66666667  0.33333333  0.83333333  1
  F  F10  1  0.33333333  0.66666667  0.66666667  1
  F  F11  1  0.33333333  0.66666667  0.16666667  1
  Li  Li12  1  0.00000000  0.00000000  0.66771788  1
  Li  Li13  1  0.00000000  0.00000000  -0.16771788  1
  Li  Li14  1  0.00000000  0.00000000  -0.66771788  1
  Li  Li15  1  0.00000000  0.00000000  1.16771788  1
  Li  Li16  1  0.66666667  0.33333333  1.00105121  1
  Li  Li17  1  0.66666667  0.33333333  0.16561545  1
  Li  Li18  1  0.66666667  0.33333333  -0.33438455  1
  Li  Li19  1  0.66666667  0.33333333  1.50105121  1
  Li  Li20  1  0.33333333  0.66666667  1.33438455  1
  Li  Li21  1  0.33333333  0.66666667  0.49894879  1
  Li  Li22  1  0.33333333  0.66666667  -0.00105121  1
  Li  Li23  1  0.33333333  0.66666667  1.83438455  1
