# generated using pymatgen
data_LiF
_symmetry_space_group_name_H-M   'P 1'
_cell_length_a   8.85415470
_cell_length_b   9.76563533
_cell_length_c   7.27151022
_cell_angle_alpha   90.00000000
_cell_angle_beta   90.00000000
_cell_angle_gamma   90.00000000
_symmetry_Int_Tables_number   1
_chemical_formula_structural   LiF
_chemical_formula_sum   'Li24 F24'
_cell_volume   628.74164526
_cell_formula_units_Z   24
loop_
 _symmetry_equiv_pos_site_id
 _symmetry_equiv_pos_as_xyz
  1  'x, y, z'
loop_
 _atom_site_type_symbol
 _atom_site_label
 _atom_site_symmetry_multiplicity
 _atom_site_fract_x
 _atom_site_fract_y
 _atom_site_fract_z
 _atom_site_occupancy
  F  F0  1  0.77906968  0.69261683  0.24580635  1
  F  F1  1  0.72093032  0.30738317  0.74580635  1
  F  F2  1  0.22093032  0.19261683  0.75419365  1
  F  F3  1  0.27906968  0.80738317  0.25419365  1
  F  F4  1  0.22093032  0.30738317  0.75419365  1
  F  F5  1  0.27906968  0.69261683  0.25419365  1
  F  F6  1  0.77906968  0.80738317  0.24580635  1
  F  F7  1  0.72093032  0.19261683  0.74580635  1
  F  F8  1  0.73303378  0.51341452  0.02660750  1
  F  F9  1  0.76696622  0.48658548  0.52660750  1
  F  F10  1  0.26696622  0.01341452  0.97339250  1
  F  F11  1  0.23303378  0.98658548  0.47339250  1
  F  F12  1  0.26696622  0.48658548  0.97339250  1
  F  F13  1  0.23303378  0.51341452  0.47339250  1
  F  F14  1  0.73303378  0.98658548  0.02660750  1
  F  F15  1  0.76696622  0.01341452  0.52660750  1
  F  F16  1  0.00000000  0.00000000  0.00000000  1
  F  F17  1  0.50000000  0.00000000  0.50000000  1
  F  F18  1  0.00000000  0.50000000  0.00000000  1
  F  F19  1  0.50000000  0.50000000  0.50000000  1
  F  F20  1  0.26576098  0.25000000  0.82071585  1
  F  F21  1  0.23423902  0.75000000  0.32071585  1
  F  F22  1  0.73423902  0.75000000  0.17928415  1
  F  F23  1  0.76576098  0.25000000  0.67928415  1
  Li  Li24  1  0.00000000  0.00000000  0.50000000  1
  Li  Li25  1  0.50000000  0.00000000  0.00000000  1
  Li  Li26  1  0.00000000  0.50000000  0.50000000  1
  Li  Li27  1  0.50000000  0.50000000  0.00000000  1
  Li  Li28  1  0.74220775  0.15592668  0.54522958  1
  Li  Li29  1  -0.24220775  -0.15592668  1.04522958  1
  Li  Li30  1  -0.74220775  0.65592668  -0.54522958  1
  Li  Li31  1  1.24220775  0.34407332  -0.04522958  1
  Li  Li32  1  -0.74220775  -0.15592668  -0.54522958  1
  Li  Li33  1  1.24220775  0.15592668  -0.04522958  1
  Li  Li34  1  0.74220775  0.34407332  0.54522958  1
  Li  Li35  1  -0.24220775  0.65592668  1.04522958  1
  Li  Li36  1  0.22524442  0.05546559  0.28617191  1
  Li  Li37  1  0.27475558  0.94453441  0.78617191  1
  Li  Li38  1  0.77475558  0.55546559  0.71382809  1
  Li  Li39  1  0.72524442  0.44453441  0.21382809  1
  Li  Li40  1  0.77475558  0.94453441  0.71382809  1
  Li  Li41  1  0.72524442  0.05546559  0.21382809  1
  Li  Li42  1  0.22524442  0.44453441  0.28617191  1
  Li  Li43  1  0.27475558  0.55546559  0.78617191  1
  Li  Li44  1  0.44234937  0.25000000  0.54359141  1
  Li  Li45  1  0.05765063  0.75000000  0.04359141  1
  Li  Li46  1  0.55765063  0.75000000  0.45640859  1
  Li  Li47  1  0.94234937  0.25000000  0.95640859  1
