# generated using pymatgen
data_LiF
_symmetry_space_group_name_H-M   'P 1'
_cell_length_a   8.43363002
_cell_length_b   8.43363002
_cell_length_c   6.74089962
_cell_angle_alpha   90.00000000
_cell_angle_beta   90.00000000
_cell_angle_gamma   120.00000000
_symmetry_Int_Tables_number   1
_chemical_formula_structural   LiF
_chemical_formula_sum   'Li22 F22'
_cell_volume   415.21934683
_cell_formula_units_Z   22
loop_
 _symmetry_equiv_pos_site_id
 _symmetry_equiv_pos_as_xyz
  1  'x, y, z'
loop_
 _atom_site_type_symbol
 _atom_site_label
 _atom_site_symmetry_multiplicity
 _atom_site_fract_x
 _atom_site_fract_y
 _atom_site_fract_z
 _atom_site_occupancy
  F  F0  1  0.85053895  0.04753892  0.13922423  1
  F  F1  1  0.95246108  0.80300003  0.13922423  1
  F  F2  1  0.19699997  0.14946105  0.13922423  1
  F  F3  1  0.95246108  0.14946105  0.86077577  1
  F  F4  1  0.19699997  0.04753892  0.86077577  1
  F  F5  1  0.85053895  0.80300003  0.86077577  1
  F  F6  1  0.77830878  0.15625762  0.05601263  1
  F  F7  1  0.84374238  0.62205117  0.05601263  1
  F  F8  1  0.37794883  0.22169122  0.05601263  1
  F  F9  1  0.84374238  0.22169122  0.94398737  1
  F  F10  1  0.37794883  0.15625762  0.94398737  1
  F  F11  1  0.77830878  0.62205117  0.94398737  1
  F  F12  1  0.19163539  0.91641325  0.57045891  1
  F  F13  1  0.08358675  0.27522214  0.57045891  1
  F  F14  1  0.72477786  0.80836461  0.57045891  1
  F  F15  1  0.08358675  0.80836461  0.42954109  1
  F  F16  1  0.72477786  0.91641325  0.42954109  1
  F  F17  1  0.19163539  0.27522214  0.42954109  1
  F  F18  1  0.77744803  0.22255197  0.50000000  1
  F  F19  1  0.77744803  0.55489606  0.50000000  1
  F  F20  1  0.44510394  0.22255197  0.50000000  1
  F  F21  1  0.66666667  0.33333333  0.50000000  1
  Li  Li22  1  0.33333333  0.66666667  0.50000000  1
  Li  Li23  1  0.21986534  0.67615702  0.25074268  1
  Li  Li24  1  -0.67615702  -0.45629168  0.25074268  1
  Li  Li25  1  0.45629168  -0.21986534  0.25074268  1
  Li  Li26  1  -0.67615702  -0.21986534  -0.25074268  1
  Li  Li27  1  0.45629168  0.67615702  -0.25074268  1
  Li  Li28  1  0.21986534  -0.45629168  -0.25074268  1
  Li  Li29  1  0.33050911  0.88122804  0.25653664  1
  Li  Li30  1  0.11877196  0.44928107  0.25653664  1
  Li  Li31  1  0.55071893  0.66949089  0.25653664  1
  Li  Li32  1  0.11877196  0.66949089  0.74346336  1
  Li  Li33  1  0.55071893  0.88122804  0.74346336  1
  Li  Li34  1  0.33050911  0.44928107  0.74346336  1
  Li  Li35  1  0.00000000  0.00000000  0.50000000  1
  Li  Li36  1  0.33333333  0.66666667  0.00000000  1
  Li  Li37  1  0.04436702  0.85386049  0.86392970  1
  Li  Li38  1  0.14613951  0.19050654  0.86392970  1
  Li  Li39  1  0.80949346  0.95563298  0.86392970  1
  Li  Li40  1  0.14613951  0.95563298  0.13607030  1
  Li  Li41  1  0.80949346  0.85386049  0.13607030  1
  Li  Li42  1  0.04436702  0.19050654  0.13607030  1
  Li  Li43  1  0.66666667  0.33333333  -0.00000000  1
