# generated using pymatgen
data_LiF
_symmetry_space_group_name_H-M   'P 1'
_cell_length_a   8.79711100
_cell_length_b   7.37674707
_cell_length_c   9.79857715
_cell_angle_alpha   90.00000000
_cell_angle_beta   90.00000000
_cell_angle_gamma   90.00000000
_symmetry_Int_Tables_number   1
_chemical_formula_structural   LiF
_chemical_formula_sum   'Li36 F36'
_cell_volume   635.86948061
_cell_formula_units_Z   36
loop_
 _symmetry_equiv_pos_site_id
 _symmetry_equiv_pos_as_xyz
  1  'x, y, z'
loop_
 _atom_site_type_symbol
 _atom_site_label
 _atom_site_symmetry_multiplicity
 _atom_site_fract_x
 _atom_site_fract_y
 _atom_site_fract_z
 _atom_site_occupancy
  F  F0  1  0.17891858  0.82070480  0.41784097  1
  F  F1  1  0.82108142  0.17929520  0.41784097  1
  F  F2  1  0.32108142  0.32070480  0.58215903  1
  F  F3  1  0.67891858  0.67929520  0.58215903  1
  F  F4  1  0.82108142  0.17929520  0.58215903  1
  F  F5  1  0.17891858  0.82070480  0.58215903  1
  F  F6  1  0.67891858  0.67929520  0.41784097  1
  F  F7  1  0.32108142  0.32070480  0.41784097  1
  F  F8  1  0.75625336  0.33657040  0.20444547  1
  F  F9  1  0.24374664  0.66342960  0.20444547  1
  F  F10  1  0.74374664  0.83657040  0.79555453  1
  F  F11  1  0.25625336  0.16342960  0.79555453  1
  F  F12  1  0.24374664  0.66342960  0.79555453  1
  F  F13  1  0.75625336  0.33657040  0.79555453  1
  F  F14  1  0.25625336  0.16342960  0.20444547  1
  F  F15  1  0.74374664  0.83657040  0.20444547  1
  F  F16  1  0.00000000  0.50000000  0.50000000  1
  F  F17  1  0.50000000  0.00000000  0.50000000  1
  F  F18  1  0.61136595  0.91816202  0.05838727  1
  F  F19  1  0.38863405  0.08183798  0.05838727  1
  F  F20  1  0.88863405  0.41816202  0.94161273  1
  F  F21  1  0.11136595  0.58183798  0.94161273  1
  F  F22  1  0.38863405  0.08183798  0.94161273  1
  F  F23  1  0.61136595  0.91816202  0.94161273  1
  F  F24  1  0.11136595  0.58183798  0.05838727  1
  F  F25  1  0.88863405  0.41816202  0.05838727  1
  F  F26  1  0.50058571  0.87458912  0.62067217  1
  F  F27  1  0.49941429  0.12541088  0.62067217  1
  F  F28  1  0.99941429  0.37458912  0.37932783  1
  F  F29  1  0.00058571  0.62541088  0.37932783  1
  F  F30  1  0.49941429  0.12541088  0.37932783  1
  F  F31  1  0.50058571  0.87458912  0.37932783  1
  F  F32  1  0.00058571  0.62541088  0.62067217  1
  F  F33  1  0.99941429  0.37458912  0.62067217  1
  F  F34  1  0.00000000  0.50000000  0.00000000  1
  F  F35  1  0.50000000  0.00000000  0.00000000  1
  Li  Li36  1  0.62941752  0.83359529  0.50000000  1
  Li  Li37  1  0.37058248  0.16640471  0.50000000  1
  Li  Li38  1  0.87058248  0.33359529  0.50000000  1
  Li  Li39  1  0.12941752  0.66640471  0.50000000  1
  Li  Li40  1  0.87091077  0.57635318  0.50000000  1
  Li  Li41  1  0.12908923  0.42364682  0.50000000  1
  Li  Li42  1  0.62908923  0.07635318  0.50000000  1
  Li  Li43  1  0.37091077  0.92364682  0.50000000  1
  Li  Li44  1  0.22782854  0.53687471  0.22507760  1
  Li  Li45  1  -0.22782854  -0.53687471  0.22507760  1
  Li  Li46  1  0.27217146  1.03687471  -0.22507760  1
  Li  Li47  1  0.72782854  -0.03687471  -0.22507760  1
  Li  Li48  1  -0.22782854  -0.53687471  -0.22507760  1
  Li  Li49  1  0.22782854  0.53687471  -0.22507760  1
  Li  Li50  1  0.72782854  -0.03687471  0.22507760  1
  Li  Li51  1  0.27217146  1.03687471  0.22507760  1
  Li  Li52  1  0.00000000  0.00000000  0.00000000  1
  Li  Li53  1  0.50000000  0.50000000  0.00000000  1
  Li  Li54  1  0.37388341  0.33096540  0.00000000  1
  Li  Li55  1  0.62611659  0.66903460  0.00000000  1
  Li  Li56  1  0.12611659  0.83096540  -0.00000000  1
  Li  Li57  1  0.87388341  0.16903460  0.00000000  1
  Li  Li58  1  0.35880933  0.17478126  0.34921062  1
  Li  Li59  1  0.64119067  0.82521874  0.34921062  1
  Li  Li60  1  0.14119067  0.67478126  0.65078938  1
  Li  Li61  1  0.85880933  0.32521874  0.65078938  1
  Li  Li62  1  0.64119067  0.82521874  0.65078938  1
  Li  Li63  1  0.35880933  0.17478126  0.65078938  1
  Li  Li64  1  0.85880933  0.32521874  0.34921062  1
  Li  Li65  1  0.14119067  0.67478126  0.34921062  1
  Li  Li66  1  0.00000000  0.50000000  0.20715652  1
  Li  Li67  1  0.50000000  0.00000000  0.79284348  1
  Li  Li68  1  0.00000000  0.50000000  0.79284348  1
  Li  Li69  1  0.50000000  0.00000000  0.20715652  1
  Li  Li70  1  0.00000000  0.00000000  0.50000000  1
  Li  Li71  1  0.50000000  0.50000000  0.50000000  1
