# generated using pymatgen
data_Li2Y2Sb2P2Se
_symmetry_space_group_name_H-M   'P 1'
_cell_length_a   4.75480962
_cell_length_b   4.85875803
_cell_length_c   6.83765173
_cell_angle_alpha   95.04233483
_cell_angle_beta   100.57838429
_cell_angle_gamma   109.62140080
_symmetry_Int_Tables_number   1
_chemical_formula_structural   Li2Y2Sb2P2Se
_chemical_formula_sum   'Li2 Y2 Sb2 P2 Se1'
_cell_volume   144.34493089
_cell_formula_units_Z   1
loop_
 _symmetry_equiv_pos_site_id
 _symmetry_equiv_pos_as_xyz
  1  'x, y, z'
loop_
 _atom_site_type_symbol
 _atom_site_label
 _atom_site_symmetry_multiplicity
 _atom_site_fract_x
 _atom_site_fract_y
 _atom_site_fract_z
 _atom_site_occupancy
  P  P0  1  0.12500000  0.00000000  0.25000000  1
  P  P1  1  0.00000000  0.00000000  0.00000000  1
  Se  Se2  1  0.37500000  0.00000000  0.25000000  1
  Li  Li3  1  0.25000000  0.25000000  0.25000000  1
  Li  Li4  1  0.00000000  0.25000000  0.12500000  1
  Y  Y5  1  0.82306979  0.42246738  0.74030540  1
  Y  Y6  1  0.38733770  0.66768785  0.46735156  1
  Sb  Sb7  1  0.69833097  0.54544227  0.19665613  1
  Sb  Sb8  1  0.88735797  0.92415083  0.92813869  1
