# generated using pymatgen
data_LiF
_symmetry_space_group_name_H-M   'P 1'
_cell_length_a   10.08332743
_cell_length_b   6.85433828
_cell_length_c   6.16223791
_cell_angle_alpha   90.00000000
_cell_angle_beta   90.00000000
_cell_angle_gamma   90.00000000
_symmetry_Int_Tables_number   1
_chemical_formula_structural   LiF
_chemical_formula_sum   'Li24 F24'
_cell_volume   425.90022101
_cell_formula_units_Z   24
loop_
 _symmetry_equiv_pos_site_id
 _symmetry_equiv_pos_as_xyz
  1  'x, y, z'
loop_
 _atom_site_type_symbol
 _atom_site_label
 _atom_site_symmetry_multiplicity
 _atom_site_fract_x
 _atom_site_fract_y
 _atom_site_fract_z
 _atom_site_occupancy
  F  F0  1  0.85757502  0.37185238  0.86497483  1
  F  F1  1  0.64242498  0.62814762  0.36497483  1
  F  F2  1  0.14242498  0.87185238  0.13502517  1
  F  F3  1  0.35757502  0.12814762  0.63502517  1
  F  F4  1  0.14242498  0.62814762  0.13502517  1
  F  F5  1  0.35757502  0.37185238  0.63502517  1
  F  F6  1  0.85757502  0.12814762  0.86497483  1
  F  F7  1  0.64242498  0.87185238  0.36497483  1
  F  F8  1  0.27942934  0.88391807  0.09544740  1
  F  F9  1  0.22057066  0.11608193  0.59544740  1
  F  F10  1  0.72057066  0.38391807  0.90455260  1
  F  F11  1  0.77942934  0.61608193  0.40455260  1
  F  F12  1  0.72057066  0.11608193  0.90455260  1
  F  F13  1  0.77942934  0.88391807  0.40455260  1
  F  F14  1  0.27942934  0.61608193  0.09544740  1
  F  F15  1  0.22057066  0.38391807  0.59544740  1
  F  F16  1  0.43180477  0.40523550  0.55366265  1
  F  F17  1  0.06819523  0.59476450  0.05366265  1
  F  F18  1  0.56819523  0.90523550  0.44633735  1
  F  F19  1  0.93180477  0.09476450  0.94633735  1
  F  F20  1  0.56819523  0.59476450  0.44633735  1
  F  F21  1  0.93180477  0.40523550  0.94633735  1
  F  F22  1  0.43180477  0.09476450  0.55366265  1
  F  F23  1  0.06819523  0.90523550  0.05366265  1
  Li  Li24  1  0.89920814  0.25000000  0.88773739  1
  Li  Li25  1  0.60079186  0.75000000  0.38773739  1
  Li  Li26  1  0.10079186  0.75000000  0.11226261  1
  Li  Li27  1  0.39920814  0.25000000  0.61226261  1
  Li  Li28  1  0.00000000  0.00000000  0.50000000  1
  Li  Li29  1  0.50000000  0.00000000  0.00000000  1
  Li  Li30  1  0.00000000  0.50000000  0.50000000  1
  Li  Li31  1  0.50000000  0.50000000  0.00000000  1
  Li  Li32  1  0.17478305  0.99672698  0.86166792  1
  Li  Li33  1  0.32521695  -0.99672698  1.36166792  1
  Li  Li34  1  -0.17478305  1.49672698  -0.86166792  1
  Li  Li35  1  0.67478305  -0.49672698  -0.36166792  1
  Li  Li36  1  -0.17478305  -0.99672698  -0.86166792  1
  Li  Li37  1  0.67478305  0.99672698  -0.36166792  1
  Li  Li38  1  0.17478305  -0.49672698  0.86166792  1
  Li  Li39  1  0.32521695  1.49672698  1.36166792  1
  Li  Li40  1  0.19951470  0.10190697  0.12900657  1
  Li  Li41  1  0.30048530  0.89809303  0.62900657  1
  Li  Li42  1  0.80048530  0.60190697  0.87099343  1
  Li  Li43  1  0.69951470  0.39809303  0.37099343  1
  Li  Li44  1  0.80048530  0.89809303  0.87099343  1
  Li  Li45  1  0.69951470  0.10190697  0.37099343  1
  Li  Li46  1  0.19951470  0.39809303  0.12900657  1
  Li  Li47  1  0.30048530  0.60190697  0.62900657  1
