# generated using pymatgen
data_Li4TeF2
_symmetry_space_group_name_H-M   'P 1'
_cell_length_a   16.55694161
_cell_length_b   16.55694161
_cell_length_c   8.17218208
_cell_angle_alpha   90.00000000
_cell_angle_beta   90.00000000
_cell_angle_gamma   90.00000000
_symmetry_Int_Tables_number   1
_chemical_formula_structural   Li4TeF2
_chemical_formula_sum   'Li96 Te24 F48'
_cell_volume   2240.25919635
_cell_formula_units_Z   24
loop_
 _symmetry_equiv_pos_site_id
 _symmetry_equiv_pos_as_xyz
  1  'x, y, z'
loop_
 _atom_site_type_symbol
 _atom_site_label
 _atom_site_symmetry_multiplicity
 _atom_site_fract_x
 _atom_site_fract_y
 _atom_site_fract_z
 _atom_site_occupancy
  F  F0  1  0.00000000  0.00000000  0.00000000  1
  F  F1  1  0.50000000  0.00000000  0.50000000  1
  F  F2  1  0.25000000  0.75000000  0.25000000  1
  F  F3  1  0.25000000  0.25000000  0.75000000  1
  F  F4  1  0.50000000  0.00000000  0.00000000  1
  F  F5  1  0.00000000  0.00000000  0.50000000  1
  F  F6  1  0.25000000  0.75000000  0.75000000  1
  F  F7  1  0.25000000  0.25000000  0.25000000  1
  F  F8  1  0.50000000  0.50000000  0.50000000  1
  F  F9  1  0.00000000  0.50000000  0.00000000  1
  F  F10  1  0.75000000  0.25000000  0.75000000  1
  F  F11  1  0.75000000  0.75000000  0.25000000  1
  F  F12  1  0.00000000  0.50000000  0.50000000  1
  F  F13  1  0.50000000  0.50000000  0.00000000  1
  F  F14  1  0.75000000  0.25000000  0.25000000  1
  F  F15  1  0.75000000  0.75000000  0.75000000  1
  F  F16  1  0.78649479  0.09406992  0.32523626  1
  F  F17  1  -0.28649479  -0.09406992  0.82523626  1
  F  F18  1  0.15593008  1.53649479  0.57523626  1
  F  F19  1  0.34406992  -0.53649479  1.07523626  1
  F  F20  1  -0.28649479  0.09406992  -0.32523626  1
  F  F21  1  0.78649479  -0.09406992  0.17476374  1
  F  F22  1  0.34406992  1.53649479  0.42476374  1
  F  F23  1  0.15593008  -0.53649479  -0.07523626  1
  F  F24  1  -0.78649479  -0.09406992  -0.32523626  1
  F  F25  1  1.28649479  0.09406992  0.17476374  1
  F  F26  1  0.84406992  -0.53649479  0.42476374  1
  F  F27  1  0.65593008  1.53649479  -0.07523626  1
  F  F28  1  1.28649479  -0.09406992  0.32523626  1
  F  F29  1  -0.78649479  0.09406992  0.82523626  1
  F  F30  1  0.65593008  -0.53649479  0.57523626  1
  F  F31  1  0.84406992  1.53649479  1.07523626  1
  F  F32  1  1.28649479  0.59406992  0.82523626  1
  F  F33  1  0.21350521  0.40593008  1.32523626  1
  F  F34  1  0.65593008  2.03649479  1.07523626  1
  F  F35  1  0.84406992  -0.03649479  1.57523626  1
  F  F36  1  0.21350521  0.59406992  0.17476374  1
  F  F37  1  1.28649479  0.40593008  0.67476374  1
  F  F38  1  0.84406992  2.03649479  0.92476374  1
  F  F39  1  0.65593008  -0.03649479  0.42476374  1
  F  F40  1  -0.28649479  0.40593008  0.17476374  1
  F  F41  1  1.78649479  0.59406992  0.67476374  1
  F  F42  1  1.34406992  -0.03649479  0.92476374  1
  F  F43  1  1.15593008  2.03649479  0.42476374  1
  F  F44  1  1.78649479  0.40593008  0.82523626  1
  F  F45  1  -0.28649479  0.59406992  1.32523626  1
  F  F46  1  1.15593008  -0.03649479  1.07523626  1
  F  F47  1  1.34406992  2.03649479  1.57523626  1
  Li  Li48  1  0.58653651  0.91566953  0.21433734  1
  Li  Li49  1  0.91346349  0.08433047  0.71433734  1
  Li  Li50  1  0.33433047  0.33653651  0.46433734  1
  Li  Li51  1  0.16566953  0.66346349  0.96433734  1
  Li  Li52  1  0.91346349  0.91566953  0.78566266  1
  Li  Li53  1  0.58653651  0.08433047  0.28566266  1
  Li  Li54  1  0.16566953  0.33653651  0.53566266  1
  Li  Li55  1  0.33433047  0.66346349  0.03566266  1
  Li  Li56  1  0.41346349  0.08433047  0.78566266  1
  Li  Li57  1  0.08653651  0.91566953  0.28566266  1
  Li  Li58  1  0.66566953  0.66346349  0.53566266  1
  Li  Li59  1  0.83433047  0.33653651  0.03566266  1
  Li  Li60  1  0.08653651  0.08433047  0.21433734  1
  Li  Li61  1  0.41346349  0.91566953  0.71433734  1
  Li  Li62  1  0.83433047  0.66346349  0.46433734  1
  Li  Li63  1  0.66566953  0.33653651  0.96433734  1
  Li  Li64  1  0.08653651  0.41566953  0.71433734  1
  Li  Li65  1  0.41346349  0.58433047  0.21433734  1
  Li  Li66  1  0.83433047  0.83653651  0.96433734  1
  Li  Li67  1  0.66566953  0.16346349  0.46433734  1
  Li  Li68  1  0.41346349  0.41566953  0.28566266  1
  Li  Li69  1  0.08653651  0.58433047  0.78566266  1
  Li  Li70  1  0.66566953  0.83653651  0.03566266  1
  Li  Li71  1  0.83433047  0.16346349  0.53566266  1
  Li  Li72  1  0.91346349  0.58433047  0.28566266  1
  Li  Li73  1  0.58653651  0.41566953  0.78566266  1
  Li  Li74  1  0.16566953  0.16346349  0.03566266  1
  Li  Li75  1  0.33433047  0.83653651  0.53566266  1
  Li  Li76  1  0.58653651  0.58433047  0.71433734  1
  Li  Li77  1  0.91346349  0.41566953  0.21433734  1
  Li  Li78  1  0.33433047  0.16346349  0.96433734  1
  Li  Li79  1  0.16566953  0.83653651  0.46433734  1
  Li  Li80  1  0.00000000  0.25000000  0.79421400  1
  Li  Li81  1  0.00000000  0.75000000  0.04421400  1
  Li  Li82  1  0.50000000  0.25000000  0.20578600  1
  Li  Li83  1  0.50000000  0.75000000  0.95578600  1
  Li  Li84  1  0.00000000  0.75000000  0.20578600  1
  Li  Li85  1  0.00000000  0.25000000  0.95578600  1
  Li  Li86  1  0.50000000  0.75000000  0.79421400  1
  Li  Li87  1  0.50000000  0.25000000  0.04421400  1
  Li  Li88  1  0.50000000  0.75000000  0.29421400  1
  Li  Li89  1  0.50000000  0.25000000  0.54421400  1
  Li  Li90  1  0.00000000  0.75000000  0.70578600  1
  Li  Li91  1  0.00000000  0.25000000  0.45578600  1
  Li  Li92  1  0.50000000  0.25000000  0.70578600  1
  Li  Li93  1  0.50000000  0.75000000  0.45578600  1
  Li  Li94  1  0.00000000  0.25000000  0.29421400  1
  Li  Li95  1  0.00000000  0.75000000  0.54421400  1
  Li  Li96  1  0.33344420  0.15375139  0.45599082  1
  Li  Li97  1  0.16655580  0.84624861  0.95599082  1
  Li  Li98  1  0.09624861  0.08344420  0.70599082  1
  Li  Li99  1  0.40375139  0.91655580  0.20599082  1
  Li  Li100  1  0.16655580  0.15375139  0.54400918  1
  Li  Li101  1  0.33344420  0.84624861  0.04400918  1
  Li  Li102  1  0.40375139  0.08344420  0.29400918  1
  Li  Li103  1  0.09624861  0.91655580  0.79400918  1
  Li  Li104  1  0.66655580  0.84624861  0.54400918  1
  Li  Li105  1  0.83344420  0.15375139  0.04400918  1
  Li  Li106  1  0.90375139  0.91655580  0.29400918  1
  Li  Li107  1  0.59624861  0.08344420  0.79400918  1
  Li  Li108  1  0.83344420  0.84624861  0.45599082  1
  Li  Li109  1  0.66655580  0.15375139  0.95599082  1
  Li  Li110  1  0.59624861  0.91655580  0.70599082  1
  Li  Li111  1  0.90375139  0.08344420  0.20599082  1
  Li  Li112  1  0.83344420  0.65375139  0.95599082  1
  Li  Li113  1  0.66655580  0.34624861  0.45599082  1
  Li  Li114  1  0.59624861  0.58344420  0.20599082  1
  Li  Li115  1  0.90375139  0.41655580  0.70599082  1
  Li  Li116  1  0.66655580  0.65375139  0.04400918  1
  Li  Li117  1  0.83344420  0.34624861  0.54400918  1
  Li  Li118  1  0.90375139  0.58344420  0.79400918  1
  Li  Li119  1  0.59624861  0.41655580  0.29400918  1
  Li  Li120  1  0.16655580  0.34624861  0.04400918  1
  Li  Li121  1  0.33344420  0.65375139  0.54400918  1
  Li  Li122  1  0.40375139  0.41655580  0.79400918  1
  Li  Li123  1  0.09624861  0.58344420  0.29400918  1
  Li  Li124  1  0.33344420  0.34624861  0.95599082  1
  Li  Li125  1  0.16655580  0.65375139  0.45599082  1
  Li  Li126  1  0.09624861  0.41655580  0.20599082  1
  Li  Li127  1  0.40375139  0.58344420  0.70599082  1
  Li  Li128  1  0.89739270  -0.00000000  0.25000000  1
  Li  Li129  1  0.60260730  0.00000000  0.75000000  1
  Li  Li130  1  0.25000000  0.64739270  0.50000000  1
  Li  Li131  1  0.25000000  0.35260730  0.00000000  1
  Li  Li132  1  0.10260730  0.00000000  0.75000000  1
  Li  Li133  1  0.39739270  -0.00000000  0.25000000  1
  Li  Li134  1  0.75000000  0.35260730  0.50000000  1
  Li  Li135  1  0.75000000  0.64739270  0.00000000  1
  Li  Li136  1  0.39739270  0.50000000  0.75000000  1
  Li  Li137  1  0.10260730  0.50000000  0.25000000  1
  Li  Li138  1  0.75000000  0.14739270  -0.00000000  1
  Li  Li139  1  0.75000000  0.85260730  0.50000000  1
  Li  Li140  1  0.60260730  0.50000000  0.25000000  1
  Li  Li141  1  0.89739270  0.50000000  0.75000000  1
  Li  Li142  1  0.25000000  0.85260730  0.00000000  1
  Li  Li143  1  0.25000000  0.14739270  0.50000000  1
  Te  Te144  1  0.29904162  0.54904162  0.12500000  1
  Te  Te145  1  0.20095838  0.45095838  0.62500000  1
  Te  Te146  1  0.70095838  0.04904162  0.37500000  1
  Te  Te147  1  0.79904162  0.95095838  0.87500000  1
  Te  Te148  1  0.70095838  0.45095838  0.87500000  1
  Te  Te149  1  0.79904162  0.54904162  0.37500000  1
  Te  Te150  1  0.29904162  0.95095838  0.62500000  1
  Te  Te151  1  0.20095838  0.04904162  0.12500000  1
  Te  Te152  1  0.79904162  0.04904162  0.62500000  1
  Te  Te153  1  0.70095838  0.95095838  0.12500000  1
  Te  Te154  1  0.20095838  0.54904162  0.87500000  1
  Te  Te155  1  0.29904162  0.45095838  0.37500000  1
  Te  Te156  1  0.20095838  0.95095838  0.37500000  1
  Te  Te157  1  0.29904162  0.04904162  0.87500000  1
  Te  Te158  1  0.79904162  0.45095838  0.12500000  1
  Te  Te159  1  0.70095838  0.54904162  0.62500000  1
  Te  Te160  1  0.00000000  0.25000000  0.12500000  1
  Te  Te161  1  0.00000000  0.75000000  0.37500000  1
  Te  Te162  1  0.00000000  0.75000000  0.87500000  1
  Te  Te163  1  0.00000000  0.25000000  0.62500000  1
  Te  Te164  1  0.50000000  0.75000000  0.62500000  1
  Te  Te165  1  0.50000000  0.25000000  0.87500000  1
  Te  Te166  1  0.50000000  0.25000000  0.37500000  1
  Te  Te167  1  0.50000000  0.75000000  0.12500000  1
