# generated using pymatgen
data_LiF
_symmetry_space_group_name_H-M   'P 1'
_cell_length_a   10.96316478
_cell_length_b   10.96316478
_cell_length_c   7.34148933
_cell_angle_alpha   90.00000000
_cell_angle_beta   90.00000000
_cell_angle_gamma   120.00000000
_symmetry_Int_Tables_number   1
_chemical_formula_structural   LiF
_chemical_formula_sum   'Li36 F36'
_cell_volume   764.16419963
_cell_formula_units_Z   36
loop_
 _symmetry_equiv_pos_site_id
 _symmetry_equiv_pos_as_xyz
  1  'x, y, z'
loop_
 _atom_site_type_symbol
 _atom_site_label
 _atom_site_symmetry_multiplicity
 _atom_site_fract_x
 _atom_site_fract_y
 _atom_site_fract_z
 _atom_site_occupancy
  F  F0  1  0.80341166  0.64712963  0.68000707  1
  F  F1  1  -0.64712963  0.15628203  0.68000707  1
  F  F2  1  -0.15628203  -0.80341166  0.68000707  1
  F  F3  1  -0.80341166  -0.64712963  1.18000707  1
  F  F4  1  0.64712963  -0.15628203  1.18000707  1
  F  F5  1  0.15628203  0.80341166  1.18000707  1
  F  F6  1  -0.80341166  -0.64712963  -0.68000707  1
  F  F7  1  0.64712963  -0.15628203  -0.68000707  1
  F  F8  1  0.15628203  0.80341166  -0.68000707  1
  F  F9  1  0.80341166  0.64712963  -0.18000707  1
  F  F10  1  -0.64712963  0.15628203  -0.18000707  1
  F  F11  1  -0.15628203  -0.80341166  -0.18000707  1
  F  F12  1  0.93455468  0.10965168  0.54699136  1
  F  F13  1  0.89034832  0.82490299  0.54699136  1
  F  F14  1  0.17509701  0.06544532  0.54699136  1
  F  F15  1  0.06544532  0.89034832  0.04699136  1
  F  F16  1  0.10965168  0.17509701  0.04699136  1
  F  F17  1  0.82490299  0.93455468  0.04699136  1
  F  F18  1  0.06544532  0.89034832  0.45300864  1
  F  F19  1  0.10965168  0.17509701  0.45300864  1
  F  F20  1  0.82490299  0.93455468  0.45300864  1
  F  F21  1  0.93455468  0.10965168  0.95300864  1
  F  F22  1  0.89034832  0.82490299  0.95300864  1
  F  F23  1  0.17509701  0.06544532  0.95300864  1
  F  F24  1  0.33793264  0.42097315  0.93032928  1
  F  F25  1  0.57902685  0.91695948  0.93032928  1
  F  F26  1  0.08304052  0.66206736  0.93032928  1
  F  F27  1  0.66206736  0.57902685  0.43032928  1
  F  F28  1  0.42097315  0.08304052  0.43032928  1
  F  F29  1  0.91695948  0.33793264  0.43032928  1
  F  F30  1  0.66206736  0.57902685  0.06967072  1
  F  F31  1  0.42097315  0.08304052  0.06967072  1
  F  F32  1  0.91695948  0.33793264  0.06967072  1
  F  F33  1  0.33793264  0.42097315  0.56967072  1
  F  F34  1  0.57902685  0.91695948  0.56967072  1
  F  F35  1  0.08304052  0.66206736  0.56967072  1
  Li  Li36  1  0.84513189  0.35449367  0.25000000  1
  Li  Li37  1  0.64550633  0.49063821  0.25000000  1
  Li  Li38  1  0.50936179  0.15486811  0.25000000  1
  Li  Li39  1  0.15486811  0.64550633  0.75000000  1
  Li  Li40  1  0.35449367  0.50936179  0.75000000  1
  Li  Li41  1  0.49063821  0.84513189  0.75000000  1
  Li  Li42  1  0.66666667  0.33333333  0.25000000  1
  Li  Li43  1  0.33333333  0.66666667  0.75000000  1
  Li  Li44  1  0.44567897  0.26646603  0.25000000  1
  Li  Li45  1  0.73353397  0.17921294  0.25000000  1
  Li  Li46  1  0.82078706  0.55432103  0.25000000  1
  Li  Li47  1  0.55432103  0.73353397  0.75000000  1
  Li  Li48  1  0.26646603  0.82078706  0.75000000  1
  Li  Li49  1  0.17921294  0.44567897  0.75000000  1
  Li  Li50  1  0.66098627  0.90670422  0.05884934  1
  Li  Li51  1  0.09329578  0.75428205  0.05884934  1
  Li  Li52  1  0.24571795  0.33901373  0.05884934  1
  Li  Li53  1  0.33901373  0.09329578  0.55884934  1
  Li  Li54  1  0.90670422  0.24571795  0.55884934  1
  Li  Li55  1  0.75428205  0.66098627  0.55884934  1
  Li  Li56  1  0.33901373  0.09329578  0.94115066  1
  Li  Li57  1  0.90670422  0.24571795  0.94115066  1
  Li  Li58  1  0.75428205  0.66098627  0.94115066  1
  Li  Li59  1  0.66098627  0.90670422  0.44115066  1
  Li  Li60  1  0.09329578  0.75428205  0.44115066  1
  Li  Li61  1  0.24571795  0.33901373  0.44115066  1
  Li  Li62  1  0.33333333  0.66666667  0.25000000  1
  Li  Li63  1  0.66666667  0.33333333  0.75000000  1
  Li  Li64  1  0.50000000  0.00000000  -0.00000000  1
  Li  Li65  1  0.00000000  0.50000000  0.00000000  1
  Li  Li66  1  0.50000000  0.50000000  0.00000000  1
  Li  Li67  1  0.50000000  0.00000000  0.50000000  1
  Li  Li68  1  0.00000000  0.50000000  0.50000000  1
  Li  Li69  1  0.50000000  0.50000000  0.50000000  1
  Li  Li70  1  0.00000000  0.00000000  0.25000000  1
  Li  Li71  1  0.00000000  0.00000000  0.75000000  1
