# generated using pymatgen
data_LiF
_symmetry_space_group_name_H-M   'P 1'
_cell_length_a   12.96868622
_cell_length_b   12.96868622
_cell_length_c   4.52239083
_cell_angle_alpha   90.00000000
_cell_angle_beta   90.00000000
_cell_angle_gamma   120.00000000
_symmetry_Int_Tables_number   1
_chemical_formula_structural   LiF
_chemical_formula_sum   'Li36 F36'
_cell_volume   658.70458811
_cell_formula_units_Z   36
loop_
 _symmetry_equiv_pos_site_id
 _symmetry_equiv_pos_as_xyz
  1  'x, y, z'
loop_
 _atom_site_type_symbol
 _atom_site_label
 _atom_site_symmetry_multiplicity
 _atom_site_fract_x
 _atom_site_fract_y
 _atom_site_fract_z
 _atom_site_occupancy
  F  F0  1  0.66666667  0.33333333  -0.00000000  1
  F  F1  1  0.69721660  0.56268277  0.37008957  1
  F  F2  1  0.43731723  0.13453383  0.37008957  1
  F  F3  1  0.86546617  0.30278340  0.37008957  1
  F  F4  1  0.43731723  0.30278340  0.62991043  1
  F  F5  1  0.86546617  0.56268277  0.62991043  1
  F  F6  1  0.69721660  0.13453383  0.62991043  1
  F  F7  1  0.69745251  0.81839756  0.03912628  1
  F  F8  1  0.18160244  0.87905496  0.03912628  1
  F  F9  1  0.12094504  0.30254749  0.03912628  1
  F  F10  1  0.18160244  0.30254749  0.96087372  1
  F  F11  1  0.12094504  0.81839756  0.96087372  1
  F  F12  1  0.69745251  0.87905496  0.96087372  1
  F  F13  1  0.86131800  0.80770313  0.69655804  1
  F  F14  1  0.19229687  0.05361487  0.69655804  1
  F  F15  1  0.94638513  0.13868200  0.69655804  1
  F  F16  1  0.19229687  0.13868200  0.30344196  1
  F  F17  1  0.94638513  0.80770313  0.30344196  1
  F  F18  1  0.86131800  0.05361487  0.30344196  1
  F  F19  1  0.33333333  0.66666667  0.50000000  1
  F  F20  1  0.15442778  0.27402753  0.28070550  1
  F  F21  1  0.72597247  0.88040025  0.28070550  1
  F  F22  1  0.11959975  0.84557222  0.28070550  1
  F  F23  1  0.72597247  0.84557222  0.71929450  1
  F  F24  1  0.11959975  0.27402753  0.71929450  1
  F  F25  1  0.15442778  0.88040025  0.71929450  1
  F  F26  1  0.00000000  0.00000000  0.00000000  1
  F  F27  1  0.43649945  0.72888097  0.60158253  1
  F  F28  1  0.27111903  0.70761848  0.60158253  1
  F  F29  1  0.29238152  0.56350055  0.60158253  1
  F  F30  1  0.27111903  0.56350055  0.39841747  1
  F  F31  1  0.29238152  0.72888097  0.39841747  1
  F  F32  1  0.43649945  0.70761848  0.39841747  1
  F  F33  1  0.19481302  0.80518698  -0.00000000  1
  F  F34  1  0.19481302  0.38962604  -0.00000000  1
  F  F35  1  0.61037396  0.80518698  0.00000000  1
  Li  Li36  1  0.14353198  0.85646802  0.50000000  1
  Li  Li37  1  0.14353198  0.28706396  0.50000000  1
  Li  Li38  1  0.71293604  0.85646802  0.50000000  1
  Li  Li39  1  0.56075749  0.43924251  -0.00000000  1
  Li  Li40  1  0.56075749  0.12151498  0.00000000  1
  Li  Li41  1  0.87848502  0.43924251  -0.00000000  1
  Li  Li42  1  0.83957242  0.97087031  0.60896849  1
  Li  Li43  1  -0.97087031  -0.13129790  0.60896849  1
  Li  Li44  1  0.13129790  -0.83957242  0.60896849  1
  Li  Li45  1  -0.97087031  -0.83957242  -0.60896849  1
  Li  Li46  1  0.13129790  0.97087031  -0.60896849  1
  Li  Li47  1  0.83957242  -0.13129790  -0.60896849  1
  Li  Li48  1  0.33333333  0.66666667  -0.00000000  1
  Li  Li49  1  0.80376207  0.19623793  -0.00000000  1
  Li  Li50  1  0.80376207  0.60752413  -0.00000000  1
  Li  Li51  1  0.39247587  0.19623793  0.00000000  1
  Li  Li52  1  0.53983961  0.62302854  0.56632362  1
  Li  Li53  1  0.37697146  0.91681107  0.56632362  1
  Li  Li54  1  0.08318893  0.46016039  0.56632362  1
  Li  Li55  1  0.37697146  0.46016039  0.43367638  1
  Li  Li56  1  0.08318893  0.62302854  0.43367638  1
  Li  Li57  1  0.53983961  0.91681107  0.43367638  1
  Li  Li58  1  0.52659350  0.33896696  0.79960077  1
  Li  Li59  1  0.66103304  0.18762654  0.79960077  1
  Li  Li60  1  0.81237346  0.47340650  0.79960077  1
  Li  Li61  1  0.66103304  0.47340650  0.20039923  1
  Li  Li62  1  0.81237346  0.33896696  0.20039923  1
  Li  Li63  1  0.52659350  0.18762654  0.20039923  1
  Li  Li64  1  0.28660551  0.01189544  0.65667934  1
  Li  Li65  1  0.98810456  0.27471007  0.65667934  1
  Li  Li66  1  0.72528993  0.71339449  0.65667934  1
  Li  Li67  1  0.98810456  0.71339449  0.34332066  1
  Li  Li68  1  0.72528993  0.01189544  0.34332066  1
  Li  Li69  1  0.28660551  0.27471007  0.34332066  1
  Li  Li70  1  0.00000000  0.00000000  0.50000000  1
  Li  Li71  1  0.66666667  0.33333333  0.50000000  1
