# generated using pymatgen
data_LiY2Te4P3
_symmetry_space_group_name_H-M   'P 1'
_cell_length_a   4.26697086
_cell_length_b   4.37051689
_cell_length_c   6.94553377
_cell_angle_alpha   96.17979062
_cell_angle_beta   103.45829922
_cell_angle_gamma   114.82176282
_symmetry_Int_Tables_number   1
_chemical_formula_structural   LiY2Te4P3
_chemical_formula_sum   'Li1 Y2 Te4 P3'
_cell_volume   111.19521466
_cell_formula_units_Z   1
loop_
 _symmetry_equiv_pos_site_id
 _symmetry_equiv_pos_as_xyz
  1  'x, y, z'
loop_
 _atom_site_type_symbol
 _atom_site_label
 _atom_site_symmetry_multiplicity
 _atom_site_fract_x
 _atom_site_fract_y
 _atom_site_fract_z
 _atom_site_occupancy
  P  P0  1  0.00000000  0.00000000  0.00000000  1
  P  P1  1  0.33300000  0.66700000  0.25000000  1
  P  P2  1  0.66700000  0.33300000  0.50000000  1
  Te  Te3  1  0.00000000  0.00000000  0.75000000  1
  Te  Te4  1  0.38507591  0.63647155  0.02038068  1
  Te  Te5  1  0.86977108  0.38615064  0.78040596  1
  Te  Te6  1  0.65650631  0.44020671  0.43514709  1
  Li  Li7  1  0.60314244  0.76925548  0.32025040  1
  Y  Y8  1  0.31213843  0.87176128  0.16398882  1
  Y  Y9  1  0.29009150  0.16610151  0.84634547  1
