# generated using pymatgen
data_LiBr
_symmetry_space_group_name_H-M   'P 1'
_cell_length_a   22.66414925
_cell_length_b   22.66414925
_cell_length_c   30.48111230
_cell_angle_alpha   90.00000000
_cell_angle_beta   90.00000000
_cell_angle_gamma   120.00000000
_symmetry_Int_Tables_number   1
_chemical_formula_structural   LiBr
_chemical_formula_sum   'Li288 Br288'
_cell_volume   13559.39417008
_cell_formula_units_Z   288
loop_
 _symmetry_equiv_pos_site_id
 _symmetry_equiv_pos_as_xyz
  1  'x, y, z'
loop_
 _atom_site_type_symbol
 _atom_site_label
 _atom_site_symmetry_multiplicity
 _atom_site_fract_x
 _atom_site_fract_y
 _atom_site_fract_z
 _atom_site_occupancy
  Br  Br0  1  0.15521349  0.48650888  0.64208931  1
  Br  Br1  1  -0.48650888  -0.33129539  0.64208931  1
  Br  Br2  1  0.33129539  -0.15521349  0.64208931  1
  Br  Br3  1  0.48650888  0.15521349  -0.64208931  1
  Br  Br4  1  -0.33129539  -0.48650888  -0.64208931  1
  Br  Br5  1  -0.15521349  0.33129539  -0.64208931  1
  Br  Br6  1  -0.15521349  -0.48650888  -0.64208931  1
  Br  Br7  1  0.48650888  0.33129539  -0.64208931  1
  Br  Br8  1  -0.33129539  0.15521349  -0.64208931  1
  Br  Br9  1  -0.48650888  -0.15521349  0.64208931  1
  Br  Br10  1  0.33129539  0.48650888  0.64208931  1
  Br  Br11  1  0.15521349  -0.33129539  0.64208931  1
  Br  Br12  1  0.82188016  0.81984222  0.97542264  1
  Br  Br13  1  0.18015778  0.00203794  0.97542264  1
  Br  Br14  1  0.99796206  0.17811984  0.97542264  1
  Br  Br15  1  1.15317555  0.48854682  -0.30875597  1
  Br  Br16  1  0.33537127  -0.15317555  -0.30875597  1
  Br  Br17  1  0.51145318  0.66462873  -0.30875597  1
  Br  Br18  1  0.51145318  -0.15317555  -0.30875597  1
  Br  Br19  1  1.15317555  0.66462873  -0.30875597  1
  Br  Br20  1  0.33537127  0.48854682  -0.30875597  1
  Br  Br21  1  0.18015778  0.17811984  0.97542264  1
  Br  Br22  1  0.99796206  0.81984222  0.97542264  1
  Br  Br23  1  0.82188016  0.00203794  0.97542264  1
  Br  Br24  1  0.48854682  1.15317555  1.30875597  1
  Br  Br25  1  -0.15317555  0.33537127  1.30875597  1
  Br  Br26  1  0.66462873  0.51145318  1.30875597  1
  Br  Br27  1  0.81984222  0.82188016  0.02457736  1
  Br  Br28  1  0.00203794  0.18015778  0.02457736  1
  Br  Br29  1  0.17811984  0.99796206  0.02457736  1
  Br  Br30  1  0.17811984  0.18015778  0.02457736  1
  Br  Br31  1  0.81984222  0.99796206  0.02457736  1
  Br  Br32  1  0.00203794  0.82188016  0.02457736  1
  Br  Br33  1  -0.15317555  0.51145318  1.30875597  1
  Br  Br34  1  0.66462873  1.15317555  1.30875597  1
  Br  Br35  1  0.48854682  0.33537127  1.30875597  1
  Br  Br36  1  0.00000000  0.00000000  0.50000000  1
  Br  Br37  1  0.66666667  0.33333333  0.83333333  1
  Br  Br38  1  0.33333333  0.66666667  0.16666667  1
  Br  Br39  1  0.87226543  0.81835338  0.94938174  1
  Br  Br40  1  0.18164662  0.05391204  0.94938174  1
  Br  Br41  1  0.94608796  0.12773457  0.94938174  1
  Br  Br42  1  0.81835338  0.87226543  0.05061826  1
  Br  Br43  1  0.05391204  0.18164662  0.05061826  1
  Br  Br44  1  0.12773457  0.94608796  0.05061826  1
  Br  Br45  1  0.12773457  0.18164662  0.05061826  1
  Br  Br46  1  0.81835338  0.94608796  0.05061826  1
  Br  Br47  1  0.05391204  0.87226543  0.05061826  1
  Br  Br48  1  0.18164662  0.12773457  0.94938174  1
  Br  Br49  1  0.94608796  0.81835338  0.94938174  1
  Br  Br50  1  0.87226543  0.05391204  0.94938174  1
  Br  Br51  1  0.53893209  0.15168672  0.28271507  1
  Br  Br52  1  0.84831328  0.38724538  0.28271507  1
  Br  Br53  1  0.61275462  0.46106791  0.28271507  1
  Br  Br54  1  0.48502005  0.20559876  0.38395160  1
  Br  Br55  1  0.72057871  0.51497995  0.38395160  1
  Br  Br56  1  0.79440124  0.27942129  0.38395160  1
  Br  Br57  1  0.79440124  0.51497995  0.38395160  1
  Br  Br58  1  0.48502005  0.27942129  0.38395160  1
  Br  Br59  1  0.72057871  0.20559876  0.38395160  1
  Br  Br60  1  0.84831328  0.46106791  0.28271507  1
  Br  Br61  1  0.61275462  0.15168672  0.28271507  1
  Br  Br62  1  0.53893209  0.38724538  0.28271507  1
  Br  Br63  1  0.20559876  0.48502005  0.61604840  1
  Br  Br64  1  0.51497995  0.72057871  0.61604840  1
  Br  Br65  1  0.27942129  0.79440124  0.61604840  1
  Br  Br66  1  0.15168672  0.53893209  0.71728493  1
  Br  Br67  1  0.38724538  0.84831328  0.71728493  1
  Br  Br68  1  0.46106791  0.61275462  0.71728493  1
  Br  Br69  1  0.46106791  0.84831328  0.71728493  1
  Br  Br70  1  0.15168672  0.61275462  0.71728493  1
  Br  Br71  1  0.38724538  0.53893209  0.71728493  1
  Br  Br72  1  0.51497995  0.79440124  0.61604840  1
  Br  Br73  1  0.27942129  0.48502005  0.61604840  1
  Br  Br74  1  0.20559876  0.72057871  0.61604840  1
  Br  Br75  1  0.35659625  0.13796978  0.95418061  1
  Br  Br76  1  0.86203022  0.21862647  0.95418061  1
  Br  Br77  1  0.78137353  0.64340375  0.95418061  1
  Br  Br78  1  0.13796978  0.35659625  0.04581939  1
  Br  Br79  1  0.21862647  0.86203022  0.04581939  1
  Br  Br80  1  0.64340375  0.78137353  0.04581939  1
  Br  Br81  1  0.64340375  0.86203022  0.04581939  1
  Br  Br82  1  0.13796978  0.78137353  0.04581939  1
  Br  Br83  1  0.21862647  0.35659625  0.04581939  1
  Br  Br84  1  0.86203022  0.64340375  0.95418061  1
  Br  Br85  1  0.78137353  0.13796978  0.95418061  1
  Br  Br86  1  0.35659625  0.21862647  0.95418061  1
  Br  Br87  1  0.02326292  0.47130312  0.28751395  1
  Br  Br88  1  0.52869688  0.55195980  0.28751395  1
  Br  Br89  1  0.44804020  0.97673708  0.28751395  1
  Br  Br90  1  0.80463645  0.68992958  0.37915272  1
  Br  Br91  1  0.88529313  0.19536355  0.37915272  1
  Br  Br92  1  0.31007042  0.11470687  0.37915272  1
  Br  Br93  1  0.31007042  0.19536355  0.37915272  1
  Br  Br94  1  0.80463645  0.11470687  0.37915272  1
  Br  Br95  1  0.88529313  0.68992958  0.37915272  1
  Br  Br96  1  0.52869688  0.97673708  0.28751395  1
  Br  Br97  1  0.44804020  0.47130312  0.28751395  1
  Br  Br98  1  0.02326292  0.55195980  0.28751395  1
  Br  Br99  1  0.68992958  0.80463645  0.62084728  1
  Br  Br100  1  0.19536355  0.88529313  0.62084728  1
  Br  Br101  1  0.11470687  0.31007042  0.62084728  1
  Br  Br102  1  0.47130312  0.02326292  0.71248605  1
  Br  Br103  1  0.55195980  0.52869688  0.71248605  1
  Br  Br104  1  0.97673708  0.44804020  0.71248605  1
  Br  Br105  1  0.97673708  0.52869688  0.71248605  1
  Br  Br106  1  0.47130312  0.44804020  0.71248605  1
  Br  Br107  1  0.55195980  0.02326292  0.71248605  1
  Br  Br108  1  0.19536355  0.31007042  0.62084728  1
  Br  Br109  1  0.11470687  0.80463645  0.62084728  1
  Br  Br110  1  0.68992958  0.88529313  0.62084728  1
  Br  Br111  1  0.79333177  0.20666823  0.42408479  1
  Br  Br112  1  0.79333177  0.58666355  0.42408479  1
  Br  Br113  1  0.41333645  0.20666823  0.42408479  1
  Br  Br114  1  0.20666823  0.79333177  0.57591521  1
  Br  Br115  1  0.58666355  0.79333177  0.57591521  1
  Br  Br116  1  0.20666823  0.41333645  0.57591521  1
  Br  Br117  1  0.45999844  0.54000156  0.75741813  1
  Br  Br118  1  0.45999844  0.91999688  0.75741813  1
  Br  Br119  1  0.08000312  0.54000156  0.75741813  1
  Br  Br120  1  0.87333489  0.12666511  0.90924854  1
  Br  Br121  1  0.25333021  0.12666511  0.90924854  1
  Br  Br122  1  0.87333489  0.74666979  0.90924854  1
  Br  Br123  1  0.12666511  0.87333489  0.09075146  1
  Br  Br124  1  0.12666511  0.25333021  0.09075146  1
  Br  Br125  1  0.74666979  0.87333489  0.09075146  1
  Br  Br126  1  0.54000156  0.45999844  0.24258187  1
  Br  Br127  1  0.91999688  0.45999844  0.24258187  1
  Br  Br128  1  0.54000156  0.08000312  0.24258187  1
  Br  Br129  1  0.11382130  0.88617870  0.37633935  1
  Br  Br130  1  0.11382130  0.22764261  0.37633935  1
  Br  Br131  1  0.77235739  0.88617870  0.37633935  1
  Br  Br132  1  0.88617870  0.11382130  0.62366065  1
  Br  Br133  1  0.22764261  0.11382130  0.62366065  1
  Br  Br134  1  0.88617870  0.77235739  0.62366065  1
  Br  Br135  1  0.78048797  0.21951203  0.70967268  1
  Br  Br136  1  0.78048797  0.56097594  0.70967268  1
  Br  Br137  1  0.43902406  0.21951203  0.70967268  1
  Br  Br138  1  0.55284536  0.44715464  0.95699399  1
  Br  Br139  1  0.89430927  0.44715464  0.95699399  1
  Br  Br140  1  0.55284536  0.10569073  0.95699399  1
  Br  Br141  1  0.44715464  0.55284536  0.04300601  1
  Br  Br142  1  0.44715464  0.89430927  0.04300601  1
  Br  Br143  1  0.10569073  0.55284536  0.04300601  1
  Br  Br144  1  0.21951203  0.78048797  0.29032732  1
  Br  Br145  1  0.56097594  0.78048797  0.29032732  1
  Br  Br146  1  0.21951203  0.43902406  0.29032732  1
  Br  Br147  1  0.04410775  0.95589225  0.30447959  1
  Br  Br148  1  0.04410775  0.08821550  0.30447959  1
  Br  Br149  1  0.91178450  0.95589225  0.30447959  1
  Br  Br150  1  0.95589225  0.04410775  0.69552041  1
  Br  Br151  1  0.08821550  0.04410775  0.69552041  1
  Br  Br152  1  0.95589225  0.91178450  0.69552041  1
  Br  Br153  1  0.71077441  0.28922559  0.63781292  1
  Br  Br154  1  0.71077441  0.42154883  0.63781292  1
  Br  Br155  1  0.57845117  0.28922559  0.63781292  1
  Br  Br156  1  0.62255892  0.37744108  0.02885375  1
  Br  Br157  1  0.75488216  0.37744108  0.02885375  1
  Br  Br158  1  0.62255892  0.24511784  0.02885375  1
  Br  Br159  1  0.37744108  0.62255892  0.97114625  1
  Br  Br160  1  0.37744108  0.75488216  0.97114625  1
  Br  Br161  1  0.24511784  0.62255892  0.97114625  1
  Br  Br162  1  0.28922559  0.71077441  0.36218708  1
  Br  Br163  1  0.42154883  0.71077441  0.36218708  1
  Br  Br164  1  0.28922559  0.57845117  0.36218708  1
  Br  Br165  1  0.10287271  0.47952501  0.08365217  1
  Br  Br166  1  0.52047499  0.62334770  0.08365217  1
  Br  Br167  1  0.37665230  0.89712729  0.08365217  1
  Br  Br168  1  0.47952501  0.10287271  0.91634783  1
  Br  Br169  1  0.62334770  0.52047499  0.91634783  1
  Br  Br170  1  0.89712729  0.37665230  0.91634783  1
  Br  Br171  1  0.89712729  0.52047499  0.91634783  1
  Br  Br172  1  0.47952501  0.37665230  0.91634783  1
  Br  Br173  1  0.62334770  0.10287271  0.91634783  1
  Br  Br174  1  0.52047499  0.89712729  0.08365217  1
  Br  Br175  1  0.37665230  0.47952501  0.08365217  1
  Br  Br176  1  0.10287271  0.62334770  0.08365217  1
  Br  Br177  1  0.76953938  0.81285834  0.41698550  1
  Br  Br178  1  0.18714166  0.95668104  0.41698550  1
  Br  Br179  1  0.04331896  0.23046062  0.41698550  1
  Br  Br180  1  0.14619167  0.43620604  0.24968117  1
  Br  Br181  1  0.29001437  0.85380833  0.24968117  1
  Br  Br182  1  0.56379396  0.70998563  0.24968117  1
  Br  Br183  1  0.56379396  0.85380833  0.24968117  1
  Br  Br184  1  0.14619167  0.70998563  0.24968117  1
  Br  Br185  1  0.29001437  0.43620604  0.24968117  1
  Br  Br186  1  0.18714166  0.23046062  0.41698550  1
  Br  Br187  1  0.04331896  0.81285834  0.41698550  1
  Br  Br188  1  0.76953938  0.95668104  0.41698550  1
  Br  Br189  1  0.43620604  0.14619167  0.75031883  1
  Br  Br190  1  0.85380833  0.29001437  0.75031883  1
  Br  Br191  1  0.70998563  0.56379396  0.75031883  1
  Br  Br192  1  0.81285834  0.76953938  0.58301450  1
  Br  Br193  1  0.95668104  0.18714166  0.58301450  1
  Br  Br194  1  0.23046062  0.04331896  0.58301450  1
  Br  Br195  1  0.23046062  0.18714166  0.58301450  1
  Br  Br196  1  0.81285834  0.04331896  0.58301450  1
  Br  Br197  1  0.95668104  0.76953938  0.58301450  1
  Br  Br198  1  0.85380833  0.56379396  0.75031883  1
  Br  Br199  1  0.70998563  0.14619167  0.75031883  1
  Br  Br200  1  0.43620604  0.29001437  0.75031883  1
  Br  Br201  1  0.72757194  0.68774515  0.58123580  1
  Br  Br202  1  0.31225485  0.03982679  0.58123580  1
  Br  Br203  1  0.96017321  0.27242806  0.58123580  1
  Br  Br204  1  0.68774515  0.72757194  0.41876420  1
  Br  Br205  1  0.03982679  0.31225485  0.41876420  1
  Br  Br206  1  0.27242806  0.96017321  0.41876420  1
  Br  Br207  1  0.27242806  0.31225485  0.41876420  1
  Br  Br208  1  0.68774515  0.96017321  0.41876420  1
  Br  Br209  1  0.03982679  0.72757194  0.41876420  1
  Br  Br210  1  0.31225485  0.27242806  0.58123580  1
  Br  Br211  1  0.96017321  0.68774515  0.58123580  1
  Br  Br212  1  0.72757194  0.03982679  0.58123580  1
  Br  Br213  1  0.39423861  0.02107849  0.91456913  1
  Br  Br214  1  0.97892151  0.37316012  0.91456913  1
  Br  Br215  1  0.62683988  0.60576139  0.91456913  1
  Br  Br216  1  0.35441182  0.06090527  0.75209753  1
  Br  Br217  1  0.70649345  0.64558818  0.75209753  1
  Br  Br218  1  0.93909473  0.29350655  0.75209753  1
  Br  Br219  1  0.93909473  0.64558818  0.75209753  1
  Br  Br220  1  0.35441182  0.29350655  0.75209753  1
  Br  Br221  1  0.70649345  0.06090527  0.75209753  1
  Br  Br222  1  0.97892151  0.60576139  0.91456913  1
  Br  Br223  1  0.62683988  0.02107849  0.91456913  1
  Br  Br224  1  0.39423861  0.37316012  0.91456913  1
  Br  Br225  1  0.06090527  0.35441182  0.24790247  1
  Br  Br226  1  0.64558818  0.70649345  0.24790247  1
  Br  Br227  1  0.29350655  0.93909473  0.24790247  1
  Br  Br228  1  0.02107849  0.39423861  0.08543087  1
  Br  Br229  1  0.37316012  0.97892151  0.08543087  1
  Br  Br230  1  0.60576139  0.62683988  0.08543087  1
  Br  Br231  1  0.60576139  0.97892151  0.08543087  1
  Br  Br232  1  0.02107849  0.62683988  0.08543087  1
  Br  Br233  1  0.37316012  0.39423861  0.08543087  1
  Br  Br234  1  0.64558818  0.93909473  0.24790247  1
  Br  Br235  1  0.29350655  0.35441182  0.24790247  1
  Br  Br236  1  0.06090527  0.70649345  0.24790247  1
  Br  Br237  1  0.00000000  0.00000000  0.05327134  1
  Br  Br238  1  0.00000000  0.00000000  0.94672866  1
  Br  Br239  1  0.66666667  0.33333333  0.38660467  1
  Br  Br240  1  0.66666667  0.33333333  0.28006200  1
  Br  Br241  1  0.33333333  0.66666667  0.71993800  1
  Br  Br242  1  0.33333333  0.66666667  0.61339533  1
  Br  Br243  1  0.58762189  0.97077208  0.28863193  1
  Br  Br244  1  0.02922792  0.61684980  0.28863193  1
  Br  Br245  1  0.38315020  0.41237811  0.28863193  1
  Br  Br246  1  0.97077208  0.58762189  0.71136807  1
  Br  Br247  1  0.61684980  0.02922792  0.71136807  1
  Br  Br248  1  0.41237811  0.38315020  0.71136807  1
  Br  Br249  1  0.41237811  0.02922792  0.71136807  1
  Br  Br250  1  0.97077208  0.38315020  0.71136807  1
  Br  Br251  1  0.61684980  0.58762189  0.71136807  1
  Br  Br252  1  0.02922792  0.41237811  0.28863193  1
  Br  Br253  1  0.38315020  0.97077208  0.28863193  1
  Br  Br254  1  0.58762189  0.61684980  0.28863193  1
  Br  Br255  1  0.25428855  0.30410541  0.62196527  1
  Br  Br256  1  0.69589459  0.95018314  0.62196527  1
  Br  Br257  1  0.04981686  0.74571145  0.62196527  1
  Br  Br258  1  0.63743875  0.92095522  0.04470140  1
  Br  Br259  1  0.28351647  0.36256125  0.04470140  1
  Br  Br260  1  0.07904478  0.71648353  0.04470140  1
  Br  Br261  1  0.07904478  0.36256125  0.04470140  1
  Br  Br262  1  0.63743875  0.71648353  0.04470140  1
  Br  Br263  1  0.28351647  0.92095522  0.04470140  1
  Br  Br264  1  0.69589459  0.74571145  0.62196527  1
  Br  Br265  1  0.04981686  0.30410541  0.62196527  1
  Br  Br266  1  0.25428855  0.95018314  0.62196527  1
  Br  Br267  1  0.92095522  0.63743875  0.95529860  1
  Br  Br268  1  0.36256125  0.28351647  0.95529860  1
  Br  Br269  1  0.71648353  0.07904478  0.95529860  1
  Br  Br270  1  0.30410541  0.25428855  0.37803473  1
  Br  Br271  1  0.95018314  0.69589459  0.37803473  1
  Br  Br272  1  0.74571145  0.04981686  0.37803473  1
  Br  Br273  1  0.74571145  0.69589459  0.37803473  1
  Br  Br274  1  0.30410541  0.04981686  0.37803473  1
  Br  Br275  1  0.95018314  0.25428855  0.37803473  1
  Br  Br276  1  0.36256125  0.07904478  0.95529860  1
  Br  Br277  1  0.71648353  0.63743875  0.95529860  1
  Br  Br278  1  0.92095522  0.28351647  0.95529860  1
  Br  Br279  1  0.50000000  0.00000000  0.50000000  1
  Br  Br280  1  0.00000000  0.50000000  0.50000000  1
  Br  Br281  1  0.50000000  0.50000000  0.50000000  1
  Br  Br282  1  0.16666667  0.33333333  0.83333333  1
  Br  Br283  1  0.66666667  0.83333333  0.83333333  1
  Br  Br284  1  0.16666667  0.83333333  0.83333333  1
  Br  Br285  1  0.83333333  0.66666667  0.16666667  1
  Br  Br286  1  0.33333333  0.16666667  0.16666667  1
  Br  Br287  1  0.83333333  0.16666667  0.16666667  1
  Li  Li288  1  0.78441979  0.00000000  0.50000000  1
  Li  Li289  1  0.00000000  0.78441979  0.50000000  1
  Li  Li290  1  0.21558021  0.21558021  0.50000000  1
  Li  Li291  1  0.21558021  0.00000000  0.50000000  1
  Li  Li292  1  0.00000000  0.21558021  0.50000000  1
  Li  Li293  1  0.78441979  0.78441979  0.50000000  1
  Li  Li294  1  0.45108646  0.33333333  0.83333333  1
  Li  Li295  1  0.66666667  0.11775313  0.83333333  1
  Li  Li296  1  0.88224687  0.54891354  0.83333333  1
  Li  Li297  1  0.88224687  0.33333333  0.83333333  1
  Li  Li298  1  0.66666667  0.54891354  0.83333333  1
  Li  Li299  1  0.45108646  0.11775313  0.83333333  1
  Li  Li300  1  0.11775313  0.66666667  0.16666667  1
  Li  Li301  1  0.33333333  0.45108646  0.16666667  1
  Li  Li302  1  0.54891354  0.88224687  0.16666667  1
  Li  Li303  1  0.54891354  0.66666667  0.16666667  1
  Li  Li304  1  0.33333333  0.88224687  0.16666667  1
  Li  Li305  1  0.11775313  0.45108646  0.16666667  1
  Li  Li306  1  0.00000000  0.00000000  0.00000000  1
  Li  Li307  1  0.66666667  0.33333333  0.33333333  1
  Li  Li308  1  0.33333333  0.66666667  0.66666667  1
  Li  Li309  1  0.00000000  0.00000000  0.89612069  1
  Li  Li310  1  0.00000000  0.00000000  0.10387931  1
  Li  Li311  1  0.66666667  0.33333333  0.22945402  1
  Li  Li312  1  0.66666667  0.33333333  0.43721265  1
  Li  Li313  1  0.33333333  0.66666667  0.56278735  1
  Li  Li314  1  0.33333333  0.66666667  0.77054598  1
  Li  Li315  1  0.18882943  0.01934529  0.40944459  1
  Li  Li316  1  0.98065471  0.16948414  0.40944459  1
  Li  Li317  1  0.83051586  0.81117057  0.40944459  1
  Li  Li318  1  0.01934529  0.18882943  0.59055541  1
  Li  Li319  1  0.16948414  0.98065471  0.59055541  1
  Li  Li320  1  0.81117057  0.83051586  0.59055541  1
  Li  Li321  1  0.81117057  0.98065471  0.59055541  1
  Li  Li322  1  0.01934529  0.83051586  0.59055541  1
  Li  Li323  1  0.16948414  0.18882943  0.59055541  1
  Li  Li324  1  0.98065471  0.81117057  0.40944459  1
  Li  Li325  1  0.83051586  0.01934529  0.40944459  1
  Li  Li326  1  0.18882943  0.16948414  0.40944459  1
  Li  Li327  1  0.85549610  0.35267862  0.74277793  1
  Li  Li328  1  0.64732138  0.50281748  0.74277793  1
  Li  Li329  1  0.49718252  0.14450390  0.74277793  1
  Li  Li330  1  0.68601196  0.52216276  0.92388874  1
  Li  Li331  1  0.83615081  0.31398804  0.92388874  1
  Li  Li332  1  0.47783724  0.16384919  0.92388874  1
  Li  Li333  1  0.47783724  0.31398804  0.92388874  1
  Li  Li334  1  0.68601196  0.16384919  0.92388874  1
  Li  Li335  1  0.83615081  0.52216276  0.92388874  1
  Li  Li336  1  0.64732138  0.14450390  0.74277793  1
  Li  Li337  1  0.49718252  0.35267862  0.74277793  1
  Li  Li338  1  0.85549610  0.50281748  0.74277793  1
  Li  Li339  1  0.52216276  0.68601196  0.07611126  1
  Li  Li340  1  0.31398804  0.83615081  0.07611126  1
  Li  Li341  1  0.16384919  0.47783724  0.07611126  1
  Li  Li342  1  0.35267862  0.85549610  0.25722207  1
  Li  Li343  1  0.50281748  0.64732138  0.25722207  1
  Li  Li344  1  0.14450390  0.49718252  0.25722207  1
  Li  Li345  1  0.14450390  0.64732138  0.25722207  1
  Li  Li346  1  0.35267862  0.49718252  0.25722207  1
  Li  Li347  1  0.50281748  0.85549610  0.25722207  1
  Li  Li348  1  0.31398804  0.47783724  0.07611126  1
  Li  Li349  1  0.16384919  0.68601196  0.07611126  1
  Li  Li350  1  0.52216276  0.83615081  0.07611126  1
  Li  Li351  1  0.77469380  0.07510187  0.91750534  1
  Li  Li352  1  0.92489813  0.69959192  0.91750534  1
  Li  Li353  1  0.30040808  0.22530620  0.91750534  1
  Li  Li354  1  0.07510187  0.77469380  0.08249466  1
  Li  Li355  1  0.69959192  0.92489813  0.08249466  1
  Li  Li356  1  0.22530620  0.30040808  0.08249466  1
  Li  Li357  1  0.22530620  0.92489813  0.08249466  1
  Li  Li358  1  0.07510187  0.30040808  0.08249466  1
  Li  Li359  1  0.69959192  0.77469380  0.08249466  1
  Li  Li360  1  0.92489813  0.22530620  0.91750534  1
  Li  Li361  1  0.30040808  0.07510187  0.91750534  1
  Li  Li362  1  0.77469380  0.69959192  0.91750534  1
  Li  Li363  1  0.44136046  0.40843521  0.25083868  1
  Li  Li364  1  0.59156479  0.03292526  0.25083868  1
  Li  Li365  1  0.96707474  0.55863954  0.25083868  1
  Li  Li366  1  0.74176854  0.10802713  0.41582799  1
  Li  Li367  1  0.36625859  0.25823146  0.41582799  1
  Li  Li368  1  0.89197287  0.63374141  0.41582799  1
  Li  Li369  1  0.89197287  0.25823146  0.41582799  1
  Li  Li370  1  0.74176854  0.63374141  0.41582799  1
  Li  Li371  1  0.36625859  0.10802713  0.41582799  1
  Li  Li372  1  0.59156479  0.55863954  0.25083868  1
  Li  Li373  1  0.96707474  0.40843521  0.25083868  1
  Li  Li374  1  0.44136046  0.03292526  0.25083868  1
  Li  Li375  1  0.10802713  0.74176854  0.58417201  1
  Li  Li376  1  0.25823146  0.36625859  0.58417201  1
  Li  Li377  1  0.63374141  0.89197287  0.58417201  1
  Li  Li378  1  0.40843521  0.44136046  0.74916132  1
  Li  Li379  1  0.03292526  0.59156479  0.74916132  1
  Li  Li380  1  0.55863954  0.96707474  0.74916132  1
  Li  Li381  1  0.55863954  0.59156479  0.74916132  1
  Li  Li382  1  0.40843521  0.96707474  0.74916132  1
  Li  Li383  1  0.03292526  0.44136046  0.74916132  1
  Li  Li384  1  0.25823146  0.89197287  0.58417201  1
  Li  Li385  1  0.63374141  0.74176854  0.58417201  1
  Li  Li386  1  0.10802713  0.36625859  0.58417201  1
  Li  Li387  1  0.12615474  0.43715844  0.01864126  1
  Li  Li388  1  0.56284156  0.68899630  0.01864126  1
  Li  Li389  1  0.31100370  0.87384526  0.01864126  1
  Li  Li390  1  0.43715844  0.12615474  0.98135874  1
  Li  Li391  1  0.68899630  0.56284156  0.98135874  1
  Li  Li392  1  0.87384526  0.31100370  0.98135874  1
  Li  Li393  1  0.87384526  0.56284156  0.98135874  1
  Li  Li394  1  0.43715844  0.31100370  0.98135874  1
  Li  Li395  1  0.68899630  0.12615474  0.98135874  1
  Li  Li396  1  0.56284156  0.87384526  0.01864126  1
  Li  Li397  1  0.31100370  0.43715844  0.01864126  1
  Li  Li398  1  0.12615474  0.68899630  0.01864126  1
  Li  Li399  1  0.79282140  0.77049177  0.35197459  1
  Li  Li400  1  0.22950823  0.02232963  0.35197459  1
  Li  Li401  1  0.97767037  0.20717860  0.35197459  1
  Li  Li402  1  0.10382510  0.45948807  0.31469207  1
  Li  Li403  1  0.35566297  0.89617490  0.31469207  1
  Li  Li404  1  0.54051193  0.64433703  0.31469207  1
  Li  Li405  1  0.54051193  0.89617490  0.31469207  1
  Li  Li406  1  0.10382510  0.64433703  0.31469207  1
  Li  Li407  1  0.35566297  0.45948807  0.31469207  1
  Li  Li408  1  0.22950823  0.20717860  0.35197459  1
  Li  Li409  1  0.97767037  0.77049177  0.35197459  1
  Li  Li410  1  0.79282140  0.02232963  0.35197459  1
  Li  Li411  1  0.45948807  0.10382510  0.68530793  1
  Li  Li412  1  0.89617490  0.35566297  0.68530793  1
  Li  Li413  1  0.64433703  0.54051193  0.68530793  1
  Li  Li414  1  0.77049177  0.79282140  0.64802541  1
  Li  Li415  1  0.02232963  0.22950823  0.64802541  1
  Li  Li416  1  0.20717860  0.97767037  0.64802541  1
  Li  Li417  1  0.20717860  0.22950823  0.64802541  1
  Li  Li418  1  0.77049177  0.97767037  0.64802541  1
  Li  Li419  1  0.02232963  0.79282140  0.64802541  1
  Li  Li420  1  0.89617490  0.54051193  0.68530793  1
  Li  Li421  1  0.64433703  0.10382510  0.68530793  1
  Li  Li422  1  0.45948807  0.35566297  0.68530793  1
  Li  Li423  1  0.63254509  0.19051704  0.22038710  1
  Li  Li424  1  0.80948296  0.44202805  0.22038710  1
  Li  Li425  1  0.55797195  0.36745491  0.22038710  1
  Li  Li426  1  0.19051704  0.63254509  0.77961290  1
  Li  Li427  1  0.44202805  0.80948296  0.77961290  1
  Li  Li428  1  0.36745491  0.55797195  0.77961290  1
  Li  Li429  1  0.36745491  0.80948296  0.77961290  1
  Li  Li430  1  0.19051704  0.55797195  0.77961290  1
  Li  Li431  1  0.44202805  0.63254509  0.77961290  1
  Li  Li432  1  0.80948296  0.36745491  0.22038710  1
  Li  Li433  1  0.55797195  0.19051704  0.22038710  1
  Li  Li434  1  0.63254509  0.44202805  0.22038710  1
  Li  Li435  1  0.29921176  0.52385037  0.55372043  1
  Li  Li436  1  0.47614963  0.77536139  0.55372043  1
  Li  Li437  1  0.22463861  0.70078824  0.55372043  1
  Li  Li438  1  0.85718370  0.96587843  0.11294624  1
  Li  Li439  1  0.10869472  0.14281630  0.11294624  1
  Li  Li440  1  0.03412157  0.89130528  0.11294624  1
  Li  Li441  1  0.03412157  0.14281630  0.11294624  1
  Li  Li442  1  0.85718370  0.89130528  0.11294624  1
  Li  Li443  1  0.10869472  0.96587843  0.11294624  1
  Li  Li444  1  0.47614963  0.70078824  0.55372043  1
  Li  Li445  1  0.22463861  0.52385037  0.55372043  1
  Li  Li446  1  0.29921176  0.77536139  0.55372043  1
  Li  Li447  1  0.96587843  0.85718370  0.88705376  1
  Li  Li448  1  0.14281630  0.10869472  0.88705376  1
  Li  Li449  1  0.89130528  0.03412157  0.88705376  1
  Li  Li450  1  0.52385037  0.29921176  0.44627957  1
  Li  Li451  1  0.77536139  0.47614963  0.44627957  1
  Li  Li452  1  0.70078824  0.22463861  0.44627957  1
  Li  Li453  1  0.70078824  0.47614963  0.44627957  1
  Li  Li454  1  0.52385037  0.22463861  0.44627957  1
  Li  Li455  1  0.77536139  0.29921176  0.44627957  1
  Li  Li456  1  0.14281630  0.03412157  0.88705376  1
  Li  Li457  1  0.89130528  0.85718370  0.88705376  1
  Li  Li458  1  0.96587843  0.10869472  0.88705376  1
  Li  Li459  1  0.82934169  0.72692193  0.17114790  1
  Li  Li460  1  0.27307807  0.10241976  0.17114790  1
  Li  Li461  1  0.89758024  0.17065831  0.17114790  1
  Li  Li462  1  0.72692193  0.82934169  0.82885210  1
  Li  Li463  1  0.10241976  0.27307807  0.82885210  1
  Li  Li464  1  0.17065831  0.89758024  0.82885210  1
  Li  Li465  1  0.17065831  0.27307807  0.82885210  1
  Li  Li466  1  0.72692193  0.89758024  0.82885210  1
  Li  Li467  1  0.10241976  0.82934169  0.82885210  1
  Li  Li468  1  0.27307807  0.17065831  0.17114790  1
  Li  Li469  1  0.89758024  0.72692193  0.17114790  1
  Li  Li470  1  0.82934169  0.10241976  0.17114790  1
  Li  Li471  1  0.49600836  0.06025526  0.50448124  1
  Li  Li472  1  0.93974474  0.43575309  0.50448124  1
  Li  Li473  1  0.56424691  0.50399164  0.50448124  1
  Li  Li474  1  0.39358860  0.16267503  0.16218543  1
  Li  Li475  1  0.76908643  0.60641140  0.16218543  1
  Li  Li476  1  0.83732497  0.23091357  0.16218543  1
  Li  Li477  1  0.83732497  0.60641140  0.16218543  1
  Li  Li478  1  0.39358860  0.23091357  0.16218543  1
  Li  Li479  1  0.76908643  0.16267503  0.16218543  1
  Li  Li480  1  0.93974474  0.50399164  0.50448124  1
  Li  Li481  1  0.56424691  0.06025526  0.50448124  1
  Li  Li482  1  0.49600836  0.43575309  0.50448124  1
  Li  Li483  1  0.16267503  0.39358860  0.83781457  1
  Li  Li484  1  0.60641140  0.76908643  0.83781457  1
  Li  Li485  1  0.23091357  0.83732497  0.83781457  1
  Li  Li486  1  0.06025526  0.49600836  0.49551876  1
  Li  Li487  1  0.43575309  0.93974474  0.49551876  1
  Li  Li488  1  0.50399164  0.56424691  0.49551876  1
  Li  Li489  1  0.50399164  0.93974474  0.49551876  1
  Li  Li490  1  0.06025526  0.56424691  0.49551876  1
  Li  Li491  1  0.43575309  0.49600836  0.49551876  1
  Li  Li492  1  0.60641140  0.83732497  0.83781457  1
  Li  Li493  1  0.23091357  0.39358860  0.83781457  1
  Li  Li494  1  0.16267503  0.76908643  0.83781457  1
  Li  Li495  1  0.93202939  0.57890405  0.38229852  1
  Li  Li496  1  0.42109595  0.35312534  0.38229852  1
  Li  Li497  1  0.64687466  0.06797061  0.38229852  1
  Li  Li498  1  0.57890405  0.93202939  0.61770148  1
  Li  Li499  1  0.35312534  0.42109595  0.61770148  1
  Li  Li500  1  0.06797061  0.64687466  0.61770148  1
  Li  Li501  1  0.06797061  0.42109595  0.61770148  1
  Li  Li502  1  0.57890405  0.64687466  0.61770148  1
  Li  Li503  1  0.35312534  0.93202939  0.61770148  1
  Li  Li504  1  0.42109595  0.06797061  0.38229852  1
  Li  Li505  1  0.64687466  0.57890405  0.38229852  1
  Li  Li506  1  0.93202939  0.35312534  0.38229852  1
  Li  Li507  1  0.59869606  0.91223739  0.71563186  1
  Li  Li508  1  0.08776261  0.68645867  0.71563186  1
  Li  Li509  1  0.31354133  0.40130394  0.71563186  1
  Li  Li510  1  0.24557072  0.26536273  0.95103481  1
  Li  Li511  1  0.01979201  0.75442928  0.95103481  1
  Li  Li512  1  0.73463727  0.98020799  0.95103481  1
  Li  Li513  1  0.73463727  0.75442928  0.95103481  1
  Li  Li514  1  0.24557072  0.98020799  0.95103481  1
  Li  Li515  1  0.01979201  0.26536273  0.95103481  1
  Li  Li516  1  0.08776261  0.40130394  0.71563186  1
  Li  Li517  1  0.31354133  0.91223739  0.71563186  1
  Li  Li518  1  0.59869606  0.68645867  0.71563186  1
  Li  Li519  1  0.26536273  0.24557072  0.04896519  1
  Li  Li520  1  0.75442928  0.01979201  0.04896519  1
  Li  Li521  1  0.98020799  0.73463727  0.04896519  1
  Li  Li522  1  0.91223739  0.59869606  0.28436814  1
  Li  Li523  1  0.68645867  0.08776261  0.28436814  1
  Li  Li524  1  0.40130394  0.31354133  0.28436814  1
  Li  Li525  1  0.40130394  0.08776261  0.28436814  1
  Li  Li526  1  0.91223739  0.31354133  0.28436814  1
  Li  Li527  1  0.68645867  0.59869606  0.28436814  1
  Li  Li528  1  0.75442928  0.73463727  0.04896519  1
  Li  Li529  1  0.98020799  0.24557072  0.04896519  1
  Li  Li530  1  0.26536273  0.01979201  0.04896519  1
  Li  Li531  1  0.24356855  0.94116425  0.35335644  1
  Li  Li532  1  0.05883575  0.30240430  0.35335644  1
  Li  Li533  1  0.69759570  0.75643145  0.35335644  1
  Li  Li534  1  0.94116425  0.24356855  0.64664356  1
  Li  Li535  1  0.30240430  0.05883575  0.64664356  1
  Li  Li536  1  0.75643145  0.69759570  0.64664356  1
  Li  Li537  1  0.75643145  0.05883575  0.64664356  1
  Li  Li538  1  0.94116425  0.69759570  0.64664356  1
  Li  Li539  1  0.30240430  0.24356855  0.64664356  1
  Li  Li540  1  0.05883575  0.75643145  0.35335644  1
  Li  Li541  1  0.69759570  0.94116425  0.35335644  1
  Li  Li542  1  0.24356855  0.30240430  0.35335644  1
  Li  Li543  1  0.91023521  0.27449758  0.68668978  1
  Li  Li544  1  0.72550242  0.63573763  0.68668978  1
  Li  Li545  1  0.36426237  0.08976479  0.68668978  1
  Li  Li546  1  0.60783092  0.57690188  0.97997689  1
  Li  Li547  1  0.96907096  0.39216908  0.97997689  1
  Li  Li548  1  0.42309812  0.03092904  0.97997689  1
  Li  Li549  1  0.42309812  0.39216908  0.97997689  1
  Li  Li550  1  0.60783092  0.03092904  0.97997689  1
  Li  Li551  1  0.96907096  0.57690188  0.97997689  1
  Li  Li552  1  0.72550242  0.08976479  0.68668978  1
  Li  Li553  1  0.36426237  0.27449758  0.68668978  1
  Li  Li554  1  0.91023521  0.63573763  0.68668978  1
  Li  Li555  1  0.57690188  0.60783092  0.02002311  1
  Li  Li556  1  0.39216908  0.96907096  0.02002311  1
  Li  Li557  1  0.03092904  0.42309812  0.02002311  1
  Li  Li558  1  0.27449758  0.91023521  0.31331022  1
  Li  Li559  1  0.63573763  0.72550242  0.31331022  1
  Li  Li560  1  0.08976479  0.36426237  0.31331022  1
  Li  Li561  1  0.08976479  0.72550242  0.31331022  1
  Li  Li562  1  0.27449758  0.36426237  0.31331022  1
  Li  Li563  1  0.63573763  0.91023521  0.31331022  1
  Li  Li564  1  0.39216908  0.42309812  0.02002311  1
  Li  Li565  1  0.03092904  0.60783092  0.02002311  1
  Li  Li566  1  0.57690188  0.96907096  0.02002311  1
  Li  Li567  1  0.50000000  0.00000000  -0.00000000  1
  Li  Li568  1  0.00000000  0.50000000  -0.00000000  1
  Li  Li569  1  0.50000000  0.50000000  -0.00000000  1
  Li  Li570  1  0.16666667  0.33333333  0.33333333  1
  Li  Li571  1  0.66666667  0.83333333  0.33333333  1
  Li  Li572  1  0.16666667  0.83333333  0.33333333  1
  Li  Li573  1  0.83333333  0.66666667  0.66666667  1
  Li  Li574  1  0.33333333  0.16666667  0.66666667  1
  Li  Li575  1  0.83333333  0.16666667  0.66666667  1
