# generated using pymatgen
data_Na2Li9Br6F5
_symmetry_space_group_name_H-M   'P 1'
_cell_length_a   8.07669399
_cell_length_b   8.07669399
_cell_length_c   14.38876157
_cell_angle_alpha   90.00000000
_cell_angle_beta   90.00000000
_cell_angle_gamma   90.00000000
_symmetry_Int_Tables_number   1
_chemical_formula_structural   Na2Li9Br6F5
_chemical_formula_sum   'Na4 Li18 Br12 F10'
_cell_volume   938.62188003
_cell_formula_units_Z   2
loop_
 _symmetry_equiv_pos_site_id
 _symmetry_equiv_pos_as_xyz
  1  'x, y, z'
loop_
 _atom_site_type_symbol
 _atom_site_label
 _atom_site_symmetry_multiplicity
 _atom_site_fract_x
 _atom_site_fract_y
 _atom_site_fract_z
 _atom_site_occupancy
  Br  Br0  1  0.50000000  0.50000000  0.50000000  1
  Br  Br1  1  0.42512223  0.19895147  0.00000000  1
  Br  Br2  1  0.57487777  0.80104853  0.00000000  1
  Br  Br3  1  0.80104853  0.42512223  0.00000000  1
  Br  Br4  1  0.19895147  0.57487777  0.00000000  1
  Br  Br5  1  0.57487777  0.19895147  0.00000000  1
  Br  Br6  1  0.42512223  0.80104853  0.00000000  1
  Br  Br7  1  0.19895147  0.42512223  0.00000000  1
  Br  Br8  1  0.80104853  0.57487777  0.00000000  1
  Br  Br9  1  0.00000000  0.50000000  0.50000000  1
  Br  Br10  1  0.50000000  0.00000000  0.50000000  1
  Br  Br11  1  0.00000000  0.00000000  0.50000000  1
  F  F12  1  0.11334928  0.50000000  0.00000000  1
  F  F13  1  0.88665072  0.50000000  0.00000000  1
  F  F14  1  0.50000000  0.11334928  0.00000000  1
  F  F15  1  0.50000000  0.88665072  0.00000000  1
  F  F16  1  0.28357842  0.00000000  0.00000000  1
  F  F17  1  0.71642158  -0.00000000  0.00000000  1
  F  F18  1  0.00000000  0.28357842  0.00000000  1
  F  F19  1  0.00000000  0.71642158  0.00000000  1
  F  F20  1  0.00000000  0.00000000  0.00000000  1
  F  F21  1  0.50000000  0.50000000  0.00000000  1
  Li  Li22  1  0.50000000  0.50000000  0.61680471  1
  Li  Li23  1  0.50000000  0.50000000  0.38319529  1
  Li  Li24  1  0.23241499  0.90489302  0.81754761  1
  Li  Li25  1  -0.23241499  -0.90489302  0.81754761  1
  Li  Li26  1  -0.90489302  0.23241499  0.81754761  1
  Li  Li27  1  0.90489302  -0.23241499  0.81754761  1
  Li  Li28  1  -0.23241499  0.90489302  -0.81754761  1
  Li  Li29  1  0.23241499  -0.90489302  -0.81754761  1
  Li  Li30  1  0.90489302  0.23241499  -0.81754761  1
  Li  Li31  1  -0.90489302  -0.23241499  -0.81754761  1
  Li  Li32  1  -0.23241499  -0.90489302  -0.81754761  1
  Li  Li33  1  0.23241499  0.90489302  -0.81754761  1
  Li  Li34  1  0.90489302  -0.23241499  -0.81754761  1
  Li  Li35  1  -0.90489302  0.23241499  -0.81754761  1
  Li  Li36  1  0.23241499  -0.90489302  0.81754761  1
  Li  Li37  1  -0.23241499  0.90489302  0.81754761  1
  Li  Li38  1  -0.90489302  -0.23241499  0.81754761  1
  Li  Li39  1  0.90489302  0.23241499  0.81754761  1
  Na  Na40  1  0.00000000  0.00000000  0.78848262  1
  Na  Na41  1  0.00000000  0.00000000  0.21151738  1
  Na  Na42  1  0.00000000  0.00000000  0.65091383  1
  Na  Na43  1  0.00000000  0.00000000  0.34908617  1
