# generated using pymatgen
data_Li2Y2Cu3P2Se
_symmetry_space_group_name_H-M   'P 1'
_cell_length_a   4.66990301
_cell_length_b   5.00930326
_cell_length_c   6.48701250
_cell_angle_alpha   94.97776533
_cell_angle_beta   98.68465661
_cell_angle_gamma   105.80074225
_symmetry_Int_Tables_number   1
_chemical_formula_structural   Li2Y2Cu3P2Se
_chemical_formula_sum   'Li2 Y2 Cu3 P2 Se1'
_cell_volume   143.03175413
_cell_formula_units_Z   1
loop_
 _symmetry_equiv_pos_site_id
 _symmetry_equiv_pos_as_xyz
  1  'x, y, z'
loop_
 _atom_site_type_symbol
 _atom_site_label
 _atom_site_symmetry_multiplicity
 _atom_site_fract_x
 _atom_site_fract_y
 _atom_site_fract_z
 _atom_site_occupancy
  Se  Se0  1  0.00000000  0.00000000  0.00000000  1
  Cu  Cu1  1  0.50000000  0.50000000  0.50000000  1
  Cu  Cu2  1  0.25000000  0.25000000  0.25000000  1
  Cu  Cu3  1  0.75000000  0.25000000  0.00000000  1
  Y  Y4  1  0.25000000  0.75000000  0.50000000  1
  Y  Y5  1  0.91286197  0.19668842  0.94444020  1
  P  P6  1  0.96541359  0.88412346  0.48014575  1
  P  P7  1  0.36471574  0.03850056  0.88430635  1
  Li  Li8  1  0.53460850  0.83490306  0.37955275  1
  Li  Li9  1  0.05517795  0.76608338  0.55391984  1
