# generated using pymatgen
data_LiPSe
_symmetry_space_group_name_H-M   'P 1'
_cell_length_a   5.01094550
_cell_length_b   5.07995619
_cell_length_c   5.86950815
_cell_angle_alpha   93.63353065
_cell_angle_beta   93.53643044
_cell_angle_gamma   97.73071253
_symmetry_Int_Tables_number   1
_chemical_formula_structural   LiPSe
_chemical_formula_sum   'Li1 P1 Se1'
_cell_volume   147.38217758
_cell_formula_units_Z   1
loop_
 _symmetry_equiv_pos_site_id
 _symmetry_equiv_pos_as_xyz
  1  'x, y, z'
loop_
 _atom_site_type_symbol
 _atom_site_label
 _atom_site_symmetry_multiplicity
 _atom_site_fract_x
 _atom_site_fract_y
 _atom_site_fract_z
 _atom_site_occupancy
  Se  Se0  1  0.00000000  0.00000000  0.00000000  1
  P  P1  1  0.33300000  0.66700000  0.25000000  1
  Li  Li2  1  0.66700000  0.33300000  0.50000000  1
