# generated using pymatgen
data_Li2Y2As2P3Se
_symmetry_space_group_name_H-M   'P 1'
_cell_length_a   5.24017377
_cell_length_b   5.33123991
_cell_length_c   7.02573990
_cell_angle_alpha   94.19714879
_cell_angle_beta   98.62471969
_cell_angle_gamma   106.04937110
_symmetry_Int_Tables_number   1
_chemical_formula_structural   Li2Y2As2P3Se
_chemical_formula_sum   'Li2 Y2 As2 P3 Se1'
_cell_volume   185.12978494
_cell_formula_units_Z   1
loop_
 _symmetry_equiv_pos_site_id
 _symmetry_equiv_pos_as_xyz
  1  'x, y, z'
loop_
 _atom_site_type_symbol
 _atom_site_label
 _atom_site_symmetry_multiplicity
 _atom_site_fract_x
 _atom_site_fract_y
 _atom_site_fract_z
 _atom_site_occupancy
  Se  Se0  1  0.12500000  0.00000000  0.25000000  1
  P  P1  1  0.00000000  0.00000000  0.00000000  1
  P  P2  1  0.37500000  0.00000000  0.25000000  1
  P  P3  1  0.25000000  0.25000000  0.25000000  1
  As  As4  1  0.00000000  0.25000000  0.12500000  1
  As  As5  1  0.97852458  0.65353722  0.00063217  1
  Li  Li6  1  0.51309184  0.13444446  0.23782922  1
  Li  Li7  1  0.38624768  0.15510687  0.10876582  1
  Y  Y8  1  0.97677847  0.05988214  0.46622271  1
  Y  Y9  1  0.96633475  0.33990530  0.81752113  1
