# generated using pymatgen
data_LiF
_symmetry_space_group_name_H-M   'P 1'
_cell_length_a   9.67327461
_cell_length_b   12.57460976
_cell_length_c   5.96941294
_cell_angle_alpha   90.00000000
_cell_angle_beta   90.00000000
_cell_angle_gamma   90.00000000
_symmetry_Int_Tables_number   1
_chemical_formula_structural   LiF
_chemical_formula_sum   'Li24 F24'
_cell_volume   726.10538122
_cell_formula_units_Z   24
loop_
 _symmetry_equiv_pos_site_id
 _symmetry_equiv_pos_as_xyz
  1  'x, y, z'
loop_
 _atom_site_type_symbol
 _atom_site_label
 _atom_site_symmetry_multiplicity
 _atom_site_fract_x
 _atom_site_fract_y
 _atom_site_fract_z
 _atom_site_occupancy
  F  F0  1  0.64300966  0.25000000  0.02705098  1
  F  F1  1  0.85699034  0.75000000  0.52705098  1
  F  F2  1  0.35699034  0.75000000  0.97294902  1
  F  F3  1  0.14300966  0.25000000  0.47294902  1
  F  F4  1  0.36510470  0.48196115  0.40351447  1
  F  F5  1  0.13489530  0.51803885  0.90351447  1
  F  F6  1  0.63489530  0.98196115  0.59648553  1
  F  F7  1  0.86510470  0.01803885  0.09648553  1
  F  F8  1  0.63489530  0.51803885  0.59648553  1
  F  F9  1  0.86510470  0.48196115  0.09648553  1
  F  F10  1  0.36510470  0.01803885  0.40351447  1
  F  F11  1  0.13489530  0.98196115  0.90351447  1
  F  F12  1  0.54775908  0.83228937  0.25988741  1
  F  F13  1  0.95224092  0.16771063  0.75988741  1
  F  F14  1  0.45224092  0.33228937  0.74011259  1
  F  F15  1  0.04775908  0.66771063  0.24011259  1
  F  F16  1  0.45224092  0.16771063  0.74011259  1
  F  F17  1  0.04775908  0.83228937  0.24011259  1
  F  F18  1  0.54775908  0.66771063  0.25988741  1
  F  F19  1  0.95224092  0.33228937  0.75988741  1
  F  F20  1  0.61605133  0.25000000  0.60818233  1
  F  F21  1  0.88394867  0.75000000  0.10818233  1
  F  F22  1  0.38394867  0.75000000  0.39181767  1
  F  F23  1  0.11605133  0.25000000  0.89181767  1
  Li  Li24  1  0.00000000  0.00000000  0.00000000  1
  Li  Li25  1  0.50000000  0.00000000  0.50000000  1
  Li  Li26  1  0.00000000  0.50000000  0.00000000  1
  Li  Li27  1  0.50000000  0.50000000  0.50000000  1
  Li  Li28  1  0.78030853  0.15437595  0.16130760  1
  Li  Li29  1  -0.28030853  -0.15437595  0.66130760  1
  Li  Li30  1  -0.78030853  0.65437595  -0.16130760  1
  Li  Li31  1  1.28030853  0.34562405  0.33869240  1
  Li  Li32  1  -0.78030853  -0.15437595  -0.16130760  1
  Li  Li33  1  1.28030853  0.15437595  0.33869240  1
  Li  Li34  1  0.78030853  0.34562405  0.16130760  1
  Li  Li35  1  -0.28030853  0.65437595  0.66130760  1
  Li  Li36  1  0.70214460  0.15107905  0.34437384  1
  Li  Li37  1  0.79785540  0.84892095  0.84437384  1
  Li  Li38  1  0.29785540  0.65107905  0.65562616  1
  Li  Li39  1  0.20214460  0.34892095  0.15562616  1
  Li  Li40  1  0.29785540  0.84892095  0.65562616  1
  Li  Li41  1  0.20214460  0.15107905  0.15562616  1
  Li  Li42  1  0.70214460  0.34892095  0.34437384  1
  Li  Li43  1  0.79785540  0.65107905  0.84437384  1
  Li  Li44  1  0.00000000  0.00000000  0.50000000  1
  Li  Li45  1  0.50000000  0.00000000  0.00000000  1
  Li  Li46  1  0.00000000  0.50000000  0.50000000  1
  Li  Li47  1  0.50000000  0.50000000  0.00000000  1
