# generated using pymatgen
data_Li2Y2As4P3
_symmetry_space_group_name_H-M   'P 1'
_cell_length_a   4.30650999
_cell_length_b   4.44162832
_cell_length_c   6.74556679
_cell_angle_alpha   95.94882785
_cell_angle_beta   102.95531032
_cell_angle_gamma   113.89407715
_symmetry_Int_Tables_number   1
_chemical_formula_structural   Li2Y2As4P3
_chemical_formula_sum   'Li2 Y2 As4 P3'
_cell_volume   112.19641447
_cell_formula_units_Z   1
loop_
 _symmetry_equiv_pos_site_id
 _symmetry_equiv_pos_as_xyz
  1  'x, y, z'
loop_
 _atom_site_type_symbol
 _atom_site_label
 _atom_site_symmetry_multiplicity
 _atom_site_fract_x
 _atom_site_fract_y
 _atom_site_fract_z
 _atom_site_occupancy
  P  P0  1  0.12500000  0.00000000  0.25000000  1
  P  P1  1  0.00000000  0.00000000  0.00000000  1
  P  P2  1  0.37500000  0.00000000  0.25000000  1
  As  As3  1  0.25000000  0.25000000  0.25000000  1
  As  As4  1  0.00000000  0.25000000  0.12500000  1
  As  As5  1  0.29978956  0.99227449  0.89596646  1
  As  As6  1  0.84108448  0.64007404  0.74017579  1
  Li  Li7  1  0.41854610  0.57700295  0.05401599  1
  Li  Li8  1  0.16024221  0.68044087  0.03479058  1
  Y  Y9  1  0.97066188  0.96177892  0.80490021  1
  Y  Y10  1  0.22449056  0.34161415  0.64564252  1
