# generated using pymatgen
data_LiF
_symmetry_space_group_name_H-M   'P 1'
_cell_length_a   9.11985777
_cell_length_b   9.11985777
_cell_length_c   26.31818830
_cell_angle_alpha   90.00000000
_cell_angle_beta   90.00000000
_cell_angle_gamma   120.00000000
_symmetry_Int_Tables_number   1
_chemical_formula_structural   LiF
_chemical_formula_sum   'Li54 F54'
_cell_volume   1895.67006443
_cell_formula_units_Z   54
loop_
 _symmetry_equiv_pos_site_id
 _symmetry_equiv_pos_as_xyz
  1  'x, y, z'
loop_
 _atom_site_type_symbol
 _atom_site_label
 _atom_site_symmetry_multiplicity
 _atom_site_fract_x
 _atom_site_fract_y
 _atom_site_fract_z
 _atom_site_occupancy
  F  F0  1  0.00000000  0.00000000  0.25000000  1
  F  F1  1  0.00000000  0.00000000  0.75000000  1
  F  F2  1  0.66666667  0.33333333  0.58333333  1
  F  F3  1  0.66666667  0.33333333  0.08333333  1
  F  F4  1  0.33333333  0.66666667  0.91666667  1
  F  F5  1  0.33333333  0.66666667  0.41666667  1
  F  F6  1  0.63196842  0.75318984  0.55461710  1
  F  F7  1  -0.75318984  -0.12122142  0.55461710  1
  F  F8  1  0.12122142  -0.63196842  0.55461710  1
  F  F9  1  0.75318984  0.63196842  -0.05461710  1
  F  F10  1  -0.12122142  -0.75318984  -0.05461710  1
  F  F11  1  -0.63196842  0.12122142  -0.05461710  1
  F  F12  1  -0.63196842  -0.75318984  -0.55461710  1
  F  F13  1  0.75318984  0.12122142  -0.55461710  1
  F  F14  1  -0.12122142  0.63196842  -0.55461710  1
  F  F15  1  -0.75318984  -0.63196842  1.05461710  1
  F  F16  1  0.12122142  0.75318984  1.05461710  1
  F  F17  1  0.63196842  -0.12122142  1.05461710  1
  F  F18  1  1.29863509  1.08652317  0.88795044  1
  F  F19  1  -0.08652317  0.21211192  0.88795044  1
  F  F20  1  0.78788808  -0.29863509  0.88795044  1
  F  F21  1  1.41985650  0.96530175  0.27871623  1
  F  F22  1  0.54544525  -0.41985650  0.27871623  1
  F  F23  1  0.03469825  0.45455475  0.27871623  1
  F  F24  1  0.03469825  -0.41985650  -0.22128377  1
  F  F25  1  1.41985650  0.45455475  -0.22128377  1
  F  F26  1  0.54544525  0.96530175  -0.22128377  1
  F  F27  1  -0.08652317  -0.29863509  1.38795044  1
  F  F28  1  0.78788808  1.08652317  1.38795044  1
  F  F29  1  1.29863509  0.21211192  1.38795044  1
  F  F30  1  0.96530175  1.41985650  1.22128377  1
  F  F31  1  -0.41985650  0.54544525  1.22128377  1
  F  F32  1  0.45455475  0.03469825  1.22128377  1
  F  F33  1  1.08652317  1.29863509  0.61204956  1
  F  F34  1  0.21211192  -0.08652317  0.61204956  1
  F  F35  1  -0.29863509  0.78788808  0.61204956  1
  F  F36  1  -0.29863509  -0.08652317  0.11204956  1
  F  F37  1  1.08652317  0.78788808  0.11204956  1
  F  F38  1  0.21211192  1.29863509  0.11204956  1
  F  F39  1  -0.41985650  0.03469825  1.72128377  1
  F  F40  1  0.45455475  1.41985650  1.72128377  1
  F  F41  1  0.96530175  0.54544525  1.72128377  1
  F  F42  1  0.00000000  0.00000000  0.30123045  1
  F  F43  1  0.00000000  0.00000000  0.19876955  1
  F  F44  1  0.00000000  0.00000000  0.69876955  1
  F  F45  1  0.00000000  0.00000000  0.80123045  1
  F  F46  1  0.66666667  0.33333333  0.63456378  1
  F  F47  1  0.66666667  0.33333333  0.53210288  1
  F  F48  1  0.66666667  0.33333333  0.03210288  1
  F  F49  1  0.66666667  0.33333333  0.13456378  1
  F  F50  1  0.33333333  0.66666667  0.96789712  1
  F  F51  1  0.33333333  0.66666667  0.86543622  1
  F  F52  1  0.33333333  0.66666667  0.36543622  1
  F  F53  1  0.33333333  0.66666667  0.46789712  1
  Li  Li54  1  0.00000000  0.00000000  0.94138749  1
  Li  Li55  1  0.00000000  0.00000000  0.55861251  1
  Li  Li56  1  0.00000000  0.00000000  0.05861251  1
  Li  Li57  1  0.00000000  0.00000000  0.44138749  1
  Li  Li58  1  0.66666667  0.33333333  0.27472083  1
  Li  Li59  1  0.66666667  0.33333333  0.89194584  1
  Li  Li60  1  0.66666667  0.33333333  0.39194584  1
  Li  Li61  1  0.66666667  0.33333333  0.77472083  1
  Li  Li62  1  0.33333333  0.66666667  0.60805416  1
  Li  Li63  1  0.33333333  0.66666667  0.22527917  1
  Li  Li64  1  0.33333333  0.66666667  0.72527917  1
  Li  Li65  1  0.33333333  0.66666667  0.10805416  1
  Li  Li66  1  0.50000000  0.00000000  0.00000000  1
  Li  Li67  1  0.00000000  0.50000000  0.00000000  1
  Li  Li68  1  0.50000000  0.50000000  0.00000000  1
  Li  Li69  1  0.00000000  0.50000000  0.50000000  1
  Li  Li70  1  0.50000000  0.00000000  0.50000000  1
  Li  Li71  1  0.50000000  0.50000000  0.50000000  1
  Li  Li72  1  0.16666667  0.33333333  0.33333333  1
  Li  Li73  1  0.66666667  0.83333333  0.33333333  1
  Li  Li74  1  0.16666667  0.83333333  0.33333333  1
  Li  Li75  1  0.66666667  0.83333333  0.83333333  1
  Li  Li76  1  0.16666667  0.33333333  0.83333333  1
  Li  Li77  1  0.16666667  0.83333333  0.83333333  1
  Li  Li78  1  0.83333333  0.66666667  0.66666667  1
  Li  Li79  1  0.33333333  0.16666667  0.66666667  1
  Li  Li80  1  0.83333333  0.16666667  0.66666667  1
  Li  Li81  1  0.33333333  0.16666667  0.16666667  1
  Li  Li82  1  0.83333333  0.66666667  0.16666667  1
  Li  Li83  1  0.83333333  0.16666667  0.16666667  1
  Li  Li84  1  0.74375044  0.00000000  0.25000000  1
  Li  Li85  1  0.00000000  0.74375044  0.25000000  1
  Li  Li86  1  0.25624956  0.25624956  0.25000000  1
  Li  Li87  1  0.25624956  -0.00000000  0.75000000  1
  Li  Li88  1  0.00000000  0.25624956  0.75000000  1
  Li  Li89  1  0.74375044  0.74375044  0.75000000  1
  Li  Li90  1  0.41041711  0.33333333  0.58333333  1
  Li  Li91  1  0.66666667  0.07708377  0.58333333  1
  Li  Li92  1  0.92291623  0.58958289  0.58333333  1
  Li  Li93  1  0.92291623  0.33333333  0.08333333  1
  Li  Li94  1  0.66666667  0.58958289  0.08333333  1
  Li  Li95  1  0.41041711  0.07708377  0.08333333  1
  Li  Li96  1  0.07708377  0.66666667  0.91666667  1
  Li  Li97  1  0.33333333  0.41041711  0.91666667  1
  Li  Li98  1  0.58958289  0.92291623  0.91666667  1
  Li  Li99  1  0.58958289  0.66666667  0.41666667  1
  Li  Li100  1  0.33333333  0.92291623  0.41666667  1
  Li  Li101  1  0.07708377  0.41041711  0.41666667  1
  Li  Li102  1  0.00000000  0.00000000  0.00000000  1
  Li  Li103  1  0.00000000  0.00000000  0.50000000  1
  Li  Li104  1  0.66666667  0.33333333  0.33333333  1
  Li  Li105  1  0.66666667  0.33333333  0.83333333  1
  Li  Li106  1  0.33333333  0.66666667  0.66666667  1
  Li  Li107  1  0.33333333  0.66666667  0.16666667  1
