# generated using pymatgen
data_LiF
_symmetry_space_group_name_H-M   'P 1'
_cell_length_a   9.98265471
_cell_length_b   11.84397764
_cell_length_c   4.63706491
_cell_angle_alpha   90.00000000
_cell_angle_beta   90.00000000
_cell_angle_gamma   90.00000000
_symmetry_Int_Tables_number   1
_chemical_formula_structural   LiF
_chemical_formula_sum   'Li14 F14'
_cell_volume   548.26030585
_cell_formula_units_Z   14
loop_
 _symmetry_equiv_pos_site_id
 _symmetry_equiv_pos_as_xyz
  1  'x, y, z'
loop_
 _atom_site_type_symbol
 _atom_site_label
 _atom_site_symmetry_multiplicity
 _atom_site_fract_x
 _atom_site_fract_y
 _atom_site_fract_z
 _atom_site_occupancy
  F  F0  1  0.00000000  0.50000000  0.00000000  1
  F  F1  1  0.50000000  -0.00000000  0.00000000  1
  F  F2  1  0.08442998  0.09263041  -0.00000000  1
  F  F3  1  -0.08442998  -0.09263041  0.00000000  1
  F  F4  1  0.41557002  0.59263041  0.00000000  1
  F  F5  1  0.58442998  0.40736959  0.00000000  1
  F  F6  1  0.00000000  0.00000000  0.21218616  1
  F  F7  1  0.50000000  0.50000000  0.78781384  1
  F  F8  1  0.00000000  0.00000000  0.78781384  1
  F  F9  1  0.50000000  0.50000000  0.21218616  1
  F  F10  1  0.00000000  0.50000000  0.50000000  1
  F  F11  1  0.50000000  -0.00000000  0.50000000  1
  F  F12  1  0.00000000  0.00000000  0.50000000  1
  F  F13  1  0.50000000  0.50000000  0.50000000  1
  Li  Li14  1  0.70699008  0.11964657  0.00000000  1
  Li  Li15  1  0.29300992  0.88035343  -0.00000000  1
  Li  Li16  1  0.79300992  0.61964657  0.00000000  1
  Li  Li17  1  0.20699008  0.38035343  0.00000000  1
  Li  Li18  1  0.81780042  0.66948775  0.50000000  1
  Li  Li19  1  0.18219958  0.33051225  0.50000000  1
  Li  Li20  1  0.68219958  0.16948775  0.50000000  1
  Li  Li21  1  0.31780042  0.83051225  0.50000000  1
  Li  Li22  1  0.86435985  0.31121799  0.50000000  1
  Li  Li23  1  0.13564015  0.68878201  0.50000000  1
  Li  Li24  1  0.63564015  0.81121799  0.50000000  1
  Li  Li25  1  0.36435985  0.18878201  0.50000000  1
  Li  Li26  1  0.00000000  0.00000000  0.00000000  1
  Li  Li27  1  0.50000000  0.50000000  -0.00000000  1
