# generated using pymatgen
data_LiF
_symmetry_space_group_name_H-M   'P 1'
_cell_length_a   9.59679946
_cell_length_b   9.59679946
_cell_length_c   12.21139934
_cell_angle_alpha   90.00000000
_cell_angle_beta   90.00000000
_cell_angle_gamma   120.00000000
_symmetry_Int_Tables_number   1
_chemical_formula_structural   LiF
_chemical_formula_sum   'Li24 F24'
_cell_volume   973.97745577
_cell_formula_units_Z   24
loop_
 _symmetry_equiv_pos_site_id
 _symmetry_equiv_pos_as_xyz
  1  'x, y, z'
loop_
 _atom_site_type_symbol
 _atom_site_label
 _atom_site_symmetry_multiplicity
 _atom_site_fract_x
 _atom_site_fract_y
 _atom_site_fract_z
 _atom_site_occupancy
  F  F0  1  0.00000000  0.00000000  0.69282342  1
  F  F1  1  0.00000000  0.00000000  0.30717658  1
  F  F2  1  0.98539263  0.74558210  0.62764701  1
  F  F3  1  0.25441790  0.23981052  0.62764701  1
  F  F4  1  0.76018948  0.01460737  0.62764701  1
  F  F5  1  0.25441790  0.01460737  0.37235299  1
  F  F6  1  0.76018948  0.74558210  0.37235299  1
  F  F7  1  0.98539263  0.23981052  0.37235299  1
  F  F8  1  0.00000000  0.00000000  0.50000000  1
  F  F9  1  0.11871137  0.61389156  0.81469992  1
  F  F10  1  0.38610844  0.50481981  0.81469992  1
  F  F11  1  0.49518019  0.88128863  0.81469992  1
  F  F12  1  0.38610844  0.88128863  0.18530008  1
  F  F13  1  0.49518019  0.61389156  0.18530008  1
  F  F14  1  0.11871137  0.50481981  0.18530008  1
  F  F15  1  0.68820425  0.49763908  0.51411059  1
  F  F16  1  0.50236092  0.19056517  0.51411059  1
  F  F17  1  0.80943483  0.31179575  0.51411059  1
  F  F18  1  0.50236092  0.31179575  0.48588941  1
  F  F19  1  0.80943483  0.49763908  0.48588941  1
  F  F20  1  0.68820425  0.19056517  0.48588941  1
  F  F21  1  0.08627979  0.91372021  0.50000000  1
  F  F22  1  0.08627979  0.17255959  0.50000000  1
  F  F23  1  0.82744041  0.91372021  0.50000000  1
  Li  Li24  1  0.67552918  0.93908836  0.51712866  1
  Li  Li25  1  -0.93908836  -0.26355918  0.51712866  1
  Li  Li26  1  0.26355918  -0.67552918  0.51712866  1
  Li  Li27  1  -0.93908836  -0.67552918  -0.51712866  1
  Li  Li28  1  0.26355918  0.93908836  -0.51712866  1
  Li  Li29  1  0.67552918  -0.26355918  -0.51712866  1
  Li  Li30  1  0.66666667  0.33333333  0.50000000  1
  Li  Li31  1  0.76615942  0.28115071  0.36994643  1
  Li  Li32  1  0.71884929  0.48500871  0.36994643  1
  Li  Li33  1  0.51499129  0.23384058  0.36994643  1
  Li  Li34  1  0.71884929  0.23384058  0.63005357  1
  Li  Li35  1  0.51499129  0.28115071  0.63005357  1
  Li  Li36  1  0.76615942  0.48500871  0.63005357  1
  Li  Li37  1  0.62504575  0.76187065  0.13206242  1
  Li  Li38  1  0.23812935  0.86317510  0.13206242  1
  Li  Li39  1  0.13682490  0.37495425  0.13206242  1
  Li  Li40  1  0.23812935  0.37495425  0.86793758  1
  Li  Li41  1  0.13682490  0.76187065  0.86793758  1
  Li  Li42  1  0.62504575  0.86317510  0.86793758  1
  Li  Li43  1  0.33333333  0.66666667  0.00000000  1
  Li  Li44  1  0.45993622  0.54006378  0.50000000  1
  Li  Li45  1  0.45993622  0.91987244  0.50000000  1
  Li  Li46  1  0.08012756  0.54006378  0.50000000  1
  Li  Li47  1  0.66666667  0.33333333  0.00000000  1
