# generated using pymatgen
data_LiF
_symmetry_space_group_name_H-M   'P 1'
_cell_length_a   9.83377152
_cell_length_b   9.83377152
_cell_length_c   7.28263423
_cell_angle_alpha   90.00000000
_cell_angle_beta   90.00000000
_cell_angle_gamma   120.00000000
_symmetry_Int_Tables_number   1
_chemical_formula_structural   LiF
_chemical_formula_sum   'Li36 F36'
_cell_volume   609.90101631
_cell_formula_units_Z   36
loop_
 _symmetry_equiv_pos_site_id
 _symmetry_equiv_pos_as_xyz
  1  'x, y, z'
loop_
 _atom_site_type_symbol
 _atom_site_label
 _atom_site_symmetry_multiplicity
 _atom_site_fract_x
 _atom_site_fract_y
 _atom_site_fract_z
 _atom_site_occupancy
  F  F0  1  0.76539384  0.66075530  0.30610120  1
  F  F1  1  -0.66075530  0.10463854  0.30610120  1
  F  F2  1  -0.10463854  -0.76539384  0.30610120  1
  F  F3  1  0.66075530  0.76539384  0.19389880  1
  F  F4  1  0.10463854  -0.66075530  0.19389880  1
  F  F5  1  -0.76539384  -0.10463854  0.19389880  1
  F  F6  1  -0.76539384  -0.66075530  -0.30610120  1
  F  F7  1  0.66075530  -0.10463854  -0.30610120  1
  F  F8  1  0.10463854  0.76539384  -0.30610120  1
  F  F9  1  -0.66075530  -0.76539384  0.80610120  1
  F  F10  1  -0.10463854  0.66075530  0.80610120  1
  F  F11  1  0.76539384  0.10463854  0.80610120  1
  F  F12  1  1.43206050  0.99408863  0.63943454  1
  F  F13  1  0.00591137  0.43797187  0.63943454  1
  F  F14  1  0.56202813  -0.43206050  0.63943454  1
  F  F15  1  1.32742196  1.09872717  0.52723213  1
  F  F16  1  0.77130521  -0.32742196  0.52723213  1
  F  F17  1  -0.09872717  0.22869479  0.52723213  1
  F  F18  1  -0.09872717  -0.32742196  0.02723213  1
  F  F19  1  1.32742196  0.22869479  0.02723213  1
  F  F20  1  0.77130521  1.09872717  0.02723213  1
  F  F21  1  0.00591137  -0.43206050  1.13943454  1
  F  F22  1  0.56202813  0.99408863  1.13943454  1
  F  F23  1  1.43206050  0.43797187  1.13943454  1
  F  F24  1  1.09872717  1.32742196  0.97276787  1
  F  F25  1  -0.32742196  0.77130521  0.97276787  1
  F  F26  1  0.22869479  -0.09872717  0.97276787  1
  F  F27  1  0.99408863  1.43206050  0.86056546  1
  F  F28  1  0.43797187  0.00591137  0.86056546  1
  F  F29  1  -0.43206050  0.56202813  0.86056546  1
  F  F30  1  -0.43206050  0.00591137  0.36056546  1
  F  F31  1  0.99408863  0.56202813  0.36056546  1
  F  F32  1  0.43797187  1.43206050  0.36056546  1
  F  F33  1  -0.32742196  -0.09872717  1.47276787  1
  F  F34  1  0.22869479  1.32742196  1.47276787  1
  F  F35  1  1.09872717  0.77130521  1.47276787  1
  Li  Li36  1  0.53309149  0.05631087  0.92564826  1
  Li  Li37  1  0.94368913  0.47678062  0.92564826  1
  Li  Li38  1  0.52321938  0.46690851  0.92564826  1
  Li  Li39  1  0.05631087  0.53309149  0.57435174  1
  Li  Li40  1  0.47678062  0.94368913  0.57435174  1
  Li  Li41  1  0.46690851  0.52321938  0.57435174  1
  Li  Li42  1  0.46690851  0.94368913  0.07435174  1
  Li  Li43  1  0.05631087  0.52321938  0.07435174  1
  Li  Li44  1  0.47678062  0.53309149  0.07435174  1
  Li  Li45  1  0.94368913  0.46690851  0.42564826  1
  Li  Li46  1  0.52321938  0.05631087  0.42564826  1
  Li  Li47  1  0.53309149  0.47678062  0.42564826  1
  Li  Li48  1  0.19975815  0.38964420  0.25898159  1
  Li  Li49  1  0.61035580  0.81011396  0.25898159  1
  Li  Li50  1  0.18988604  0.80024185  0.25898159  1
  Li  Li51  1  0.72297753  0.86642482  0.90768508  1
  Li  Li52  1  0.14344729  0.27702247  0.90768508  1
  Li  Li53  1  0.13357518  0.85655271  0.90768508  1
  Li  Li54  1  0.13357518  0.27702247  0.40768508  1
  Li  Li55  1  0.72297753  0.85655271  0.40768508  1
  Li  Li56  1  0.14344729  0.86642482  0.40768508  1
  Li  Li57  1  0.61035580  0.80024185  0.75898159  1
  Li  Li58  1  0.18988604  0.38964420  0.75898159  1
  Li  Li59  1  0.19975815  0.81011396  0.75898159  1
  Li  Li60  1  0.86642482  0.72297753  0.59231492  1
  Li  Li61  1  0.27702247  0.14344729  0.59231492  1
  Li  Li62  1  0.85655271  0.13357518  0.59231492  1
  Li  Li63  1  0.38964420  0.19975815  0.24101841  1
  Li  Li64  1  0.81011396  0.61035580  0.24101841  1
  Li  Li65  1  0.80024185  0.18988604  0.24101841  1
  Li  Li66  1  0.80024185  0.61035580  0.74101841  1
  Li  Li67  1  0.38964420  0.18988604  0.74101841  1
  Li  Li68  1  0.81011396  0.19975815  0.74101841  1
  Li  Li69  1  0.27702247  0.13357518  0.09231492  1
  Li  Li70  1  0.85655271  0.72297753  0.09231492  1
  Li  Li71  1  0.86642482  0.14344729  0.09231492  1
