# generated using pymatgen
data_Li3Y2P3Se2
_symmetry_space_group_name_H-M   'P 1'
_cell_length_a   5.38018920
_cell_length_b   5.64160778
_cell_length_c   7.26577752
_cell_angle_alpha   94.02476061
_cell_angle_beta   98.76509187
_cell_angle_gamma   106.16586375
_symmetry_Int_Tables_number   1
_chemical_formula_structural   Li3Y2P3Se2
_chemical_formula_sum   'Li3 Y2 P3 Se2'
_cell_volume   207.86528461
_cell_formula_units_Z   1
loop_
 _symmetry_equiv_pos_site_id
 _symmetry_equiv_pos_as_xyz
  1  'x, y, z'
loop_
 _atom_site_type_symbol
 _atom_site_label
 _atom_site_symmetry_multiplicity
 _atom_site_fract_x
 _atom_site_fract_y
 _atom_site_fract_z
 _atom_site_occupancy
  Se  Se0  1  0.00000000  0.00000000  0.00000000  1
  Se  Se1  1  0.50000000  0.50000000  0.50000000  1
  P  P2  1  0.25000000  0.25000000  0.25000000  1
  P  P3  1  0.75000000  0.25000000  0.00000000  1
  P  P4  1  0.25000000  0.75000000  0.50000000  1
  Li  Li5  1  0.73794643  0.78530572  0.29999761  1
  Li  Li6  1  0.66462480  0.09151189  0.50732793  1
  Li  Li7  1  0.22693182  0.49022609  0.49567860  1
  Y  Y8  1  0.57667665  0.21344871  0.91354000  1
  Y  Y9  1  0.13399815  0.88457955  0.92236460  1
