# generated using pymatgen
data_LiF
_symmetry_space_group_name_H-M   'P 1'
_cell_length_a   5.86033325
_cell_length_b   4.88990100
_cell_length_c   4.74342418
_cell_angle_alpha   90.00000000
_cell_angle_beta   90.00000000
_cell_angle_gamma   90.00000000
_symmetry_Int_Tables_number   1
_chemical_formula_structural   LiF
_chemical_formula_sum   'Li4 F4'
_cell_volume   135.92969497
_cell_formula_units_Z   4
loop_
 _symmetry_equiv_pos_site_id
 _symmetry_equiv_pos_as_xyz
  1  'x, y, z'
loop_
 _atom_site_type_symbol
 _atom_site_label
 _atom_site_symmetry_multiplicity
 _atom_site_fract_x
 _atom_site_fract_y
 _atom_site_fract_z
 _atom_site_occupancy
  F  F0  1  0.00000000  0.00000000  0.81613055  1
  F  F1  1  0.50000000  0.50000000  -0.81613055  1
  F  F2  1  0.00000000  0.00000000  -0.81613055  1
  F  F3  1  0.50000000  0.50000000  0.81613055  1
  Li  Li4  1  0.21310823  0.36832314  0.00000000  1
  Li  Li5  1  0.78689177  0.63167686  0.00000000  1
  Li  Li6  1  0.28689177  0.86832314  0.00000000  1
  Li  Li7  1  0.71310823  0.13167686  0.00000000  1
