# generated using pymatgen
data_Li3ZrAlO
_symmetry_space_group_name_H-M   'P 1'
_cell_length_a   3.48117772
_cell_length_b   2.99174589
_cell_length_c   6.85741763
_cell_angle_alpha   112.37405629
_cell_angle_beta   99.97107728
_cell_angle_gamma   106.36240594
_symmetry_Int_Tables_number   1
_chemical_formula_structural   Li3ZrAlO
_chemical_formula_sum   'Li3 Zr1 Al1 O1'
_cell_volume   60.12014694
_cell_formula_units_Z   1
loop_
 _symmetry_equiv_pos_site_id
 _symmetry_equiv_pos_as_xyz
  1  'x, y, z'
loop_
 _atom_site_type_symbol
 _atom_site_label
 _atom_site_symmetry_multiplicity
 _atom_site_fract_x
 _atom_site_fract_y
 _atom_site_fract_z
 _atom_site_occupancy
  Al  Al0  1  0.12500000  0.00000000  0.25000000  1
  Zr  Zr1  1  0.00000000  0.00000000  0.00000000  1
  Li  Li2  1  0.37500000  0.00000000  0.25000000  1
  Li  Li3  1  0.25000000  0.25000000  0.25000000  1
  Li  Li4  1  0.00000000  0.25000000  0.12500000  1
  O  O5  1  0.34144126  0.86211714  0.02506868  1
