# generated using pymatgen
data_LiF
_symmetry_space_group_name_H-M   'P 1'
_cell_length_a   14.27709234
_cell_length_b   14.27709234
_cell_length_c   5.48433898
_cell_angle_alpha   90.00000000
_cell_angle_beta   90.00000000
_cell_angle_gamma   120.00000000
_symmetry_Int_Tables_number   1
_chemical_formula_structural   LiF
_chemical_formula_sum   'Li53 F53'
_cell_volume   968.13174092
_cell_formula_units_Z   53
loop_
 _symmetry_equiv_pos_site_id
 _symmetry_equiv_pos_as_xyz
  1  'x, y, z'
loop_
 _atom_site_type_symbol
 _atom_site_label
 _atom_site_symmetry_multiplicity
 _atom_site_fract_x
 _atom_site_fract_y
 _atom_site_fract_z
 _atom_site_occupancy
  F  F0  1  0.58815615  0.36758765  0.66095325  1
  F  F1  1  0.63241235  0.22056850  0.66095325  1
  F  F2  1  0.77943150  0.41184385  0.66095325  1
  F  F3  1  0.63241235  0.41184385  0.33904675  1
  F  F4  1  0.77943150  0.36758765  0.33904675  1
  F  F5  1  0.58815615  0.22056850  0.33904675  1
  F  F6  1  0.97937428  0.64555090  0.38684659  1
  F  F7  1  0.35444910  0.33382339  0.38684659  1
  F  F8  1  0.66617661  0.02062572  0.38684659  1
  F  F9  1  0.35444910  0.02062572  0.61315341  1
  F  F10  1  0.66617661  0.64555090  0.61315341  1
  F  F11  1  0.97937428  0.33382339  0.61315341  1
  F  F12  1  0.33333333  0.66666667  0.50000000  1
  F  F13  1  0.49374963  0.85918645  0.77597180  1
  F  F14  1  0.14081355  0.63456318  0.77597180  1
  F  F15  1  0.36543682  0.50625037  0.77597180  1
  F  F16  1  0.14081355  0.50625037  0.22402820  1
  F  F17  1  0.36543682  0.85918645  0.22402820  1
  F  F18  1  0.49374963  0.63456318  0.22402820  1
  F  F19  1  0.68901884  0.37962581  0.76572776  1
  F  F20  1  0.62037419  0.30939303  0.76572776  1
  F  F21  1  0.69060697  0.31098116  0.76572776  1
  F  F22  1  0.62037419  0.31098116  0.23427224  1
  F  F23  1  0.69060697  0.37962581  0.23427224  1
  F  F24  1  0.68901884  0.30939303  0.23427224  1
  F  F25  1  0.91686995  0.37651879  0.87533163  1
  F  F26  1  0.62348121  0.54035116  0.87533163  1
  F  F27  1  0.45964884  0.08313005  0.87533163  1
  F  F28  1  0.62348121  0.08313005  0.12466837  1
  F  F29  1  0.45964884  0.37651879  0.12466837  1
  F  F30  1  0.91686995  0.54035116  0.12466837  1
  F  F31  1  0.51542173  0.31398420  0.05175804  1
  F  F32  1  0.68601580  0.20143753  0.05175804  1
  F  F33  1  0.79856247  0.48457827  0.05175804  1
  F  F34  1  0.68601580  0.48457827  0.94824196  1
  F  F35  1  0.79856247  0.31398420  0.94824196  1
  F  F36  1  0.51542173  0.20143753  0.94824196  1
  F  F37  1  0.41071609  0.05724018  0.82311810  1
  F  F38  1  0.94275982  0.35347590  0.82311810  1
  F  F39  1  0.64652410  0.58928391  0.82311810  1
  F  F40  1  0.94275982  0.58928391  0.17688190  1
  F  F41  1  0.64652410  0.05724018  0.17688190  1
  F  F42  1  0.41071609  0.35347590  0.17688190  1
  F  F43  1  0.73986785  0.85823248  0.38569201  1
  F  F44  1  0.14176752  0.88163538  0.38569201  1
  F  F45  1  0.11836462  0.26013215  0.38569201  1
  F  F46  1  0.14176752  0.26013215  0.61430799  1
  F  F47  1  0.11836462  0.85823248  0.61430799  1
  F  F48  1  0.73986785  0.88163538  0.61430799  1
  F  F49  1  0.70756260  0.29243740  0.00000000  1
  F  F50  1  0.70756260  0.41512520  0.00000000  1
  F  F51  1  0.58487480  0.29243740  0.00000000  1
  F  F52  1  0.66666667  0.33333333  0.00000000  1
  Li  Li53  1  0.66666667  0.33333333  0.50000000  1
  Li  Li54  1  0.99647319  0.61069518  0.96817271  1
  Li  Li55  1  -0.61069518  0.38577801  0.96817271  1
  Li  Li56  1  -0.38577801  -0.99647319  0.96817271  1
  Li  Li57  1  -0.61069518  -0.99647319  -0.96817271  1
  Li  Li58  1  -0.38577801  0.61069518  -0.96817271  1
  Li  Li59  1  0.99647319  0.38577801  -0.96817271  1
  Li  Li60  1  0.73951469  0.57107610  0.86126547  1
  Li  Li61  1  0.42892390  0.16843859  0.86126547  1
  Li  Li62  1  0.83156141  0.26048531  0.86126547  1
  Li  Li63  1  0.42892390  0.26048531  0.13873453  1
  Li  Li64  1  0.83156141  0.57107610  0.13873453  1
  Li  Li65  1  0.73951469  0.16843859  0.13873453  1
  Li  Li66  1  0.26991577  0.73008423  0.00000000  1
  Li  Li67  1  0.26991577  0.53983155  0.00000000  1
  Li  Li68  1  0.46016845  0.73008423  0.00000000  1
  Li  Li69  1  0.15764575  0.47879981  0.92313068  1
  Li  Li70  1  0.52120019  0.67884593  0.92313068  1
  Li  Li71  1  0.32115407  0.84235425  0.92313068  1
  Li  Li72  1  0.52120019  0.84235425  0.07686932  1
  Li  Li73  1  0.32115407  0.47879981  0.07686932  1
  Li  Li74  1  0.15764575  0.67884593  0.07686932  1
  Li  Li75  1  0.00000000  0.00000000  0.50000000  1
  Li  Li76  1  0.50267146  0.32004282  0.85866803  1
  Li  Li77  1  0.67995718  0.18262864  0.85866803  1
  Li  Li78  1  0.81737136  0.49732854  0.85866803  1
  Li  Li79  1  0.67995718  0.49732854  0.14133197  1
  Li  Li80  1  0.81737136  0.32004282  0.14133197  1
  Li  Li81  1  0.50267146  0.18262864  0.14133197  1
  Li  Li82  1  0.28497647  0.98585935  0.94125222  1
  Li  Li83  1  0.01414065  0.29911712  0.94125222  1
  Li  Li84  1  0.70088288  0.71502353  0.94125222  1
  Li  Li85  1  0.01414065  0.71502353  0.05874778  1
  Li  Li86  1  0.70088288  0.98585935  0.05874778  1
  Li  Li87  1  0.28497647  0.29911712  0.05874778  1
  Li  Li88  1  0.33333333  0.66666667  0.00000000  1
  Li  Li89  1  0.19900959  0.93428303  0.57480939  1
  Li  Li90  1  0.06571697  0.26472655  0.57480939  1
  Li  Li91  1  0.73527345  0.80099041  0.57480939  1
  Li  Li92  1  0.06571697  0.80099041  0.42519061  1
  Li  Li93  1  0.73527345  0.93428303  0.42519061  1
  Li  Li94  1  0.19900959  0.26472655  0.42519061  1
  Li  Li95  1  0.04552645  0.39705612  0.65549893  1
  Li  Li96  1  0.60294388  0.64847033  0.65549893  1
  Li  Li97  1  0.35152967  0.95447355  0.65549893  1
  Li  Li98  1  0.60294388  0.95447355  0.34450107  1
  Li  Li99  1  0.35152967  0.39705612  0.34450107  1
  Li  Li100  1  0.04552645  0.64847033  0.34450107  1
  Li  Li101  1  0.04087407  0.95912593  0.00000000  1
  Li  Li102  1  0.04087407  0.08174814  0.00000000  1
  Li  Li103  1  0.91825186  0.95912593  0.00000000  1
  Li  Li104  1  0.00000000  0.00000000  0.73944114  1
  Li  Li105  1  0.00000000  0.00000000  0.26055886  1
