# generated using pymatgen
data_Li2Y2As3P3Se
_symmetry_space_group_name_H-M   'P 1'
_cell_length_a   4.95067803
_cell_length_b   5.07911718
_cell_length_c   7.12543922
_cell_angle_alpha   94.84512485
_cell_angle_beta   100.55167465
_cell_angle_gamma   109.46094088
_symmetry_Int_Tables_number   1
_chemical_formula_structural   Li2Y2As3P3Se
_chemical_formula_sum   'Li2 Y2 As3 P3 Se1'
_cell_volume   164.01885715
_cell_formula_units_Z   1
loop_
 _symmetry_equiv_pos_site_id
 _symmetry_equiv_pos_as_xyz
  1  'x, y, z'
loop_
 _atom_site_type_symbol
 _atom_site_label
 _atom_site_symmetry_multiplicity
 _atom_site_fract_x
 _atom_site_fract_y
 _atom_site_fract_z
 _atom_site_occupancy
  Se  Se0  1  0.00000000  0.00000000  0.00000000  1
  P  P1  1  0.50000000  0.50000000  0.50000000  1
  P  P2  1  0.25000000  0.25000000  0.25000000  1
  P  P3  1  0.75000000  0.25000000  0.00000000  1
  As  As4  1  0.25000000  0.75000000  0.50000000  1
  As  As5  1  0.11587418  0.50386663  0.25520755  1
  As  As6  1  0.21165128  0.84445166  0.09705518  1
  Li  Li7  1  0.38109655  0.58099483  0.85007037  1
  Li  Li8  1  0.59391705  0.28290497  0.43322533  1
  Y  Y9  1  0.47583842  0.30999447  0.31084331  1
  Y  Y10  1  0.58150236  0.17620462  0.61602954  1
