# generated using pymatgen
data_LiF
_symmetry_space_group_name_H-M   'P 1'
_cell_length_a   7.86557515
_cell_length_b   5.39407985
_cell_length_c   7.65583915
_cell_angle_alpha   90.00000000
_cell_angle_beta   90.00000000
_cell_angle_gamma   90.00000000
_symmetry_Int_Tables_number   1
_chemical_formula_structural   LiF
_chemical_formula_sum   'Li24 F24'
_cell_volume   324.81842457
_cell_formula_units_Z   24
loop_
 _symmetry_equiv_pos_site_id
 _symmetry_equiv_pos_as_xyz
  1  'x, y, z'
loop_
 _atom_site_type_symbol
 _atom_site_label
 _atom_site_symmetry_multiplicity
 _atom_site_fract_x
 _atom_site_fract_y
 _atom_site_fract_z
 _atom_site_occupancy
  F  F0  1  0.63449445  0.60368004  0.65672466  1
  F  F1  1  0.86550555  0.39631996  0.15672466  1
  F  F2  1  0.36550555  0.10368004  0.34327534  1
  F  F3  1  0.13449445  0.89631996  0.84327534  1
  F  F4  1  0.36550555  0.39631996  0.34327534  1
  F  F5  1  0.13449445  0.60368004  0.84327534  1
  F  F6  1  0.63449445  0.89631996  0.65672466  1
  F  F7  1  0.86550555  0.10368004  0.15672466  1
  F  F8  1  0.00000000  0.00000000  0.50000000  1
  F  F9  1  0.50000000  0.00000000  0.00000000  1
  F  F10  1  0.00000000  0.50000000  0.50000000  1
  F  F11  1  0.50000000  0.50000000  -0.00000000  1
  F  F12  1  0.06055781  0.31829409  0.99282448  1
  F  F13  1  0.43944219  0.68170591  0.49282448  1
  F  F14  1  0.93944219  0.81829409  0.00717552  1
  F  F15  1  0.56055781  0.18170591  0.50717552  1
  F  F16  1  0.93944219  0.68170591  0.00717552  1
  F  F17  1  0.56055781  0.31829409  0.50717552  1
  F  F18  1  0.06055781  0.18170591  0.99282448  1
  F  F19  1  0.43944219  0.81829409  0.49282448  1
  F  F20  1  0.00000000  0.00000000  0.00000000  1
  F  F21  1  0.50000000  0.00000000  0.50000000  1
  F  F22  1  0.00000000  0.50000000  0.00000000  1
  F  F23  1  0.50000000  0.50000000  0.50000000  1
  Li  Li24  1  0.83439075  0.25000000  0.56183114  1
  Li  Li25  1  0.66560925  0.75000000  0.06183114  1
  Li  Li26  1  0.16560925  0.75000000  0.43816886  1
  Li  Li27  1  0.33439075  0.25000000  0.93816886  1
  Li  Li28  1  0.68561781  0.25000000  0.44044412  1
  Li  Li29  1  0.81438219  0.75000000  0.94044412  1
  Li  Li30  1  0.31438219  0.75000000  0.55955588  1
  Li  Li31  1  0.18561781  0.25000000  0.05955588  1
  Li  Li32  1  0.24983390  0.56362002  0.90843100  1
  Li  Li33  1  0.25016610  -0.56362002  1.40843100  1
  Li  Li34  1  -0.24983390  1.06362002  -0.90843100  1
  Li  Li35  1  0.74983390  -0.06362002  -0.40843100  1
  Li  Li36  1  -0.24983390  -0.56362002  -0.90843100  1
  Li  Li37  1  0.74983390  0.56362002  -0.40843100  1
  Li  Li38  1  0.24983390  -0.06362002  0.90843100  1
  Li  Li39  1  0.25016610  1.06362002  1.40843100  1
  Li  Li40  1  0.04383719  0.25000000  0.22915876  1
  Li  Li41  1  0.45616281  0.75000000  0.72915876  1
  Li  Li42  1  0.95616281  0.75000000  0.77084124  1
  Li  Li43  1  0.54383719  0.25000000  0.27084124  1
  Li  Li44  1  0.65629345  0.25000000  0.66062978  1
  Li  Li45  1  0.84370655  0.75000000  0.16062978  1
  Li  Li46  1  0.34370655  0.75000000  0.33937022  1
  Li  Li47  1  0.15629345  0.25000000  0.83937022  1
