# generated using pymatgen
data_LiY2P2Se
_symmetry_space_group_name_H-M   'P 1'
_cell_length_a   5.45577968
_cell_length_b   5.63300619
_cell_length_c   6.93137693
_cell_angle_alpha   93.45633707
_cell_angle_beta   96.54612095
_cell_angle_gamma   102.29926341
_symmetry_Int_Tables_number   1
_chemical_formula_structural   LiY2P2Se
_chemical_formula_sum   'Li1 Y2 P2 Se1'
_cell_volume   205.98577424
_cell_formula_units_Z   1
loop_
 _symmetry_equiv_pos_site_id
 _symmetry_equiv_pos_as_xyz
  1  'x, y, z'
loop_
 _atom_site_type_symbol
 _atom_site_label
 _atom_site_symmetry_multiplicity
 _atom_site_fract_x
 _atom_site_fract_y
 _atom_site_fract_z
 _atom_site_occupancy
  Se  Se0  1  0.12500000  0.00000000  0.25000000  1
  Y  Y1  1  0.00000000  0.00000000  0.00000000  1
  Y  Y2  1  0.37500000  0.00000000  0.25000000  1
  P  P3  1  0.25000000  0.25000000  0.25000000  1
  P  P4  1  0.00000000  0.25000000  0.12500000  1
  Li  Li5  1  0.86103475  0.17846147  0.13474554  1
