# generated using pymatgen
data_LiF
_symmetry_space_group_name_H-M   'P 1'
_cell_length_a   8.04586011
_cell_length_b   8.04586011
_cell_length_c   21.79956555
_cell_angle_alpha   90.00000000
_cell_angle_beta   90.00000000
_cell_angle_gamma   120.00000000
_symmetry_Int_Tables_number   1
_chemical_formula_structural   LiF
_chemical_formula_sum   'Li41 F41'
_cell_volume   1222.14693937
_cell_formula_units_Z   41
loop_
 _symmetry_equiv_pos_site_id
 _symmetry_equiv_pos_as_xyz
  1  'x, y, z'
loop_
 _atom_site_type_symbol
 _atom_site_label
 _atom_site_symmetry_multiplicity
 _atom_site_fract_x
 _atom_site_fract_y
 _atom_site_fract_z
 _atom_site_occupancy
  F  F0  1  0.65069019  0.82758614  0.83847169  1
  F  F1  1  0.17241386  0.82310405  0.83847169  1
  F  F2  1  0.17689595  0.34930981  0.83847169  1
  F  F3  1  0.17241386  0.34930981  0.16152831  1
  F  F4  1  0.17689595  0.82758614  0.16152831  1
  F  F5  1  0.65069019  0.82310405  0.16152831  1
  F  F6  1  0.73541026  0.26458974  0.50000000  1
  F  F7  1  0.73541026  0.47082053  0.50000000  1
  F  F8  1  0.52917947  0.26458974  0.50000000  1
  F  F9  1  0.33333333  0.66666667  0.11993812  1
  F  F10  1  0.33333333  0.66666667  0.88006188  1
  F  F11  1  0.47948759  0.17574469  0.00356830  1
  F  F12  1  0.82425531  0.30374290  0.00356830  1
  F  F13  1  0.69625710  0.52051241  0.00356830  1
  F  F14  1  0.82425531  0.52051241  0.99643170  1
  F  F15  1  0.69625710  0.17574469  0.99643170  1
  F  F16  1  0.47948759  0.30374290  0.99643170  1
  F  F17  1  0.70344996  0.14255036  0.37528518  1
  F  F18  1  0.85744964  0.56089961  0.37528518  1
  F  F19  1  0.43910039  0.29655004  0.37528518  1
  F  F20  1  0.85744964  0.29655004  0.62471482  1
  F  F21  1  0.43910039  0.14255036  0.62471482  1
  F  F22  1  0.70344996  0.56089961  0.62471482  1
  F  F23  1  0.56065131  0.59800163  0.35408858  1
  F  F24  1  0.40199837  0.96264968  0.35408858  1
  F  F25  1  0.03735032  0.43934869  0.35408858  1
  F  F26  1  0.40199837  0.43934869  0.64591142  1
  F  F27  1  0.03735032  0.59800163  0.64591142  1
  F  F28  1  0.56065131  0.96264968  0.64591142  1
  F  F29  1  0.99520358  0.55392023  0.15276342  1
  F  F30  1  0.44607977  0.44128335  0.15276342  1
  F  F31  1  0.55871665  0.00479642  0.15276342  1
  F  F32  1  0.44607977  0.00479642  0.84723658  1
  F  F33  1  0.55871665  0.55392023  0.84723658  1
  F  F34  1  0.99520358  0.44128335  0.84723658  1
  F  F35  1  0.24518333  0.43623333  0.78557992  1
  F  F36  1  0.56376667  0.80895000  0.78557992  1
  F  F37  1  0.19105000  0.75481667  0.78557992  1
  F  F38  1  0.56376667  0.75481667  0.21442008  1
  F  F39  1  0.19105000  0.43623333  0.21442008  1
  F  F40  1  0.24518333  0.80895000  0.21442008  1
  Li  Li41  1  0.25653289  0.74346711  0.00000000  1
  Li  Li42  1  0.25653289  0.51306578  -0.00000000  1
  Li  Li43  1  0.48693422  0.74346711  0.00000000  1
  Li  Li44  1  0.33333333  0.66666667  0.50000000  1
  Li  Li45  1  0.84357992  0.09318642  0.76464872  1
  Li  Li46  1  -0.09318642  0.75039350  0.76464872  1
  Li  Li47  1  -0.75039350  -0.84357992  0.76464872  1
  Li  Li48  1  -0.09318642  -0.84357992  -0.76464872  1
  Li  Li49  1  -0.75039350  0.09318642  -0.76464872  1
  Li  Li50  1  0.84357992  0.75039350  -0.76464872  1
  Li  Li51  1  0.66666667  0.33333333  0.50000000  1
  Li  Li52  1  0.44893568  0.68853665  0.84631717  1
  Li  Li53  1  0.31146335  0.76039902  0.84631717  1
  Li  Li54  1  0.23960098  0.55106432  0.84631717  1
  Li  Li55  1  0.31146335  0.55106432  0.15368283  1
  Li  Li56  1  0.23960098  0.68853665  0.15368283  1
  Li  Li57  1  0.44893568  0.76039902  0.15368283  1
  Li  Li58  1  0.19060984  0.34063693  0.04117197  1
  Li  Li59  1  0.65936307  0.84997290  0.04117197  1
  Li  Li60  1  0.15002710  0.80939016  0.04117197  1
  Li  Li61  1  0.65936307  0.80939016  0.95882803  1
  Li  Li62  1  0.15002710  0.34063693  0.95882803  1
  Li  Li63  1  0.19060984  0.84997290  0.95882803  1
  Li  Li64  1  0.94684881  0.50248541  0.42414522  1
  Li  Li65  1  0.49751459  0.44436340  0.42414522  1
  Li  Li66  1  0.55563660  0.05315119  0.42414522  1
  Li  Li67  1  0.49751459  0.05315119  0.57585478  1
  Li  Li68  1  0.55563660  0.50248541  0.57585478  1
  Li  Li69  1  0.94684881  0.44436340  0.57585478  1
  Li  Li70  1  0.34694353  0.84947026  0.32576152  1
  Li  Li71  1  0.15052974  0.49747327  0.32576152  1
  Li  Li72  1  0.50252673  0.65305647  0.32576152  1
  Li  Li73  1  0.15052974  0.65305647  0.67423848  1
  Li  Li74  1  0.50252673  0.84947026  0.67423848  1
  Li  Li75  1  0.34694353  0.49747327  0.67423848  1
  Li  Li76  1  0.81277875  0.09234463  0.96391435  1
  Li  Li77  1  0.90765537  0.72043412  0.96391435  1
  Li  Li78  1  0.27956588  0.18722125  0.96391435  1
  Li  Li79  1  0.90765537  0.18722125  0.03608565  1
  Li  Li80  1  0.27956588  0.09234463  0.03608565  1
  Li  Li81  1  0.81277875  0.72043412  0.03608565  1
