# generated using pymatgen
data_LiCaF3
_symmetry_space_group_name_H-M   'P 1'
_cell_length_a   11.46061568
_cell_length_b   11.46061568
_cell_length_c   14.40271524
_cell_angle_alpha   90.00000000
_cell_angle_beta   90.00000000
_cell_angle_gamma   120.00000000
_symmetry_Int_Tables_number   1
_chemical_formula_structural   LiCaF3
_chemical_formula_sum   'Li18 Ca18 F54'
_cell_volume   1638.29046795
_cell_formula_units_Z   18
loop_
 _symmetry_equiv_pos_site_id
 _symmetry_equiv_pos_as_xyz
  1  'x, y, z'
loop_
 _atom_site_type_symbol
 _atom_site_label
 _atom_site_symmetry_multiplicity
 _atom_site_fract_x
 _atom_site_fract_y
 _atom_site_fract_z
 _atom_site_occupancy
  Ca  Ca0  1  0.26043705  0.71386557  0.70866606  1
  Ca  Ca1  1  -0.71386557  -0.45342852  0.70866606  1
  Ca  Ca2  1  0.45342852  -0.26043705  0.70866606  1
  Ca  Ca3  1  0.26043705  0.71386557  -0.70866606  1
  Ca  Ca4  1  -0.71386557  -0.45342852  -0.70866606  1
  Ca  Ca5  1  0.45342852  -0.26043705  -0.70866606  1
  Ca  Ca6  1  0.71386557  0.26043705  -0.70866606  1
  Ca  Ca7  1  -0.45342852  -0.71386557  -0.70866606  1
  Ca  Ca8  1  -0.26043705  0.45342852  -0.70866606  1
  Ca  Ca9  1  0.71386557  0.26043705  0.70866606  1
  Ca  Ca10  1  -0.45342852  -0.71386557  0.70866606  1
  Ca  Ca11  1  -0.26043705  0.45342852  0.70866606  1
  Ca  Ca12  1  0.13524387  -0.00000000  0.00000000  1
  Ca  Ca13  1  0.00000000  0.13524387  0.00000000  1
  Ca  Ca14  1  0.86475613  0.86475613  0.00000000  1
  Ca  Ca15  1  0.57707591  0.00000000  0.50000000  1
  Ca  Ca16  1  0.00000000  0.57707591  0.50000000  1
  Ca  Ca17  1  0.42292409  0.42292409  0.50000000  1
  F  F18  1  0.78389337  0.00000000  0.00000000  1
  F  F19  1  0.00000000  0.78389337  -0.00000000  1
  F  F20  1  0.21610663  0.21610663  0.00000000  1
  F  F21  1  0.13775485  0.27964513  0.92718800  1
  F  F22  1  0.72035487  0.85810972  0.92718800  1
  F  F23  1  0.14189028  0.86224515  0.92718800  1
  F  F24  1  0.13775485  0.27964513  0.07281200  1
  F  F25  1  0.72035487  0.85810972  0.07281200  1
  F  F26  1  0.14189028  0.86224515  0.07281200  1
  F  F27  1  0.27964513  0.13775485  0.07281200  1
  F  F28  1  0.85810972  0.72035487  0.07281200  1
  F  F29  1  0.86224515  0.14189028  0.07281200  1
  F  F30  1  0.27964513  0.13775485  0.92718800  1
  F  F31  1  0.85810972  0.72035487  0.92718800  1
  F  F32  1  0.86224515  0.14189028  0.92718800  1
  F  F33  1  0.00000000  0.00000000  0.20399751  1
  F  F34  1  0.00000000  0.00000000  0.79600249  1
  F  F35  1  0.55602835  0.50399960  0.00000000  1
  F  F36  1  0.49600040  0.05202875  0.00000000  1
  F  F37  1  0.94797125  0.44397165  0.00000000  1
  F  F38  1  0.50399960  0.55602835  0.00000000  1
  F  F39  1  0.05202875  0.49600040  0.00000000  1
  F  F40  1  0.44397165  0.94797125  0.00000000  1
  F  F41  1  0.48814317  0.89062061  0.61789316  1
  F  F42  1  0.10937939  0.59752257  0.61789316  1
  F  F43  1  0.40247743  0.51185683  0.61789316  1
  F  F44  1  0.48814317  0.89062061  0.38210684  1
  F  F45  1  0.10937939  0.59752257  0.38210684  1
  F  F46  1  0.40247743  0.51185683  0.38210684  1
  F  F47  1  0.89062061  0.48814317  0.38210684  1
  F  F48  1  0.59752257  0.10937939  0.38210684  1
  F  F49  1  0.51185683  0.40247743  0.38210684  1
  F  F50  1  0.89062061  0.48814317  0.61789316  1
  F  F51  1  0.59752257  0.10937939  0.61789316  1
  F  F52  1  0.51185683  0.40247743  0.61789316  1
  F  F53  1  0.33333333  0.66666667  0.50000000  1
  F  F54  1  0.66666667  0.33333333  0.50000000  1
  F  F55  1  0.33411856  0.19908222  0.71653797  1
  F  F56  1  0.80091778  0.13503634  0.71653797  1
  F  F57  1  0.86496366  0.66588144  0.71653797  1
  F  F58  1  0.33411856  0.19908222  0.28346203  1
  F  F59  1  0.80091778  0.13503634  0.28346203  1
  F  F60  1  0.86496366  0.66588144  0.28346203  1
  F  F61  1  0.19908222  0.33411856  0.28346203  1
  F  F62  1  0.13503634  0.80091778  0.28346203  1
  F  F63  1  0.66588144  0.86496366  0.28346203  1
  F  F64  1  0.19908222  0.33411856  0.71653797  1
  F  F65  1  0.13503634  0.80091778  0.71653797  1
  F  F66  1  0.66588144  0.86496366  0.71653797  1
  F  F67  1  0.00000000  0.00000000  0.00000000  1
  F  F68  1  0.33333333  0.66666667  0.58179156  1
  F  F69  1  0.33333333  0.66666667  0.41820844  1
  F  F70  1  0.66666667  0.33333333  0.41820844  1
  F  F71  1  0.66666667  0.33333333  0.58179156  1
  Li  Li72  1  0.42583517  0.09717076  0.93171789  1
  Li  Li73  1  0.90282924  0.32866442  0.93171789  1
  Li  Li74  1  0.67133558  0.57416483  0.93171789  1
  Li  Li75  1  0.42583517  0.09717076  0.06828211  1
  Li  Li76  1  0.90282924  0.32866442  0.06828211  1
  Li  Li77  1  0.67133558  0.57416483  0.06828211  1
  Li  Li78  1  0.09717076  0.42583517  0.06828211  1
  Li  Li79  1  0.32866442  0.90282924  0.06828211  1
  Li  Li80  1  0.57416483  0.67133558  0.06828211  1
  Li  Li81  1  0.09717076  0.42583517  0.93171789  1
  Li  Li82  1  0.32866442  0.90282924  0.93171789  1
  Li  Li83  1  0.57416483  0.67133558  0.93171789  1
  Li  Li84  1  0.33333333  0.66666667  0.00000000  1
  Li  Li85  1  0.66666667  0.33333333  0.00000000  1
  Li  Li86  1  0.33333333  0.66666667  0.88342326  1
  Li  Li87  1  0.33333333  0.66666667  0.11657674  1
  Li  Li88  1  0.66666667  0.33333333  0.11657674  1
  Li  Li89  1  0.66666667  0.33333333  0.88342326  1
