# generated using pymatgen
data_Li2Y2MoP3Se2
_symmetry_space_group_name_H-M   'P 1'
_cell_length_a   5.38954860
_cell_length_b   5.60575986
_cell_length_c   7.34851038
_cell_angle_alpha   94.16311138
_cell_angle_beta   99.06639108
_cell_angle_gamma   106.72156380
_symmetry_Int_Tables_number   1
_chemical_formula_structural   Li2Y2MoP3Se2
_chemical_formula_sum   'Li2 Y2 Mo1 P3 Se2'
_cell_volume   208.33339711
_cell_formula_units_Z   1
loop_
 _symmetry_equiv_pos_site_id
 _symmetry_equiv_pos_as_xyz
  1  'x, y, z'
loop_
 _atom_site_type_symbol
 _atom_site_label
 _atom_site_symmetry_multiplicity
 _atom_site_fract_x
 _atom_site_fract_y
 _atom_site_fract_z
 _atom_site_occupancy
  Se  Se0  1  0.00000000  0.00000000  0.00000000  1
  Se  Se1  1  0.50000000  0.50000000  0.50000000  1
  Y  Y2  1  0.50000000  0.50000000  0.00000000  1
  Y  Y3  1  0.50000000  0.00000000  0.50000000  1
  P  P4  1  0.00000000  0.50000000  0.50000000  1
  P  P5  1  0.56096565  0.79242401  0.88388382  1
  P  P6  1  0.54684824  0.06478792  0.75764452  1
  Mo  Mo7  1  0.54762001  0.33046992  0.99519533  1
  Li  Li8  1  0.59524717  0.43678013  0.53951596  1
  Li  Li9  1  0.22162420  0.89542000  0.32326226  1
