# generated using pymatgen
data_Sr8Li2Sn3(TeO4)3
_symmetry_space_group_name_H-M   'P 1'
_cell_length_a   19.12310413
_cell_length_b   19.12310413
_cell_length_c   20.83074554
_cell_angle_alpha   90.00000000
_cell_angle_beta   90.00000000
_cell_angle_gamma   120.00000000
_symmetry_Int_Tables_number   1
_chemical_formula_structural   Sr8Li2Sn3(TeO4)3
_chemical_formula_sum   'Sr72 Li18 Sn27 Te27 O108'
_cell_volume   6597.08720968
_cell_formula_units_Z   9
loop_
 _symmetry_equiv_pos_site_id
 _symmetry_equiv_pos_as_xyz
  1  'x, y, z'
loop_
 _atom_site_type_symbol
 _atom_site_label
 _atom_site_symmetry_multiplicity
 _atom_site_fract_x
 _atom_site_fract_y
 _atom_site_fract_z
 _atom_site_occupancy
  Li  Li0  1  0.66489469  -0.00000000  0.00000000  1
  Li  Li1  1  0.00000000  0.66489469  0.00000000  1
  Li  Li2  1  0.33510531  0.33510531  0.00000000  1
  Li  Li3  1  0.33510531  0.00000000  -0.00000000  1
  Li  Li4  1  0.00000000  0.33510531  0.00000000  1
  Li  Li5  1  0.66489469  0.66489469  0.00000000  1
  Li  Li6  1  0.33156136  0.33333333  0.33333333  1
  Li  Li7  1  0.66666667  0.99822803  0.33333333  1
  Li  Li8  1  0.00177197  0.66843864  0.33333333  1
  Li  Li9  1  0.00177197  0.33333333  0.33333333  1
  Li  Li10  1  0.66666667  0.66843864  0.33333333  1
  Li  Li11  1  0.33156136  0.99822803  0.33333333  1
  Li  Li12  1  0.99822803  0.66666667  0.66666667  1
  Li  Li13  1  0.33333333  0.33156136  0.66666667  1
  Li  Li14  1  0.66843864  0.00177197  0.66666667  1
  Li  Li15  1  0.66843864  0.66666667  0.66666667  1
  Li  Li16  1  0.33333333  0.00177197  0.66666667  1
  Li  Li17  1  0.99822803  0.33156136  0.66666667  1
  O  O18  1  0.13508960  0.86491040  0.65272565  1
  O  O19  1  0.13508960  0.27017919  0.65272565  1
  O  O20  1  0.72982081  0.86491040  0.65272565  1
  O  O21  1  0.86491040  0.13508960  0.34727435  1
  O  O22  1  0.27017919  0.13508960  0.34727435  1
  O  O23  1  0.86491040  0.72982081  0.34727435  1
  O  O24  1  0.80175626  0.19824374  0.98605898  1
  O  O25  1  0.80175626  0.60351253  0.98605898  1
  O  O26  1  0.39648747  0.19824374  0.98605898  1
  O  O27  1  0.53157707  0.46842293  0.68060769  1
  O  O28  1  0.93684586  0.46842293  0.68060769  1
  O  O29  1  0.53157707  0.06315414  0.68060769  1
  O  O30  1  0.46842293  0.53157707  0.31939231  1
  O  O31  1  0.46842293  0.93684586  0.31939231  1
  O  O32  1  0.06315414  0.53157707  0.31939231  1
  O  O33  1  0.19824374  0.80175626  0.01394102  1
  O  O34  1  0.60351253  0.80175626  0.01394102  1
  O  O35  1  0.19824374  0.39648747  0.01394102  1
  O  O36  1  0.64123052  0.48272366  0.38755422  1
  O  O37  1  0.51727634  0.15850686  0.38755422  1
  O  O38  1  0.84149314  0.35876948  0.38755422  1
  O  O39  1  0.48272366  0.64123052  0.61244578  1
  O  O40  1  0.15850686  0.51727634  0.61244578  1
  O  O41  1  0.35876948  0.84149314  0.61244578  1
  O  O42  1  0.35876948  0.51727634  0.61244578  1
  O  O43  1  0.48272366  0.84149314  0.61244578  1
  O  O44  1  0.15850686  0.64123052  0.61244578  1
  O  O45  1  0.51727634  0.35876948  0.38755422  1
  O  O46  1  0.84149314  0.48272366  0.38755422  1
  O  O47  1  0.64123052  0.15850686  0.38755422  1
  O  O48  1  0.30789719  0.81605700  0.72088755  1
  O  O49  1  0.18394300  0.49184019  0.72088755  1
  O  O50  1  0.50815981  0.69210281  0.72088755  1
  O  O51  1  0.14939033  0.97456385  0.94577912  1
  O  O52  1  0.82517352  0.85060967  0.94577912  1
  O  O53  1  0.02543615  0.17482648  0.94577912  1
  O  O54  1  0.02543615  0.85060967  0.94577912  1
  O  O55  1  0.14939033  0.17482648  0.94577912  1
  O  O56  1  0.82517352  0.97456385  0.94577912  1
  O  O57  1  0.18394300  0.69210281  0.72088755  1
  O  O58  1  0.50815981  0.81605700  0.72088755  1
  O  O59  1  0.30789719  0.49184019  0.72088755  1
  O  O60  1  0.97456385  0.14939033  0.05422088  1
  O  O61  1  0.85060967  0.82517352  0.05422088  1
  O  O62  1  0.17482648  0.02543615  0.05422088  1
  O  O63  1  0.81605700  0.30789719  0.27911245  1
  O  O64  1  0.49184019  0.18394300  0.27911245  1
  O  O65  1  0.69210281  0.50815981  0.27911245  1
  O  O66  1  0.69210281  0.18394300  0.27911245  1
  O  O67  1  0.81605700  0.50815981  0.27911245  1
  O  O68  1  0.49184019  0.30789719  0.27911245  1
  O  O69  1  0.85060967  0.02543615  0.05422088  1
  O  O70  1  0.17482648  0.14939033  0.05422088  1
  O  O71  1  0.97456385  0.82517352  0.05422088  1
  O  O72  1  0.41914453  0.58085547  0.26277272  1
  O  O73  1  0.41914453  0.83828906  0.26277272  1
  O  O74  1  0.16171094  0.58085547  0.26277272  1
  O  O75  1  0.58085547  0.41914453  0.73722728  1
  O  O76  1  0.83828906  0.41914453  0.73722728  1
  O  O77  1  0.58085547  0.16171094  0.73722728  1
  O  O78  1  0.08581119  0.91418881  0.59610605  1
  O  O79  1  0.08581119  0.17162239  0.59610605  1
  O  O80  1  0.82837761  0.91418881  0.59610605  1
  O  O81  1  0.24752214  0.75247786  0.07056062  1
  O  O82  1  0.50495572  0.75247786  0.07056062  1
  O  O83  1  0.24752214  0.49504428  0.07056062  1
  O  O84  1  0.75247786  0.24752214  0.92943938  1
  O  O85  1  0.75247786  0.50495572  0.92943938  1
  O  O86  1  0.49504428  0.24752214  0.92943938  1
  O  O87  1  0.91418881  0.08581119  0.40389395  1
  O  O88  1  0.17162239  0.08581119  0.40389395  1
  O  O89  1  0.91418881  0.82837761  0.40389395  1
  O  O90  1  0.19683193  0.00000000  0.00000000  1
  O  O91  1  0.00000000  0.19683193  0.00000000  1
  O  O92  1  0.80316807  0.80316807  -0.00000000  1
  O  O93  1  0.80316807  -0.00000000  -0.00000000  1
  O  O94  1  0.00000000  0.80316807  -0.00000000  1
  O  O95  1  0.19683193  0.19683193  0.00000000  1
  O  O96  1  0.86349860  0.33333333  0.33333333  1
  O  O97  1  0.66666667  0.53016526  0.33333333  1
  O  O98  1  0.46983474  0.13650140  0.33333333  1
  O  O99  1  0.46983474  0.33333333  0.33333333  1
  O  O100  1  0.66666667  0.13650140  0.33333333  1
  O  O101  1  0.86349860  0.53016526  0.33333333  1
  O  O102  1  0.53016526  0.66666667  0.66666667  1
  O  O103  1  0.33333333  0.86349860  0.66666667  1
  O  O104  1  0.13650140  0.46983474  0.66666667  1
  O  O105  1  0.13650140  0.66666667  0.66666667  1
  O  O106  1  0.33333333  0.46983474  0.66666667  1
  O  O107  1  0.53016526  0.86349860  0.66666667  1
  O  O108  1  0.92212584  0.00000000  0.00000000  1
  O  O109  1  0.00000000  0.92212584  -0.00000000  1
  O  O110  1  0.07787416  0.07787416  0.00000000  1
  O  O111  1  0.07787416  0.00000000  0.00000000  1
  O  O112  1  0.00000000  0.07787416  0.00000000  1
  O  O113  1  0.92212584  0.92212584  0.00000000  1
  O  O114  1  0.58879251  0.33333333  0.33333333  1
  O  O115  1  0.66666667  0.25545918  0.33333333  1
  O  O116  1  0.74454082  0.41120749  0.33333333  1
  O  O117  1  0.74454082  0.33333333  0.33333333  1
  O  O118  1  0.66666667  0.41120749  0.33333333  1
  O  O119  1  0.58879251  0.25545918  0.33333333  1
  O  O120  1  0.25545918  0.66666667  0.66666667  1
  O  O121  1  0.33333333  0.58879251  0.66666667  1
  O  O122  1  0.41120749  0.74454082  0.66666667  1
  O  O123  1  0.41120749  0.66666667  0.66666667  1
  O  O124  1  0.33333333  0.74454082  0.66666667  1
  O  O125  1  0.25545918  0.58879251  0.66666667  1
  Sn  Sn126  1  0.45413765  0.54586235  0.83515688  1
  Sn  Sn127  1  0.45413765  0.90827530  0.83515688  1
  Sn  Sn128  1  0.09172470  0.54586235  0.83515688  1
  Sn  Sn129  1  0.54586235  0.45413765  0.16484312  1
  Sn  Sn130  1  0.90827530  0.45413765  0.16484312  1
  Sn  Sn131  1  0.54586235  0.09172470  0.16484312  1
  Sn  Sn132  1  0.12080432  0.87919568  0.16849022  1
  Sn  Sn133  1  0.12080432  0.24160864  0.16849022  1
  Sn  Sn134  1  0.75839136  0.87919568  0.16849022  1
  Sn  Sn135  1  0.21252902  0.78747098  0.49817645  1
  Sn  Sn136  1  0.57494197  0.78747098  0.49817645  1
  Sn  Sn137  1  0.21252902  0.42505803  0.49817645  1
  Sn  Sn138  1  0.78747098  0.21252902  0.50182355  1
  Sn  Sn139  1  0.78747098  0.57494197  0.50182355  1
  Sn  Sn140  1  0.42505803  0.21252902  0.50182355  1
  Sn  Sn141  1  0.87919568  0.12080432  0.83150978  1
  Sn  Sn142  1  0.24160864  0.12080432  0.83150978  1
  Sn  Sn143  1  0.87919568  0.75839136  0.83150978  1
  Sn  Sn144  1  0.00000000  0.00000000  0.50000000  1
  Sn  Sn145  1  0.66666667  0.33333333  0.83333333  1
  Sn  Sn146  1  0.33333333  0.66666667  0.16666667  1
  Sn  Sn147  1  0.00000000  0.00000000  0.88187554  1
  Sn  Sn148  1  0.00000000  0.00000000  0.11812446  1
  Sn  Sn149  1  0.66666667  0.33333333  0.21520888  1
  Sn  Sn150  1  0.66666667  0.33333333  0.45145779  1
  Sn  Sn151  1  0.33333333  0.66666667  0.54854221  1
  Sn  Sn152  1  0.33333333  0.66666667  0.78479112  1
  Sr  Sr153  1  0.45537189  0.36028818  0.24460325  1
  Sr  Sr154  1  -0.36028818  0.09508371  0.24460325  1
  Sr  Sr155  1  -0.09508371  -0.45537189  0.24460325  1
  Sr  Sr156  1  0.36028818  0.45537189  -0.24460325  1
  Sr  Sr157  1  0.09508371  -0.36028818  -0.24460325  1
  Sr  Sr158  1  -0.45537189  -0.09508371  -0.24460325  1
  Sr  Sr159  1  -0.45537189  -0.36028818  -0.24460325  1
  Sr  Sr160  1  0.36028818  -0.09508371  -0.24460325  1
  Sr  Sr161  1  0.09508371  0.45537189  -0.24460325  1
  Sr  Sr162  1  -0.36028818  -0.45537189  0.24460325  1
  Sr  Sr163  1  -0.09508371  0.36028818  0.24460325  1
  Sr  Sr164  1  0.45537189  0.09508371  0.24460325  1
  Sr  Sr165  1  1.12203856  0.69362151  0.57793659  1
  Sr  Sr166  1  0.30637849  0.42841704  0.57793659  1
  Sr  Sr167  1  0.57158296  -0.12203856  0.57793659  1
  Sr  Sr168  1  1.02695485  0.78870523  0.08873008  1
  Sr  Sr169  1  0.76175038  -0.02695485  0.08873008  1
  Sr  Sr170  1  0.21129477  0.23824962  0.08873008  1
  Sr  Sr171  1  0.21129477  -0.02695485  0.08873008  1
  Sr  Sr172  1  1.02695485  0.23824962  0.08873008  1
  Sr  Sr173  1  0.76175038  0.78870523  0.08873008  1
  Sr  Sr174  1  0.30637849  -0.12203856  0.57793659  1
  Sr  Sr175  1  0.57158296  0.69362151  0.57793659  1
  Sr  Sr176  1  1.12203856  0.42841704  0.57793659  1
  Sr  Sr177  1  0.78870523  1.02695485  0.91126992  1
  Sr  Sr178  1  -0.02695485  0.76175038  0.91126992  1
  Sr  Sr179  1  0.23824962  0.21129477  0.91126992  1
  Sr  Sr180  1  0.69362151  1.12203856  0.42206341  1
  Sr  Sr181  1  0.42841704  0.30637849  0.42206341  1
  Sr  Sr182  1  -0.12203856  0.57158296  0.42206341  1
  Sr  Sr183  1  -0.12203856  0.30637849  0.42206341  1
  Sr  Sr184  1  0.69362151  0.57158296  0.42206341  1
  Sr  Sr185  1  0.42841704  1.12203856  0.42206341  1
  Sr  Sr186  1  -0.02695485  0.21129477  0.91126992  1
  Sr  Sr187  1  0.23824962  1.02695485  0.91126992  1
  Sr  Sr188  1  0.78870523  0.76175038  0.91126992  1
  Sr  Sr189  1  0.00000000  0.00000000  0.00000000  1
  Sr  Sr190  1  0.66666667  0.33333333  0.33333333  1
  Sr  Sr191  1  0.33333333  0.66666667  0.66666667  1
  Sr  Sr192  1  0.00000000  0.00000000  0.39776100  1
  Sr  Sr193  1  0.00000000  0.00000000  0.60223900  1
  Sr  Sr194  1  0.66666667  0.33333333  0.73109434  1
  Sr  Sr195  1  0.66666667  0.33333333  0.93557233  1
  Sr  Sr196  1  0.33333333  0.66666667  0.06442767  1
  Sr  Sr197  1  0.33333333  0.66666667  0.26890566  1
  Sr  Sr198  1  0.50000000  -0.00000000  0.50000000  1
  Sr  Sr199  1  0.00000000  0.50000000  0.50000000  1
  Sr  Sr200  1  0.50000000  0.50000000  0.50000000  1
  Sr  Sr201  1  0.16666667  0.33333333  0.83333333  1
  Sr  Sr202  1  0.66666667  0.83333333  0.83333333  1
  Sr  Sr203  1  0.16666667  0.83333333  0.83333333  1
  Sr  Sr204  1  0.83333333  0.66666667  0.16666667  1
  Sr  Sr205  1  0.33333333  0.16666667  0.16666667  1
  Sr  Sr206  1  0.83333333  0.16666667  0.16666667  1
  Sr  Sr207  1  0.77364424  0.00000000  0.50000000  1
  Sr  Sr208  1  0.00000000  0.77364424  0.50000000  1
  Sr  Sr209  1  0.22635576  0.22635576  0.50000000  1
  Sr  Sr210  1  0.22635576  0.00000000  0.50000000  1
  Sr  Sr211  1  0.00000000  0.22635576  0.50000000  1
  Sr  Sr212  1  0.77364424  0.77364424  0.50000000  1
  Sr  Sr213  1  0.44031090  0.33333333  0.83333333  1
  Sr  Sr214  1  0.66666667  0.10697757  0.83333333  1
  Sr  Sr215  1  0.89302243  0.55968910  0.83333333  1
  Sr  Sr216  1  0.89302243  0.33333333  0.83333333  1
  Sr  Sr217  1  0.66666667  0.55968910  0.83333333  1
  Sr  Sr218  1  0.44031090  0.10697757  0.83333333  1
  Sr  Sr219  1  0.10697757  0.66666667  0.16666667  1
  Sr  Sr220  1  0.33333333  0.44031090  0.16666667  1
  Sr  Sr221  1  0.55968910  0.89302243  0.16666667  1
  Sr  Sr222  1  0.55968910  0.66666667  0.16666667  1
  Sr  Sr223  1  0.33333333  0.89302243  0.16666667  1
  Sr  Sr224  1  0.10697757  0.44031090  0.16666667  1
  Te  Te225  1  0.10846220  0.89153780  0.90267707  1
  Te  Te226  1  0.10846220  0.21692439  0.90267707  1
  Te  Te227  1  0.78307561  0.89153780  0.90267707  1
  Te  Te228  1  0.89153780  0.10846220  0.09732293  1
  Te  Te229  1  0.21692439  0.10846220  0.09732293  1
  Te  Te230  1  0.89153780  0.78307561  0.09732293  1
  Te  Te231  1  0.77512886  0.22487114  0.23601040  1
  Te  Te232  1  0.77512886  0.55025773  0.23601040  1
  Te  Te233  1  0.44974227  0.22487114  0.23601040  1
  Te  Te234  1  0.55820447  0.44179553  0.43065626  1
  Te  Te235  1  0.88359106  0.44179553  0.43065626  1
  Te  Te236  1  0.55820447  0.11640894  0.43065626  1
  Te  Te237  1  0.44179553  0.55820447  0.56934374  1
  Te  Te238  1  0.44179553  0.88359106  0.56934374  1
  Te  Te239  1  0.11640894  0.55820447  0.56934374  1
  Te  Te240  1  0.22487114  0.77512886  0.76398960  1
  Te  Te241  1  0.55025773  0.77512886  0.76398960  1
  Te  Te242  1  0.22487114  0.44974227  0.76398960  1
  Te  Te243  1  0.50000000  -0.00000000  0.00000000  1
  Te  Te244  1  0.00000000  0.50000000  0.00000000  1
  Te  Te245  1  0.50000000  0.50000000  0.00000000  1
  Te  Te246  1  0.16666667  0.33333333  0.33333333  1
  Te  Te247  1  0.66666667  0.83333333  0.33333333  1
  Te  Te248  1  0.16666667  0.83333333  0.33333333  1
  Te  Te249  1  0.83333333  0.66666667  0.66666667  1
  Te  Te250  1  0.33333333  0.16666667  0.66666667  1
  Te  Te251  1  0.83333333  0.16666667  0.66666667  1
