# generated using pymatgen
data_LiF
_symmetry_space_group_name_H-M   'P 1'
_cell_length_a   8.17490775
_cell_length_b   8.17490775
_cell_length_c   3.19500406
_cell_angle_alpha   90.00000000
_cell_angle_beta   90.00000000
_cell_angle_gamma   120.00000000
_symmetry_Int_Tables_number   1
_chemical_formula_structural   LiF
_chemical_formula_sum   'Li8 F8'
_cell_volume   184.91313731
_cell_formula_units_Z   8
loop_
 _symmetry_equiv_pos_site_id
 _symmetry_equiv_pos_as_xyz
  1  'x, y, z'
loop_
 _atom_site_type_symbol
 _atom_site_label
 _atom_site_symmetry_multiplicity
 _atom_site_fract_x
 _atom_site_fract_y
 _atom_site_fract_z
 _atom_site_occupancy
  F  F0  1  0.33333333  0.66666667  0.00000000  1
  F  F1  1  0.66666667  0.33333333  0.00000000  1
  F  F2  1  0.23574110  0.31173367  0.50000000  1
  F  F3  1  -0.31173367  -0.07599256  0.50000000  1
  F  F4  1  0.07599256  -0.23574110  0.50000000  1
  F  F5  1  0.31173367  0.23574110  0.50000000  1
  F  F6  1  -0.07599256  -0.31173367  0.50000000  1
  F  F7  1  -0.23574110  0.07599256  0.50000000  1
  Li  Li8  1  0.26348625  0.00000000  0.00000000  1
  Li  Li9  1  0.00000000  0.26348625  -0.00000000  1
  Li  Li10  1  0.73651375  0.73651375  0.00000000  1
  Li  Li11  1  0.00000000  0.00000000  0.75759136  1
  Li  Li12  1  0.00000000  0.00000000  0.24240864  1
  Li  Li13  1  0.70107246  0.00000000  0.00000000  1
  Li  Li14  1  0.00000000  0.70107246  0.00000000  1
  Li  Li15  1  0.29892754  0.29892754  0.00000000  1
