# generated using pymatgen
data_LiF
_symmetry_space_group_name_H-M   'P 1'
_cell_length_a   7.39173227
_cell_length_b   9.27005174
_cell_length_c   7.15914363
_cell_angle_alpha   90.00000000
_cell_angle_beta   90.00000000
_cell_angle_gamma   90.00000000
_symmetry_Int_Tables_number   1
_chemical_formula_structural   LiF
_chemical_formula_sum   'Li32 F32'
_cell_volume   490.55698315
_cell_formula_units_Z   32
loop_
 _symmetry_equiv_pos_site_id
 _symmetry_equiv_pos_as_xyz
  1  'x, y, z'
loop_
 _atom_site_type_symbol
 _atom_site_label
 _atom_site_symmetry_multiplicity
 _atom_site_fract_x
 _atom_site_fract_y
 _atom_site_fract_z
 _atom_site_occupancy
  F  F0  1  0.01033989  0.71208890  0.33513896  1
  F  F1  1  0.98966011  0.28791110  0.33513896  1
  F  F2  1  0.48966011  0.21208890  0.66486104  1
  F  F3  1  0.51033989  0.78791110  0.66486104  1
  F  F4  1  0.98966011  0.28791110  0.66486104  1
  F  F5  1  0.01033989  0.71208890  0.66486104  1
  F  F6  1  0.51033989  0.78791110  0.33513896  1
  F  F7  1  0.48966011  0.21208890  0.33513896  1
  F  F8  1  0.00000000  0.00000000  0.71294269  1
  F  F9  1  0.50000000  0.50000000  0.28705731  1
  F  F10  1  0.00000000  0.00000000  0.28705731  1
  F  F11  1  0.50000000  0.50000000  0.71294269  1
  F  F12  1  0.55072357  0.67075215  0.13885649  1
  F  F13  1  0.44927643  0.32924785  0.13885649  1
  F  F14  1  0.94927643  0.17075215  0.86114351  1
  F  F15  1  0.05072357  0.82924785  0.86114351  1
  F  F16  1  0.44927643  0.32924785  0.86114351  1
  F  F17  1  0.55072357  0.67075215  0.86114351  1
  F  F18  1  0.05072357  0.82924785  0.13885649  1
  F  F19  1  0.94927643  0.17075215  0.13885649  1
  F  F20  1  0.00000000  0.50000000  0.34030988  1
  F  F21  1  0.50000000  0.00000000  0.65969012  1
  F  F22  1  0.00000000  0.50000000  0.65969012  1
  F  F23  1  0.50000000  0.00000000  0.34030988  1
  F  F24  1  0.63435424  0.90850910  0.21107179  1
  F  F25  1  0.36564576  0.09149090  0.21107179  1
  F  F26  1  0.86564576  0.40850910  0.78892821  1
  F  F27  1  0.13435424  0.59149090  0.78892821  1
  F  F28  1  0.36564576  0.09149090  0.78892821  1
  F  F29  1  0.63435424  0.90850910  0.78892821  1
  F  F30  1  0.13435424  0.59149090  0.21107179  1
  F  F31  1  0.86564576  0.40850910  0.21107179  1
  Li  Li32  1  0.20924994  0.69538551  0.00000000  1
  Li  Li33  1  0.79075006  0.30461449  0.00000000  1
  Li  Li34  1  0.29075006  0.19538551  0.00000000  1
  Li  Li35  1  0.70924994  0.80461449  0.00000000  1
  Li  Li36  1  0.95501269  0.17840851  -0.00000000  1
  Li  Li37  1  0.04498731  0.82159149  0.00000000  1
  Li  Li38  1  0.54498731  0.67840851  -0.00000000  1
  Li  Li39  1  0.45501269  0.32159149  0.00000000  1
  Li  Li40  1  0.00000000  0.50000000  0.00000000  1
  Li  Li41  1  0.50000000  0.00000000  0.00000000  1
  Li  Li42  1  0.00000000  0.00000000  0.50000000  1
  Li  Li43  1  0.50000000  0.50000000  0.50000000  1
  Li  Li44  1  0.57864588  0.79180506  0.17032442  1
  Li  Li45  1  -0.57864588  -0.79180506  0.17032442  1
  Li  Li46  1  -0.07864588  1.29180506  -0.17032442  1
  Li  Li47  1  1.07864588  -0.29180506  -0.17032442  1
  Li  Li48  1  -0.57864588  -0.79180506  -0.17032442  1
  Li  Li49  1  0.57864588  0.79180506  -0.17032442  1
  Li  Li50  1  1.07864588  -0.29180506  0.17032442  1
  Li  Li51  1  -0.07864588  1.29180506  0.17032442  1
  Li  Li52  1  0.50704700  0.85547364  0.00000000  1
  Li  Li53  1  0.49295300  0.14452636  0.00000000  1
  Li  Li54  1  0.99295300  0.35547364  0.00000000  1
  Li  Li55  1  0.00704700  0.64452636  -0.00000000  1
  Li  Li56  1  0.11888326  0.16901333  0.61124838  1
  Li  Li57  1  0.88111674  0.83098667  0.61124838  1
  Li  Li58  1  0.38111674  0.66901333  0.38875162  1
  Li  Li59  1  0.61888326  0.33098667  0.38875162  1
  Li  Li60  1  0.88111674  0.83098667  0.38875162  1
  Li  Li61  1  0.11888326  0.16901333  0.38875162  1
  Li  Li62  1  0.61888326  0.33098667  0.61124838  1
  Li  Li63  1  0.38111674  0.66901333  0.61124838  1
