# generated using pymatgen
data_Li2Y2P3Se2
_symmetry_space_group_name_H-M   'P 1'
_cell_length_a   4.54588412
_cell_length_b   4.71546462
_cell_length_c   6.86826032
_cell_angle_alpha   95.52012259
_cell_angle_beta   102.02167938
_cell_angle_gamma   112.17213849
_symmetry_Int_Tables_number   1
_chemical_formula_structural   Li2Y2P3Se2
_chemical_formula_sum   'Li2 Y2 P3 Se2'
_cell_volume   130.84386884
_cell_formula_units_Z   1
loop_
 _symmetry_equiv_pos_site_id
 _symmetry_equiv_pos_as_xyz
  1  'x, y, z'
loop_
 _atom_site_type_symbol
 _atom_site_label
 _atom_site_symmetry_multiplicity
 _atom_site_fract_x
 _atom_site_fract_y
 _atom_site_fract_z
 _atom_site_occupancy
  P  P0  1  0.12500000  0.00000000  0.25000000  1
  P  P1  1  0.00000000  0.00000000  0.00000000  1
  P  P2  1  0.37500000  0.00000000  0.25000000  1
  Se  Se3  1  0.25000000  0.25000000  0.25000000  1
  Se  Se4  1  0.00000000  0.25000000  0.12500000  1
  Li  Li5  1  0.12495839  0.02642008  0.60769866  1
  Li  Li6  1  0.12623718  0.77010392  0.69025629  1
  Y  Y7  1  0.42843561  0.38305782  0.84700974  1
  Y  Y8  1  0.89956803  0.38587444  0.08642932  1
