# generated using pymatgen
data_Li2Sb2PSe
_symmetry_space_group_name_H-M   'P 1'
_cell_length_a   4.07712897
_cell_length_b   4.30550884
_cell_length_c   6.13870190
_cell_angle_alpha   95.78392102
_cell_angle_beta   100.20527356
_cell_angle_gamma   109.48214177
_symmetry_Int_Tables_number   1
_chemical_formula_structural   Li2Sb2PSe
_chemical_formula_sum   'Li2 Sb2 P1 Se1'
_cell_volume   98.48721343
_cell_formula_units_Z   1
loop_
 _symmetry_equiv_pos_site_id
 _symmetry_equiv_pos_as_xyz
  1  'x, y, z'
loop_
 _atom_site_type_symbol
 _atom_site_label
 _atom_site_symmetry_multiplicity
 _atom_site_fract_x
 _atom_site_fract_y
 _atom_site_fract_z
 _atom_site_occupancy
  P  P0  1  0.00000000  0.00000000  0.00000000  1
  Se  Se1  1  0.50000000  0.50000000  0.50000000  1
  Li  Li2  1  0.25000000  0.25000000  0.25000000  1
  Li  Li3  1  0.75000000  0.25000000  0.00000000  1
  Sb  Sb4  1  0.25000000  0.75000000  0.50000000  1
  Sb  Sb5  1  0.67632077  0.24468562  0.93943323  1
