# generated using pymatgen
data_LiF
_symmetry_space_group_name_H-M   'P 1'
_cell_length_a   13.75753529
_cell_length_b   6.65976933
_cell_length_c   7.18594060
_cell_angle_alpha   90.00000000
_cell_angle_beta   90.00000000
_cell_angle_gamma   90.00000000
_symmetry_Int_Tables_number   1
_chemical_formula_structural   LiF
_chemical_formula_sum   'Li24 F24'
_cell_volume   658.39033264
_cell_formula_units_Z   24
loop_
 _symmetry_equiv_pos_site_id
 _symmetry_equiv_pos_as_xyz
  1  'x, y, z'
loop_
 _atom_site_type_symbol
 _atom_site_label
 _atom_site_symmetry_multiplicity
 _atom_site_fract_x
 _atom_site_fract_y
 _atom_site_fract_z
 _atom_site_occupancy
  F  F0  1  0.60289747  0.06157983  0.38350478  1
  F  F1  1  0.89710253  0.93842017  0.88350478  1
  F  F2  1  0.39710253  0.56157983  0.61649522  1
  F  F3  1  0.10289747  0.43842017  0.11649522  1
  F  F4  1  0.39710253  0.93842017  0.61649522  1
  F  F5  1  0.10289747  0.06157983  0.11649522  1
  F  F6  1  0.60289747  0.43842017  0.38350478  1
  F  F7  1  0.89710253  0.56157983  0.88350478  1
  F  F8  1  0.79867372  0.67560808  0.25943976  1
  F  F9  1  0.70132628  0.32439192  0.75943976  1
  F  F10  1  0.20132628  0.17560808  0.74056024  1
  F  F11  1  0.29867372  0.82439192  0.24056024  1
  F  F12  1  0.20132628  0.32439192  0.74056024  1
  F  F13  1  0.29867372  0.67560808  0.24056024  1
  F  F14  1  0.79867372  0.82439192  0.25943976  1
  F  F15  1  0.70132628  0.17560808  0.75943976  1
  F  F16  1  0.55369616  0.86823245  0.58917179  1
  F  F17  1  0.94630384  0.13176755  0.08917179  1
  F  F18  1  0.44630384  0.36823245  0.41082821  1
  F  F19  1  0.05369616  0.63176755  0.91082821  1
  F  F20  1  0.44630384  0.13176755  0.41082821  1
  F  F21  1  0.05369616  0.86823245  0.91082821  1
  F  F22  1  0.55369616  0.63176755  0.58917179  1
  F  F23  1  0.94630384  0.36823245  0.08917179  1
  Li  Li24  1  0.86389444  0.49928159  0.24652301  1
  Li  Li25  1  -0.36389444  -0.49928159  0.74652301  1
  Li  Li26  1  -0.86389444  0.99928159  -0.24652301  1
  Li  Li27  1  1.36389444  0.00071841  0.25347699  1
  Li  Li28  1  -0.86389444  -0.49928159  -0.24652301  1
  Li  Li29  1  1.36389444  0.49928159  0.25347699  1
  Li  Li30  1  0.86389444  0.00071841  0.24652301  1
  Li  Li31  1  -0.36389444  0.99928159  0.74652301  1
  Li  Li32  1  0.54914081  0.86708651  0.43718972  1
  Li  Li33  1  0.95085919  0.13291349  0.93718972  1
  Li  Li34  1  0.45085919  0.36708651  0.56281028  1
  Li  Li35  1  0.04914081  0.63291349  0.06281028  1
  Li  Li36  1  0.45085919  0.13291349  0.56281028  1
  Li  Li37  1  0.04914081  0.86708651  0.06281028  1
  Li  Li38  1  0.54914081  0.63291349  0.43718972  1
  Li  Li39  1  0.95085919  0.36708651  0.93718972  1
  Li  Li40  1  0.09161335  0.25000000  0.35774085  1
  Li  Li41  1  0.40838665  0.75000000  0.85774085  1
  Li  Li42  1  0.90838665  0.75000000  0.64225915  1
  Li  Li43  1  0.59161335  0.25000000  0.14225915  1
  Li  Li44  1  0.00000000  0.00000000  0.50000000  1
  Li  Li45  1  0.50000000  0.00000000  0.00000000  1
  Li  Li46  1  0.00000000  0.50000000  0.50000000  1
  Li  Li47  1  0.50000000  0.50000000  0.00000000  1
