# generated using pymatgen
data_Li2YAs2P3
_symmetry_space_group_name_H-M   'P 1'
_cell_length_a   5.36921952
_cell_length_b   5.40484214
_cell_length_c   7.22769758
_cell_angle_alpha   94.91911042
_cell_angle_beta   100.40030905
_cell_angle_gamma   108.23950758
_symmetry_Int_Tables_number   1
_chemical_formula_structural   Li2YAs2P3
_chemical_formula_sum   'Li2 Y1 As2 P3'
_cell_volume   193.64986893
_cell_formula_units_Z   1
loop_
 _symmetry_equiv_pos_site_id
 _symmetry_equiv_pos_as_xyz
  1  'x, y, z'
loop_
 _atom_site_type_symbol
 _atom_site_label
 _atom_site_symmetry_multiplicity
 _atom_site_fract_x
 _atom_site_fract_y
 _atom_site_fract_z
 _atom_site_occupancy
  P  P0  1  0.12500000  0.00000000  0.25000000  1
  P  P1  1  0.00000000  0.00000000  0.00000000  1
  P  P2  1  0.37500000  0.00000000  0.25000000  1
  As  As3  1  0.25000000  0.25000000  0.25000000  1
  As  As4  1  0.00000000  0.25000000  0.12500000  1
  Li  Li5  1  0.73064080  0.52602588  0.71500521  1
  Li  Li6  1  0.80422919  0.46911006  0.00786608  1
  Y  Y7  1  0.99091362  0.65118506  0.45053525  1
