# generated using pymatgen
data_Li2Y(SbP)2
_symmetry_space_group_name_H-M   'P 1'
_cell_length_a   5.34887448
_cell_length_b   5.35876256
_cell_length_c   7.33441897
_cell_angle_alpha   95.18289353
_cell_angle_beta   100.61636067
_cell_angle_gamma   107.55724769
_symmetry_Int_Tables_number   1
_chemical_formula_structural   Li2Y(SbP)2
_chemical_formula_sum   'Li2 Y1 Sb2 P2'
_cell_volume   194.60205645
_cell_formula_units_Z   1
loop_
 _symmetry_equiv_pos_site_id
 _symmetry_equiv_pos_as_xyz
  1  'x, y, z'
loop_
 _atom_site_type_symbol
 _atom_site_label
 _atom_site_symmetry_multiplicity
 _atom_site_fract_x
 _atom_site_fract_y
 _atom_site_fract_z
 _atom_site_occupancy
  Y  Y0  1  0.12500000  0.00000000  0.25000000  1
  P  P1  1  0.00000000  0.00000000  0.00000000  1
  P  P2  1  0.37500000  0.00000000  0.25000000  1
  Li  Li3  1  0.25000000  0.25000000  0.25000000  1
  Li  Li4  1  0.00000000  0.25000000  0.12500000  1
  Sb  Sb5  1  0.99618116  0.62942165  0.87638245  1
  Sb  Sb6  1  0.75861790  0.55487368  0.38448510  1
