# generated using pymatgen
data_LiF
_symmetry_space_group_name_H-M   'P 1'
_cell_length_a   11.08616408
_cell_length_b   4.83402406
_cell_length_c   7.57169044
_cell_angle_alpha   90.00000000
_cell_angle_beta   90.00000000
_cell_angle_gamma   90.00000000
_symmetry_Int_Tables_number   1
_chemical_formula_structural   LiF
_chemical_formula_sum   'Li24 F24'
_cell_volume   405.77282536
_cell_formula_units_Z   24
loop_
 _symmetry_equiv_pos_site_id
 _symmetry_equiv_pos_as_xyz
  1  'x, y, z'
loop_
 _atom_site_type_symbol
 _atom_site_label
 _atom_site_symmetry_multiplicity
 _atom_site_fract_x
 _atom_site_fract_y
 _atom_site_fract_z
 _atom_site_occupancy
  F  F0  1  0.91238323  0.10810625  0.39254570  1
  F  F1  1  0.58761677  0.89189375  0.89254570  1
  F  F2  1  0.08761677  0.60810625  0.60745430  1
  F  F3  1  0.41238323  0.39189375  0.10745430  1
  F  F4  1  0.08761677  0.89189375  0.60745430  1
  F  F5  1  0.41238323  0.10810625  0.10745430  1
  F  F6  1  0.91238323  0.39189375  0.39254570  1
  F  F7  1  0.58761677  0.60810625  0.89254570  1
  F  F8  1  0.90733225  0.18346275  0.14800380  1
  F  F9  1  0.59266775  0.81653725  0.64800380  1
  F  F10  1  0.09266775  0.68346275  0.85199620  1
  F  F11  1  0.40733225  0.31653725  0.35199620  1
  F  F12  1  0.09266775  0.81653725  0.85199620  1
  F  F13  1  0.40733225  0.18346275  0.35199620  1
  F  F14  1  0.90733225  0.31653725  0.14800380  1
  F  F15  1  0.59266775  0.68346275  0.64800380  1
  F  F16  1  0.14461071  0.16539320  0.35991736  1
  F  F17  1  0.35538929  0.83460680  0.85991736  1
  F  F18  1  0.85538929  0.66539320  0.64008264  1
  F  F19  1  0.64461071  0.33460680  0.14008264  1
  F  F20  1  0.85538929  0.83460680  0.64008264  1
  F  F21  1  0.64461071  0.16539320  0.14008264  1
  F  F22  1  0.14461071  0.33460680  0.35991736  1
  F  F23  1  0.35538929  0.66539320  0.85991736  1
  Li  Li24  1  0.88386250  0.53225450  0.82799845  1
  Li  Li25  1  -0.38386250  -0.53225450  1.32799845  1
  Li  Li26  1  -0.88386250  1.03225450  -0.82799845  1
  Li  Li27  1  1.38386250  -0.03225450  -0.32799845  1
  Li  Li28  1  -0.88386250  -0.53225450  -0.82799845  1
  Li  Li29  1  1.38386250  0.53225450  -0.32799845  1
  Li  Li30  1  0.88386250  -0.03225450  0.82799845  1
  Li  Li31  1  -0.38386250  1.03225450  1.32799845  1
  Li  Li32  1  0.04270998  0.25000000  0.94392915  1
  Li  Li33  1  0.45729002  0.75000000  0.44392915  1
  Li  Li34  1  0.95729002  0.75000000  0.05607085  1
  Li  Li35  1  0.54270998  0.25000000  0.55607085  1
  Li  Li36  1  0.38558664  0.25000000  0.96725469  1
  Li  Li37  1  0.11441336  0.75000000  0.46725469  1
  Li  Li38  1  0.61441336  0.75000000  0.03274531  1
  Li  Li39  1  0.88558664  0.25000000  0.53274531  1
  Li  Li40  1  0.00000000  0.00000000  0.50000000  1
  Li  Li41  1  0.50000000  -0.00000000  0.00000000  1
  Li  Li42  1  0.00000000  0.50000000  0.50000000  1
  Li  Li43  1  0.50000000  0.50000000  0.00000000  1
  Li  Li44  1  0.78605032  0.25000000  0.80511119  1
  Li  Li45  1  0.71394968  0.75000000  0.30511119  1
  Li  Li46  1  0.21394968  0.75000000  0.19488881  1
  Li  Li47  1  0.28605032  0.25000000  0.69488881  1
