# generated using pymatgen
data_Li4Hf3(SBr2)4
_symmetry_space_group_name_H-M   'P 1'
_cell_length_a   9.80528485
_cell_length_b   9.80528485
_cell_length_c   18.56434982
_cell_angle_alpha   90.00000000
_cell_angle_beta   90.00000000
_cell_angle_gamma   120.00000000
_symmetry_Int_Tables_number   1
_chemical_formula_structural   Li4Hf3(SBr2)4
_chemical_formula_sum   'Li16 Hf12 S16 Br32'
_cell_volume   1545.71992341
_cell_formula_units_Z   4
loop_
 _symmetry_equiv_pos_site_id
 _symmetry_equiv_pos_as_xyz
  1  'x, y, z'
loop_
 _atom_site_type_symbol
 _atom_site_label
 _atom_site_symmetry_multiplicity
 _atom_site_fract_x
 _atom_site_fract_y
 _atom_site_fract_z
 _atom_site_occupancy
  Br  Br0  1  0.33333333  0.66666667  0.57331456  1
  Br  Br1  1  0.66666667  0.33333333  0.07331456  1
  Br  Br2  1  0.66666667  0.33333333  0.42668544  1
  Br  Br3  1  0.33333333  0.66666667  0.92668544  1
  Br  Br4  1  0.33333333  0.66666667  0.25000000  1
  Br  Br5  1  0.66666667  0.33333333  0.75000000  1
  Br  Br6  1  0.06633854  0.54769479  0.98587073  1
  Br  Br7  1  -0.54769479  -0.48135625  0.98587073  1
  Br  Br8  1  0.48135625  -0.06633854  0.98587073  1
  Br  Br9  1  -0.06633854  -0.54769479  1.48587073  1
  Br  Br10  1  0.54769479  0.48135625  1.48587073  1
  Br  Br11  1  -0.48135625  0.06633854  1.48587073  1
  Br  Br12  1  -0.06633854  -0.54769479  -0.98587073  1
  Br  Br13  1  0.54769479  0.48135625  -0.98587073  1
  Br  Br14  1  -0.48135625  0.06633854  -0.98587073  1
  Br  Br15  1  0.06633854  0.54769479  -0.48587073  1
  Br  Br16  1  -0.54769479  -0.48135625  -0.48587073  1
  Br  Br17  1  0.48135625  -0.06633854  -0.48587073  1
  Br  Br18  1  0.42448907  0.21424319  0.16621180  1
  Br  Br19  1  0.78575681  0.21024589  0.16621180  1
  Br  Br20  1  0.78975411  0.57551093  0.16621180  1
  Br  Br21  1  0.57551093  0.78575681  0.66621180  1
  Br  Br22  1  0.21424319  0.78975411  0.66621180  1
  Br  Br23  1  0.21024589  0.42448907  0.66621180  1
  Br  Br24  1  0.57551093  0.78575681  0.83378820  1
  Br  Br25  1  0.21424319  0.78975411  0.83378820  1
  Br  Br26  1  0.21024589  0.42448907  0.83378820  1
  Br  Br27  1  0.42448907  0.21424319  0.33378820  1
  Br  Br28  1  0.78575681  0.21024589  0.33378820  1
  Br  Br29  1  0.78975411  0.57551093  0.33378820  1
  Br  Br30  1  0.00000000  0.00000000  0.25000000  1
  Br  Br31  1  0.00000000  0.00000000  0.75000000  1
  Hf  Hf32  1  0.84106940  0.18965805  0.99853301  1
  Hf  Hf33  1  0.81034195  0.65141134  0.99853301  1
  Hf  Hf34  1  0.34858866  0.15893060  0.99853301  1
  Hf  Hf35  1  0.15893060  0.81034195  0.49853301  1
  Hf  Hf36  1  0.18965805  0.34858866  0.49853301  1
  Hf  Hf37  1  0.65141134  0.84106940  0.49853301  1
  Hf  Hf38  1  0.15893060  0.81034195  0.00146699  1
  Hf  Hf39  1  0.18965805  0.34858866  0.00146699  1
  Hf  Hf40  1  0.65141134  0.84106940  0.00146699  1
  Hf  Hf41  1  0.84106940  0.18965805  0.50146699  1
  Hf  Hf42  1  0.81034195  0.65141134  0.50146699  1
  Hf  Hf43  1  0.34858866  0.15893060  0.50146699  1
  Li  Li44  1  0.33896348  0.56889664  0.31494313  1
  Li  Li45  1  0.43110336  0.77006684  0.31494313  1
  Li  Li46  1  0.22993316  0.66103652  0.31494313  1
  Li  Li47  1  0.66103652  0.43110336  0.81494313  1
  Li  Li48  1  0.56889664  0.22993316  0.81494313  1
  Li  Li49  1  0.77006684  0.33896348  0.81494313  1
  Li  Li50  1  0.66103652  0.43110336  0.68505687  1
  Li  Li51  1  0.56889664  0.22993316  0.68505687  1
  Li  Li52  1  0.77006684  0.33896348  0.68505687  1
  Li  Li53  1  0.33896348  0.56889664  0.18505687  1
  Li  Li54  1  0.43110336  0.77006684  0.18505687  1
  Li  Li55  1  0.22993316  0.66103652  0.18505687  1
  Li  Li56  1  0.00000000  0.00000000  0.67761780  1
  Li  Li57  1  0.00000000  0.00000000  0.17761780  1
  Li  Li58  1  0.00000000  0.00000000  0.32238220  1
  Li  Li59  1  0.00000000  0.00000000  0.82238220  1
  S  S60  1  0.66666667  0.33333333  0.25000000  1
  S  S61  1  0.33333333  0.66666667  0.75000000  1
  S  S62  1  0.91329451  0.90384035  0.37597768  1
  S  S63  1  0.09615965  0.00945417  0.37597768  1
  S  S64  1  0.99054583  0.08670549  0.37597768  1
  S  S65  1  0.08670549  0.09615965  0.87597768  1
  S  S66  1  0.90384035  0.99054583  0.87597768  1
  S  S67  1  0.00945417  0.91329451  0.87597768  1
  S  S68  1  0.08670549  0.09615965  0.62402232  1
  S  S69  1  0.90384035  0.99054583  0.62402232  1
  S  S70  1  0.00945417  0.91329451  0.62402232  1
  S  S71  1  0.91329451  0.90384035  0.12402232  1
  S  S72  1  0.09615965  0.00945417  0.12402232  1
  S  S73  1  0.99054583  0.08670549  0.12402232  1
  S  S74  1  0.00000000  0.00000000  0.00000000  1
  S  S75  1  0.00000000  0.00000000  0.50000000  1
