# generated using pymatgen
data_LiF
_symmetry_space_group_name_H-M   'P 1'
_cell_length_a   6.62875118
_cell_length_b   6.62875118
_cell_length_c   10.57437340
_cell_angle_alpha   90.00000000
_cell_angle_beta   90.00000000
_cell_angle_gamma   120.00000000
_symmetry_Int_Tables_number   1
_chemical_formula_structural   LiF
_chemical_formula_sum   'Li12 F12'
_cell_volume   402.39141745
_cell_formula_units_Z   12
loop_
 _symmetry_equiv_pos_site_id
 _symmetry_equiv_pos_as_xyz
  1  'x, y, z'
loop_
 _atom_site_type_symbol
 _atom_site_label
 _atom_site_symmetry_multiplicity
 _atom_site_fract_x
 _atom_site_fract_y
 _atom_site_fract_z
 _atom_site_occupancy
  F  F0  1  0.65394155  0.77005281  0.05130221  1
  F  F1  1  -0.77005281  -0.11611127  0.05130221  1
  F  F2  1  0.11611127  -0.65394155  0.05130221  1
  F  F3  1  0.65394155  0.77005281  -0.05130221  1
  F  F4  1  -0.77005281  -0.11611127  -0.05130221  1
  F  F5  1  0.11611127  -0.65394155  -0.05130221  1
  F  F6  1  0.77005281  0.65394155  -0.05130221  1
  F  F7  1  -0.11611127  -0.77005281  -0.05130221  1
  F  F8  1  -0.65394155  0.11611127  -0.05130221  1
  F  F9  1  0.77005281  0.65394155  0.05130221  1
  F  F10  1  -0.11611127  -0.77005281  0.05130221  1
  F  F11  1  -0.65394155  0.11611127  0.05130221  1
  Li  Li12  1  0.21581649  0.00000000  0.35932167  1
  Li  Li13  1  0.00000000  0.21581649  0.35932167  1
  Li  Li14  1  0.78418351  0.78418351  0.35932167  1
  Li  Li15  1  0.21581649  0.00000000  0.64067833  1
  Li  Li16  1  0.00000000  0.21581649  0.64067833  1
  Li  Li17  1  0.78418351  0.78418351  0.64067833  1
  Li  Li18  1  0.00000000  0.00000000  0.00000000  1
  Li  Li19  1  0.33333333  0.66666667  0.80385435  1
  Li  Li20  1  0.33333333  0.66666667  0.19614565  1
  Li  Li21  1  0.66666667  0.33333333  0.19614565  1
  Li  Li22  1  0.66666667  0.33333333  0.80385435  1
  Li  Li23  1  0.00000000  0.00000000  0.50000000  1
