# generated using pymatgen
data_LiF
_symmetry_space_group_name_H-M   'P 1'
_cell_length_a   7.14588891
_cell_length_b   7.14588891
_cell_length_c   7.05056800
_cell_angle_alpha   90.00000000
_cell_angle_beta   90.00000000
_cell_angle_gamma   120.00000000
_symmetry_Int_Tables_number   1
_chemical_formula_structural   LiF
_chemical_formula_sum   'Li14 F14'
_cell_volume   311.79364431
_cell_formula_units_Z   14
loop_
 _symmetry_equiv_pos_site_id
 _symmetry_equiv_pos_as_xyz
  1  'x, y, z'
loop_
 _atom_site_type_symbol
 _atom_site_label
 _atom_site_symmetry_multiplicity
 _atom_site_fract_x
 _atom_site_fract_y
 _atom_site_fract_z
 _atom_site_occupancy
  F  F0  1  0.49005921  0.98011843  0.25000000  1
  F  F1  1  0.01988157  0.50994079  0.25000000  1
  F  F2  1  0.49005921  0.50994079  0.25000000  1
  F  F3  1  0.50994079  0.01988157  0.75000000  1
  F  F4  1  0.98011843  0.49005921  0.75000000  1
  F  F5  1  0.50994079  0.49005921  0.75000000  1
  F  F6  1  0.33333333  0.66666667  0.25000000  1
  F  F7  1  0.66666667  0.33333333  0.75000000  1
  F  F8  1  0.50000000  -0.00000000  0.00000000  1
  F  F9  1  0.00000000  0.50000000  0.00000000  1
  F  F10  1  0.50000000  0.50000000  0.00000000  1
  F  F11  1  0.50000000  -0.00000000  0.50000000  1
  F  F12  1  0.00000000  0.50000000  0.50000000  1
  F  F13  1  0.50000000  0.50000000  0.50000000  1
  Li  Li14  1  0.33333333  0.66666667  0.75000000  1
  Li  Li15  1  0.66666667  0.33333333  0.25000000  1
  Li  Li16  1  0.20128645  0.40257289  0.10413457  1
  Li  Li17  1  -0.40257289  -0.20128645  0.10413457  1
  Li  Li18  1  0.20128645  -0.20128645  0.10413457  1
  Li  Li19  1  -0.20128645  -0.40257289  0.60413457  1
  Li  Li20  1  0.40257289  0.20128645  0.60413457  1
  Li  Li21  1  -0.20128645  0.20128645  0.60413457  1
  Li  Li22  1  0.40257289  0.20128645  -0.10413457  1
  Li  Li23  1  -0.20128645  -0.40257289  -0.10413457  1
  Li  Li24  1  -0.20128645  0.20128645  -0.10413457  1
  Li  Li25  1  -0.40257289  -0.20128645  0.39586543  1
  Li  Li26  1  0.20128645  0.40257289  0.39586543  1
  Li  Li27  1  0.20128645  -0.20128645  0.39586543  1
