# generated using pymatgen
data_LiSb2Te4P2Se
_symmetry_space_group_name_H-M   'P 1'
_cell_length_a   4.29888536
_cell_length_b   4.59344310
_cell_length_c   6.08557310
_cell_angle_alpha   95.72276607
_cell_angle_beta   99.72992105
_cell_angle_gamma   106.28976499
_symmetry_Int_Tables_number   1
_chemical_formula_structural   LiSb2Te4P2Se
_chemical_formula_sum   'Li1 Sb2 Te4 P2 Se1'
_cell_volume   112.30344360
_cell_formula_units_Z   1
loop_
 _symmetry_equiv_pos_site_id
 _symmetry_equiv_pos_as_xyz
  1  'x, y, z'
loop_
 _atom_site_type_symbol
 _atom_site_label
 _atom_site_symmetry_multiplicity
 _atom_site_fract_x
 _atom_site_fract_y
 _atom_site_fract_z
 _atom_site_occupancy
  Se  Se0  1  0.00000000  0.00000000  0.00000000  1
  Te  Te1  1  0.50000000  0.50000000  0.50000000  1
  Te  Te2  1  0.25000000  0.25000000  0.25000000  1
  Te  Te3  1  0.75000000  0.25000000  0.00000000  1
  Te  Te4  1  0.25000000  0.75000000  0.50000000  1
  P  P5  1  0.08392370  0.18773048  0.81605588  1
  P  P6  1  0.87689025  0.15536146  0.12111728  1
  Li  Li7  1  0.59497476  0.11604352  0.92717768  1
  Sb  Sb8  1  0.42355062  0.13689810  0.01936693  1
  Sb  Sb9  1  0.05456445  0.62385909  0.37222626  1
