# generated using pymatgen
data_Li2YAs2P3
_symmetry_space_group_name_H-M   'P 1'
_cell_length_a   4.60371270
_cell_length_b   4.81264111
_cell_length_c   6.98296179
_cell_angle_alpha   95.75060990
_cell_angle_beta   102.34941707
_cell_angle_gamma   112.25128231
_symmetry_Int_Tables_number   1
_chemical_formula_structural   Li2YAs2P3
_chemical_formula_sum   'Li2 Y1 As2 P3'
_cell_volume   137.04244314
_cell_formula_units_Z   1
loop_
 _symmetry_equiv_pos_site_id
 _symmetry_equiv_pos_as_xyz
  1  'x, y, z'
loop_
 _atom_site_type_symbol
 _atom_site_label
 _atom_site_symmetry_multiplicity
 _atom_site_fract_x
 _atom_site_fract_y
 _atom_site_fract_z
 _atom_site_occupancy
  P  P0  1  0.00000000  0.00000000  0.00000000  1
  P  P1  1  0.33300000  0.66700000  0.25000000  1
  P  P2  1  0.66700000  0.33300000  0.50000000  1
  As  As3  1  0.00000000  0.00000000  0.75000000  1
  As  As4  1  0.90503831  0.92761254  0.79046944  1
  Li  Li5  1  0.00366517  0.09809266  0.11354679  1
  Li  Li6  1  0.62050539  0.60096269  0.46287780  1
  Y  Y7  1  0.42112794  0.15507715  0.32298800  1
