# generated using pymatgen
data_LiF
_symmetry_space_group_name_H-M   'P 1'
_cell_length_a   8.07012760
_cell_length_b   6.27262376
_cell_length_c   8.29601475
_cell_angle_alpha   90.00000000
_cell_angle_beta   90.00000000
_cell_angle_gamma   90.00000000
_symmetry_Int_Tables_number   1
_chemical_formula_structural   LiF
_chemical_formula_sum   'Li22 F22'
_cell_volume   419.95151805
_cell_formula_units_Z   22
loop_
 _symmetry_equiv_pos_site_id
 _symmetry_equiv_pos_as_xyz
  1  'x, y, z'
loop_
 _atom_site_type_symbol
 _atom_site_label
 _atom_site_symmetry_multiplicity
 _atom_site_fract_x
 _atom_site_fract_y
 _atom_site_fract_z
 _atom_site_occupancy
  F  F0  1  0.00000000  0.00000000  0.29906625  1
  F  F1  1  0.50000000  0.50000000  0.20093375  1
  F  F2  1  0.00000000  0.00000000  0.70093375  1
  F  F3  1  0.50000000  0.50000000  0.79906625  1
  F  F4  1  0.75287920  0.27414050  0.05401087  1
  F  F5  1  -0.75287920  -0.27414050  0.05401087  1
  F  F6  1  -0.25287920  0.77414050  0.44598913  1
  F  F7  1  1.25287920  0.22585950  0.44598913  1
  F  F8  1  -0.75287920  -0.27414050  -0.05401087  1
  F  F9  1  0.75287920  0.27414050  -0.05401087  1
  F  F10  1  1.25287920  0.22585950  0.55401087  1
  F  F11  1  -0.25287920  0.77414050  0.55401087  1
  F  F12  1  0.31442532  0.97641564  0.23541919  1
  F  F13  1  0.68557468  0.02358436  0.23541919  1
  F  F14  1  0.18557468  0.47641564  0.26458081  1
  F  F15  1  0.81442532  0.52358436  0.26458081  1
  F  F16  1  0.68557468  0.02358436  0.76458081  1
  F  F17  1  0.31442532  0.97641564  0.76458081  1
  F  F18  1  0.81442532  0.52358436  0.73541919  1
  F  F19  1  0.18557468  0.47641564  0.73541919  1
  F  F20  1  0.00000000  0.50000000  0.50000000  1
  F  F21  1  0.50000000  0.00000000  0.00000000  1
  Li  Li22  1  0.00000000  0.50000000  0.00000000  1
  Li  Li23  1  0.50000000  0.00000000  0.50000000  1
  Li  Li24  1  0.29839312  0.76486004  0.77064178  1
  Li  Li25  1  0.70160688  0.23513996  0.77064178  1
  Li  Li26  1  0.20160688  0.26486004  0.72935822  1
  Li  Li27  1  0.79839312  0.73513996  0.72935822  1
  Li  Li28  1  0.70160688  0.23513996  0.22935822  1
  Li  Li29  1  0.29839312  0.76486004  0.22935822  1
  Li  Li30  1  0.79839312  0.73513996  0.27064178  1
  Li  Li31  1  0.20160688  0.26486004  0.27064178  1
  Li  Li32  1  0.27651495  0.47141588  0.80401724  1
  Li  Li33  1  0.72348505  0.52858412  0.80401724  1
  Li  Li34  1  0.22348505  0.97141588  0.69598276  1
  Li  Li35  1  0.77651495  0.02858412  0.69598276  1
  Li  Li36  1  0.72348505  0.52858412  0.19598276  1
  Li  Li37  1  0.27651495  0.47141588  0.19598276  1
  Li  Li38  1  0.77651495  0.02858412  0.30401724  1
  Li  Li39  1  0.22348505  0.97141588  0.30401724  1
  Li  Li40  1  0.00000000  0.50000000  0.23266053  1
  Li  Li41  1  0.50000000  0.00000000  0.26733947  1
  Li  Li42  1  0.00000000  0.50000000  0.76733947  1
  Li  Li43  1  0.50000000  0.00000000  0.73266053  1
