# generated using pymatgen
data_LiF
_symmetry_space_group_name_H-M   'P 1'
_cell_length_a   8.58259608
_cell_length_b   5.26262954
_cell_length_c   12.65604773
_cell_angle_alpha   90.00000000
_cell_angle_beta   90.00000000
_cell_angle_gamma   90.00000000
_symmetry_Int_Tables_number   1
_chemical_formula_structural   LiF
_chemical_formula_sum   'Li24 F24'
_cell_volume   571.63600736
_cell_formula_units_Z   24
loop_
 _symmetry_equiv_pos_site_id
 _symmetry_equiv_pos_as_xyz
  1  'x, y, z'
loop_
 _atom_site_type_symbol
 _atom_site_label
 _atom_site_symmetry_multiplicity
 _atom_site_fract_x
 _atom_site_fract_y
 _atom_site_fract_z
 _atom_site_occupancy
  F  F0  1  0.46387073  0.85800286  0.27238087  1
  F  F1  1  0.03612927  0.14199714  0.77238087  1
  F  F2  1  0.53612927  0.35800286  0.72761913  1
  F  F3  1  0.96387073  0.64199714  0.22761913  1
  F  F4  1  0.53612927  0.14199714  0.72761913  1
  F  F5  1  0.96387073  0.85800286  0.22761913  1
  F  F6  1  0.46387073  0.64199714  0.27238087  1
  F  F7  1  0.03612927  0.35800286  0.77238087  1
  F  F8  1  0.69441442  0.25000000  0.67843061  1
  F  F9  1  0.80558558  0.75000000  0.17843061  1
  F  F10  1  0.30558558  0.75000000  0.32156939  1
  F  F11  1  0.19441442  0.25000000  0.82156939  1
  F  F12  1  0.01732927  0.31011102  0.41937692  1
  F  F13  1  0.48267073  0.68988898  0.91937692  1
  F  F14  1  0.98267073  0.81011102  0.58062308  1
  F  F15  1  0.51732927  0.18988898  0.08062308  1
  F  F16  1  0.98267073  0.68988898  0.58062308  1
  F  F17  1  0.51732927  0.31011102  0.08062308  1
  F  F18  1  0.01732927  0.18988898  0.41937692  1
  F  F19  1  0.48267073  0.81011102  0.91937692  1
  F  F20  1  0.00000000  0.00000000  0.00000000  1
  F  F21  1  0.50000000  0.00000000  0.50000000  1
  F  F22  1  0.00000000  0.50000000  0.00000000  1
  F  F23  1  0.50000000  0.50000000  0.50000000  1
  Li  Li24  1  0.61057497  0.52496645  0.25296135  1
  Li  Li25  1  -0.11057497  -0.52496645  0.75296135  1
  Li  Li26  1  -0.61057497  1.02496645  -0.25296135  1
  Li  Li27  1  1.11057497  -0.02496645  0.24703865  1
  Li  Li28  1  -0.61057497  -0.52496645  -0.25296135  1
  Li  Li29  1  1.11057497  0.52496645  0.24703865  1
  Li  Li30  1  0.61057497  -0.02496645  0.25296135  1
  Li  Li31  1  -0.11057497  1.02496645  0.75296135  1
  Li  Li32  1  0.96834101  0.12162256  0.21921739  1
  Li  Li33  1  0.53165899  0.87837744  0.71921739  1
  Li  Li34  1  0.03165899  0.62162256  0.78078261  1
  Li  Li35  1  0.46834101  0.37837744  0.28078261  1
  Li  Li36  1  0.03165899  0.87837744  0.78078261  1
  Li  Li37  1  0.46834101  0.12162256  0.28078261  1
  Li  Li38  1  0.96834101  0.37837744  0.21921739  1
  Li  Li39  1  0.53165899  0.62162256  0.71921739  1
  Li  Li40  1  0.90445159  0.53594159  0.04532598  1
  Li  Li41  1  0.59554841  0.46405841  0.54532598  1
  Li  Li42  1  0.09554841  0.03594159  0.95467402  1
  Li  Li43  1  0.40445159  0.96405841  0.45467402  1
  Li  Li44  1  0.09554841  0.46405841  0.95467402  1
  Li  Li45  1  0.40445159  0.53594159  0.45467402  1
  Li  Li46  1  0.90445159  0.96405841  0.04532598  1
  Li  Li47  1  0.59554841  0.03594159  0.54532598  1
