# generated using pymatgen
data_LiF
_symmetry_space_group_name_H-M   'P 1'
_cell_length_a   11.36384859
_cell_length_b   11.36384859
_cell_length_c   5.82761405
_cell_angle_alpha   90.00000000
_cell_angle_beta   90.00000000
_cell_angle_gamma   90.00000000
_symmetry_Int_Tables_number   1
_chemical_formula_structural   LiF
_chemical_formula_sum   'Li22 F22'
_cell_volume   752.56091440
_cell_formula_units_Z   22
loop_
 _symmetry_equiv_pos_site_id
 _symmetry_equiv_pos_as_xyz
  1  'x, y, z'
loop_
 _atom_site_type_symbol
 _atom_site_label
 _atom_site_symmetry_multiplicity
 _atom_site_fract_x
 _atom_site_fract_y
 _atom_site_fract_z
 _atom_site_occupancy
  F  F0  1  0.10467746  0.66800852  0.68934357  1
  F  F1  1  0.89532254  0.33199148  0.68934357  1
  F  F2  1  0.33199148  0.10467746  0.68934357  1
  F  F3  1  0.66800852  0.89532254  0.68934357  1
  F  F4  1  0.89532254  0.66800852  0.31065643  1
  F  F5  1  0.10467746  0.33199148  0.31065643  1
  F  F6  1  0.66800852  0.10467746  0.31065643  1
  F  F7  1  0.33199148  0.89532254  0.31065643  1
  F  F8  1  0.89532254  0.33199148  0.31065643  1
  F  F9  1  0.10467746  0.66800852  0.31065643  1
  F  F10  1  0.66800852  0.89532254  0.31065643  1
  F  F11  1  0.33199148  0.10467746  0.31065643  1
  F  F12  1  0.10467746  0.33199148  0.68934357  1
  F  F13  1  0.89532254  0.66800852  0.68934357  1
  F  F14  1  0.33199148  0.89532254  0.68934357  1
  F  F15  1  0.66800852  0.10467746  0.68934357  1
  F  F16  1  0.76265205  0.50000000  0.50000000  1
  F  F17  1  0.23734795  0.50000000  0.50000000  1
  F  F18  1  0.50000000  0.76265205  0.50000000  1
  F  F19  1  0.50000000  0.23734795  0.50000000  1
  F  F20  1  0.00000000  0.00000000  0.15908059  1
  F  F21  1  0.00000000  0.00000000  0.84091941  1
  Li  Li22  1  0.19792394  0.70306504  0.29836097  1
  Li  Li23  1  -0.19792394  -0.70306504  0.29836097  1
  Li  Li24  1  -0.70306504  0.19792394  0.29836097  1
  Li  Li25  1  0.70306504  -0.19792394  0.29836097  1
  Li  Li26  1  -0.19792394  0.70306504  -0.29836097  1
  Li  Li27  1  0.19792394  -0.70306504  -0.29836097  1
  Li  Li28  1  0.70306504  0.19792394  -0.29836097  1
  Li  Li29  1  -0.70306504  -0.19792394  -0.29836097  1
  Li  Li30  1  -0.19792394  -0.70306504  -0.29836097  1
  Li  Li31  1  0.19792394  0.70306504  -0.29836097  1
  Li  Li32  1  0.70306504  -0.19792394  -0.29836097  1
  Li  Li33  1  -0.70306504  0.19792394  -0.29836097  1
  Li  Li34  1  0.19792394  -0.70306504  0.29836097  1
  Li  Li35  1  -0.19792394  0.70306504  0.29836097  1
  Li  Li36  1  -0.70306504  -0.19792394  0.29836097  1
  Li  Li37  1  0.70306504  0.19792394  0.29836097  1
  Li  Li38  1  0.12183028  0.12183028  -0.00000000  1
  Li  Li39  1  0.87816972  0.87816972  -0.00000000  1
  Li  Li40  1  0.87816972  0.12183028  -0.00000000  1
  Li  Li41  1  0.12183028  0.87816972  0.00000000  1
  Li  Li42  1  0.50000000  0.50000000  0.00000000  1
  Li  Li43  1  0.00000000  0.00000000  0.50000000  1
