# generated using pymatgen
data_LiF
_symmetry_space_group_name_H-M   'P 1'
_cell_length_a   15.29414016
_cell_length_b   15.29414016
_cell_length_c   8.07896724
_cell_angle_alpha   90.00000000
_cell_angle_beta   90.00000000
_cell_angle_gamma   120.00000000
_symmetry_Int_Tables_number   1
_chemical_formula_structural   LiF
_chemical_formula_sum   'Li41 F41'
_cell_volume   1636.57762935
_cell_formula_units_Z   41
loop_
 _symmetry_equiv_pos_site_id
 _symmetry_equiv_pos_as_xyz
  1  'x, y, z'
loop_
 _atom_site_type_symbol
 _atom_site_label
 _atom_site_symmetry_multiplicity
 _atom_site_fract_x
 _atom_site_fract_y
 _atom_site_fract_z
 _atom_site_occupancy
  F  F0  1  0.50249439  0.79428016  0.01183984  1
  F  F1  1  0.20571984  0.70821423  0.01183984  1
  F  F2  1  0.29178577  0.49750561  0.01183984  1
  F  F3  1  0.20571984  0.49750561  0.98816016  1
  F  F4  1  0.29178577  0.79428016  0.98816016  1
  F  F5  1  0.50249439  0.70821423  0.98816016  1
  F  F6  1  0.01543523  0.98456477  0.50000000  1
  F  F7  1  0.01543523  0.03087045  0.50000000  1
  F  F8  1  0.96912955  0.98456477  0.50000000  1
  F  F9  1  0.66666667  0.33333333  -0.00000000  1
  F  F10  1  0.21670598  0.86665022  0.00563683  1
  F  F11  1  0.13334978  0.35005576  0.00563683  1
  F  F12  1  0.64994424  0.78329402  0.00563683  1
  F  F13  1  0.13334978  0.78329402  0.99436317  1
  F  F14  1  0.64994424  0.86665022  0.99436317  1
  F  F15  1  0.21670598  0.35005576  0.99436317  1
  F  F16  1  0.06150692  0.68853133  0.79983424  1
  F  F17  1  0.31146867  0.37297558  0.79983424  1
  F  F18  1  0.62702442  0.93849308  0.79983424  1
  F  F19  1  0.31146867  0.93849308  0.20016576  1
  F  F20  1  0.62702442  0.68853133  0.20016576  1
  F  F21  1  0.06150692  0.37297558  0.20016576  1
  F  F22  1  0.33333333  0.66666667  0.00000000  1
  F  F23  1  0.72888994  0.80797567  0.27025268  1
  F  F24  1  0.19202433  0.92091427  0.27025268  1
  F  F25  1  0.07908573  0.27111006  0.27025268  1
  F  F26  1  0.19202433  0.27111006  0.72974732  1
  F  F27  1  0.07908573  0.80797567  0.72974732  1
  F  F28  1  0.72888994  0.92091427  0.72974732  1
  F  F29  1  0.67952350  0.61322676  0.73737314  1
  F  F30  1  0.38677324  0.06629673  0.73737314  1
  F  F31  1  0.93370327  0.32047650  0.73737314  1
  F  F32  1  0.38677324  0.32047650  0.26262686  1
  F  F33  1  0.93370327  0.61322676  0.26262686  1
  F  F34  1  0.67952350  0.06629673  0.26262686  1
  F  F35  1  0.97892440  0.05760288  0.17951716  1
  F  F36  1  0.94239712  0.92132152  0.17951716  1
  F  F37  1  0.07867848  0.02107560  0.17951716  1
  F  F38  1  0.94239712  0.02107560  0.82048284  1
  F  F39  1  0.07867848  0.05760288  0.82048284  1
  F  F40  1  0.97892440  0.92132152  0.82048284  1
  Li  Li41  1  0.48835087  0.51164913  0.00000000  1
  Li  Li42  1  0.48835087  0.97670174  0.00000000  1
  Li  Li43  1  0.02329826  0.51164913  0.00000000  1
  Li  Li44  1  0.46610418  0.48166125  0.33526398  1
  Li  Li45  1  -0.48166125  -0.01555707  0.33526398  1
  Li  Li46  1  0.01555707  -0.46610418  0.33526398  1
  Li  Li47  1  -0.48166125  -0.46610418  -0.33526398  1
  Li  Li48  1  0.01555707  0.48166125  -0.33526398  1
  Li  Li49  1  0.46610418  -0.01555707  -0.33526398  1
  Li  Li50  1  0.64779674  0.96002444  0.52659699  1
  Li  Li51  1  0.03997556  0.68777230  0.52659699  1
  Li  Li52  1  0.31222770  0.35220326  0.52659699  1
  Li  Li53  1  0.03997556  0.35220326  0.47340301  1
  Li  Li54  1  0.31222770  0.96002444  0.47340301  1
  Li  Li55  1  0.64779674  0.68777230  0.47340301  1
  Li  Li56  1  0.58925822  0.16491851  0.41650486  1
  Li  Li57  1  0.83508149  0.42433972  0.41650486  1
  Li  Li58  1  0.57566028  0.41074178  0.41650486  1
  Li  Li59  1  0.83508149  0.41074178  0.58349514  1
  Li  Li60  1  0.57566028  0.16491851  0.58349514  1
  Li  Li61  1  0.58925822  0.42433972  0.58349514  1
  Li  Li62  1  0.66666667  0.33333333  0.50000000  1
  Li  Li63  1  0.58249896  0.74399737  0.08982934  1
  Li  Li64  1  0.25600263  0.83850159  0.08982934  1
  Li  Li65  1  0.16149841  0.41750104  0.08982934  1
  Li  Li66  1  0.25600263  0.41750104  0.91017066  1
  Li  Li67  1  0.16149841  0.74399737  0.91017066  1
  Li  Li68  1  0.58249896  0.83850159  0.91017066  1
  Li  Li69  1  0.67800676  0.21621960  0.09908692  1
  Li  Li70  1  0.78378040  0.46178716  0.09908692  1
  Li  Li71  1  0.53821284  0.32199324  0.09908692  1
  Li  Li72  1  0.78378040  0.32199324  0.90091308  1
  Li  Li73  1  0.53821284  0.21621960  0.90091308  1
  Li  Li74  1  0.67800676  0.46178716  0.90091308  1
  Li  Li75  1  0.16163435  0.78879260  0.68318537  1
  Li  Li76  1  0.21120740  0.37284175  0.68318537  1
  Li  Li77  1  0.62715825  0.83836565  0.68318537  1
  Li  Li78  1  0.21120740  0.83836565  0.31681463  1
  Li  Li79  1  0.62715825  0.78879260  0.31681463  1
  Li  Li80  1  0.16163435  0.37284175  0.31681463  1
  Li  Li81  1  0.33333333  0.66666667  0.50000000  1
