# generated using pymatgen
data_LiF
_symmetry_space_group_name_H-M   'P 1'
_cell_length_a   13.72593289
_cell_length_b   9.58307322
_cell_length_c   11.53356546
_cell_angle_alpha   90.00000000
_cell_angle_beta   90.00000000
_cell_angle_gamma   90.00000000
_symmetry_Int_Tables_number   1
_chemical_formula_structural   LiF
_chemical_formula_sum   'Li48 F48'
_cell_volume   1517.08621745
_cell_formula_units_Z   48
loop_
 _symmetry_equiv_pos_site_id
 _symmetry_equiv_pos_as_xyz
  1  'x, y, z'
loop_
 _atom_site_type_symbol
 _atom_site_label
 _atom_site_symmetry_multiplicity
 _atom_site_fract_x
 _atom_site_fract_y
 _atom_site_fract_z
 _atom_site_occupancy
  F  F0  1  0.89163956  0.83918150  0.00000000  1
  F  F1  1  0.10836044  0.16081850  -0.00000000  1
  F  F2  1  0.60836044  0.33918150  -0.00000000  1
  F  F3  1  0.39163956  0.66081850  -0.00000000  1
  F  F4  1  0.16487206  0.52535192  0.82599404  1
  F  F5  1  -0.16487206  -0.52535192  0.82599404  1
  F  F6  1  0.33512794  1.02535192  -0.82599404  1
  F  F7  1  0.66487206  -0.02535192  -0.82599404  1
  F  F8  1  -0.16487206  -0.52535192  -0.82599404  1
  F  F9  1  0.16487206  0.52535192  -0.82599404  1
  F  F10  1  0.66487206  -0.02535192  0.82599404  1
  F  F11  1  0.33512794  1.02535192  0.82599404  1
  F  F12  1  0.99257755  0.25578659  0.61877078  1
  F  F13  1  0.00742245  0.74421341  0.61877078  1
  F  F14  1  0.50742245  0.75578659  0.38122922  1
  F  F15  1  0.49257755  0.24421341  0.38122922  1
  F  F16  1  0.00742245  0.74421341  0.38122922  1
  F  F17  1  0.99257755  0.25578659  0.38122922  1
  F  F18  1  0.49257755  0.24421341  0.61877078  1
  F  F19  1  0.50742245  0.75578659  0.61877078  1
  F  F20  1  0.24833371  0.18059782  0.82608251  1
  F  F21  1  0.75166629  0.81940218  0.82608251  1
  F  F22  1  0.25166629  0.68059782  0.17391749  1
  F  F23  1  0.74833371  0.31940218  0.17391749  1
  F  F24  1  0.75166629  0.81940218  0.17391749  1
  F  F25  1  0.24833371  0.18059782  0.17391749  1
  F  F26  1  0.74833371  0.31940218  0.82608251  1
  F  F27  1  0.25166629  0.68059782  0.82608251  1
  F  F28  1  0.00000000  0.50000000  0.50000000  1
  F  F29  1  0.50000000  0.00000000  0.50000000  1
  F  F30  1  0.11327367  0.05607084  0.00000000  1
  F  F31  1  0.88672633  0.94392916  0.00000000  1
  F  F32  1  0.38672633  0.55607084  0.00000000  1
  F  F33  1  0.61327367  0.44392916  0.00000000  1
  F  F34  1  0.11803516  0.56569970  0.36213291  1
  F  F35  1  0.88196484  0.43430030  0.36213291  1
  F  F36  1  0.38196484  0.06569970  0.63786709  1
  F  F37  1  0.61803516  0.93430030  0.63786709  1
  F  F38  1  0.88196484  0.43430030  0.63786709  1
  F  F39  1  0.11803516  0.56569970  0.63786709  1
  F  F40  1  0.61803516  0.93430030  0.36213291  1
  F  F41  1  0.38196484  0.06569970  0.36213291  1
  F  F42  1  0.82032153  0.57265455  0.50000000  1
  F  F43  1  0.17967847  0.42734545  0.50000000  1
  F  F44  1  0.67967847  0.07265455  0.50000000  1
  F  F45  1  0.32032153  0.92734545  0.50000000  1
  F  F46  1  0.00000000  0.00000000  0.50000000  1
  F  F47  1  0.50000000  0.50000000  0.50000000  1
  Li  Li48  1  0.24946366  0.20972083  0.00000000  1
  Li  Li49  1  0.75053634  0.79027917  -0.00000000  1
  Li  Li50  1  0.25053634  0.70972083  0.00000000  1
  Li  Li51  1  0.74946366  0.29027917  0.00000000  1
  Li  Li52  1  0.98058754  0.39023677  0.12301698  1
  Li  Li53  1  0.01941246  0.60976323  0.12301698  1
  Li  Li54  1  0.51941246  0.89023677  0.87698302  1
  Li  Li55  1  0.48058754  0.10976323  0.87698302  1
  Li  Li56  1  0.01941246  0.60976323  0.87698302  1
  Li  Li57  1  0.98058754  0.39023677  0.87698302  1
  Li  Li58  1  0.48058754  0.10976323  0.12301698  1
  Li  Li59  1  0.51941246  0.89023677  0.12301698  1
  Li  Li60  1  0.16861409  0.84485380  0.43507542  1
  Li  Li61  1  0.83138591  0.15514620  0.43507542  1
  Li  Li62  1  0.33138591  0.34485380  0.56492458  1
  Li  Li63  1  0.66861409  0.65514620  0.56492458  1
  Li  Li64  1  0.83138591  0.15514620  0.56492458  1
  Li  Li65  1  0.16861409  0.84485380  0.56492458  1
  Li  Li66  1  0.66861409  0.65514620  0.43507542  1
  Li  Li67  1  0.33138591  0.34485380  0.43507542  1
  Li  Li68  1  0.54435085  0.20230534  0.70873215  1
  Li  Li69  1  0.45564915  0.79769466  0.70873215  1
  Li  Li70  1  0.95564915  0.70230534  0.29126785  1
  Li  Li71  1  0.04435085  0.29769466  0.29126785  1
  Li  Li72  1  0.45564915  0.79769466  0.29126785  1
  Li  Li73  1  0.54435085  0.20230534  0.29126785  1
  Li  Li74  1  0.04435085  0.29769466  0.70873215  1
  Li  Li75  1  0.95564915  0.70230534  0.70873215  1
  Li  Li76  1  0.15171467  0.47125869  0.00000000  1
  Li  Li77  1  0.84828533  0.52874131  -0.00000000  1
  Li  Li78  1  0.34828533  0.97125869  0.00000000  1
  Li  Li79  1  0.65171467  0.02874131  -0.00000000  1
  Li  Li80  1  0.18659667  0.10105643  0.41438394  1
  Li  Li81  1  0.81340333  0.89894357  0.41438394  1
  Li  Li82  1  0.31340333  0.60105643  0.58561606  1
  Li  Li83  1  0.68659667  0.39894357  0.58561606  1
  Li  Li84  1  0.81340333  0.89894357  0.58561606  1
  Li  Li85  1  0.18659667  0.10105643  0.58561606  1
  Li  Li86  1  0.68659667  0.39894357  0.41438394  1
  Li  Li87  1  0.31340333  0.60105643  0.41438394  1
  Li  Li88  1  0.12529387  0.84680805  -0.00000000  1
  Li  Li89  1  0.87470613  0.15319195  -0.00000000  1
  Li  Li90  1  0.37470613  0.34680805  -0.00000000  1
  Li  Li91  1  0.62529387  0.65319195  0.00000000  1
  Li  Li92  1  0.10649642  0.16330088  0.50000000  1
  Li  Li93  1  0.89350358  0.83669912  0.50000000  1
  Li  Li94  1  0.39350358  0.66330088  0.50000000  1
  Li  Li95  1  0.60649642  0.33669912  0.50000000  1
