# generated using pymatgen
data_LiF
_symmetry_space_group_name_H-M   'P 1'
_cell_length_a   6.89130578
_cell_length_b   7.89653037
_cell_length_c   11.06773114
_cell_angle_alpha   90.00000000
_cell_angle_beta   90.00000000
_cell_angle_gamma   90.00000000
_symmetry_Int_Tables_number   1
_chemical_formula_structural   LiF
_chemical_formula_sum   'Li24 F24'
_cell_volume   602.27721181
_cell_formula_units_Z   24
loop_
 _symmetry_equiv_pos_site_id
 _symmetry_equiv_pos_as_xyz
  1  'x, y, z'
loop_
 _atom_site_type_symbol
 _atom_site_label
 _atom_site_symmetry_multiplicity
 _atom_site_fract_x
 _atom_site_fract_y
 _atom_site_fract_z
 _atom_site_occupancy
  F  F0  1  0.83305708  0.82894931  0.00190481  1
  F  F1  1  0.66694292  0.17105069  0.50190481  1
  F  F2  1  0.16694292  0.32894931  0.99809519  1
  F  F3  1  0.33305708  0.67105069  0.49809519  1
  F  F4  1  0.16694292  0.17105069  0.99809519  1
  F  F5  1  0.33305708  0.82894931  0.49809519  1
  F  F6  1  0.83305708  0.67105069  0.00190481  1
  F  F7  1  0.66694292  0.32894931  0.50190481  1
  F  F8  1  0.27463364  0.83223750  0.30591755  1
  F  F9  1  0.22536636  0.16776250  0.80591755  1
  F  F10  1  0.72536636  0.33223750  0.69408245  1
  F  F11  1  0.77463364  0.66776250  0.19408245  1
  F  F12  1  0.72536636  0.16776250  0.69408245  1
  F  F13  1  0.77463364  0.83223750  0.19408245  1
  F  F14  1  0.27463364  0.66776250  0.30591755  1
  F  F15  1  0.22536636  0.33223750  0.80591755  1
  F  F16  1  0.00000000  0.00000000  0.00000000  1
  F  F17  1  0.50000000  0.00000000  0.50000000  1
  F  F18  1  0.00000000  0.50000000  0.00000000  1
  F  F19  1  0.50000000  0.50000000  0.50000000  1
  F  F20  1  0.65327423  0.25000000  0.01139270  1
  F  F21  1  0.84672577  0.75000000  0.51139270  1
  F  F22  1  0.34672577  0.75000000  0.98860730  1
  F  F23  1  0.15327423  0.25000000  0.48860730  1
  Li  Li24  1  0.18727577  0.25000000  0.14432209  1
  Li  Li25  1  0.31272423  0.75000000  0.64432209  1
  Li  Li26  1  0.81272423  0.75000000  0.85567791  1
  Li  Li27  1  0.68727577  0.25000000  0.35567791  1
  Li  Li28  1  0.52741791  0.11784136  0.27509842  1
  Li  Li29  1  -0.02741791  -0.11784136  0.77509842  1
  Li  Li30  1  -0.52741791  0.61784136  -0.27509842  1
  Li  Li31  1  1.02741791  0.38215864  0.22490158  1
  Li  Li32  1  -0.52741791  -0.11784136  -0.27509842  1
  Li  Li33  1  1.02741791  0.11784136  0.22490158  1
  Li  Li34  1  0.52741791  0.38215864  0.27509842  1
  Li  Li35  1  -0.02741791  0.61784136  0.77509842  1
  Li  Li36  1  0.81196968  0.25000000  0.05858945  1
  Li  Li37  1  0.68803032  0.75000000  0.55858945  1
  Li  Li38  1  0.18803032  0.75000000  0.94141055  1
  Li  Li39  1  0.31196968  0.25000000  0.44141055  1
  Li  Li40  1  0.93644658  0.42752530  0.46238262  1
  Li  Li41  1  0.56355342  0.57247470  0.96238262  1
  Li  Li42  1  0.06355342  0.92752530  0.53761738  1
  Li  Li43  1  0.43644658  0.07247470  0.03761738  1
  Li  Li44  1  0.06355342  0.57247470  0.53761738  1
  Li  Li45  1  0.43644658  0.42752530  0.03761738  1
  Li  Li46  1  0.93644658  0.07247470  0.46238262  1
  Li  Li47  1  0.56355342  0.92752530  0.96238262  1
