# generated using pymatgen
data_Li2YAsP3Se
_symmetry_space_group_name_H-M   'P 1'
_cell_length_a   4.69413536
_cell_length_b   4.98960747
_cell_length_c   6.49119515
_cell_angle_alpha   94.51178858
_cell_angle_beta   98.53017426
_cell_angle_gamma   105.34938232
_symmetry_Int_Tables_number   1
_chemical_formula_structural   Li2YAsP3Se
_chemical_formula_sum   'Li2 Y1 As1 P3 Se1'
_cell_volume   143.87822602
_cell_formula_units_Z   1
loop_
 _symmetry_equiv_pos_site_id
 _symmetry_equiv_pos_as_xyz
  1  'x, y, z'
loop_
 _atom_site_type_symbol
 _atom_site_label
 _atom_site_symmetry_multiplicity
 _atom_site_fract_x
 _atom_site_fract_y
 _atom_site_fract_z
 _atom_site_occupancy
  Se  Se0  1  0.00000000  0.00000000  0.00000000  1
  P  P1  1  0.50000000  0.50000000  0.50000000  1
  P  P2  1  0.25000000  0.25000000  0.25000000  1
  P  P3  1  0.75000000  0.25000000  0.00000000  1
  As  As4  1  0.25000000  0.75000000  0.50000000  1
  Li  Li5  1  0.61847148  0.86160102  0.09227830  1
  Li  Li6  1  0.89717158  0.46601688  0.56619272  1
  Y  Y7  1  0.73362699  0.55749492  0.48680284  1
