# generated using pymatgen
data_Li2Ca3F8
_symmetry_space_group_name_H-M   'P 1'
_cell_length_a   5.89363968
_cell_length_b   5.89363968
_cell_length_c   57.95686507
_cell_angle_alpha   90.00000000
_cell_angle_beta   90.00000000
_cell_angle_gamma   90.00000000
_symmetry_Int_Tables_number   1
_chemical_formula_structural   Li2Ca3F8
_chemical_formula_sum   'Li16 Ca24 F64'
_cell_volume   2013.13104905
_cell_formula_units_Z   8
loop_
 _symmetry_equiv_pos_site_id
 _symmetry_equiv_pos_as_xyz
  1  'x, y, z'
loop_
 _atom_site_type_symbol
 _atom_site_label
 _atom_site_symmetry_multiplicity
 _atom_site_fract_x
 _atom_site_fract_y
 _atom_site_fract_z
 _atom_site_occupancy
  Ca  Ca0  1  0.00000000  0.00000000  0.00000000  1
  Ca  Ca1  1  0.50000000  0.00000000  0.50000000  1
  Ca  Ca2  1  0.25000000  0.75000000  0.25000000  1
  Ca  Ca3  1  0.25000000  0.25000000  0.75000000  1
  Ca  Ca4  1  0.50000000  0.50000000  0.50000000  1
  Ca  Ca5  1  0.00000000  0.50000000  0.00000000  1
  Ca  Ca6  1  0.75000000  0.25000000  0.75000000  1
  Ca  Ca7  1  0.75000000  0.75000000  0.25000000  1
  Ca  Ca8  1  0.00000000  0.25000000  0.10126224  1
  Ca  Ca9  1  0.00000000  0.75000000  0.35126224  1
  Ca  Ca10  1  0.50000000  0.25000000  0.39873776  1
  Ca  Ca11  1  0.50000000  0.75000000  0.14873776  1
  Ca  Ca12  1  0.50000000  0.75000000  0.60126224  1
  Ca  Ca13  1  0.50000000  0.25000000  0.85126224  1
  Ca  Ca14  1  0.00000000  0.75000000  0.89873776  1
  Ca  Ca15  1  0.00000000  0.25000000  0.64873776  1
  Ca  Ca16  1  0.00000000  0.00000000  0.50000000  1
  Ca  Ca17  1  0.50000000  0.00000000  0.00000000  1
  Ca  Ca18  1  0.25000000  0.75000000  0.75000000  1
  Ca  Ca19  1  0.25000000  0.25000000  0.25000000  1
  Ca  Ca20  1  0.50000000  0.50000000  0.00000000  1
  Ca  Ca21  1  0.00000000  0.50000000  0.50000000  1
  Ca  Ca22  1  0.75000000  0.25000000  0.25000000  1
  Ca  Ca23  1  0.75000000  0.75000000  0.75000000  1
  F  F24  1  0.68400029  0.93400029  0.87500000  1
  F  F25  1  0.81599971  0.06599971  0.37500000  1
  F  F26  1  0.31599971  0.43400029  0.12500000  1
  F  F27  1  0.18400029  0.56599971  0.62500000  1
  F  F28  1  0.31599971  0.06599971  0.12500000  1
  F  F29  1  0.18400029  0.93400029  0.62500000  1
  F  F30  1  0.68400029  0.56599971  0.87500000  1
  F  F31  1  0.81599971  0.43400029  0.37500000  1
  F  F32  1  0.18400029  0.43400029  0.37500000  1
  F  F33  1  0.31599971  0.56599971  0.87500000  1
  F  F34  1  0.81599971  0.93400029  0.62500000  1
  F  F35  1  0.68400029  0.06599971  0.12500000  1
  F  F36  1  0.81599971  0.56599971  0.62500000  1
  F  F37  1  0.68400029  0.43400029  0.12500000  1
  F  F38  1  0.18400029  0.06599971  0.37500000  1
  F  F39  1  0.31599971  0.93400029  0.87500000  1
  F  F40  1  0.00000000  0.17278267  0.47941975  1
  F  F41  1  0.50000000  0.82721733  0.97941975  1
  F  F42  1  0.07721733  0.75000000  0.72941975  1
  F  F43  1  0.42278267  0.25000000  0.22941975  1
  F  F44  1  0.50000000  0.17278267  0.02058025  1
  F  F45  1  0.00000000  0.82721733  0.52058025  1
  F  F46  1  0.42278267  0.75000000  0.77058025  1
  F  F47  1  0.07721733  0.25000000  0.27058025  1
  F  F48  1  0.50000000  0.67278267  0.97941975  1
  F  F49  1  0.00000000  0.32721733  0.47941975  1
  F  F50  1  0.57721733  0.25000000  0.22941975  1
  F  F51  1  0.92278267  0.75000000  0.72941975  1
  F  F52  1  0.00000000  0.67278267  0.52058025  1
  F  F53  1  0.50000000  0.32721733  0.02058025  1
  F  F54  1  0.92278267  0.25000000  0.27058025  1
  F  F55  1  0.57721733  0.75000000  0.77058025  1
  F  F56  1  0.35457300  0.54311889  0.12507913  1
  F  F57  1  0.14542700  -0.54311889  0.62507913  1
  F  F58  1  -0.29311889  1.10457300  0.37507913  1
  F  F59  1  0.79311889  -0.10457300  0.87507913  1
  F  F60  1  0.14542700  0.54311889  0.37492087  1
  F  F61  1  0.35457300  -0.54311889  -0.12507913  1
  F  F62  1  0.79311889  1.10457300  0.12492087  1
  F  F63  1  -0.29311889  -0.10457300  0.62492087  1
  F  F64  1  -0.35457300  -0.54311889  -0.12507913  1
  F  F65  1  0.85457300  0.54311889  0.37492087  1
  F  F66  1  1.29311889  -0.10457300  0.62492087  1
  F  F67  1  0.20688111  1.10457300  0.12492087  1
  F  F68  1  0.85457300  -0.54311889  0.62507913  1
  F  F69  1  -0.35457300  0.54311889  0.12507913  1
  F  F70  1  0.20688111  -0.10457300  0.87507913  1
  F  F71  1  1.29311889  1.10457300  0.37507913  1
  F  F72  1  0.85457300  1.04311889  0.62507913  1
  F  F73  1  0.64542700  -0.04311889  1.12507913  1
  F  F74  1  0.20688111  1.60457300  0.87507913  1
  F  F75  1  1.29311889  0.39542700  1.37507913  1
  F  F76  1  0.64542700  1.04311889  0.87492087  1
  F  F77  1  0.85457300  -0.04311889  0.37492087  1
  F  F78  1  1.29311889  1.60457300  0.62492087  1
  F  F79  1  0.20688111  0.39542700  1.12492087  1
  F  F80  1  0.14542700  -0.04311889  0.37492087  1
  F  F81  1  1.35457300  1.04311889  0.87492087  1
  F  F82  1  1.79311889  0.39542700  1.12492087  1
  F  F83  1  0.70688111  1.60457300  0.62492087  1
  F  F84  1  1.35457300  -0.04311889  1.12507913  1
  F  F85  1  0.14542700  1.04311889  0.62507913  1
  F  F86  1  0.70688111  0.39542700  1.37507913  1
  F  F87  1  1.79311889  1.60457300  0.87507913  1
  Li  Li88  1  0.00000000  0.25000000  0.37500000  1
  Li  Li89  1  0.00000000  0.75000000  0.62500000  1
  Li  Li90  1  0.50000000  0.75000000  0.87500000  1
  Li  Li91  1  0.50000000  0.25000000  0.12500000  1
  Li  Li92  1  0.00000000  0.75000000  0.12500000  1
  Li  Li93  1  0.50000000  0.75000000  0.37500000  1
  Li  Li94  1  0.50000000  0.25000000  0.62500000  1
  Li  Li95  1  0.00000000  0.25000000  0.87500000  1
  Li  Li96  1  0.00000000  0.25000000  0.81862968  1
  Li  Li97  1  0.00000000  0.75000000  0.06862968  1
  Li  Li98  1  0.50000000  0.25000000  0.68137032  1
  Li  Li99  1  0.50000000  0.75000000  0.43137032  1
  Li  Li100  1  0.50000000  0.75000000  0.31862968  1
  Li  Li101  1  0.50000000  0.25000000  0.56862968  1
  Li  Li102  1  0.00000000  0.75000000  0.18137032  1
  Li  Li103  1  0.00000000  0.25000000  0.93137032  1
