# generated using pymatgen
data_Li2Y2As3P2Se
_symmetry_space_group_name_H-M   'P 1'
_cell_length_a   4.82278147
_cell_length_b   5.05908608
_cell_length_c   6.53216783
_cell_angle_alpha   94.07805352
_cell_angle_beta   97.84693636
_cell_angle_gamma   104.62921212
_symmetry_Int_Tables_number   1
_chemical_formula_structural   Li2Y2As3P2Se
_chemical_formula_sum   'Li2 Y2 As3 P2 Se1'
_cell_volume   151.83670915
_cell_formula_units_Z   1
loop_
 _symmetry_equiv_pos_site_id
 _symmetry_equiv_pos_as_xyz
  1  'x, y, z'
loop_
 _atom_site_type_symbol
 _atom_site_label
 _atom_site_symmetry_multiplicity
 _atom_site_fract_x
 _atom_site_fract_y
 _atom_site_fract_z
 _atom_site_occupancy
  Se  Se0  1  0.00000000  0.00000000  0.00000000  1
  P  P1  1  0.50000000  0.50000000  0.50000000  1
  P  P2  1  0.25000000  0.25000000  0.25000000  1
  As  As3  1  0.75000000  0.25000000  0.00000000  1
  As  As4  1  0.25000000  0.75000000  0.50000000  1
  As  As5  1  0.11741528  0.89422518  0.78613303  1
  Li  Li6  1  0.98044567  0.39001526  0.97398502  1
  Li  Li7  1  0.43340222  0.43428620  0.86437453  1
  Y  Y8  1  0.82414212  0.33727535  0.11408594  1
  Y  Y9  1  0.72984202  0.13293307  0.08939180  1
