# generated using pymatgen
data_LiF
_symmetry_space_group_name_H-M   'P 1'
_cell_length_a   16.81079888
_cell_length_b   16.81079888
_cell_length_c   3.09581879
_cell_angle_alpha   90.00000000
_cell_angle_beta   90.00000000
_cell_angle_gamma   120.00000000
_symmetry_Int_Tables_number   1
_chemical_formula_structural   LiF
_chemical_formula_sum   'Li24 F24'
_cell_volume   757.67484486
_cell_formula_units_Z   24
loop_
 _symmetry_equiv_pos_site_id
 _symmetry_equiv_pos_as_xyz
  1  'x, y, z'
loop_
 _atom_site_type_symbol
 _atom_site_label
 _atom_site_symmetry_multiplicity
 _atom_site_fract_x
 _atom_site_fract_y
 _atom_site_fract_z
 _atom_site_occupancy
  F  F0  1  0.69768140  0.36302413  0.77529249  1
  F  F1  1  0.63697587  0.33465727  0.77529249  1
  F  F2  1  0.66534273  0.30231860  0.77529249  1
  F  F3  1  0.63697587  0.30231860  0.22470751  1
  F  F4  1  0.66534273  0.36302413  0.22470751  1
  F  F5  1  0.69768140  0.33465727  0.22470751  1
  F  F6  1  0.22426629  0.64489329  0.76320814  1
  F  F7  1  0.35510671  0.57937300  0.76320814  1
  F  F8  1  0.42062700  0.77573371  0.76320814  1
  F  F9  1  0.35510671  0.77573371  0.23679186  1
  F  F10  1  0.42062700  0.64489329  0.23679186  1
  F  F11  1  0.22426629  0.57937300  0.23679186  1
  F  F12  1  0.88816512  0.11183488  0.50000000  1
  F  F13  1  0.88816512  0.77633023  0.50000000  1
  F  F14  1  0.22366977  0.11183488  0.50000000  1
  F  F15  1  0.82910200  0.26437148  0.06629731  1
  F  F16  1  0.73562852  0.56473052  0.06629731  1
  F  F17  1  0.43526948  0.17089800  0.06629731  1
  F  F18  1  0.73562852  0.17089800  0.93370269  1
  F  F19  1  0.43526948  0.26437148  0.93370269  1
  F  F20  1  0.82910200  0.56473052  0.93370269  1
  F  F21  1  0.81976490  0.18023510  0.00000000  1
  F  F22  1  0.81976490  0.63952981  0.00000000  1
  F  F23  1  0.36047019  0.18023510  0.00000000  1
  Li  Li24  1  0.56621949  0.52783085  0.04802844  1
  Li  Li25  1  -0.52783085  0.03838864  0.04802844  1
  Li  Li26  1  -0.03838864  -0.56621949  0.04802844  1
  Li  Li27  1  -0.52783085  -0.56621949  -0.04802844  1
  Li  Li28  1  -0.03838864  0.52783085  -0.04802844  1
  Li  Li29  1  0.56621949  0.03838864  -0.04802844  1
  Li  Li30  1  0.33333333  0.66666667  0.50000000  1
  Li  Li31  1  0.29481388  0.70518612  0.00000000  1
  Li  Li32  1  0.29481388  0.58962775  0.00000000  1
  Li  Li33  1  0.41037225  0.70518612  0.00000000  1
  Li  Li34  1  0.58154767  0.94923234  0.45042568  1
  Li  Li35  1  0.05076766  0.63231532  0.45042568  1
  Li  Li36  1  0.36768468  0.41845233  0.45042568  1
  Li  Li37  1  0.05076766  0.41845233  0.54957432  1
  Li  Li38  1  0.36768468  0.94923234  0.54957432  1
  Li  Li39  1  0.58154767  0.63231532  0.54957432  1
  Li  Li40  1  0.00000000  0.00000000  0.00000000  1
  Li  Li41  1  0.21597610  0.66048450  0.19433817  1
  Li  Li42  1  0.33951550  0.55549160  0.19433817  1
  Li  Li43  1  0.44450840  0.78402390  0.19433817  1
  Li  Li44  1  0.33951550  0.78402390  0.80566183  1
  Li  Li45  1  0.44450840  0.66048450  0.80566183  1
  Li  Li46  1  0.21597610  0.55549160  0.80566183  1
  Li  Li47  1  0.66666667  0.33333333  0.50000000  1
