# generated using pymatgen
data_Li2Y2As4P2Se
_symmetry_space_group_name_H-M   'P 1'
_cell_length_a   5.36925488
_cell_length_b   5.52559203
_cell_length_c   6.98953959
_cell_angle_alpha   93.91858042
_cell_angle_beta   97.89619467
_cell_angle_gamma   104.73936233
_symmetry_Int_Tables_number   1
_chemical_formula_structural   Li2Y2As4P2Se
_chemical_formula_sum   'Li2 Y2 As4 P2 Se1'
_cell_volume   197.48441293
_cell_formula_units_Z   1
loop_
 _symmetry_equiv_pos_site_id
 _symmetry_equiv_pos_as_xyz
  1  'x, y, z'
loop_
 _atom_site_type_symbol
 _atom_site_label
 _atom_site_symmetry_multiplicity
 _atom_site_fract_x
 _atom_site_fract_y
 _atom_site_fract_z
 _atom_site_occupancy
  Se  Se0  1  0.00000000  0.00000000  0.00000000  1
  P  P1  1  0.50000000  0.50000000  0.50000000  1
  P  P2  1  0.50000000  0.50000000  0.00000000  1
  As  As3  1  0.50000000  0.00000000  0.50000000  1
  As  As4  1  0.00000000  0.50000000  0.50000000  1
  As  As5  1  0.73014551  0.29912803  0.33191193  1
  As  As6  1  0.57609823  0.83460728  0.23123564  1
  Li  Li7  1  0.29288902  0.66070075  0.50731824  1
  Li  Li8  1  0.05334962  0.51226300  0.60031811  1
  Y  Y9  1  0.49055353  0.55926486  0.27723522  1
  Y  Y10  1  0.81163698  0.49288214  0.65698854  1
