# generated using pymatgen
data_Li2Y2As2P3Se
_symmetry_space_group_name_H-M   'P 1'
_cell_length_a   5.04175204
_cell_length_b   5.13098087
_cell_length_c   7.19697409
_cell_angle_alpha   94.67849074
_cell_angle_beta   100.18878019
_cell_angle_gamma   108.79163788
_symmetry_Int_Tables_number   1
_chemical_formula_structural   Li2Y2As2P3Se
_chemical_formula_sum   'Li2 Y2 As2 P3 Se1'
_cell_volume   171.54749192
_cell_formula_units_Z   1
loop_
 _symmetry_equiv_pos_site_id
 _symmetry_equiv_pos_as_xyz
  1  'x, y, z'
loop_
 _atom_site_type_symbol
 _atom_site_label
 _atom_site_symmetry_multiplicity
 _atom_site_fract_x
 _atom_site_fract_y
 _atom_site_fract_z
 _atom_site_occupancy
  P  P0  1  0.00000000  0.00000000  0.00000000  1
  P  P1  1  0.50000000  0.50000000  0.50000000  1
  P  P2  1  0.50000000  0.50000000  0.00000000  1
  Se  Se3  1  0.50000000  0.00000000  0.50000000  1
  As  As4  1  0.00000000  0.50000000  0.50000000  1
  As  As5  1  0.80106535  0.63966441  0.30759934  1
  Li  Li6  1  0.84965899  0.42389480  0.40595327  1
  Li  Li7  1  0.69246759  0.15254402  0.37408434  1
  Y  Y8  1  0.65985183  0.40600504  0.94525186  1
  Y  Y9  1  0.59172926  0.70027025  0.48173130  1
