# generated using pymatgen
data_LiF
_symmetry_space_group_name_H-M   'P 1'
_cell_length_a   9.50758848
_cell_length_b   11.48226769
_cell_length_c   6.54265297
_cell_angle_alpha   90.00000000
_cell_angle_beta   90.00000000
_cell_angle_gamma   90.00000000
_symmetry_Int_Tables_number   1
_chemical_formula_structural   LiF
_chemical_formula_sum   'Li28 F28'
_cell_volume   714.25276177
_cell_formula_units_Z   28
loop_
 _symmetry_equiv_pos_site_id
 _symmetry_equiv_pos_as_xyz
  1  'x, y, z'
loop_
 _atom_site_type_symbol
 _atom_site_label
 _atom_site_symmetry_multiplicity
 _atom_site_fract_x
 _atom_site_fract_y
 _atom_site_fract_z
 _atom_site_occupancy
  F  F0  1  0.90185265  0.25000000  0.99790963  1
  F  F1  1  0.59814735  0.75000000  0.49790963  1
  F  F2  1  0.09814735  0.75000000  0.00209037  1
  F  F3  1  0.40185265  0.25000000  0.50209037  1
  F  F4  1  0.57634796  0.50240040  0.38900557  1
  F  F5  1  0.92365204  0.49759960  0.88900557  1
  F  F6  1  0.42365204  0.00240040  0.61099443  1
  F  F7  1  0.07634796  0.99759960  0.11099443  1
  F  F8  1  0.42365204  0.49759960  0.61099443  1
  F  F9  1  0.07634796  0.50240040  0.11099443  1
  F  F10  1  0.57634796  0.99759960  0.38900557  1
  F  F11  1  0.92365204  0.00240040  0.88900557  1
  F  F12  1  0.84545891  0.15853683  0.35359169  1
  F  F13  1  0.65454109  0.84146317  0.85359169  1
  F  F14  1  0.15454109  0.65853683  0.64640831  1
  F  F15  1  0.34545891  0.34146317  0.14640831  1
  F  F16  1  0.15454109  0.84146317  0.64640831  1
  F  F17  1  0.34545891  0.15853683  0.14640831  1
  F  F18  1  0.84545891  0.34146317  0.35359169  1
  F  F19  1  0.65454109  0.65853683  0.85359169  1
  F  F20  1  0.31052283  0.15193796  0.48096287  1
  F  F21  1  0.18947717  0.84806204  0.98096287  1
  F  F22  1  0.68947717  0.65193796  0.51903713  1
  F  F23  1  0.81052283  0.34806204  0.01903713  1
  F  F24  1  0.68947717  0.84806204  0.51903713  1
  F  F25  1  0.81052283  0.15193796  0.01903713  1
  F  F26  1  0.31052283  0.34806204  0.48096287  1
  F  F27  1  0.18947717  0.65193796  0.98096287  1
  Li  Li28  1  0.31506496  0.97304008  0.92771655  1
  Li  Li29  1  0.18493504  -0.97304008  1.42771655  1
  Li  Li30  1  -0.31506496  1.47304008  -0.92771655  1
  Li  Li31  1  0.81506496  -0.47304008  -0.42771655  1
  Li  Li32  1  -0.31506496  -0.97304008  -0.92771655  1
  Li  Li33  1  0.81506496  0.97304008  -0.42771655  1
  Li  Li34  1  0.31506496  -0.47304008  0.92771655  1
  Li  Li35  1  0.18493504  1.47304008  1.42771655  1
  Li  Li36  1  0.82907229  0.83129206  0.52101221  1
  Li  Li37  1  0.67092771  0.16870794  0.02101221  1
  Li  Li38  1  0.17092771  0.33129206  0.47898779  1
  Li  Li39  1  0.32907229  0.66870794  0.97898779  1
  Li  Li40  1  0.17092771  0.16870794  0.47898779  1
  Li  Li41  1  0.32907229  0.83129206  0.97898779  1
  Li  Li42  1  0.82907229  0.66870794  0.52101221  1
  Li  Li43  1  0.67092771  0.33129206  0.02101221  1
  Li  Li44  1  0.00000000  0.00000000  0.50000000  1
  Li  Li45  1  0.50000000  0.00000000  0.00000000  1
  Li  Li46  1  0.00000000  0.50000000  0.50000000  1
  Li  Li47  1  0.50000000  0.50000000  -0.00000000  1
  Li  Li48  1  0.80297842  0.25000000  0.31019939  1
  Li  Li49  1  0.69702158  0.75000000  0.81019939  1
  Li  Li50  1  0.19702158  0.75000000  0.68980061  1
  Li  Li51  1  0.30297842  0.25000000  0.18980061  1
  Li  Li52  1  0.00000000  0.00000000  0.00000000  1
  Li  Li53  1  0.50000000  0.00000000  0.50000000  1
  Li  Li54  1  0.00000000  0.50000000  0.00000000  1
  Li  Li55  1  0.50000000  0.50000000  0.50000000  1
