# generated using pymatgen
data_LiPO3
_symmetry_space_group_name_H-M   'P 1'
_cell_length_a   16.10561711
_cell_length_b   13.53574333
_cell_length_c   8.81081380
_cell_angle_alpha   90.00000000
_cell_angle_beta   90.00000000
_cell_angle_gamma   90.00000000
_symmetry_Int_Tables_number   1
_chemical_formula_structural   LiPO3
_chemical_formula_sum   'Li24 P24 O72'
_cell_volume   1920.77061907
_cell_formula_units_Z   24
loop_
 _symmetry_equiv_pos_site_id
 _symmetry_equiv_pos_as_xyz
  1  'x, y, z'
loop_
 _atom_site_type_symbol
 _atom_site_label
 _atom_site_symmetry_multiplicity
 _atom_site_fract_x
 _atom_site_fract_y
 _atom_site_fract_z
 _atom_site_occupancy
  Li  Li0  1  0.02237229  0.79397643  0.88366289  1
  Li  Li1  1  0.97762771  0.20602357  0.88366289  1
  Li  Li2  1  0.47762771  0.29397643  0.61633711  1
  Li  Li3  1  0.52237229  0.70602357  0.61633711  1
  Li  Li4  1  0.97762771  0.20602357  0.11633711  1
  Li  Li5  1  0.02237229  0.79397643  0.11633711  1
  Li  Li6  1  0.52237229  0.70602357  0.38366289  1
  Li  Li7  1  0.47762771  0.29397643  0.38366289  1
  Li  Li8  1  0.98234574  0.13016183  0.28021261  1
  Li  Li9  1  0.01765426  0.86983817  0.28021261  1
  Li  Li10  1  0.51765426  0.63016183  0.21978739  1
  Li  Li11  1  0.48234574  0.36983817  0.21978739  1
  Li  Li12  1  0.01765426  0.86983817  0.71978739  1
  Li  Li13  1  0.98234574  0.13016183  0.71978739  1
  Li  Li14  1  0.48234574  0.36983817  0.78021261  1
  Li  Li15  1  0.51765426  0.63016183  0.78021261  1
  Li  Li16  1  0.57861322  0.88910927  0.18936949  1
  Li  Li17  1  0.42138678  0.11089073  0.18936949  1
  Li  Li18  1  0.92138678  0.38910927  0.31063051  1
  Li  Li19  1  0.07861322  0.61089073  0.31063051  1
  Li  Li20  1  0.42138678  0.11089073  0.81063051  1
  Li  Li21  1  0.57861322  0.88910927  0.81063051  1
  Li  Li22  1  0.07861322  0.61089073  0.68936949  1
  Li  Li23  1  0.92138678  0.38910927  0.68936949  1
  O  O24  1  0.60807813  0.93903346  0.74718771  1
  O  O25  1  0.39192187  0.06096654  0.74718771  1
  O  O26  1  0.89192187  0.43903346  0.75281229  1
  O  O27  1  0.10807813  0.56096654  0.75281229  1
  O  O28  1  0.39192187  0.06096654  0.25281229  1
  O  O29  1  0.60807813  0.93903346  0.25281229  1
  O  O30  1  0.10807813  0.56096654  0.24718771  1
  O  O31  1  0.89192187  0.43903346  0.24718771  1
  O  O32  1  0.62204905  0.57251703  0.84499223  1
  O  O33  1  0.37795095  0.42748297  0.84499223  1
  O  O34  1  0.87795095  0.07251703  0.65500777  1
  O  O35  1  0.12204905  0.92748297  0.65500777  1
  O  O36  1  0.37795095  0.42748297  0.15500777  1
  O  O37  1  0.62204905  0.57251703  0.15500777  1
  O  O38  1  0.12204905  0.92748297  0.34499223  1
  O  O39  1  0.87795095  0.07251703  0.34499223  1
  O  O40  1  0.00052339  0.63415075  0.09076249  1
  O  O41  1  0.99947661  0.36584925  0.09076249  1
  O  O42  1  0.49947661  0.13415075  0.40923751  1
  O  O43  1  0.50052339  0.86584925  0.40923751  1
  O  O44  1  0.99947661  0.36584925  0.90923751  1
  O  O45  1  0.00052339  0.63415075  0.90923751  1
  O  O46  1  0.50052339  0.86584925  0.59076249  1
  O  O47  1  0.49947661  0.13415075  0.59076249  1
  O  O48  1  0.00000000  0.50000000  0.50000000  1
  O  O49  1  0.50000000  0.00000000  0.00000000  1
  O  O50  1  0.62417800  0.92414107  0.37207344  1
  O  O51  1  0.37582200  0.07585893  0.37207344  1
  O  O52  1  0.87582200  0.42414107  0.12792656  1
  O  O53  1  0.12417800  0.57585893  0.12792656  1
  O  O54  1  0.37582200  0.07585893  0.62792656  1
  O  O55  1  0.62417800  0.92414107  0.62792656  1
  O  O56  1  0.12417800  0.57585893  0.87207344  1
  O  O57  1  0.87582200  0.42414107  0.87207344  1
  O  O58  1  0.46704012  0.57975171  0.36854051  1
  O  O59  1  0.53295988  0.42024829  0.36854051  1
  O  O60  1  0.03295988  0.07975171  0.13145949  1
  O  O61  1  0.96704012  0.92024829  0.13145949  1
  O  O62  1  0.53295988  0.42024829  0.63145949  1
  O  O63  1  0.46704012  0.57975171  0.63145949  1
  O  O64  1  0.96704012  0.92024829  0.86854051  1
  O  O65  1  0.03295988  0.07975171  0.86854051  1
  O  O66  1  0.91678421  0.24381747  0.00000000  1
  O  O67  1  0.08321579  0.75618253  0.00000000  1
  O  O68  1  0.58321579  0.74381747  0.50000000  1
  O  O69  1  0.41678421  0.25618253  0.50000000  1
  O  O70  1  0.54560058  0.38170505  0.84217893  1
  O  O71  1  0.45439942  0.61829495  0.84217893  1
  O  O72  1  0.95439942  0.88170505  0.65782107  1
  O  O73  1  0.04560058  0.11829495  0.65782107  1
  O  O74  1  0.45439942  0.61829495  0.15782107  1
  O  O75  1  0.54560058  0.38170505  0.15782107  1
  O  O76  1  0.04560058  0.11829495  0.34217893  1
  O  O77  1  0.95439942  0.88170505  0.34217893  1
  O  O78  1  0.80094673  0.82442596  0.00000000  1
  O  O79  1  0.19905327  0.17557404  0.00000000  1
  O  O80  1  0.69905327  0.32442596  0.50000000  1
  O  O81  1  0.30094673  0.67557404  0.50000000  1
  O  O82  1  0.88367300  0.79578155  0.81925480  1
  O  O83  1  0.11632700  0.20421845  0.81925480  1
  O  O84  1  0.61632700  0.29578155  0.68074520  1
  O  O85  1  0.38367300  0.70421845  0.68074520  1
  O  O86  1  0.11632700  0.20421845  0.18074520  1
  O  O87  1  0.88367300  0.79578155  0.18074520  1
  O  O88  1  0.38367300  0.70421845  0.31925480  1
  O  O89  1  0.61632700  0.29578155  0.31925480  1
  O  O90  1  0.67925909  0.14564887  0.00000000  1
  O  O91  1  0.32074091  0.85435113  0.00000000  1
  O  O92  1  0.82074091  0.64564887  0.50000000  1
  O  O93  1  0.17925909  0.35435113  0.50000000  1
  O  O94  1  0.00000000  0.00000000  0.50000000  1
  O  O95  1  0.50000000  0.50000000  0.00000000  1
  P  P96  1  0.00000000  0.00000000  0.00000000  1
  P  P97  1  0.50000000  0.50000000  0.50000000  1
  P  P98  1  0.00000000  0.50000000  -0.00000000  1
  P  P99  1  0.50000000  0.00000000  0.50000000  1
  P  P100  1  0.84308560  0.86807976  0.74831555  1
  P  P101  1  -0.84308560  -0.86807976  0.74831555  1
  P  P102  1  -0.34308560  1.36807976  -0.24831555  1
  P  P103  1  1.34308560  -0.36807976  -0.24831555  1
  P  P104  1  -0.84308560  -0.86807976  -0.74831555  1
  P  P105  1  0.84308560  0.86807976  -0.74831555  1
  P  P106  1  1.34308560  -0.36807976  1.24831555  1
  P  P107  1  -0.34308560  1.36807976  1.24831555  1
  P  P108  1  0.52379246  0.79661908  0.30376826  1
  P  P109  1  0.47620754  0.20338092  0.30376826  1
  P  P110  1  0.97620754  0.29661908  0.19623174  1
  P  P111  1  0.02379246  0.70338092  0.19623174  1
  P  P112  1  0.47620754  0.20338092  0.69623174  1
  P  P113  1  0.52379246  0.79661908  0.69623174  1
  P  P114  1  0.02379246  0.70338092  0.80376826  1
  P  P115  1  0.97620754  0.29661908  0.80376826  1
  P  P116  1  0.00000000  0.50000000  0.73796125  1
  P  P117  1  0.50000000  0.00000000  0.76203875  1
  P  P118  1  0.00000000  0.50000000  0.26203875  1
  P  P119  1  0.50000000  0.00000000  0.23796125  1
