# generated using pymatgen
data_Li4Mg2Te2BrCl3
_symmetry_space_group_name_H-M   'P 1'
_cell_length_a   14.47548507
_cell_length_b   14.47548507
_cell_length_c   42.80797744
_cell_angle_alpha   90.00000000
_cell_angle_beta   90.00000000
_cell_angle_gamma   120.00000000
_symmetry_Int_Tables_number   1
_chemical_formula_structural   Li4Mg2Te2BrCl3
_chemical_formula_sum   'Li96 Mg48 Te48 Br24 Cl72'
_cell_volume   7768.22135583
_cell_formula_units_Z   24
loop_
 _symmetry_equiv_pos_site_id
 _symmetry_equiv_pos_as_xyz
  1  'x, y, z'
loop_
 _atom_site_type_symbol
 _atom_site_label
 _atom_site_symmetry_multiplicity
 _atom_site_fract_x
 _atom_site_fract_y
 _atom_site_fract_z
 _atom_site_occupancy
  Br  Br0  1  0.40610985  0.00000000  0.50000000  1
  Br  Br1  1  0.00000000  0.40610985  0.50000000  1
  Br  Br2  1  0.59389015  0.59389015  0.50000000  1
  Br  Br3  1  0.59389015  -0.00000000  0.50000000  1
  Br  Br4  1  0.00000000  0.59389015  0.50000000  1
  Br  Br5  1  0.40610985  0.40610985  0.50000000  1
  Br  Br6  1  0.07277651  0.33333333  0.83333333  1
  Br  Br7  1  0.66666667  0.73944318  0.83333333  1
  Br  Br8  1  0.26055682  0.92722349  0.83333333  1
  Br  Br9  1  0.26055682  0.33333333  0.83333333  1
  Br  Br10  1  0.66666667  0.92722349  0.83333333  1
  Br  Br11  1  0.07277651  0.73944318  0.83333333  1
  Br  Br12  1  0.73944318  0.66666667  0.16666667  1
  Br  Br13  1  0.33333333  0.07277651  0.16666667  1
  Br  Br14  1  0.92722349  0.26055682  0.16666667  1
  Br  Br15  1  0.92722349  0.66666667  0.16666667  1
  Br  Br16  1  0.33333333  0.26055682  0.16666667  1
  Br  Br17  1  0.73944318  0.07277651  0.16666667  1
  Br  Br18  1  0.00000000  0.00000000  0.95334916  1
  Br  Br19  1  0.00000000  0.00000000  0.04665084  1
  Br  Br20  1  0.66666667  0.33333333  0.28668249  1
  Br  Br21  1  0.66666667  0.33333333  0.37998418  1
  Br  Br22  1  0.33333333  0.66666667  0.62001582  1
  Br  Br23  1  0.33333333  0.66666667  0.71331751  1
  Cl  Cl24  1  0.89708781  0.10291219  0.50438101  1
  Cl  Cl25  1  0.89708781  0.79417562  0.50438101  1
  Cl  Cl26  1  0.20582438  0.10291219  0.50438101  1
  Cl  Cl27  1  0.10291219  0.89708781  0.49561899  1
  Cl  Cl28  1  0.79417562  0.89708781  0.49561899  1
  Cl  Cl29  1  0.10291219  0.20582438  0.49561899  1
  Cl  Cl30  1  0.56375448  0.43624552  0.83771434  1
  Cl  Cl31  1  0.56375448  0.12750895  0.83771434  1
  Cl  Cl32  1  0.87249105  0.43624552  0.83771434  1
  Cl  Cl33  1  0.76957886  0.23042114  0.82895233  1
  Cl  Cl34  1  0.46084229  0.23042114  0.82895233  1
  Cl  Cl35  1  0.76957886  0.53915771  0.82895233  1
  Cl  Cl36  1  0.23042114  0.76957886  0.17104767  1
  Cl  Cl37  1  0.23042114  0.46084229  0.17104767  1
  Cl  Cl38  1  0.53915771  0.76957886  0.17104767  1
  Cl  Cl39  1  0.43624552  0.56375448  0.16228566  1
  Cl  Cl40  1  0.12750895  0.56375448  0.16228566  1
  Cl  Cl41  1  0.43624552  0.87249105  0.16228566  1
  Cl  Cl42  1  0.00000000  0.00000000  0.40996884  1
  Cl  Cl43  1  0.00000000  0.00000000  0.59003116  1
  Cl  Cl44  1  0.66666667  0.33333333  0.74330217  1
  Cl  Cl45  1  0.66666667  0.33333333  0.92336449  1
  Cl  Cl46  1  0.33333333  0.66666667  0.07663551  1
  Cl  Cl47  1  0.33333333  0.66666667  0.25669783  1
  Cl  Cl48  1  0.50000000  0.00000000  0.50000000  1
  Cl  Cl49  1  0.00000000  0.50000000  0.50000000  1
  Cl  Cl50  1  0.50000000  0.50000000  0.50000000  1
  Cl  Cl51  1  0.16666667  0.33333333  0.83333333  1
  Cl  Cl52  1  0.66666667  0.83333333  0.83333333  1
  Cl  Cl53  1  0.16666667  0.83333333  0.83333333  1
  Cl  Cl54  1  0.83333333  0.66666667  0.16666667  1
  Cl  Cl55  1  0.33333333  0.16666667  0.16666667  1
  Cl  Cl56  1  0.83333333  0.16666667  0.16666667  1
  Cl  Cl57  1  0.94971179  0.41673287  0.47579743  1
  Cl  Cl58  1  0.58326713  0.53297891  0.47579743  1
  Cl  Cl59  1  0.46702109  0.05028821  0.47579743  1
  Cl  Cl60  1  0.41673287  0.94971179  0.52420257  1
  Cl  Cl61  1  0.53297891  0.58326713  0.52420257  1
  Cl  Cl62  1  0.05028821  0.46702109  0.52420257  1
  Cl  Cl63  1  0.05028821  0.58326713  0.52420257  1
  Cl  Cl64  1  0.41673287  0.46702109  0.52420257  1
  Cl  Cl65  1  0.53297891  0.94971179  0.52420257  1
  Cl  Cl66  1  0.58326713  0.05028821  0.47579743  1
  Cl  Cl67  1  0.46702109  0.41673287  0.47579743  1
  Cl  Cl68  1  0.94971179  0.53297891  0.47579743  1
  Cl  Cl69  1  0.61637845  0.75006621  0.80913076  1
  Cl  Cl70  1  0.24993379  0.86631225  0.80913076  1
  Cl  Cl71  1  0.13368775  0.38362155  0.80913076  1
  Cl  Cl72  1  0.08339954  0.28304512  0.85753591  1
  Cl  Cl73  1  0.19964558  0.91660046  0.85753591  1
  Cl  Cl74  1  0.71695488  0.80035442  0.85753591  1
  Cl  Cl75  1  0.71695488  0.91660046  0.85753591  1
  Cl  Cl76  1  0.08339954  0.80035442  0.85753591  1
  Cl  Cl77  1  0.19964558  0.28304512  0.85753591  1
  Cl  Cl78  1  0.24993379  0.38362155  0.80913076  1
  Cl  Cl79  1  0.13368775  0.75006621  0.80913076  1
  Cl  Cl80  1  0.61637845  0.86631225  0.80913076  1
  Cl  Cl81  1  0.28304512  0.08339954  0.14246409  1
  Cl  Cl82  1  0.91660046  0.19964558  0.14246409  1
  Cl  Cl83  1  0.80035442  0.71695488  0.14246409  1
  Cl  Cl84  1  0.75006621  0.61637845  0.19086924  1
  Cl  Cl85  1  0.86631225  0.24993379  0.19086924  1
  Cl  Cl86  1  0.38362155  0.13368775  0.19086924  1
  Cl  Cl87  1  0.38362155  0.24993379  0.19086924  1
  Cl  Cl88  1  0.75006621  0.13368775  0.19086924  1
  Cl  Cl89  1  0.86631225  0.61637845  0.19086924  1
  Cl  Cl90  1  0.91660046  0.71695488  0.14246409  1
  Cl  Cl91  1  0.80035442  0.08339954  0.14246409  1
  Cl  Cl92  1  0.28304512  0.19964558  0.14246409  1
  Cl  Cl93  1  0.00000000  0.00000000  0.50000000  1
  Cl  Cl94  1  0.66666667  0.33333333  0.83333333  1
  Cl  Cl95  1  0.33333333  0.66666667  0.16666667  1
  Li  Li96  1  0.19262447  0.80737553  0.62771692  1
  Li  Li97  1  0.19262447  0.38524893  0.62771692  1
  Li  Li98  1  0.61475107  0.80737553  0.62771692  1
  Li  Li99  1  0.80737553  0.19262447  0.37228308  1
  Li  Li100  1  0.38524893  0.19262447  0.37228308  1
  Li  Li101  1  0.80737553  0.61475107  0.37228308  1
  Li  Li102  1  0.85929113  0.14070887  0.96105025  1
  Li  Li103  1  0.85929113  0.71858226  0.96105025  1
  Li  Li104  1  0.28141774  0.14070887  0.96105025  1
  Li  Li105  1  0.47404220  0.52595780  0.70561642  1
  Li  Li106  1  0.05191560  0.52595780  0.70561642  1
  Li  Li107  1  0.47404220  0.94808440  0.70561642  1
  Li  Li108  1  0.52595780  0.47404220  0.29438358  1
  Li  Li109  1  0.52595780  0.05191560  0.29438358  1
  Li  Li110  1  0.94808440  0.47404220  0.29438358  1
  Li  Li111  1  0.14070887  0.85929113  0.03894975  1
  Li  Li112  1  0.71858226  0.85929113  0.03894975  1
  Li  Li113  1  0.14070887  0.28141774  0.03894975  1
  Li  Li114  1  0.31925391  0.86986048  0.24043391  1
  Li  Li115  1  0.13013952  0.44939343  0.24043391  1
  Li  Li116  1  0.55060657  0.68074609  0.24043391  1
  Li  Li117  1  0.86986048  0.31925391  0.75956609  1
  Li  Li118  1  0.44939343  0.13013952  0.75956609  1
  Li  Li119  1  0.68074609  0.55060657  0.75956609  1
  Li  Li120  1  0.68074609  0.13013952  0.75956609  1
  Li  Li121  1  0.86986048  0.55060657  0.75956609  1
  Li  Li122  1  0.44939343  0.31925391  0.75956609  1
  Li  Li123  1  0.13013952  0.68074609  0.24043391  1
  Li  Li124  1  0.55060657  0.86986048  0.24043391  1
  Li  Li125  1  0.31925391  0.44939343  0.24043391  1
  Li  Li126  1  0.98592058  0.20319382  0.57376724  1
  Li  Li127  1  0.79680618  0.78272676  0.57376724  1
  Li  Li128  1  0.21727324  0.01407942  0.57376724  1
  Li  Li129  1  0.53652715  0.65258725  0.09289942  1
  Li  Li130  1  0.11606009  0.46347285  0.09289942  1
  Li  Li131  1  0.34741275  0.88393991  0.09289942  1
  Li  Li132  1  0.34741275  0.46347285  0.09289942  1
  Li  Li133  1  0.53652715  0.88393991  0.09289942  1
  Li  Li134  1  0.11606009  0.65258725  0.09289942  1
  Li  Li135  1  0.79680618  0.01407942  0.57376724  1
  Li  Li136  1  0.21727324  0.20319382  0.57376724  1
  Li  Li137  1  0.98592058  0.78272676  0.57376724  1
  Li  Li138  1  0.65258725  0.53652715  0.90710058  1
  Li  Li139  1  0.46347285  0.11606009  0.90710058  1
  Li  Li140  1  0.88393991  0.34741275  0.90710058  1
  Li  Li141  1  0.20319382  0.98592058  0.42623276  1
  Li  Li142  1  0.78272676  0.79680618  0.42623276  1
  Li  Li143  1  0.01407942  0.21727324  0.42623276  1
  Li  Li144  1  0.01407942  0.79680618  0.42623276  1
  Li  Li145  1  0.20319382  0.21727324  0.42623276  1
  Li  Li146  1  0.78272676  0.98592058  0.42623276  1
  Li  Li147  1  0.46347285  0.34741275  0.90710058  1
  Li  Li148  1  0.88393991  0.53652715  0.90710058  1
  Li  Li149  1  0.65258725  0.11606009  0.90710058  1
  Li  Li150  1  0.79727460  0.32274884  0.16612643  1
  Li  Li151  1  0.67725116  0.47452576  0.16612643  1
  Li  Li152  1  0.52547424  0.20272540  0.16612643  1
  Li  Li153  1  0.32274884  0.79727460  0.83387357  1
  Li  Li154  1  0.47452576  0.67725116  0.83387357  1
  Li  Li155  1  0.20272540  0.52547424  0.83387357  1
  Li  Li156  1  0.20272540  0.67725116  0.83387357  1
  Li  Li157  1  0.32274884  0.52547424  0.83387357  1
  Li  Li158  1  0.47452576  0.79727460  0.83387357  1
  Li  Li159  1  0.67725116  0.20272540  0.16612643  1
  Li  Li160  1  0.52547424  0.32274884  0.16612643  1
  Li  Li161  1  0.79727460  0.47452576  0.16612643  1
  Li  Li162  1  0.46394127  0.65608217  0.49945976  1
  Li  Li163  1  0.34391783  0.80785910  0.49945976  1
  Li  Li164  1  0.19214090  0.53605873  0.49945976  1
  Li  Li165  1  0.98941550  0.13060793  0.16720691  1
  Li  Li166  1  0.14119243  0.01058450  0.16720691  1
  Li  Li167  1  0.86939207  0.85880757  0.16720691  1
  Li  Li168  1  0.86939207  0.01058450  0.16720691  1
  Li  Li169  1  0.98941550  0.85880757  0.16720691  1
  Li  Li170  1  0.14119243  0.13060793  0.16720691  1
  Li  Li171  1  0.34391783  0.53605873  0.49945976  1
  Li  Li172  1  0.19214090  0.65608217  0.49945976  1
  Li  Li173  1  0.46394127  0.80785910  0.49945976  1
  Li  Li174  1  0.13060793  0.98941550  0.83279309  1
  Li  Li175  1  0.01058450  0.14119243  0.83279309  1
  Li  Li176  1  0.85880757  0.86939207  0.83279309  1
  Li  Li177  1  0.65608217  0.46394127  0.50054024  1
  Li  Li178  1  0.80785910  0.34391783  0.50054024  1
  Li  Li179  1  0.53605873  0.19214090  0.50054024  1
  Li  Li180  1  0.53605873  0.34391783  0.50054024  1
  Li  Li181  1  0.65608217  0.19214090  0.50054024  1
  Li  Li182  1  0.80785910  0.46394127  0.50054024  1
  Li  Li183  1  0.01058450  0.86939207  0.83279309  1
  Li  Li184  1  0.85880757  0.98941550  0.83279309  1
  Li  Li185  1  0.13060793  0.14119243  0.83279309  1
  Li  Li186  1  0.00000000  0.00000000  0.30780930  1
  Li  Li187  1  0.00000000  0.00000000  0.69219070  1
  Li  Li188  1  0.66666667  0.33333333  0.64114263  1
  Li  Li189  1  0.66666667  0.33333333  0.02552403  1
  Li  Li190  1  0.33333333  0.66666667  0.97447597  1
  Li  Li191  1  0.33333333  0.66666667  0.35885737  1
  Mg  Mg192  1  0.09472677  0.90527323  0.69744108  1
  Mg  Mg193  1  0.09472677  0.18945355  0.69744108  1
  Mg  Mg194  1  0.81054645  0.90527323  0.69744108  1
  Mg  Mg195  1  0.90527323  0.09472677  0.30255892  1
  Mg  Mg196  1  0.18945355  0.09472677  0.30255892  1
  Mg  Mg197  1  0.90527323  0.81054645  0.30255892  1
  Mg  Mg198  1  0.76139344  0.23860656  0.03077441  1
  Mg  Mg199  1  0.76139344  0.52278688  0.03077441  1
  Mg  Mg200  1  0.47721312  0.23860656  0.03077441  1
  Mg  Mg201  1  0.57193989  0.42806011  0.63589225  1
  Mg  Mg202  1  0.85612022  0.42806011  0.63589225  1
  Mg  Mg203  1  0.57193989  0.14387978  0.63589225  1
  Mg  Mg204  1  0.42806011  0.57193989  0.36410775  1
  Mg  Mg205  1  0.42806011  0.85612022  0.36410775  1
  Mg  Mg206  1  0.14387978  0.57193989  0.36410775  1
  Mg  Mg207  1  0.23860656  0.76139344  0.96922559  1
  Mg  Mg208  1  0.52278688  0.76139344  0.96922559  1
  Mg  Mg209  1  0.23860656  0.47721312  0.96922559  1
  Mg  Mg210  1  0.00000000  0.00000000  0.87519704  1
  Mg  Mg211  1  0.00000000  0.00000000  0.12480296  1
  Mg  Mg212  1  0.66666667  0.33333333  0.20853037  1
  Mg  Mg213  1  0.66666667  0.33333333  0.45813629  1
  Mg  Mg214  1  0.33333333  0.66666667  0.54186371  1
  Mg  Mg215  1  0.33333333  0.66666667  0.79146963  1
  Mg  Mg216  1  0.59846270  0.40153730  0.39016537  1
  Mg  Mg217  1  0.59846270  0.19692541  0.39016537  1
  Mg  Mg218  1  0.80307459  0.40153730  0.39016537  1
  Mg  Mg219  1  0.40153730  0.59846270  0.60983463  1
  Mg  Mg220  1  0.19692541  0.59846270  0.60983463  1
  Mg  Mg221  1  0.40153730  0.80307459  0.60983463  1
  Mg  Mg222  1  0.26512937  0.73487063  0.72349871  1
  Mg  Mg223  1  0.26512937  0.53025874  0.72349871  1
  Mg  Mg224  1  0.46974126  0.73487063  0.72349871  1
  Mg  Mg225  1  0.06820396  0.93179604  0.94316796  1
  Mg  Mg226  1  0.86359207  0.93179604  0.94316796  1
  Mg  Mg227  1  0.06820396  0.13640793  0.94316796  1
  Mg  Mg228  1  0.93179604  0.06820396  0.05683204  1
  Mg  Mg229  1  0.93179604  0.86359207  0.05683204  1
  Mg  Mg230  1  0.13640793  0.06820396  0.05683204  1
  Mg  Mg231  1  0.73487063  0.26512937  0.27650129  1
  Mg  Mg232  1  0.53025874  0.26512937  0.27650129  1
  Mg  Mg233  1  0.73487063  0.46974126  0.27650129  1
  Mg  Mg234  1  0.00000000  0.00000000  0.24015208  1
  Mg  Mg235  1  0.00000000  0.00000000  0.75984792  1
  Mg  Mg236  1  0.66666667  0.33333333  0.57348541  1
  Mg  Mg237  1  0.66666667  0.33333333  0.09318125  1
  Mg  Mg238  1  0.33333333  0.66666667  0.90681875  1
  Mg  Mg239  1  0.33333333  0.66666667  0.42651459  1
  Te  Te240  1  0.12396935  0.70151272  0.36264026  1
  Te  Te241  1  -0.70151272  -0.57754337  0.36264026  1
  Te  Te242  1  0.57754337  -0.12396935  0.36264026  1
  Te  Te243  1  0.70151272  0.12396935  -0.36264026  1
  Te  Te244  1  -0.57754337  -0.70151272  -0.36264026  1
  Te  Te245  1  -0.12396935  0.57754337  -0.36264026  1
  Te  Te246  1  -0.12396935  -0.70151272  -0.36264026  1
  Te  Te247  1  0.70151272  0.57754337  -0.36264026  1
  Te  Te248  1  -0.57754337  0.12396935  -0.36264026  1
  Te  Te249  1  -0.70151272  -0.12396935  0.36264026  1
  Te  Te250  1  0.57754337  0.70151272  0.36264026  1
  Te  Te251  1  0.12396935  -0.57754337  0.36264026  1
  Te  Te252  1  0.79063602  1.03484606  0.69597360  1
  Te  Te253  1  -0.03484606  -0.24421004  0.69597360  1
  Te  Te254  1  1.24421004  0.20936398  0.69597360  1
  Te  Te255  1  1.36817939  0.45730269  -0.02930693  1
  Te  Te256  1  0.08912330  -0.36817939  -0.02930693  1
  Te  Te257  1  0.54269731  0.91087670  -0.02930693  1
  Te  Te258  1  0.54269731  -0.36817939  -0.02930693  1
  Te  Te259  1  1.36817939  0.91087670  -0.02930693  1
  Te  Te260  1  0.08912330  0.45730269  -0.02930693  1
  Te  Te261  1  -0.03484606  0.20936398  0.69597360  1
  Te  Te262  1  1.24421004  1.03484606  0.69597360  1
  Te  Te263  1  0.79063602  -0.24421004  0.69597360  1
  Te  Te264  1  0.45730269  1.36817939  1.02930693  1
  Te  Te265  1  -0.36817939  0.08912330  1.02930693  1
  Te  Te266  1  0.91087670  0.54269731  1.02930693  1
  Te  Te267  1  1.03484606  0.79063602  0.30402640  1
  Te  Te268  1  -0.24421004  -0.03484606  0.30402640  1
  Te  Te269  1  0.20936398  1.24421004  0.30402640  1
  Te  Te270  1  0.20936398  -0.03484606  0.30402640  1
  Te  Te271  1  1.03484606  1.24421004  0.30402640  1
  Te  Te272  1  -0.24421004  0.79063602  0.30402640  1
  Te  Te273  1  -0.36817939  0.54269731  1.02930693  1
  Te  Te274  1  0.91087670  1.36817939  1.02930693  1
  Te  Te275  1  0.45730269  0.08912330  1.02930693  1
  Te  Te276  1  0.00000000  0.00000000  0.00000000  1
  Te  Te277  1  0.66666667  0.33333333  0.33333333  1
  Te  Te278  1  0.33333333  0.66666667  0.66666667  1
  Te  Te279  1  0.50000000  0.00000000  0.00000000  1
  Te  Te280  1  0.00000000  0.50000000  0.00000000  1
  Te  Te281  1  0.50000000  0.50000000  0.00000000  1
  Te  Te282  1  0.16666667  0.33333333  0.33333333  1
  Te  Te283  1  0.66666667  0.83333333  0.33333333  1
  Te  Te284  1  0.16666667  0.83333333  0.33333333  1
  Te  Te285  1  0.83333333  0.66666667  0.66666667  1
  Te  Te286  1  0.33333333  0.16666667  0.66666667  1
  Te  Te287  1  0.83333333  0.16666667  0.66666667  1
