# generated using pymatgen
data_Li2Y2MoP3Se2
_symmetry_space_group_name_H-M   'P 1'
_cell_length_a   4.06382691
_cell_length_b   4.37871557
_cell_length_c   6.70870989
_cell_angle_alpha   96.42023885
_cell_angle_beta   103.48857882
_cell_angle_gamma   113.38994571
_symmetry_Int_Tables_number   1
_chemical_formula_structural   Li2Y2MoP3Se2
_chemical_formula_sum   'Li2 Y2 Mo1 P3 Se2'
_cell_volume   103.71270890
_cell_formula_units_Z   1
loop_
 _symmetry_equiv_pos_site_id
 _symmetry_equiv_pos_as_xyz
  1  'x, y, z'
loop_
 _atom_site_type_symbol
 _atom_site_label
 _atom_site_symmetry_multiplicity
 _atom_site_fract_x
 _atom_site_fract_y
 _atom_site_fract_z
 _atom_site_occupancy
  Se  Se0  1  0.12500000  0.00000000  0.25000000  1
  Se  Se1  1  0.00000000  0.00000000  0.00000000  1
  P  P2  1  0.37500000  0.00000000  0.25000000  1
  P  P3  1  0.25000000  0.25000000  0.25000000  1
  P  P4  1  0.00000000  0.25000000  0.12500000  1
  Mo  Mo5  1  0.69521355  0.01848597  0.92024050  1
  Li  Li6  1  0.79265465  0.72566220  0.80915058  1
  Li  Li7  1  0.12812249  0.85038815  0.56355331  1
  Y  Y8  1  0.47666342  0.44162701  0.92640694  1
  Y  Y9  1  0.19083870  0.29681355  0.85345976  1
