# generated using pymatgen
data_LiF
_symmetry_space_group_name_H-M   'P 1'
_cell_length_a   5.23561934
_cell_length_b   6.95944462
_cell_length_c   12.13757782
_cell_angle_alpha   90.00000000
_cell_angle_beta   90.00000000
_cell_angle_gamma   90.00000000
_symmetry_Int_Tables_number   1
_chemical_formula_structural   LiF
_chemical_formula_sum   'Li26 F26'
_cell_volume   442.25695728
_cell_formula_units_Z   26
loop_
 _symmetry_equiv_pos_site_id
 _symmetry_equiv_pos_as_xyz
  1  'x, y, z'
loop_
 _atom_site_type_symbol
 _atom_site_label
 _atom_site_symmetry_multiplicity
 _atom_site_fract_x
 _atom_site_fract_y
 _atom_site_fract_z
 _atom_site_occupancy
  F  F0  1  0.73238442  0.32156691  0.85324410  1
  F  F1  1  -0.73238442  -0.32156691  0.85324410  1
  F  F2  1  -0.23238442  0.82156691  -0.85324410  1
  F  F3  1  1.23238442  0.17843309  -0.85324410  1
  F  F4  1  -0.73238442  -0.32156691  -0.85324410  1
  F  F5  1  0.73238442  0.32156691  -0.85324410  1
  F  F6  1  1.23238442  0.17843309  0.85324410  1
  F  F7  1  -0.23238442  0.82156691  0.85324410  1
  F  F8  1  0.61883663  0.01527167  0.21906898  1
  F  F9  1  0.38116337  0.98472833  0.21906898  1
  F  F10  1  0.88116337  0.51527167  0.78093102  1
  F  F11  1  0.11883663  0.48472833  0.78093102  1
  F  F12  1  0.38116337  0.98472833  0.78093102  1
  F  F13  1  0.61883663  0.01527167  0.78093102  1
  F  F14  1  0.11883663  0.48472833  0.21906898  1
  F  F15  1  0.88116337  0.51527167  0.21906898  1
  F  F16  1  0.89130308  0.90261131  0.74008694  1
  F  F17  1  0.10869692  0.09738869  0.74008694  1
  F  F18  1  0.60869692  0.40261131  0.25991306  1
  F  F19  1  0.39130308  0.59738869  0.25991306  1
  F  F20  1  0.10869692  0.09738869  0.25991306  1
  F  F21  1  0.89130308  0.90261131  0.25991306  1
  F  F22  1  0.39130308  0.59738869  0.74008694  1
  F  F23  1  0.60869692  0.40261131  0.74008694  1
  F  F24  1  0.00000000  0.50000000  0.00000000  1
  F  F25  1  0.50000000  0.00000000  0.00000000  1
  Li  Li26  1  0.00000000  0.50000000  0.50000000  1
  Li  Li27  1  0.50000000  0.00000000  0.50000000  1
  Li  Li28  1  0.85946470  0.01670324  0.00000000  1
  Li  Li29  1  0.14053530  0.98329676  0.00000000  1
  Li  Li30  1  0.64053530  0.51670324  0.00000000  1
  Li  Li31  1  0.35946470  0.48329676  0.00000000  1
  Li  Li32  1  0.16462224  0.24444398  0.00000000  1
  Li  Li33  1  0.83537776  0.75555602  0.00000000  1
  Li  Li34  1  0.33537776  0.74444398  0.00000000  1
  Li  Li35  1  0.66462224  0.25555602  0.00000000  1
  Li  Li36  1  0.13328029  0.71813056  0.30390536  1
  Li  Li37  1  0.86671971  0.28186944  0.30390536  1
  Li  Li38  1  0.36671971  0.21813056  0.69609464  1
  Li  Li39  1  0.63328029  0.78186944  0.69609464  1
  Li  Li40  1  0.86671971  0.28186944  0.69609464  1
  Li  Li41  1  0.13328029  0.71813056  0.69609464  1
  Li  Li42  1  0.63328029  0.78186944  0.30390536  1
  Li  Li43  1  0.36671971  0.21813056  0.30390536  1
  Li  Li44  1  0.00000000  0.00000000  0.59781330  1
  Li  Li45  1  0.50000000  0.50000000  0.40218670  1
  Li  Li46  1  0.00000000  0.00000000  0.40218670  1
  Li  Li47  1  0.50000000  0.50000000  0.59781330  1
  Li  Li48  1  0.71003604  0.19609199  0.50000000  1
  Li  Li49  1  0.28996396  0.80390801  0.50000000  1
  Li  Li50  1  0.78996396  0.69609199  0.50000000  1
  Li  Li51  1  0.21003604  0.30390801  0.50000000  1
