# generated using pymatgen
data_LiF
_symmetry_space_group_name_H-M   'P 1'
_cell_length_a   12.47540932
_cell_length_b   7.14037012
_cell_length_c   9.27274414
_cell_angle_alpha   90.00000000
_cell_angle_beta   90.00000000
_cell_angle_gamma   90.00000000
_symmetry_Int_Tables_number   1
_chemical_formula_structural   LiF
_chemical_formula_sum   'Li24 F24'
_cell_volume   826.00714543
_cell_formula_units_Z   24
loop_
 _symmetry_equiv_pos_site_id
 _symmetry_equiv_pos_as_xyz
  1  'x, y, z'
loop_
 _atom_site_type_symbol
 _atom_site_label
 _atom_site_symmetry_multiplicity
 _atom_site_fract_x
 _atom_site_fract_y
 _atom_site_fract_z
 _atom_site_occupancy
  F  F0  1  0.95452429  0.57509033  0.70082893  1
  F  F1  1  0.54547571  0.42490967  0.20082893  1
  F  F2  1  0.04547571  0.07509033  0.29917107  1
  F  F3  1  0.45452429  0.92490967  0.79917107  1
  F  F4  1  0.04547571  0.42490967  0.29917107  1
  F  F5  1  0.45452429  0.57509033  0.79917107  1
  F  F6  1  0.95452429  0.92490967  0.70082893  1
  F  F7  1  0.54547571  0.07509033  0.20082893  1
  F  F8  1  0.20641015  0.25000000  0.71456388  1
  F  F9  1  0.29358985  0.75000000  0.21456388  1
  F  F10  1  0.79358985  0.75000000  0.28543612  1
  F  F11  1  0.70641015  0.25000000  0.78543612  1
  F  F12  1  0.88604042  0.25000000  0.24009341  1
  F  F13  1  0.61395958  0.75000000  0.74009341  1
  F  F14  1  0.11395958  0.75000000  0.75990659  1
  F  F15  1  0.38604042  0.25000000  0.25990659  1
  F  F16  1  0.84639455  0.18004123  0.45261935  1
  F  F17  1  0.65360545  0.81995877  0.95261935  1
  F  F18  1  0.15360545  0.68004123  0.54738065  1
  F  F19  1  0.34639455  0.31995877  0.04738065  1
  F  F20  1  0.15360545  0.81995877  0.54738065  1
  F  F21  1  0.34639455  0.18004123  0.04738065  1
  F  F22  1  0.84639455  0.31995877  0.45261935  1
  F  F23  1  0.65360545  0.68004123  0.95261935  1
  Li  Li24  1  0.00000000  0.00000000  0.00000000  1
  Li  Li25  1  0.50000000  0.00000000  0.50000000  1
  Li  Li26  1  0.00000000  0.50000000  0.00000000  1
  Li  Li27  1  0.50000000  0.50000000  0.50000000  1
  Li  Li28  1  0.17944068  0.43151590  0.80768406  1
  Li  Li29  1  0.32055932  -0.43151590  1.30768406  1
  Li  Li30  1  -0.17944068  0.93151590  -0.80768406  1
  Li  Li31  1  0.67944068  0.06848410  -0.30768406  1
  Li  Li32  1  -0.17944068  -0.43151590  -0.80768406  1
  Li  Li33  1  0.67944068  0.43151590  -0.30768406  1
  Li  Li34  1  0.17944068  0.06848410  0.80768406  1
  Li  Li35  1  0.32055932  0.93151590  1.30768406  1
  Li  Li36  1  0.24480979  0.25000000  0.21049542  1
  Li  Li37  1  0.25519021  0.75000000  0.71049542  1
  Li  Li38  1  0.75519021  0.75000000  0.78950458  1
  Li  Li39  1  0.74480979  0.25000000  0.28950458  1
  Li  Li40  1  0.79723614  0.25000000  0.51098375  1
  Li  Li41  1  0.70276386  0.75000000  0.01098375  1
  Li  Li42  1  0.20276386  0.75000000  0.48901625  1
  Li  Li43  1  0.29723614  0.25000000  0.98901625  1
  Li  Li44  1  0.00000000  0.00000000  0.50000000  1
  Li  Li45  1  0.50000000  0.00000000  0.00000000  1
  Li  Li46  1  0.00000000  0.50000000  0.50000000  1
  Li  Li47  1  0.50000000  0.50000000  0.00000000  1
