# generated using pymatgen
data_Li8Ca11F30
_symmetry_space_group_name_H-M   'P 1'
_cell_length_a   13.77758177
_cell_length_b   13.77758177
_cell_length_c   13.40438209
_cell_angle_alpha   90.00000000
_cell_angle_beta   90.00000000
_cell_angle_gamma   120.00000000
_symmetry_Int_Tables_number   1
_chemical_formula_structural   Li8Ca11F30
_chemical_formula_sum   'Li16 Ca22 F60'
_cell_volume   2203.55261424
_cell_formula_units_Z   2
loop_
 _symmetry_equiv_pos_site_id
 _symmetry_equiv_pos_as_xyz
  1  'x, y, z'
loop_
 _atom_site_type_symbol
 _atom_site_label
 _atom_site_symmetry_multiplicity
 _atom_site_fract_x
 _atom_site_fract_y
 _atom_site_fract_z
 _atom_site_occupancy
  Ca  Ca0  1  0.33333333  0.66666667  0.50000000  1
  Ca  Ca1  1  0.74630784  0.61538749  0.25220989  1
  Ca  Ca2  1  0.38461251  0.13092036  0.25220989  1
  Ca  Ca3  1  0.86907964  0.25369216  0.25220989  1
  Ca  Ca4  1  0.38461251  0.25369216  0.74779011  1
  Ca  Ca5  1  0.86907964  0.61538749  0.74779011  1
  Ca  Ca6  1  0.74630784  0.13092036  0.74779011  1
  Ca  Ca7  1  0.88388770  0.11611230  0.00000000  1
  Ca  Ca8  1  0.88388770  0.76777540  0.00000000  1
  Ca  Ca9  1  0.23222460  0.11611230  0.00000000  1
  Ca  Ca10  1  0.38824912  0.94122476  0.61955423  1
  Ca  Ca11  1  0.05877524  0.44702436  0.61955423  1
  Ca  Ca12  1  0.55297564  0.61175088  0.61955423  1
  Ca  Ca13  1  0.05877524  0.61175088  0.38044577  1
  Ca  Ca14  1  0.55297564  0.94122476  0.38044577  1
  Ca  Ca15  1  0.38824912  0.44702436  0.38044577  1
  Ca  Ca16  1  0.16146297  0.25258316  0.75860747  1
  Ca  Ca17  1  0.74741684  0.90887981  0.75860747  1
  Ca  Ca18  1  0.09112019  0.83853703  0.75860747  1
  Ca  Ca19  1  0.74741684  0.83853703  0.24139253  1
  Ca  Ca20  1  0.09112019  0.25258316  0.24139253  1
  Ca  Ca21  1  0.16146297  0.90887981  0.24139253  1
  F  F22  1  0.61352485  0.50673648  0.96164239  1
  F  F23  1  -0.50673648  0.10678837  0.96164239  1
  F  F24  1  -0.10678837  -0.61352485  0.96164239  1
  F  F25  1  -0.50673648  -0.61352485  -0.96164239  1
  F  F26  1  -0.10678837  0.50673648  -0.96164239  1
  F  F27  1  0.61352485  0.10678837  -0.96164239  1
  F  F28  1  0.88577879  0.37270245  0.23472791  1
  F  F29  1  0.62729755  0.51307634  0.23472791  1
  F  F30  1  0.48692366  0.11422121  0.23472791  1
  F  F31  1  0.62729755  0.11422121  0.76527209  1
  F  F32  1  0.48692366  0.37270245  0.76527209  1
  F  F33  1  0.88577879  0.51307634  0.76527209  1
  F  F34  1  0.64541664  0.82104351  0.53305590  1
  F  F35  1  0.17895649  0.82437313  0.53305590  1
  F  F36  1  0.17562687  0.35458336  0.53305590  1
  F  F37  1  0.17895649  0.35458336  0.46694410  1
  F  F38  1  0.17562687  0.82104351  0.46694410  1
  F  F39  1  0.64541664  0.82437313  0.46694410  1
  F  F40  1  0.66666667  0.33333333  0.04271006  1
  F  F41  1  0.66666667  0.33333333  0.95728994  1
  F  F42  1  0.23739559  0.84393749  0.00615821  1
  F  F43  1  0.15606251  0.39345810  0.00615821  1
  F  F44  1  0.60654190  0.76260441  0.00615821  1
  F  F45  1  0.15606251  0.76260441  0.99384179  1
  F  F46  1  0.60654190  0.84393749  0.99384179  1
  F  F47  1  0.23739559  0.39345810  0.99384179  1
  F  F48  1  0.33333333  0.66666667  0.59510434  1
  F  F49  1  0.33333333  0.66666667  0.40489566  1
  F  F50  1  0.84544428  0.37254812  0.25111889  1
  F  F51  1  0.62745188  0.47289616  0.25111889  1
  F  F52  1  0.52710384  0.15455572  0.25111889  1
  F  F53  1  0.62745188  0.15455572  0.74888111  1
  F  F54  1  0.52710384  0.37254812  0.74888111  1
  F  F55  1  0.84544428  0.47289616  0.74888111  1
  F  F56  1  0.78284748  0.34261624  0.74766151  1
  F  F57  1  0.65738376  0.44023124  0.74766151  1
  F  F58  1  0.55976876  0.21715252  0.74766151  1
  F  F59  1  0.65738376  0.21715252  0.25233849  1
  F  F60  1  0.55976876  0.34261624  0.25233849  1
  F  F61  1  0.78284748  0.44023124  0.25233849  1
  F  F62  1  0.00000000  0.00000000  0.50000000  1
  F  F63  1  0.92114382  0.82072693  0.42942634  1
  F  F64  1  0.17927307  0.10041689  0.42942634  1
  F  F65  1  0.89958311  0.07885618  0.42942634  1
  F  F66  1  0.17927307  0.07885618  0.57057366  1
  F  F67  1  0.89958311  0.82072693  0.57057366  1
  F  F68  1  0.92114382  0.10041689  0.57057366  1
  F  F69  1  0.32388600  0.37166317  0.27409744  1
  F  F70  1  0.62833683  0.95222283  0.27409744  1
  F  F71  1  0.04777717  0.67611400  0.27409744  1
  F  F72  1  0.62833683  0.67611400  0.72590256  1
  F  F73  1  0.04777717  0.37166317  0.72590256  1
  F  F74  1  0.32388600  0.95222283  0.72590256  1
  F  F75  1  0.66666667  0.33333333  0.50000000  1
  F  F76  1  0.47458066  0.52541934  0.00000000  1
  F  F77  1  0.47458066  0.94916133  0.00000000  1
  F  F78  1  0.05083867  0.52541934  0.00000000  1
  F  F79  1  0.39354435  0.60645565  0.00000000  1
  F  F80  1  0.39354435  0.78708869  0.00000000  1
  F  F81  1  0.21291131  0.60645565  0.00000000  1
  Li  Li82  1  0.00000000  0.00000000  0.00000000  1
  Li  Li83  1  0.60353931  0.74972718  0.08768057  1
  Li  Li84  1  0.25027282  0.85381213  0.08768057  1
  Li  Li85  1  0.14618787  0.39646069  0.08768057  1
  Li  Li86  1  0.25027282  0.39646069  0.91231943  1
  Li  Li87  1  0.14618787  0.74972718  0.91231943  1
  Li  Li88  1  0.60353931  0.85381213  0.91231943  1
  Li  Li89  1  0.33333333  0.66666667  0.29141238  1
  Li  Li90  1  0.33333333  0.66666667  0.70858762  1
  Li  Li91  1  0.40766124  0.11875089  0.07901794  1
  Li  Li92  1  0.88124911  0.28891035  0.07901794  1
  Li  Li93  1  0.71108965  0.59233876  0.07901794  1
  Li  Li94  1  0.88124911  0.59233876  0.92098206  1
  Li  Li95  1  0.71108965  0.11875089  0.92098206  1
  Li  Li96  1  0.40766124  0.28891035  0.92098206  1
  Li  Li97  1  0.33333333  0.66666667  0.00000000  1
