# generated using pymatgen
data_LiF
_symmetry_space_group_name_H-M   'P 1'
_cell_length_a   10.08649260
_cell_length_b   9.77539793
_cell_length_c   5.38643792
_cell_angle_alpha   90.00000000
_cell_angle_beta   90.00000000
_cell_angle_gamma   90.00000000
_symmetry_Int_Tables_number   1
_chemical_formula_structural   LiF
_chemical_formula_sum   'Li20 F20'
_cell_volume   531.09997202
_cell_formula_units_Z   20
loop_
 _symmetry_equiv_pos_site_id
 _symmetry_equiv_pos_as_xyz
  1  'x, y, z'
loop_
 _atom_site_type_symbol
 _atom_site_label
 _atom_site_symmetry_multiplicity
 _atom_site_fract_x
 _atom_site_fract_y
 _atom_site_fract_z
 _atom_site_occupancy
  F  F0  1  0.00000000  0.00000000  0.50000000  1
  F  F1  1  0.50000000  0.00000000  0.00000000  1
  F  F2  1  0.00000000  0.50000000  0.50000000  1
  F  F3  1  0.50000000  0.50000000  0.00000000  1
  F  F4  1  0.00000000  0.00000000  0.00000000  1
  F  F5  1  0.50000000  0.00000000  0.50000000  1
  F  F6  1  0.00000000  0.50000000  0.00000000  1
  F  F7  1  0.50000000  0.50000000  0.50000000  1
  F  F8  1  0.92235747  0.10855995  0.05874733  1
  F  F9  1  0.57764253  0.89144005  0.55874733  1
  F  F10  1  0.07764253  0.60855995  0.94125267  1
  F  F11  1  0.42235747  0.39144005  0.44125267  1
  F  F12  1  0.07764253  0.89144005  0.94125267  1
  F  F13  1  0.42235747  0.10855995  0.44125267  1
  F  F14  1  0.92235747  0.39144005  0.05874733  1
  F  F15  1  0.57764253  0.60855995  0.55874733  1
  F  F16  1  0.62351526  0.25000000  0.57239281  1
  F  F17  1  0.87648474  0.75000000  0.07239281  1
  F  F18  1  0.37648474  0.75000000  0.42760719  1
  F  F19  1  0.12351526  0.25000000  0.92760719  1
  Li  Li20  1  0.40475754  0.25000000  0.47092109  1
  Li  Li21  1  0.09524246  0.75000000  0.97092109  1
  Li  Li22  1  0.59524246  0.75000000  0.52907891  1
  Li  Li23  1  0.90475754  0.25000000  0.02907891  1
  Li  Li24  1  0.27585398  0.90429220  0.72335885  1
  Li  Li25  1  0.22414602  -0.90429220  1.22335885  1
  Li  Li26  1  -0.27585398  1.40429220  -0.72335885  1
  Li  Li27  1  0.77585398  -0.40429220  -0.22335885  1
  Li  Li28  1  -0.27585398  -0.90429220  -0.72335885  1
  Li  Li29  1  0.77585398  0.90429220  -0.22335885  1
  Li  Li30  1  0.27585398  -0.40429220  0.72335885  1
  Li  Li31  1  0.22414602  1.40429220  1.22335885  1
  Li  Li32  1  0.44195883  0.25000000  0.76445068  1
  Li  Li33  1  0.05804117  0.75000000  0.26445068  1
  Li  Li34  1  0.55804117  0.75000000  0.23554932  1
  Li  Li35  1  0.94195883  0.25000000  0.73554932  1
  Li  Li36  1  0.54869993  0.25000000  0.97602787  1
  Li  Li37  1  0.95130007  0.75000000  0.47602787  1
  Li  Li38  1  0.45130007  0.75000000  0.02397213  1
  Li  Li39  1  0.04869993  0.25000000  0.52397213  1
