# generated using pymatgen
data_K4Li2Ca3(SnO4)3
_symmetry_space_group_name_H-M   'P 1'
_cell_length_a   23.14060742
_cell_length_b   13.95138408
_cell_length_c   48.33179114
_cell_angle_alpha   90.00000000
_cell_angle_beta   90.00000000
_cell_angle_gamma   90.00000000
_symmetry_Int_Tables_number   1
_chemical_formula_structural   K4Li2Ca3(SnO4)3
_chemical_formula_sum   'K96 Li48 Ca72 Sn72 O288'
_cell_volume   15603.60470223
_cell_formula_units_Z   24
loop_
 _symmetry_equiv_pos_site_id
 _symmetry_equiv_pos_as_xyz
  1  'x, y, z'
loop_
 _atom_site_type_symbol
 _atom_site_label
 _atom_site_symmetry_multiplicity
 _atom_site_fract_x
 _atom_site_fract_y
 _atom_site_fract_z
 _atom_site_occupancy
  Ca  Ca0  1  0.23018423  0.62124976  0.08033264  1
  Ca  Ca1  1  0.76981577  0.37875024  0.08033264  1
  Ca  Ca2  1  0.26981577  0.12124976  0.91966736  1
  Ca  Ca3  1  0.73018423  0.87875024  0.91966736  1
  Ca  Ca4  1  0.76981577  0.37875024  0.91966736  1
  Ca  Ca5  1  0.23018423  0.62124976  0.91966736  1
  Ca  Ca6  1  0.73018423  0.87875024  0.08033264  1
  Ca  Ca7  1  0.26981577  0.12124976  0.08033264  1
  Ca  Ca8  1  0.79870774  0.55345083  0.44475812  1
  Ca  Ca9  1  0.20129226  0.44654917  0.44475812  1
  Ca  Ca10  1  0.70129226  0.05345083  0.55524188  1
  Ca  Ca11  1  0.29870774  0.94654917  0.55524188  1
  Ca  Ca12  1  0.20129226  0.44654917  0.55524188  1
  Ca  Ca13  1  0.79870774  0.55345083  0.55524188  1
  Ca  Ca14  1  0.29870774  0.94654917  0.44475812  1
  Ca  Ca15  1  0.70129226  0.05345083  0.44475812  1
  Ca  Ca16  1  0.27998520  0.54575482  0.37886155  1
  Ca  Ca17  1  0.72001480  0.45424518  0.37886155  1
  Ca  Ca18  1  0.22001480  0.04575482  0.62113845  1
  Ca  Ca19  1  0.77998520  0.95424518  0.62113845  1
  Ca  Ca20  1  0.72001480  0.45424518  0.62113845  1
  Ca  Ca21  1  0.27998520  0.54575482  0.62113845  1
  Ca  Ca22  1  0.77998520  0.95424518  0.37886155  1
  Ca  Ca23  1  0.22001480  0.04575482  0.37886155  1
  Ca  Ca24  1  0.96546080  0.46820385  0.91225596  1
  Ca  Ca25  1  0.03453920  0.53179615  0.91225596  1
  Ca  Ca26  1  0.53453920  0.96820385  0.08774404  1
  Ca  Ca27  1  0.46546080  0.03179615  0.08774404  1
  Ca  Ca28  1  0.03453920  0.53179615  0.08774404  1
  Ca  Ca29  1  0.96546080  0.46820385  0.08774404  1
  Ca  Ca30  1  0.46546080  0.03179615  0.91225596  1
  Ca  Ca31  1  0.53453920  0.96820385  0.91225596  1
  Ca  Ca32  1  0.79203975  0.09124641  0.90779023  1
  Ca  Ca33  1  0.20796025  0.90875359  0.90779023  1
  Ca  Ca34  1  0.70796025  0.59124641  0.09220977  1
  Ca  Ca35  1  0.29203975  0.40875359  0.09220977  1
  Ca  Ca36  1  0.20796025  0.90875359  0.09220977  1
  Ca  Ca37  1  0.79203975  0.09124641  0.09220977  1
  Ca  Ca38  1  0.29203975  0.40875359  0.90779023  1
  Ca  Ca39  1  0.70796025  0.59124641  0.90779023  1
  Ca  Ca40  1  0.57751415  0.53043292  0.65433273  1
  Ca  Ca41  1  0.42248585  0.46956708  0.65433273  1
  Ca  Ca42  1  0.92248585  0.03043292  0.34566727  1
  Ca  Ca43  1  0.07751415  0.96956708  0.34566727  1
  Ca  Ca44  1  0.42248585  0.46956708  0.34566727  1
  Ca  Ca45  1  0.57751415  0.53043292  0.34566727  1
  Ca  Ca46  1  0.07751415  0.96956708  0.65433273  1
  Ca  Ca47  1  0.92248585  0.03043292  0.65433273  1
  Ca  Ca48  1  0.32843449  0.42963629  0.00000000  1
  Ca  Ca49  1  0.67156551  0.57036371  -0.00000000  1
  Ca  Ca50  1  0.17156551  0.92963629  0.00000000  1
  Ca  Ca51  1  0.82843449  0.07036371  -0.00000000  1
  Ca  Ca52  1  0.33028162  0.94081196  0.68006132  1
  Ca  Ca53  1  0.66971838  0.05918804  0.68006132  1
  Ca  Ca54  1  0.16971838  0.44081196  0.31993868  1
  Ca  Ca55  1  0.83028162  0.55918804  0.31993868  1
  Ca  Ca56  1  0.66971838  0.05918804  0.31993868  1
  Ca  Ca57  1  0.33028162  0.94081196  0.31993868  1
  Ca  Ca58  1  0.83028162  0.55918804  0.68006132  1
  Ca  Ca59  1  0.16971838  0.44081196  0.68006132  1
  Ca  Ca60  1  0.68107306  0.05132282  0.20740856  1
  Ca  Ca61  1  0.31892694  0.94867718  0.20740856  1
  Ca  Ca62  1  0.81892694  0.55132282  0.79259144  1
  Ca  Ca63  1  0.18107306  0.44867718  0.79259144  1
  Ca  Ca64  1  0.31892694  0.94867718  0.79259144  1
  Ca  Ca65  1  0.68107306  0.05132282  0.79259144  1
  Ca  Ca66  1  0.18107306  0.44867718  0.20740856  1
  Ca  Ca67  1  0.81892694  0.55132282  0.20740856  1
  Ca  Ca68  1  0.10005432  0.09540455  -0.00000000  1
  Ca  Ca69  1  0.89994568  0.90459545  0.00000000  1
  Ca  Ca70  1  0.39994568  0.59540455  0.00000000  1
  Ca  Ca71  1  0.60005432  0.40459545  0.00000000  1
  K  K72  1  0.00000000  0.50000000  0.28510435  1
  K  K73  1  0.50000000  -0.00000000  0.71489565  1
  K  K74  1  0.00000000  0.50000000  0.71489565  1
  K  K75  1  0.50000000  -0.00000000  0.28510435  1
  K  K76  1  0.18618354  0.99460298  0.77015183  1
  K  K77  1  0.81381646  0.00539702  0.77015183  1
  K  K78  1  0.31381646  0.49460298  0.22984817  1
  K  K79  1  0.68618354  0.50539702  0.22984817  1
  K  K80  1  0.81381646  0.00539702  0.22984817  1
  K  K81  1  0.18618354  0.99460298  0.22984817  1
  K  K82  1  0.68618354  0.50539702  0.77015183  1
  K  K83  1  0.31381646  0.49460298  0.77015183  1
  K  K84  1  0.02232961  0.87751591  0.79260301  1
  K  K85  1  0.97767039  0.12248409  0.79260301  1
  K  K86  1  0.47767039  0.37751591  0.20739699  1
  K  K87  1  0.52232961  0.62248409  0.20739699  1
  K  K88  1  0.97767039  0.12248409  0.20739699  1
  K  K89  1  0.02232961  0.87751591  0.20739699  1
  K  K90  1  0.52232961  0.62248409  0.79260301  1
  K  K91  1  0.47767039  0.37751591  0.79260301  1
  K  K92  1  0.14557901  0.84541649  0.28975085  1
  K  K93  1  0.85442099  0.15458351  0.28975085  1
  K  K94  1  0.35442099  0.34541649  0.71024915  1
  K  K95  1  0.64557901  0.65458351  0.71024915  1
  K  K96  1  0.85442099  0.15458351  0.71024915  1
  K  K97  1  0.14557901  0.84541649  0.71024915  1
  K  K98  1  0.64557901  0.65458351  0.28975085  1
  K  K99  1  0.35442099  0.34541649  0.28975085  1
  K  K100  1  0.71737688  0.78511302  0.15283153  1
  K  K101  1  0.28262312  0.21488698  0.15283153  1
  K  K102  1  0.78262312  0.28511302  0.84716847  1
  K  K103  1  0.21737688  0.71488698  0.84716847  1
  K  K104  1  0.28262312  0.21488698  0.84716847  1
  K  K105  1  0.71737688  0.78511302  0.84716847  1
  K  K106  1  0.21737688  0.71488698  0.15283153  1
  K  K107  1  0.78262312  0.28511302  0.15283153  1
  K  K108  1  0.16534557  0.27796273  0.17340832  1
  K  K109  1  0.83465443  0.72203727  0.17340832  1
  K  K110  1  0.33465443  0.77796273  0.82659168  1
  K  K111  1  0.66534557  0.22203727  0.82659168  1
  K  K112  1  0.83465443  0.72203727  0.82659168  1
  K  K113  1  0.16534557  0.27796273  0.82659168  1
  K  K114  1  0.66534557  0.22203727  0.17340832  1
  K  K115  1  0.33465443  0.77796273  0.17340832  1
  K  K116  1  0.00000000  0.00000000  0.87289657  1
  K  K117  1  0.50000000  0.50000000  0.12710343  1
  K  K118  1  0.00000000  0.00000000  0.12710343  1
  K  K119  1  0.50000000  0.50000000  0.87289657  1
  K  K120  1  0.90556735  0.37247680  0.00000000  1
  K  K121  1  0.09443265  0.62752320  0.00000000  1
  K  K122  1  0.59443265  0.87247680  0.00000000  1
  K  K123  1  0.40556735  0.12752320  0.00000000  1
  K  K124  1  0.62430087  0.45686363  0.12998314  1
  K  K125  1  0.37569913  0.54313637  0.12998314  1
  K  K126  1  0.87569913  0.95686363  0.87001686  1
  K  K127  1  0.12430087  0.04313637  0.87001686  1
  K  K128  1  0.37569913  0.54313637  0.87001686  1
  K  K129  1  0.62430087  0.45686363  0.87001686  1
  K  K130  1  0.12430087  0.04313637  0.12998314  1
  K  K131  1  0.87569913  0.95686363  0.12998314  1
  K  K132  1  0.96210554  0.71876043  0.40886736  1
  K  K133  1  0.03789446  0.28123957  0.40886736  1
  K  K134  1  0.53789446  0.21876043  0.59113264  1
  K  K135  1  0.46210554  0.78123957  0.59113264  1
  K  K136  1  0.03789446  0.28123957  0.59113264  1
  K  K137  1  0.96210554  0.71876043  0.59113264  1
  K  K138  1  0.46210554  0.78123957  0.40886736  1
  K  K139  1  0.53789446  0.21876043  0.40886736  1
  K  K140  1  0.93211703  0.40018712  0.20488162  1
  K  K141  1  0.06788297  0.59981288  0.20488162  1
  K  K142  1  0.56788297  0.90018712  0.79511838  1
  K  K143  1  0.43211703  0.09981288  0.79511838  1
  K  K144  1  0.06788297  0.59981288  0.79511838  1
  K  K145  1  0.93211703  0.40018712  0.79511838  1
  K  K146  1  0.43211703  0.09981288  0.20488162  1
  K  K147  1  0.56788297  0.90018712  0.20488162  1
  K  K148  1  0.97391781  0.56792372  0.87888120  1
  K  K149  1  0.02608219  0.43207628  0.87888120  1
  K  K150  1  0.52608219  0.06792372  0.12111880  1
  K  K151  1  0.47391781  0.93207628  0.12111880  1
  K  K152  1  0.02608219  0.43207628  0.12111880  1
  K  K153  1  0.97391781  0.56792372  0.12111880  1
  K  K154  1  0.47391781  0.93207628  0.87888120  1
  K  K155  1  0.52608219  0.06792372  0.87888120  1
  K  K156  1  0.74595707  0.77989745  -0.00000000  1
  K  K157  1  0.25404293  0.22010255  -0.00000000  1
  K  K158  1  0.75404293  0.27989745  0.00000000  1
  K  K159  1  0.24595707  0.72010255  0.00000000  1
  K  K160  1  0.87599344  0.17483006  0.58533143  1
  K  K161  1  0.12400656  0.82516994  0.58533143  1
  K  K162  1  0.62400656  0.67483006  0.41466857  1
  K  K163  1  0.37599344  0.32516994  0.41466857  1
  K  K164  1  0.12400656  0.82516994  0.41466857  1
  K  K165  1  0.87599344  0.17483006  0.41466857  1
  K  K166  1  0.37599344  0.32516994  0.58533143  1
  K  K167  1  0.62400656  0.67483006  0.58533143  1
  Li  Li168  1  0.57879202  0.51199301  0.17682449  1
  Li  Li169  1  0.42120798  0.48800699  0.17682449  1
  Li  Li170  1  0.92120798  0.01199301  0.82317551  1
  Li  Li171  1  0.07879202  0.98800699  0.82317551  1
  Li  Li172  1  0.42120798  0.48800699  0.82317551  1
  Li  Li173  1  0.57879202  0.51199301  0.82317551  1
  Li  Li174  1  0.07879202  0.98800699  0.17682449  1
  Li  Li175  1  0.92120798  0.01199301  0.17682449  1
  Li  Li176  1  0.74848513  0.15306274  0.77651659  1
  Li  Li177  1  0.25151487  0.84693726  0.77651659  1
  Li  Li178  1  0.75151487  0.65306274  0.22348341  1
  Li  Li179  1  0.24848513  0.34693726  0.22348341  1
  Li  Li180  1  0.25151487  0.84693726  0.22348341  1
  Li  Li181  1  0.74848513  0.15306274  0.22348341  1
  Li  Li182  1  0.24848513  0.34693726  0.77651659  1
  Li  Li183  1  0.75151487  0.65306274  0.77651659  1
  Li  Li184  1  0.90450223  0.38652934  0.88057453  1
  Li  Li185  1  0.09549777  0.61347066  0.88057453  1
  Li  Li186  1  0.59549777  0.88652934  0.11942547  1
  Li  Li187  1  0.40450223  0.11347066  0.11942547  1
  Li  Li188  1  0.09549777  0.61347066  0.11942547  1
  Li  Li189  1  0.90450223  0.38652934  0.11942547  1
  Li  Li190  1  0.40450223  0.11347066  0.88057453  1
  Li  Li191  1  0.59549777  0.88652934  0.88057453  1
  Li  Li192  1  0.85417887  0.32424842  0.97938598  1
  Li  Li193  1  0.14582113  0.67575158  0.97938598  1
  Li  Li194  1  0.64582113  0.82424842  0.02061402  1
  Li  Li195  1  0.35417887  0.17575158  0.02061402  1
  Li  Li196  1  0.14582113  0.67575158  0.02061402  1
  Li  Li197  1  0.85417887  0.32424842  0.02061402  1
  Li  Li198  1  0.35417887  0.17575158  0.97938598  1
  Li  Li199  1  0.64582113  0.82424842  0.97938598  1
  Li  Li200  1  0.13398325  0.67230072  0.86458984  1
  Li  Li201  1  0.86601675  0.32769928  0.86458984  1
  Li  Li202  1  0.36601675  0.17230072  0.13541016  1
  Li  Li203  1  0.63398325  0.82769928  0.13541016  1
  Li  Li204  1  0.86601675  0.32769928  0.13541016  1
  Li  Li205  1  0.13398325  0.67230072  0.13541016  1
  Li  Li206  1  0.63398325  0.82769928  0.86458984  1
  Li  Li207  1  0.36601675  0.17230072  0.86458984  1
  Li  Li208  1  0.21590394  0.31266442  0.50000000  1
  Li  Li209  1  0.78409606  0.68733558  0.50000000  1
  Li  Li210  1  0.28409606  0.81266442  0.50000000  1
  Li  Li211  1  0.71590394  0.18733558  0.50000000  1
  Li  Li212  1  0.00000000  0.00000000  0.35418124  1
  Li  Li213  1  0.50000000  0.50000000  0.64581876  1
  Li  Li214  1  0.00000000  0.00000000  0.64581876  1
  Li  Li215  1  0.50000000  0.50000000  0.35418124  1
  O  O216  1  0.00000000  0.50000000  0.00000000  1
  O  O217  1  0.50000000  -0.00000000  0.00000000  1
  O  O218  1  0.86895677  0.86061894  0.43316987  1
  O  O219  1  -0.86895677  -0.86061894  0.43316987  1
  O  O220  1  -0.36895677  1.36061894  -0.43316987  1
  O  O221  1  1.36895677  -0.36061894  -0.43316987  1
  O  O222  1  -0.86895677  -0.86061894  -0.43316987  1
  O  O223  1  0.86895677  0.86061894  -0.43316987  1
  O  O224  1  1.36895677  -0.36061894  0.43316987  1
  O  O225  1  -0.36895677  1.36061894  0.43316987  1
  O  O226  1  0.93591308  0.99262346  0.73065414  1
  O  O227  1  0.06408692  0.00737654  0.73065414  1
  O  O228  1  0.56408692  0.49262346  0.26934586  1
  O  O229  1  0.43591308  0.50737654  0.26934586  1
  O  O230  1  0.06408692  0.00737654  0.26934586  1
  O  O231  1  0.93591308  0.99262346  0.26934586  1
  O  O232  1  0.43591308  0.50737654  0.73065414  1
  O  O233  1  0.56408692  0.49262346  0.73065414  1
  O  O234  1  0.15526964  0.99051998  0.35686280  1
  O  O235  1  0.84473036  0.00948002  0.35686280  1
  O  O236  1  0.34473036  0.49051998  0.64313720  1
  O  O237  1  0.65526964  0.50948002  0.64313720  1
  O  O238  1  0.84473036  0.00948002  0.64313720  1
  O  O239  1  0.15526964  0.99051998  0.64313720  1
  O  O240  1  0.65526964  0.50948002  0.35686280  1
  O  O241  1  0.34473036  0.49051998  0.35686280  1
  O  O242  1  0.00000000  0.00000000  0.21272623  1
  O  O243  1  0.50000000  0.50000000  0.78727377  1
  O  O244  1  0.00000000  0.00000000  0.78727377  1
  O  O245  1  0.50000000  0.50000000  0.21272623  1
  O  O246  1  0.80401560  0.54922723  0.40523081  1
  O  O247  1  0.19598440  0.45077277  0.40523081  1
  O  O248  1  0.69598440  0.04922723  0.59476919  1
  O  O249  1  0.30401560  0.95077277  0.59476919  1
  O  O250  1  0.19598440  0.45077277  0.59476919  1
  O  O251  1  0.80401560  0.54922723  0.59476919  1
  O  O252  1  0.30401560  0.95077277  0.40523081  1
  O  O253  1  0.69598440  0.04922723  0.40523081  1
  O  O254  1  0.00000000  0.50000000  0.50000000  1
  O  O255  1  0.50000000  -0.00000000  0.50000000  1
  O  O256  1  0.76103980  0.86431381  0.95238035  1
  O  O257  1  0.23896020  0.13568619  0.95238035  1
  O  O258  1  0.73896020  0.36431381  0.04761965  1
  O  O259  1  0.26103980  0.63568619  0.04761965  1
  O  O260  1  0.23896020  0.13568619  0.04761965  1
  O  O261  1  0.76103980  0.86431381  0.04761965  1
  O  O262  1  0.26103980  0.63568619  0.95238035  1
  O  O263  1  0.73896020  0.36431381  0.95238035  1
  O  O264  1  0.99294410  0.80311643  0.48242318  1
  O  O265  1  0.00705590  0.19688357  0.48242318  1
  O  O266  1  0.50705590  0.30311643  0.51757682  1
  O  O267  1  0.49294410  0.69688357  0.51757682  1
  O  O268  1  0.00705590  0.19688357  0.51757682  1
  O  O269  1  0.99294410  0.80311643  0.51757682  1
  O  O270  1  0.49294410  0.69688357  0.48242318  1
  O  O271  1  0.50705590  0.30311643  0.48242318  1
  O  O272  1  0.95348942  0.96651434  0.57209666  1
  O  O273  1  0.04651058  0.03348566  0.57209666  1
  O  O274  1  0.54651058  0.46651434  0.42790334  1
  O  O275  1  0.45348942  0.53348566  0.42790334  1
  O  O276  1  0.04651058  0.03348566  0.42790334  1
  O  O277  1  0.95348942  0.96651434  0.42790334  1
  O  O278  1  0.45348942  0.53348566  0.57209666  1
  O  O279  1  0.54651058  0.46651434  0.57209666  1
  O  O280  1  0.20817964  0.03473587  0.28185071  1
  O  O281  1  0.79182036  0.96526413  0.28185071  1
  O  O282  1  0.29182036  0.53473587  0.71814929  1
  O  O283  1  0.70817964  0.46526413  0.71814929  1
  O  O284  1  0.79182036  0.96526413  0.71814929  1
  O  O285  1  0.20817964  0.03473587  0.71814929  1
  O  O286  1  0.70817964  0.46526413  0.28185071  1
  O  O287  1  0.29182036  0.53473587  0.28185071  1
  O  O288  1  0.00000000  0.50000000  0.96453569  1
  O  O289  1  0.50000000  -0.00000000  0.03546431  1
  O  O290  1  0.00000000  0.50000000  0.03546431  1
  O  O291  1  0.50000000  -0.00000000  0.96453569  1
  O  O292  1  0.00000000  0.00000000  0.50000000  1
  O  O293  1  0.50000000  0.50000000  0.50000000  1
  O  O294  1  0.00000000  0.00000000  0.00000000  1
  O  O295  1  0.50000000  0.50000000  0.00000000  1
  O  O296  1  0.02092315  0.56900720  0.86150110  1
  O  O297  1  0.97907685  0.43099280  0.86150110  1
  O  O298  1  0.47907685  0.06900720  0.13849890  1
  O  O299  1  0.52092315  0.93099280  0.13849890  1
  O  O300  1  0.97907685  0.43099280  0.13849890  1
  O  O301  1  0.02092315  0.56900720  0.13849890  1
  O  O302  1  0.52092315  0.93099280  0.86150110  1
  O  O303  1  0.47907685  0.06900720  0.86150110  1
  O  O304  1  0.74304711  0.32595367  0.50000000  1
  O  O305  1  0.25695289  0.67404633  0.50000000  1
  O  O306  1  0.75695289  0.82595367  0.50000000  1
  O  O307  1  0.24304711  0.17404633  0.50000000  1
  O  O308  1  0.84683138  0.60152823  0.00000000  1
  O  O309  1  0.15316862  0.39847177  0.00000000  1
  O  O310  1  0.65316862  0.10152823  0.00000000  1
  O  O311  1  0.34683138  0.89847177  0.00000000  1
  O  O312  1  0.82878951  0.27718192  0.94260745  1
  O  O313  1  0.17121049  0.72281808  0.94260745  1
  O  O314  1  0.67121049  0.77718192  0.05739255  1
  O  O315  1  0.32878951  0.22281808  0.05739255  1
  O  O316  1  0.17121049  0.72281808  0.05739255  1
  O  O317  1  0.82878951  0.27718192  0.05739255  1
  O  O318  1  0.32878951  0.22281808  0.94260745  1
  O  O319  1  0.67121049  0.77718192  0.94260745  1
  O  O320  1  0.85110286  0.05856619  0.44846040  1
  O  O321  1  0.14889714  0.94143381  0.44846040  1
  O  O322  1  0.64889714  0.55856619  0.55153960  1
  O  O323  1  0.35110286  0.44143381  0.55153960  1
  O  O324  1  0.14889714  0.94143381  0.55153960  1
  O  O325  1  0.85110286  0.05856619  0.55153960  1
  O  O326  1  0.35110286  0.44143381  0.44846040  1
  O  O327  1  0.64889714  0.55856619  0.44846040  1
  O  O328  1  0.21001459  0.10478658  0.87205962  1
  O  O329  1  0.78998541  0.89521342  0.87205962  1
  O  O330  1  0.28998541  0.60478658  0.12794038  1
  O  O331  1  0.71001459  0.39521342  0.12794038  1
  O  O332  1  0.78998541  0.89521342  0.12794038  1
  O  O333  1  0.21001459  0.10478658  0.12794038  1
  O  O334  1  0.71001459  0.39521342  0.87205962  1
  O  O335  1  0.28998541  0.60478658  0.87205962  1
  O  O336  1  0.67376396  0.73913536  0.13263509  1
  O  O337  1  0.32623604  0.26086464  0.13263509  1
  O  O338  1  0.82623604  0.23913536  0.86736491  1
  O  O339  1  0.17376396  0.76086464  0.86736491  1
  O  O340  1  0.32623604  0.26086464  0.86736491  1
  O  O341  1  0.67376396  0.73913536  0.86736491  1
  O  O342  1  0.17376396  0.76086464  0.13263509  1
  O  O343  1  0.82623604  0.23913536  0.13263509  1
  O  O344  1  0.30294958  0.87526459  0.96456740  1
  O  O345  1  0.69705042  0.12473541  0.96456740  1
  O  O346  1  0.19705042  0.37526459  0.03543260  1
  O  O347  1  0.80294958  0.62473541  0.03543260  1
  O  O348  1  0.69705042  0.12473541  0.03543260  1
  O  O349  1  0.30294958  0.87526459  0.03543260  1
  O  O350  1  0.80294958  0.62473541  0.96456740  1
  O  O351  1  0.19705042  0.37526459  0.96456740  1
  O  O352  1  0.19499101  0.16642857  0.12804644  1
  O  O353  1  0.80500899  0.83357143  0.12804644  1
  O  O354  1  0.30500899  0.66642857  0.87195356  1
  O  O355  1  0.69499101  0.33357143  0.87195356  1
  O  O356  1  0.80500899  0.83357143  0.87195356  1
  O  O357  1  0.19499101  0.16642857  0.87195356  1
  O  O358  1  0.69499101  0.33357143  0.12804644  1
  O  O359  1  0.30500899  0.66642857  0.12804644  1
  O  O360  1  0.19177388  0.87112520  0.85771528  1
  O  O361  1  0.80822612  0.12887480  0.85771528  1
  O  O362  1  0.30822612  0.37112520  0.14228472  1
  O  O363  1  0.69177388  0.62887480  0.14228472  1
  O  O364  1  0.80822612  0.12887480  0.14228472  1
  O  O365  1  0.19177388  0.87112520  0.14228472  1
  O  O366  1  0.69177388  0.62887480  0.85771528  1
  O  O367  1  0.30822612  0.37112520  0.85771528  1
  O  O368  1  0.04789112  0.48833815  0.46705060  1
  O  O369  1  0.95210888  0.51166185  0.46705060  1
  O  O370  1  0.45210888  0.98833815  0.53294940  1
  O  O371  1  0.54789112  0.01166185  0.53294940  1
  O  O372  1  0.95210888  0.51166185  0.53294940  1
  O  O373  1  0.04789112  0.48833815  0.53294940  1
  O  O374  1  0.54789112  0.01166185  0.46705060  1
  O  O375  1  0.45210888  0.98833815  0.46705060  1
  O  O376  1  0.00203741  0.21904122  0.72969190  1
  O  O377  1  0.99796259  0.78095878  0.72969190  1
  O  O378  1  0.49796259  0.71904122  0.27030810  1
  O  O379  1  0.50203741  0.28095878  0.27030810  1
  O  O380  1  0.99796259  0.78095878  0.27030810  1
  O  O381  1  0.00203741  0.21904122  0.27030810  1
  O  O382  1  0.50203741  0.28095878  0.72969190  1
  O  O383  1  0.49796259  0.71904122  0.72969190  1
  O  O384  1  0.00000000  0.50000000  0.64531779  1
  O  O385  1  0.50000000  -0.00000000  0.35468221  1
  O  O386  1  0.00000000  0.50000000  0.35468221  1
  O  O387  1  0.50000000  -0.00000000  0.64531779  1
  O  O388  1  0.07092751  0.06707453  0.93200794  1
  O  O389  1  0.92907249  0.93292547  0.93200794  1
  O  O390  1  0.42907249  0.56707453  0.06799206  1
  O  O391  1  0.57092751  0.43292547  0.06799206  1
  O  O392  1  0.92907249  0.93292547  0.06799206  1
  O  O393  1  0.07092751  0.06707453  0.06799206  1
  O  O394  1  0.57092751  0.43292547  0.93200794  1
  O  O395  1  0.42907249  0.56707453  0.93200794  1
  O  O396  1  0.95411657  0.55948275  0.50000000  1
  O  O397  1  0.04588343  0.44051725  0.50000000  1
  O  O398  1  0.54588343  0.05948275  0.50000000  1
  O  O399  1  0.45411657  0.94051725  0.50000000  1
  O  O400  1  0.00000000  0.50000000  0.37965946  1
  O  O401  1  0.50000000  -0.00000000  0.62034054  1
  O  O402  1  0.00000000  0.50000000  0.62034054  1
  O  O403  1  0.50000000  -0.00000000  0.37965946  1
  O  O404  1  0.31246393  0.74702799  0.39800348  1
  O  O405  1  0.68753607  0.25297201  0.39800348  1
  O  O406  1  0.18753607  0.24702799  0.60199652  1
  O  O407  1  0.81246393  0.75297201  0.60199652  1
  O  O408  1  0.68753607  0.25297201  0.60199652  1
  O  O409  1  0.31246393  0.74702799  0.60199652  1
  O  O410  1  0.81246393  0.75297201  0.39800348  1
  O  O411  1  0.18753607  0.24702799  0.39800348  1
  O  O412  1  0.15207667  0.76058454  0.50000000  1
  O  O413  1  0.84792333  0.23941546  0.50000000  1
  O  O414  1  0.34792333  0.26058454  0.50000000  1
  O  O415  1  0.65207667  0.73941546  0.50000000  1
  O  O416  1  0.91009869  0.53556344  0.32808971  1
  O  O417  1  0.08990131  0.46443656  0.32808971  1
  O  O418  1  0.58990131  0.03556344  0.67191029  1
  O  O419  1  0.41009869  0.96443656  0.67191029  1
  O  O420  1  0.08990131  0.46443656  0.67191029  1
  O  O421  1  0.91009869  0.53556344  0.67191029  1
  O  O422  1  0.41009869  0.96443656  0.32808971  1
  O  O423  1  0.58990131  0.03556344  0.32808971  1
  O  O424  1  0.00000000  0.50000000  0.67172289  1
  O  O425  1  0.50000000  -0.00000000  0.32827711  1
  O  O426  1  0.00000000  0.50000000  0.32827711  1
  O  O427  1  0.50000000  -0.00000000  0.67172289  1
  O  O428  1  0.62176896  0.53150608  0.90364628  1
  O  O429  1  0.37823104  0.46849392  0.90364628  1
  O  O430  1  0.87823104  0.03150608  0.09635372  1
  O  O431  1  0.12176896  0.96849392  0.09635372  1
  O  O432  1  0.37823104  0.46849392  0.09635372  1
  O  O433  1  0.62176896  0.53150608  0.09635372  1
  O  O434  1  0.12176896  0.96849392  0.90364628  1
  O  O435  1  0.87823104  0.03150608  0.90364628  1
  O  O436  1  0.77011306  0.55523102  0.07992129  1
  O  O437  1  0.22988694  0.44476898  0.07992129  1
  O  O438  1  0.72988694  0.05523102  0.92007871  1
  O  O439  1  0.27011306  0.94476898  0.92007871  1
  O  O440  1  0.22988694  0.44476898  0.92007871  1
  O  O441  1  0.77011306  0.55523102  0.92007871  1
  O  O442  1  0.27011306  0.94476898  0.07992129  1
  O  O443  1  0.72988694  0.05523102  0.07992129  1
  O  O444  1  0.15401260  0.92414715  0.84437746  1
  O  O445  1  0.84598740  0.07585285  0.84437746  1
  O  O446  1  0.34598740  0.42414715  0.15562254  1
  O  O447  1  0.65401260  0.57585285  0.15562254  1
  O  O448  1  0.84598740  0.07585285  0.15562254  1
  O  O449  1  0.15401260  0.92414715  0.15562254  1
  O  O450  1  0.65401260  0.57585285  0.84437746  1
  O  O451  1  0.34598740  0.42414715  0.84437746  1
  O  O452  1  0.12278001  0.41183418  0.00000000  1
  O  O453  1  0.87721999  0.58816582  0.00000000  1
  O  O454  1  0.37721999  0.91183418  0.00000000  1
  O  O455  1  0.62278001  0.08816582  0.00000000  1
  O  O456  1  0.48909447  0.69355321  0.85152183  1
  O  O457  1  0.51090553  0.30644679  0.85152183  1
  O  O458  1  0.01090553  0.19355321  0.14847817  1
  O  O459  1  0.98909447  0.80644679  0.14847817  1
  O  O460  1  0.51090553  0.30644679  0.14847817  1
  O  O461  1  0.48909447  0.69355321  0.14847817  1
  O  O462  1  0.98909447  0.80644679  0.85152183  1
  O  O463  1  0.01090553  0.19355321  0.85152183  1
  O  O464  1  0.69452769  0.62162370  0.50953690  1
  O  O465  1  0.30547231  0.37837630  0.50953690  1
  O  O466  1  0.80547231  0.12162370  0.49046310  1
  O  O467  1  0.19452769  0.87837630  0.49046310  1
  O  O468  1  0.30547231  0.37837630  0.49046310  1
  O  O469  1  0.69452769  0.62162370  0.49046310  1
  O  O470  1  0.19452769  0.87837630  0.50953690  1
  O  O471  1  0.80547231  0.12162370  0.50953690  1
  O  O472  1  0.74399857  0.87116612  0.28857465  1
  O  O473  1  0.25600143  0.12883388  0.28857465  1
  O  O474  1  0.75600143  0.37116612  0.71142535  1
  O  O475  1  0.24399857  0.62883388  0.71142535  1
  O  O476  1  0.25600143  0.12883388  0.71142535  1
  O  O477  1  0.74399857  0.87116612  0.71142535  1
  O  O478  1  0.24399857  0.62883388  0.28857465  1
  O  O479  1  0.75600143  0.37116612  0.28857465  1
  O  O480  1  0.07079383  0.82568543  0.71204323  1
  O  O481  1  0.92920617  0.17431457  0.71204323  1
  O  O482  1  0.42920617  0.32568543  0.28795677  1
  O  O483  1  0.57079383  0.67431457  0.28795677  1
  O  O484  1  0.92920617  0.17431457  0.28795677  1
  O  O485  1  0.07079383  0.82568543  0.28795677  1
  O  O486  1  0.57079383  0.67431457  0.71204323  1
  O  O487  1  0.42920617  0.32568543  0.71204323  1
  O  O488  1  0.86253430  0.85679833  0.75596728  1
  O  O489  1  0.13746570  0.14320167  0.75596728  1
  O  O490  1  0.63746570  0.35679833  0.24403272  1
  O  O491  1  0.36253430  0.64320167  0.24403272  1
  O  O492  1  0.13746570  0.14320167  0.24403272  1
  O  O493  1  0.86253430  0.85679833  0.24403272  1
  O  O494  1  0.36253430  0.64320167  0.75596728  1
  O  O495  1  0.63746570  0.35679833  0.75596728  1
  O  O496  1  0.41452934  0.89514759  0.23856333  1
  O  O497  1  0.58547066  0.10485241  0.23856333  1
  O  O498  1  0.08547066  0.39514759  0.76143667  1
  O  O499  1  0.91452934  0.60485241  0.76143667  1
  O  O500  1  0.58547066  0.10485241  0.76143667  1
  O  O501  1  0.41452934  0.89514759  0.76143667  1
  O  O502  1  0.91452934  0.60485241  0.23856333  1
  O  O503  1  0.08547066  0.39514759  0.23856333  1
  Sn  Sn504  1  0.98986192  0.73420068  0.50000000  1
  Sn  Sn505  1  0.01013808  0.26579932  0.50000000  1
  Sn  Sn506  1  0.51013808  0.23420068  0.50000000  1
  Sn  Sn507  1  0.48986192  0.76579932  0.50000000  1
  Sn  Sn508  1  0.33434951  0.50284481  0.18359178  1
  Sn  Sn509  1  0.66565049  0.49715519  0.18359178  1
  Sn  Sn510  1  0.16565049  0.00284481  0.81640822  1
  Sn  Sn511  1  0.83434951  0.99715519  0.81640822  1
  Sn  Sn512  1  0.66565049  0.49715519  0.81640822  1
  Sn  Sn513  1  0.33434951  0.50284481  0.81640822  1
  Sn  Sn514  1  0.83434951  0.99715519  0.18359178  1
  Sn  Sn515  1  0.16565049  0.00284481  0.18359178  1
  Sn  Sn516  1  0.75909475  0.58461256  0.04934031  1
  Sn  Sn517  1  0.24090525  0.41538744  0.04934031  1
  Sn  Sn518  1  0.74090525  0.08461256  0.95065969  1
  Sn  Sn519  1  0.25909475  0.91538744  0.95065969  1
  Sn  Sn520  1  0.24090525  0.41538744  0.95065969  1
  Sn  Sn521  1  0.75909475  0.58461256  0.95065969  1
  Sn  Sn522  1  0.25909475  0.91538744  0.04934031  1
  Sn  Sn523  1  0.74090525  0.08461256  0.04934031  1
  Sn  Sn524  1  0.91787411  0.05145799  0.50000000  1
  Sn  Sn525  1  0.08212589  0.94854201  0.50000000  1
  Sn  Sn526  1  0.58212589  0.55145799  0.50000000  1
  Sn  Sn527  1  0.41787411  0.44854201  0.50000000  1
  Sn  Sn528  1  0.00000000  0.50000000  0.83465855  1
  Sn  Sn529  1  0.50000000  -0.00000000  0.16534145  1
  Sn  Sn530  1  0.00000000  0.50000000  0.16534145  1
  Sn  Sn531  1  0.50000000  -0.00000000  0.83465855  1
  Sn  Sn532  1  0.56017800  0.09679414  0.01475700  1
  Sn  Sn533  1  0.43982200  0.90320586  0.01475700  1
  Sn  Sn534  1  0.93982200  0.59679414  0.98524300  1
  Sn  Sn535  1  0.06017800  0.40320586  0.98524300  1
  Sn  Sn536  1  0.43982200  0.90320586  0.98524300  1
  Sn  Sn537  1  0.56017800  0.09679414  0.98524300  1
  Sn  Sn538  1  0.06017800  0.40320586  0.01475700  1
  Sn  Sn539  1  0.93982200  0.59679414  0.01475700  1
  Sn  Sn540  1  0.02879549  0.20111036  0.96444416  1
  Sn  Sn541  1  0.97120451  0.79888964  0.96444416  1
  Sn  Sn542  1  0.47120451  0.70111036  0.03555584  1
  Sn  Sn543  1  0.52879549  0.29888964  0.03555584  1
  Sn  Sn544  1  0.97120451  0.79888964  0.03555584  1
  Sn  Sn545  1  0.02879549  0.20111036  0.03555584  1
  Sn  Sn546  1  0.52879549  0.29888964  0.96444416  1
  Sn  Sn547  1  0.47120451  0.70111036  0.96444416  1
  Sn  Sn548  1  0.00000000  0.50000000  0.21621633  1
  Sn  Sn549  1  0.50000000  -0.00000000  0.78378367  1
  Sn  Sn550  1  0.00000000  0.50000000  0.78378367  1
  Sn  Sn551  1  0.50000000  -0.00000000  0.21621633  1
  Sn  Sn552  1  0.43699845  0.57771690  0.96779536  1
  Sn  Sn553  1  0.56300155  0.42228310  0.96779536  1
  Sn  Sn554  1  0.06300155  0.07771690  0.03220464  1
  Sn  Sn555  1  0.93699845  0.92228310  0.03220464  1
  Sn  Sn556  1  0.56300155  0.42228310  0.03220464  1
  Sn  Sn557  1  0.43699845  0.57771690  0.03220464  1
  Sn  Sn558  1  0.93699845  0.92228310  0.96779536  1
  Sn  Sn559  1  0.06300155  0.07771690  0.96779536  1
  Sn  Sn560  1  0.32163516  0.13854880  0.64521689  1
  Sn  Sn561  1  0.67836484  0.86145120  0.64521689  1
  Sn  Sn562  1  0.17836484  0.63854880  0.35478311  1
  Sn  Sn563  1  0.82163516  0.36145120  0.35478311  1
  Sn  Sn564  1  0.67836484  0.86145120  0.35478311  1
  Sn  Sn565  1  0.32163516  0.13854880  0.35478311  1
  Sn  Sn566  1  0.82163516  0.36145120  0.64521689  1
  Sn  Sn567  1  0.17836484  0.63854880  0.64521689  1
  Sn  Sn568  1  0.12828327  0.13640565  0.10433455  1
  Sn  Sn569  1  0.87171673  0.86359435  0.10433455  1
  Sn  Sn570  1  0.37171673  0.63640565  0.89566545  1
  Sn  Sn571  1  0.62828327  0.36359435  0.89566545  1
  Sn  Sn572  1  0.87171673  0.86359435  0.89566545  1
  Sn  Sn573  1  0.12828327  0.13640565  0.89566545  1
  Sn  Sn574  1  0.62828327  0.36359435  0.10433455  1
  Sn  Sn575  1  0.37171673  0.63640565  0.10433455  1
