# generated using pymatgen
data_LiF
_symmetry_space_group_name_H-M   'P 1'
_cell_length_a   9.66160047
_cell_length_b   10.43506169
_cell_length_c   5.79948720
_cell_angle_alpha   90.00000000
_cell_angle_beta   90.00000000
_cell_angle_gamma   90.00000000
_symmetry_Int_Tables_number   1
_chemical_formula_structural   LiF
_chemical_formula_sum   'Li24 F24'
_cell_volume   584.70080226
_cell_formula_units_Z   24
loop_
 _symmetry_equiv_pos_site_id
 _symmetry_equiv_pos_as_xyz
  1  'x, y, z'
loop_
 _atom_site_type_symbol
 _atom_site_label
 _atom_site_symmetry_multiplicity
 _atom_site_fract_x
 _atom_site_fract_y
 _atom_site_fract_z
 _atom_site_occupancy
  F  F0  1  0.99063913  0.87160781  0.83513746  1
  F  F1  1  0.50936087  0.12839219  0.33513746  1
  F  F2  1  0.00936087  0.37160781  0.16486254  1
  F  F3  1  0.49063913  0.62839219  0.66486254  1
  F  F4  1  0.00936087  0.12839219  0.16486254  1
  F  F5  1  0.49063913  0.87160781  0.66486254  1
  F  F6  1  0.99063913  0.62839219  0.83513746  1
  F  F7  1  0.50936087  0.37160781  0.33513746  1
  F  F8  1  0.31673869  0.97842887  0.28405079  1
  F  F9  1  0.18326131  0.02157113  0.78405079  1
  F  F10  1  0.68326131  0.47842887  0.71594921  1
  F  F11  1  0.81673869  0.52157113  0.21594921  1
  F  F12  1  0.68326131  0.02157113  0.71594921  1
  F  F13  1  0.81673869  0.97842887  0.21594921  1
  F  F14  1  0.31673869  0.52157113  0.28405079  1
  F  F15  1  0.18326131  0.47842887  0.78405079  1
  F  F16  1  0.27519290  0.07707802  0.54242237  1
  F  F17  1  0.22480710  0.92292198  0.04242237  1
  F  F18  1  0.72480710  0.57707802  0.45757763  1
  F  F19  1  0.77519290  0.42292198  0.95757763  1
  F  F20  1  0.72480710  0.92292198  0.45757763  1
  F  F21  1  0.77519290  0.07707802  0.95757763  1
  F  F22  1  0.27519290  0.42292198  0.54242237  1
  F  F23  1  0.22480710  0.57707802  0.04242237  1
  Li  Li24  1  0.21256376  0.01970094  0.25376925  1
  Li  Li25  1  0.28743624  -0.01970094  0.75376925  1
  Li  Li26  1  -0.21256376  0.51970094  -0.25376925  1
  Li  Li27  1  0.71256376  0.48029906  0.24623075  1
  Li  Li28  1  -0.21256376  -0.01970094  -0.25376925  1
  Li  Li29  1  0.71256376  0.01970094  0.24623075  1
  Li  Li30  1  0.21256376  0.48029906  0.25376925  1
  Li  Li31  1  0.28743624  0.51970094  0.75376925  1
  Li  Li32  1  0.35592040  0.25000000  0.73919295  1
  Li  Li33  1  0.14407960  0.75000000  0.23919295  1
  Li  Li34  1  0.64407960  0.75000000  0.26080705  1
  Li  Li35  1  0.85592040  0.25000000  0.76080705  1
  Li  Li36  1  0.21600289  0.25000000  0.32555829  1
  Li  Li37  1  0.28399711  0.75000000  0.82555829  1
  Li  Li38  1  0.78399711  0.75000000  0.67444171  1
  Li  Li39  1  0.71600289  0.25000000  0.17444171  1
  Li  Li40  1  0.85833586  0.40802166  0.45527851  1
  Li  Li41  1  0.64166414  0.59197834  0.95527851  1
  Li  Li42  1  0.14166414  0.90802166  0.54472149  1
  Li  Li43  1  0.35833586  0.09197834  0.04472149  1
  Li  Li44  1  0.14166414  0.59197834  0.54472149  1
  Li  Li45  1  0.35833586  0.40802166  0.04472149  1
  Li  Li46  1  0.85833586  0.09197834  0.45527851  1
  Li  Li47  1  0.64166414  0.90802166  0.95527851  1
