# generated using pymatgen
data_LiYMoAs2P
_symmetry_space_group_name_H-M   'P 1'
_cell_length_a   5.57426954
_cell_length_b   5.66233354
_cell_length_c   6.89364015
_cell_angle_alpha   93.15304952
_cell_angle_beta   96.52132001
_cell_angle_gamma   102.04386925
_symmetry_Int_Tables_number   1
_chemical_formula_structural   LiYMoAs2P
_chemical_formula_sum   'Li2 Y2 Mo2 As4 P2'
_cell_volume   210.72552867
_cell_formula_units_Z   2
loop_
 _symmetry_equiv_pos_site_id
 _symmetry_equiv_pos_as_xyz
  1  'x, y, z'
loop_
 _atom_site_type_symbol
 _atom_site_label
 _atom_site_symmetry_multiplicity
 _atom_site_fract_x
 _atom_site_fract_y
 _atom_site_fract_z
 _atom_site_occupancy
  P  P0  1  0.00000000  0.00000000  0.00000000  1
  P  P1  1  0.50000000  0.50000000  0.50000000  1
  Mo  Mo2  1  0.25000000  0.25000000  0.25000000  1
  Mo  Mo3  1  0.75000000  0.25000000  0.00000000  1
  As  As4  1  0.25000000  0.75000000  0.50000000  1
  As  As5  1  0.25381367  0.24016649  0.88323342  1
  As  As6  1  0.40686931  0.93070079  0.76783431  1
  As  As7  1  0.69224310  0.40933195  0.58217096  1
  Li  Li8  1  0.26663251  0.33962340  0.89771098  1
  Li  Li9  1  0.26242909  0.48937837  0.46260846  1
  Y  Y10  1  0.03388624  0.19004736  0.62594872  1
  Y  Y11  1  0.50573031  0.36835143  0.97493511  1
