# generated using pymatgen
data_Li2Y2MoP3Se2
_symmetry_space_group_name_H-M   'P 1'
_cell_length_a   4.67021766
_cell_length_b   4.97352749
_cell_length_c   7.01396291
_cell_angle_alpha   95.40544597
_cell_angle_beta   101.77193754
_cell_angle_gamma   111.71152809
_symmetry_Int_Tables_number   1
_chemical_formula_structural   Li2Y2MoP3Se2
_chemical_formula_sum   'Li2 Y2 Mo1 P3 Se2'
_cell_volume   145.57414352
_cell_formula_units_Z   1
loop_
 _symmetry_equiv_pos_site_id
 _symmetry_equiv_pos_as_xyz
  1  'x, y, z'
loop_
 _atom_site_type_symbol
 _atom_site_label
 _atom_site_symmetry_multiplicity
 _atom_site_fract_x
 _atom_site_fract_y
 _atom_site_fract_z
 _atom_site_occupancy
  Se  Se0  1  0.00000000  0.00000000  0.00000000  1
  Se  Se1  1  0.50000000  0.50000000  0.50000000  1
  P  P2  1  0.50000000  0.50000000  0.00000000  1
  P  P3  1  0.50000000  0.00000000  0.50000000  1
  P  P4  1  0.00000000  0.50000000  0.50000000  1
  Mo  Mo5  1  0.47432712  0.27125053  0.14900651  1
  Li  Li6  1  0.75015561  0.37882729  0.78417314  1
  Li  Li7  1  0.94000627  0.22953789  0.04949882  1
  Y  Y8  1  0.24661748  0.69361719  0.31638298  1
  Y  Y9  1  0.02211754  0.54285261  0.24496498  1
