# generated using pymatgen
data_LiCu3Sb2P
_symmetry_space_group_name_H-M   'P 1'
_cell_length_a   4.31509163
_cell_length_b   4.44240314
_cell_length_c   6.02236101
_cell_angle_alpha   95.23925712
_cell_angle_beta   98.55730165
_cell_angle_gamma   106.57020750
_symmetry_Int_Tables_number   1
_chemical_formula_structural   LiCu3Sb2P
_chemical_formula_sum   'Li1 Cu3 Sb2 P1'
_cell_volume   108.32382063
_cell_formula_units_Z   1
loop_
 _symmetry_equiv_pos_site_id
 _symmetry_equiv_pos_as_xyz
  1  'x, y, z'
loop_
 _atom_site_type_symbol
 _atom_site_label
 _atom_site_symmetry_multiplicity
 _atom_site_fract_x
 _atom_site_fract_y
 _atom_site_fract_z
 _atom_site_occupancy
  Cu  Cu0  1  0.12500000  0.12500000  0.12500000  1
  Cu  Cu1  1  0.50000000  0.50000000  0.50000000  1
  Cu  Cu2  1  0.25000000  0.25000000  0.25000000  1
  P  P3  1  0.75000000  0.75000000  0.75000000  1
  Li  Li4  1  0.28486621  0.34842114  0.57696064  1
  Sb  Sb5  1  0.55420319  0.02536087  0.24280993  1
  Sb  Sb6  1  0.58209436  0.11119161  0.69671929  1
