# generated using pymatgen
data_Li3Y2As4P3Se
_symmetry_space_group_name_H-M   'P 1'
_cell_length_a   5.91036009
_cell_length_b   6.11014035
_cell_length_c   7.12371455
_cell_angle_alpha   92.24317989
_cell_angle_beta   95.35502209
_cell_angle_gamma   99.57727021
_symmetry_Int_Tables_number   1
_chemical_formula_structural   Li3Y2As4P3Se
_chemical_formula_sum   'Li3 Y2 As4 P3 Se1'
_cell_volume   252.17494786
_cell_formula_units_Z   1
loop_
 _symmetry_equiv_pos_site_id
 _symmetry_equiv_pos_as_xyz
  1  'x, y, z'
loop_
 _atom_site_type_symbol
 _atom_site_label
 _atom_site_symmetry_multiplicity
 _atom_site_fract_x
 _atom_site_fract_y
 _atom_site_fract_z
 _atom_site_occupancy
  Se  Se0  1  0.00000000  0.00000000  0.00000000  1
  P  P1  1  0.50000000  0.50000000  0.50000000  1
  P  P2  1  0.25000000  0.25000000  0.25000000  1
  P  P3  1  0.75000000  0.25000000  0.00000000  1
  As  As4  1  0.25000000  0.75000000  0.50000000  1
  As  As5  1  0.38117345  0.15158452  0.42719651  1
  As  As6  1  0.16649199  0.25289005  0.03156414  1
  As  As7  1  0.17315017  0.84605788  0.33894594  1
  Li  Li8  1  0.54609944  0.37455583  0.00463252  1
  Li  Li9  1  0.05634966  0.97136345  0.47896450  1
  Li  Li10  1  0.92565756  0.63049282  0.12756827  1
  Y  Y11  1  0.16130995  0.06613810  0.51153300  1
  Y  Y12  1  0.32099661  0.52514089  0.45788706  1
