# generated using pymatgen
data_Li2Y2P3Se2
_symmetry_space_group_name_H-M   'P 1'
_cell_length_a   5.48517226
_cell_length_b   5.76684431
_cell_length_c   7.38590210
_cell_angle_alpha   93.91188026
_cell_angle_beta   98.51926193
_cell_angle_gamma   105.71246824
_symmetry_Int_Tables_number   1
_chemical_formula_structural   Li2Y2P3Se2
_chemical_formula_sum   'Li2 Y2 P3 Se2'
_cell_volume   220.97519516
_cell_formula_units_Z   1
loop_
 _symmetry_equiv_pos_site_id
 _symmetry_equiv_pos_as_xyz
  1  'x, y, z'
loop_
 _atom_site_type_symbol
 _atom_site_label
 _atom_site_symmetry_multiplicity
 _atom_site_fract_x
 _atom_site_fract_y
 _atom_site_fract_z
 _atom_site_occupancy
  Se  Se0  1  0.12500000  0.12500000  0.12500000  1
  Se  Se1  1  0.50000000  0.50000000  0.50000000  1
  Y  Y2  1  0.25000000  0.25000000  0.25000000  1
  Y  Y3  1  0.75000000  0.75000000  0.75000000  1
  P  P4  1  0.31093002  0.67301335  0.59738176  1
  P  P5  1  0.08806645  0.16799798  0.12290590  1
  P  P6  1  0.29121341  0.80981284  0.40659810  1
  Li  Li7  1  0.83723019  0.06389120  0.80337921  1
  Li  Li8  1  0.24333300  0.19498282  0.19561482  1
