# generated using pymatgen
data_LiF
_symmetry_space_group_name_H-M   'P 1'
_cell_length_a   7.95724108
_cell_length_b   5.19867157
_cell_length_c   9.71801360
_cell_angle_alpha   90.00000000
_cell_angle_beta   90.00000000
_cell_angle_gamma   90.00000000
_symmetry_Int_Tables_number   1
_chemical_formula_structural   LiF
_chemical_formula_sum   'Li18 F18'
_cell_volume   402.00587547
_cell_formula_units_Z   18
loop_
 _symmetry_equiv_pos_site_id
 _symmetry_equiv_pos_as_xyz
  1  'x, y, z'
loop_
 _atom_site_type_symbol
 _atom_site_label
 _atom_site_symmetry_multiplicity
 _atom_site_fract_x
 _atom_site_fract_y
 _atom_site_fract_z
 _atom_site_occupancy
  F  F0  1  0.00000000  0.00000000  0.50000000  1
  F  F1  1  0.50000000  0.50000000  0.50000000  1
  F  F2  1  0.94167680  0.81366742  0.50000000  1
  F  F3  1  0.05832320  0.18633258  0.50000000  1
  F  F4  1  0.55832320  0.31366742  0.50000000  1
  F  F5  1  0.44167680  0.68633258  0.50000000  1
  F  F6  1  0.21987771  0.15189599  0.43970322  1
  F  F7  1  -0.21987771  -0.15189599  0.43970322  1
  F  F8  1  0.28012229  0.65189599  -0.43970322  1
  F  F9  1  0.71987771  0.34810401  -0.43970322  1
  F  F10  1  -0.21987771  -0.15189599  -0.43970322  1
  F  F11  1  0.21987771  0.15189599  -0.43970322  1
  F  F12  1  0.71987771  0.34810401  0.43970322  1
  F  F13  1  0.28012229  0.65189599  0.43970322  1
  F  F14  1  0.26796557  0.83973424  0.50000000  1
  F  F15  1  0.73203443  0.16026576  0.50000000  1
  F  F16  1  0.23203443  0.33973424  0.50000000  1
  F  F17  1  0.76796557  0.66026576  0.50000000  1
  Li  Li18  1  0.54090638  0.35306399  0.89797717  1
  Li  Li19  1  0.45909362  0.64693601  0.89797717  1
  Li  Li20  1  0.95909362  0.85306399  0.10202283  1
  Li  Li21  1  0.04090638  0.14693601  0.10202283  1
  Li  Li22  1  0.45909362  0.64693601  0.10202283  1
  Li  Li23  1  0.54090638  0.35306399  0.10202283  1
  Li  Li24  1  0.04090638  0.14693601  0.89797717  1
  Li  Li25  1  0.95909362  0.85306399  0.89797717  1
  Li  Li26  1  0.04806498  0.31991936  0.28831462  1
  Li  Li27  1  0.95193502  0.68008064  0.28831462  1
  Li  Li28  1  0.45193502  0.81991936  0.71168538  1
  Li  Li29  1  0.54806498  0.18008064  0.71168538  1
  Li  Li30  1  0.95193502  0.68008064  0.71168538  1
  Li  Li31  1  0.04806498  0.31991936  0.71168538  1
  Li  Li32  1  0.54806498  0.18008064  0.28831462  1
  Li  Li33  1  0.45193502  0.81991936  0.28831462  1
  Li  Li34  1  0.00000000  0.50000000  0.00000000  1
  Li  Li35  1  0.50000000  0.00000000  0.00000000  1
