# generated using pymatgen
data_Li2Y2As4P3
_symmetry_space_group_name_H-M   'P 1'
_cell_length_a   4.47937298
_cell_length_b   4.58429156
_cell_length_c   6.77550022
_cell_angle_alpha   95.63696147
_cell_angle_beta   102.27613017
_cell_angle_gamma   112.64143385
_symmetry_Int_Tables_number   1
_chemical_formula_structural   Li2Y2As4P3
_chemical_formula_sum   'Li2 Y2 As4 P3'
_cell_volume   122.94739952
_cell_formula_units_Z   1
loop_
 _symmetry_equiv_pos_site_id
 _symmetry_equiv_pos_as_xyz
  1  'x, y, z'
loop_
 _atom_site_type_symbol
 _atom_site_label
 _atom_site_symmetry_multiplicity
 _atom_site_fract_x
 _atom_site_fract_y
 _atom_site_fract_z
 _atom_site_occupancy
  P  P0  1  0.12500000  0.12500000  0.12500000  1
  P  P1  1  0.50000000  0.50000000  0.50000000  1
  P  P2  1  0.25000000  0.25000000  0.25000000  1
  As  As3  1  0.75000000  0.75000000  0.75000000  1
  As  As4  1  0.86421000  0.25203671  0.25170264  1
  As  As5  1  0.95675589  0.84394134  0.74915892  1
  As  As6  1  0.86967989  0.00558909  0.52985272  1
  Li  Li7  1  0.81632288  0.11346279  0.83008102  1
  Li  Li8  1  0.86045072  0.60204926  0.37339012  1
  Y  Y9  1  0.68538699  0.78371851  0.97717016  1
  Y  Y10  1  0.76721206  0.77286760  0.31883993  1
