# generated using pymatgen
data_LiF
_symmetry_space_group_name_H-M   'P 1'
_cell_length_a   10.48926626
_cell_length_b   7.70187448
_cell_length_c   9.12461896
_cell_angle_alpha   90.00000000
_cell_angle_beta   90.00000000
_cell_angle_gamma   90.00000000
_symmetry_Int_Tables_number   1
_chemical_formula_structural   LiF
_chemical_formula_sum   'Li28 F28'
_cell_volume   737.15070219
_cell_formula_units_Z   28
loop_
 _symmetry_equiv_pos_site_id
 _symmetry_equiv_pos_as_xyz
  1  'x, y, z'
loop_
 _atom_site_type_symbol
 _atom_site_label
 _atom_site_symmetry_multiplicity
 _atom_site_fract_x
 _atom_site_fract_y
 _atom_site_fract_z
 _atom_site_occupancy
  F  F0  1  0.60273442  0.25000000  0.45486192  1
  F  F1  1  0.89726558  0.75000000  0.95486192  1
  F  F2  1  0.39726558  0.75000000  0.54513808  1
  F  F3  1  0.10273442  0.25000000  0.04513808  1
  F  F4  1  0.26257664  0.52754379  0.51499050  1
  F  F5  1  0.23742336  0.47245621  0.01499050  1
  F  F6  1  0.73742336  0.02754379  0.48500950  1
  F  F7  1  0.76257664  0.97245621  0.98500950  1
  F  F8  1  0.73742336  0.47245621  0.48500950  1
  F  F9  1  0.76257664  0.52754379  0.98500950  1
  F  F10  1  0.26257664  0.97245621  0.51499050  1
  F  F11  1  0.23742336  0.02754379  0.01499050  1
  F  F12  1  0.95267552  0.38208287  0.42397084  1
  F  F13  1  0.54732448  0.61791713  0.92397084  1
  F  F14  1  0.04732448  0.88208287  0.57602916  1
  F  F15  1  0.45267552  0.11791713  0.07602916  1
  F  F16  1  0.04732448  0.61791713  0.57602916  1
  F  F17  1  0.45267552  0.38208287  0.07602916  1
  F  F18  1  0.95267552  0.11791713  0.42397084  1
  F  F19  1  0.54732448  0.88208287  0.92397084  1
  F  F20  1  0.05136904  0.25000000  0.46557956  1
  F  F21  1  0.44863096  0.75000000  0.96557956  1
  F  F22  1  0.94863096  0.75000000  0.53442044  1
  F  F23  1  0.55136904  0.25000000  0.03442044  1
  F  F24  1  0.78038153  0.25000000  0.87497439  1
  F  F25  1  0.71961847  0.75000000  0.37497439  1
  F  F26  1  0.21961847  0.75000000  0.12502561  1
  F  F27  1  0.28038153  0.25000000  0.62502561  1
  Li  Li28  1  0.58454221  0.99887553  0.87994807  1
  Li  Li29  1  -0.08454221  -0.99887553  1.37994807  1
  Li  Li30  1  -0.58454221  1.49887553  -0.87994807  1
  Li  Li31  1  1.08454221  -0.49887553  -0.37994807  1
  Li  Li32  1  -0.58454221  -0.99887553  -0.87994807  1
  Li  Li33  1  1.08454221  0.99887553  -0.37994807  1
  Li  Li34  1  0.58454221  -0.49887553  0.87994807  1
  Li  Li35  1  -0.08454221  1.49887553  1.37994807  1
  Li  Li36  1  0.60592039  0.25000000  0.84356936  1
  Li  Li37  1  0.89407961  0.75000000  0.34356936  1
  Li  Li38  1  0.39407961  0.75000000  0.15643064  1
  Li  Li39  1  0.10592039  0.25000000  0.65643064  1
  Li  Li40  1  0.94863975  0.95120227  0.51430101  1
  Li  Li41  1  0.55136025  0.04879773  0.01430101  1
  Li  Li42  1  0.05136025  0.45120227  0.48569899  1
  Li  Li43  1  0.44863975  0.54879773  0.98569899  1
  Li  Li44  1  0.05136025  0.04879773  0.48569899  1
  Li  Li45  1  0.44863975  0.95120227  0.98569899  1
  Li  Li46  1  0.94863975  0.54879773  0.51430101  1
  Li  Li47  1  0.55136025  0.45120227  0.01430101  1
  Li  Li48  1  0.67526810  0.87078315  0.95299289  1
  Li  Li49  1  0.82473190  0.12921685  0.45299289  1
  Li  Li50  1  0.32473190  0.37078315  0.04700711  1
  Li  Li51  1  0.17526810  0.62921685  0.54700711  1
  Li  Li52  1  0.32473190  0.12921685  0.04700711  1
  Li  Li53  1  0.17526810  0.87078315  0.54700711  1
  Li  Li54  1  0.67526810  0.62921685  0.95299289  1
  Li  Li55  1  0.82473190  0.37078315  0.45299289  1
