# generated using pymatgen
data_Li3Y2P3Se2
_symmetry_space_group_name_H-M   'P 1'
_cell_length_a   5.11653876
_cell_length_b   5.28603103
_cell_length_c   7.07316176
_cell_angle_alpha   94.49471085
_cell_angle_beta   99.78854579
_cell_angle_gamma   108.05346707
_symmetry_Int_Tables_number   1
_chemical_formula_structural   Li3Y2P3Se2
_chemical_formula_sum   'Li3 Y2 P3 Se2'
_cell_volume   177.47381679
_cell_formula_units_Z   1
loop_
 _symmetry_equiv_pos_site_id
 _symmetry_equiv_pos_as_xyz
  1  'x, y, z'
loop_
 _atom_site_type_symbol
 _atom_site_label
 _atom_site_symmetry_multiplicity
 _atom_site_fract_x
 _atom_site_fract_y
 _atom_site_fract_z
 _atom_site_occupancy
  P  P0  1  0.00000000  0.00000000  0.00000000  1
  P  P1  1  0.33300000  0.66700000  0.25000000  1
  P  P2  1  0.66700000  0.33300000  0.50000000  1
  Se  Se3  1  0.00000000  0.00000000  0.75000000  1
  Se  Se4  1  0.58755528  0.08229043  0.60862966  1
  Li  Li5  1  0.03001856  0.56840633  0.18942973  1
  Li  Li6  1  0.64142219  0.94488391  0.36762273  1
  Li  Li7  1  0.51978120  0.77026557  0.79561781  1
  Y  Y8  1  0.13117799  0.28397730  0.23366899  1
  Y  Y9  1  0.30634232  0.38967049  0.27127080  1
