# generated using pymatgen
data_LiF
_symmetry_space_group_name_H-M   'P 1'
_cell_length_a   5.03999652
_cell_length_b   10.76799249
_cell_length_c   8.34599206
_cell_angle_alpha   90.00000000
_cell_angle_beta   90.00000000
_cell_angle_gamma   90.00000000
_symmetry_Int_Tables_number   1
_chemical_formula_structural   LiF
_chemical_formula_sum   'Li24 F24'
_cell_volume   452.94236913
_cell_formula_units_Z   24
loop_
 _symmetry_equiv_pos_site_id
 _symmetry_equiv_pos_as_xyz
  1  'x, y, z'
loop_
 _atom_site_type_symbol
 _atom_site_label
 _atom_site_symmetry_multiplicity
 _atom_site_fract_x
 _atom_site_fract_y
 _atom_site_fract_z
 _atom_site_occupancy
  F  F0  1  0.77208637  0.96238874  0.12111048  1
  F  F1  1  0.72791363  0.03761126  0.62111048  1
  F  F2  1  0.22791363  0.46238874  0.87888952  1
  F  F3  1  0.27208637  0.53761126  0.37888952  1
  F  F4  1  0.22791363  0.03761126  0.87888952  1
  F  F5  1  0.27208637  0.96238874  0.37888952  1
  F  F6  1  0.77208637  0.53761126  0.12111048  1
  F  F7  1  0.72791363  0.46238874  0.62111048  1
  F  F8  1  0.72798796  0.29943298  0.54077070  1
  F  F9  1  0.77201204  0.70056702  0.04077070  1
  F  F10  1  0.27201204  0.79943298  0.45922930  1
  F  F11  1  0.22798796  0.20056702  0.95922930  1
  F  F12  1  0.27201204  0.70056702  0.45922930  1
  F  F13  1  0.22798796  0.29943298  0.95922930  1
  F  F14  1  0.72798796  0.20056702  0.54077070  1
  F  F15  1  0.77201204  0.79943298  0.04077070  1
  F  F16  1  0.00000000  0.00000000  0.50000000  1
  F  F17  1  0.50000000  0.00000000  0.00000000  1
  F  F18  1  0.00000000  0.50000000  0.50000000  1
  F  F19  1  0.50000000  0.50000000  0.00000000  1
  F  F20  1  0.32025814  0.25000000  0.85777826  1
  F  F21  1  0.17974186  0.75000000  0.35777826  1
  F  F22  1  0.67974186  0.75000000  0.14222174  1
  F  F23  1  0.82025814  0.25000000  0.64222174  1
  Li  Li24  1  0.30678489  0.25000000  0.20203990  1
  Li  Li25  1  0.19321511  0.75000000  0.70203990  1
  Li  Li26  1  0.69321511  0.75000000  0.79796010  1
  Li  Li27  1  0.80678489  0.25000000  0.29796010  1
  Li  Li28  1  0.64789007  0.15834489  0.98251682  1
  Li  Li29  1  -0.14789007  -0.15834489  1.48251682  1
  Li  Li30  1  -0.64789007  0.65834489  -0.98251682  1
  Li  Li31  1  1.14789007  0.34165511  -0.48251682  1
  Li  Li32  1  -0.64789007  -0.15834489  -0.98251682  1
  Li  Li33  1  1.14789007  0.15834489  -0.48251682  1
  Li  Li34  1  0.64789007  0.34165511  0.98251682  1
  Li  Li35  1  -0.14789007  0.65834489  1.48251682  1
  Li  Li36  1  0.00000000  0.00000000  0.00000000  1
  Li  Li37  1  0.50000000  0.00000000  0.50000000  1
  Li  Li38  1  0.00000000  0.50000000  0.00000000  1
  Li  Li39  1  0.50000000  0.50000000  0.50000000  1
  Li  Li40  1  0.50239891  0.18848532  0.78815337  1
  Li  Li41  1  0.99760109  0.81151468  0.28815337  1
  Li  Li42  1  0.49760109  0.68848532  0.21184663  1
  Li  Li43  1  0.00239891  0.31151468  0.71184663  1
  Li  Li44  1  0.49760109  0.81151468  0.21184663  1
  Li  Li45  1  0.00239891  0.18848532  0.71184663  1
  Li  Li46  1  0.50239891  0.31151468  0.78815337  1
  Li  Li47  1  0.99760109  0.68848532  0.28815337  1
