# generated using pymatgen
data_Li2Y2As4P2Se
_symmetry_space_group_name_H-M   'P 1'
_cell_length_a   4.48131205
_cell_length_b   4.71586604
_cell_length_c   6.52764545
_cell_angle_alpha   95.00121111
_cell_angle_beta   100.21670088
_cell_angle_gamma   108.94542015
_symmetry_Int_Tables_number   1
_chemical_formula_structural   Li2Y2As4P2Se
_chemical_formula_sum   'Li2 Y2 As4 P2 Se1'
_cell_volume   126.84620906
_cell_formula_units_Z   1
loop_
 _symmetry_equiv_pos_site_id
 _symmetry_equiv_pos_as_xyz
  1  'x, y, z'
loop_
 _atom_site_type_symbol
 _atom_site_label
 _atom_site_symmetry_multiplicity
 _atom_site_fract_x
 _atom_site_fract_y
 _atom_site_fract_z
 _atom_site_occupancy
  Y  Y0  1  0.00000000  0.00000000  0.00000000  1
  Y  Y1  1  0.50000000  0.50000000  0.50000000  1
  P  P2  1  0.25000000  0.25000000  0.25000000  1
  P  P3  1  0.75000000  0.25000000  0.00000000  1
  Se  Se4  1  0.25000000  0.75000000  0.50000000  1
  As  As5  1  0.90210972  0.27270497  0.42577591  1
  As  As6  1  0.23919877  0.66031190  0.72117400  1
  As  As7  1  0.12449433  0.51389172  0.89854162  1
  As  As8  1  0.70224131  0.48879155  0.44408965  1
  Li  Li9  1  0.49004831  0.05363988  0.66176443  1
  Li  Li10  1  0.22479567  0.99502478  0.53366398  1
