# generated using pymatgen
data_LiF
_symmetry_space_group_name_H-M   'P 1'
_cell_length_a   6.92862961
_cell_length_b   14.44181926
_cell_length_c   9.31712591
_cell_angle_alpha   90.00000000
_cell_angle_beta   90.00000000
_cell_angle_gamma   90.00000000
_symmetry_Int_Tables_number   1
_chemical_formula_structural   LiF
_chemical_formula_sum   'Li24 F24'
_cell_volume   932.29040679
_cell_formula_units_Z   24
loop_
 _symmetry_equiv_pos_site_id
 _symmetry_equiv_pos_as_xyz
  1  'x, y, z'
loop_
 _atom_site_type_symbol
 _atom_site_label
 _atom_site_symmetry_multiplicity
 _atom_site_fract_x
 _atom_site_fract_y
 _atom_site_fract_z
 _atom_site_occupancy
  F  F0  1  0.53531863  0.15866175  0.32618390  1
  F  F1  1  0.46468137  0.84133825  0.32618390  1
  F  F2  1  0.96468137  0.65866175  0.67381610  1
  F  F3  1  0.03531863  0.34133825  0.67381610  1
  F  F4  1  0.46468137  0.84133825  0.67381610  1
  F  F5  1  0.53531863  0.15866175  0.67381610  1
  F  F6  1  0.03531863  0.34133825  0.32618390  1
  F  F7  1  0.96468137  0.65866175  0.32618390  1
  F  F8  1  0.00000000  0.00000000  0.73228400  1
  F  F9  1  0.50000000  0.50000000  0.26771600  1
  F  F10  1  0.00000000  0.00000000  0.26771600  1
  F  F11  1  0.50000000  0.50000000  0.73228400  1
  F  F12  1  0.00000000  0.00000000  0.50000000  1
  F  F13  1  0.50000000  0.50000000  0.50000000  1
  F  F14  1  0.81710470  0.05891033  0.78101659  1
  F  F15  1  0.18289530  0.94108967  0.78101659  1
  F  F16  1  0.68289530  0.55891033  0.21898341  1
  F  F17  1  0.31710470  0.44108967  0.21898341  1
  F  F18  1  0.18289530  0.94108967  0.21898341  1
  F  F19  1  0.81710470  0.05891033  0.21898341  1
  F  F20  1  0.31710470  0.44108967  0.78101659  1
  F  F21  1  0.68289530  0.55891033  0.78101659  1
  F  F22  1  0.00000000  0.50000000  0.50000000  1
  F  F23  1  0.50000000  0.00000000  0.50000000  1
  Li  Li24  1  0.32724448  0.59798451  0.00000000  1
  Li  Li25  1  0.67275552  0.40201549  -0.00000000  1
  Li  Li26  1  0.17275552  0.09798451  -0.00000000  1
  Li  Li27  1  0.82724448  0.90201549  -0.00000000  1
  Li  Li28  1  0.00000000  0.00000000  0.00000000  1
  Li  Li29  1  0.50000000  0.50000000  0.00000000  1
  Li  Li30  1  0.80021445  0.42440928  0.22690099  1
  Li  Li31  1  -0.80021445  -0.42440928  0.22690099  1
  Li  Li32  1  -0.30021445  0.92440928  -0.22690099  1
  Li  Li33  1  1.30021445  0.07559072  -0.22690099  1
  Li  Li34  1  -0.80021445  -0.42440928  -0.22690099  1
  Li  Li35  1  0.80021445  0.42440928  -0.22690099  1
  Li  Li36  1  1.30021445  0.07559072  0.22690099  1
  Li  Li37  1  -0.30021445  0.92440928  0.22690099  1
  Li  Li38  1  0.93494268  0.03984154  0.11508439  1
  Li  Li39  1  0.06505732  0.96015846  0.11508439  1
  Li  Li40  1  0.56505732  0.53984154  0.88491561  1
  Li  Li41  1  0.43494268  0.46015846  0.88491561  1
  Li  Li42  1  0.06505732  0.96015846  0.88491561  1
  Li  Li43  1  0.93494268  0.03984154  0.88491561  1
  Li  Li44  1  0.43494268  0.46015846  0.11508439  1
  Li  Li45  1  0.56505732  0.53984154  0.11508439  1
  Li  Li46  1  0.00000000  0.50000000  0.00000000  1
  Li  Li47  1  0.50000000  0.00000000  0.00000000  1
