# generated using pymatgen
data_Li2Y2As3P2Se
_symmetry_space_group_name_H-M   'P 1'
_cell_length_a   4.70930298
_cell_length_b   4.80484348
_cell_length_c   6.92932425
_cell_angle_alpha   95.25164144
_cell_angle_beta   101.43698325
_cell_angle_gamma   111.09375643
_symmetry_Int_Tables_number   1
_chemical_formula_structural   Li2Y2As3P2Se
_chemical_formula_sum   'Li2 Y2 As3 P2 Se1'
_cell_volume   141.08889612
_cell_formula_units_Z   1
loop_
 _symmetry_equiv_pos_site_id
 _symmetry_equiv_pos_as_xyz
  1  'x, y, z'
loop_
 _atom_site_type_symbol
 _atom_site_label
 _atom_site_symmetry_multiplicity
 _atom_site_fract_x
 _atom_site_fract_y
 _atom_site_fract_z
 _atom_site_occupancy
  Se  Se0  1  0.12500000  0.00000000  0.25000000  1
  P  P1  1  0.00000000  0.00000000  0.00000000  1
  P  P2  1  0.37500000  0.00000000  0.25000000  1
  As  As3  1  0.25000000  0.25000000  0.25000000  1
  As  As4  1  0.00000000  0.25000000  0.12500000  1
  As  As5  1  0.59285785  0.17763011  0.20097739  1
  Li  Li6  1  0.45735088  0.48772829  0.37318985  1
  Li  Li7  1  0.01671891  0.47567935  0.43800027  1
  Y  Y8  1  0.87910582  0.65580465  0.52061731  1
  Y  Y9  1  0.38439459  0.82648188  0.77423414  1
