# generated using pymatgen
data_LiF
_symmetry_space_group_name_H-M   'P 1'
_cell_length_a   5.87927927
_cell_length_b   13.18378527
_cell_length_c   6.40548861
_cell_angle_alpha   90.00000000
_cell_angle_beta   90.00000000
_cell_angle_gamma   90.00000000
_symmetry_Int_Tables_number   1
_chemical_formula_structural   LiF
_chemical_formula_sum   'Li24 F24'
_cell_volume   496.49682356
_cell_formula_units_Z   24
loop_
 _symmetry_equiv_pos_site_id
 _symmetry_equiv_pos_as_xyz
  1  'x, y, z'
loop_
 _atom_site_type_symbol
 _atom_site_label
 _atom_site_symmetry_multiplicity
 _atom_site_fract_x
 _atom_site_fract_y
 _atom_site_fract_z
 _atom_site_occupancy
  F  F0  1  0.31546666  0.77703504  0.81738407  1
  F  F1  1  0.18453334  0.22296496  0.31738407  1
  F  F2  1  0.68453334  0.27703504  0.18261593  1
  F  F3  1  0.81546666  0.72296496  0.68261593  1
  F  F4  1  0.68453334  0.22296496  0.18261593  1
  F  F5  1  0.81546666  0.77703504  0.68261593  1
  F  F6  1  0.31546666  0.72296496  0.81738407  1
  F  F7  1  0.18453334  0.27703504  0.31738407  1
  F  F8  1  0.74273266  0.17985585  0.49521298  1
  F  F9  1  0.75726734  0.82014415  0.99521298  1
  F  F10  1  0.25726734  0.67985585  0.50478702  1
  F  F11  1  0.24273266  0.32014415  0.00478702  1
  F  F12  1  0.25726734  0.82014415  0.50478702  1
  F  F13  1  0.24273266  0.17985585  0.00478702  1
  F  F14  1  0.74273266  0.32014415  0.49521298  1
  F  F15  1  0.75726734  0.67985585  0.99521298  1
  F  F16  1  0.50604098  0.80733393  0.22400764  1
  F  F17  1  0.99395902  0.19266607  0.72400764  1
  F  F18  1  0.49395902  0.30733393  0.77599236  1
  F  F19  1  0.00604098  0.69266607  0.27599236  1
  F  F20  1  0.49395902  0.19266607  0.77599236  1
  F  F21  1  0.00604098  0.80733393  0.27599236  1
  F  F22  1  0.50604098  0.69266607  0.22400764  1
  F  F23  1  0.99395902  0.30733393  0.72400764  1
  Li  Li24  1  0.36319488  0.25000000  0.56755935  1
  Li  Li25  1  0.13680512  0.75000000  0.06755935  1
  Li  Li26  1  0.63680512  0.75000000  0.43244065  1
  Li  Li27  1  0.86319488  0.25000000  0.93244065  1
  Li  Li28  1  0.58536839  0.50279413  0.78067588  1
  Li  Li29  1  -0.08536839  -0.50279413  1.28067588  1
  Li  Li30  1  -0.58536839  1.00279413  -0.78067588  1
  Li  Li31  1  1.08536839  -0.00279413  -0.28067588  1
  Li  Li32  1  -0.58536839  -0.50279413  -0.78067588  1
  Li  Li33  1  1.08536839  0.50279413  -0.28067588  1
  Li  Li34  1  0.58536839  -0.00279413  0.78067588  1
  Li  Li35  1  -0.08536839  1.00279413  1.28067588  1
  Li  Li36  1  0.29571183  0.46467851  0.61116593  1
  Li  Li37  1  0.20428817  0.53532149  0.11116593  1
  Li  Li38  1  0.70428817  0.96467851  0.38883407  1
  Li  Li39  1  0.79571183  0.03532149  0.88883407  1
  Li  Li40  1  0.70428817  0.53532149  0.38883407  1
  Li  Li41  1  0.79571183  0.46467851  0.88883407  1
  Li  Li42  1  0.29571183  0.03532149  0.61116593  1
  Li  Li43  1  0.20428817  0.96467851  0.11116593  1
  Li  Li44  1  0.00000000  0.00000000  0.50000000  1
  Li  Li45  1  0.50000000  -0.00000000  0.00000000  1
  Li  Li46  1  0.00000000  0.50000000  0.50000000  1
  Li  Li47  1  0.50000000  0.50000000  0.00000000  1
