# generated using pymatgen
data_Li4TeF2
_symmetry_space_group_name_H-M   'P 1'
_cell_length_a   16.17030935
_cell_length_b   16.17030935
_cell_length_c   12.28810998
_cell_angle_alpha   90.00000000
_cell_angle_beta   90.00000000
_cell_angle_gamma   90.00000000
_symmetry_Int_Tables_number   1
_chemical_formula_structural   Li4TeF2
_chemical_formula_sum   'Li96 Te24 F48'
_cell_volume   3213.08153457
_cell_formula_units_Z   24
loop_
 _symmetry_equiv_pos_site_id
 _symmetry_equiv_pos_as_xyz
  1  'x, y, z'
loop_
 _atom_site_type_symbol
 _atom_site_label
 _atom_site_symmetry_multiplicity
 _atom_site_fract_x
 _atom_site_fract_y
 _atom_site_fract_z
 _atom_site_occupancy
  F  F0  1  0.84378093  0.50000000  0.06418018  1
  F  F1  1  0.15621907  0.50000000  0.06418018  1
  F  F2  1  0.50000000  0.84378093  0.06418018  1
  F  F3  1  0.50000000  0.15621907  0.06418018  1
  F  F4  1  0.15621907  0.50000000  0.93581982  1
  F  F5  1  0.84378093  0.50000000  0.93581982  1
  F  F6  1  0.50000000  0.84378093  0.93581982  1
  F  F7  1  0.50000000  0.15621907  0.93581982  1
  F  F8  1  0.20568354  0.00000000  0.50000000  1
  F  F9  1  0.79431646  0.00000000  0.50000000  1
  F  F10  1  0.00000000  0.20568354  0.50000000  1
  F  F11  1  0.00000000  0.79431646  0.50000000  1
  F  F12  1  0.47201403  0.00000000  0.54004487  1
  F  F13  1  0.52798597  0.00000000  0.54004487  1
  F  F14  1  0.00000000  0.47201403  0.54004487  1
  F  F15  1  0.00000000  0.52798597  0.54004487  1
  F  F16  1  0.52798597  0.00000000  0.45995513  1
  F  F17  1  0.47201403  0.00000000  0.45995513  1
  F  F18  1  0.00000000  0.47201403  0.45995513  1
  F  F19  1  0.00000000  0.52798597  0.45995513  1
  F  F20  1  0.00000000  0.50000000  0.50000000  1
  F  F21  1  0.50000000  0.00000000  0.50000000  1
  F  F22  1  0.43021319  0.70217585  0.42136926  1
  F  F23  1  -0.43021319  -0.70217585  0.42136926  1
  F  F24  1  -0.70217585  0.43021319  0.42136926  1
  F  F25  1  0.70217585  -0.43021319  0.42136926  1
  F  F26  1  -0.43021319  0.70217585  -0.42136926  1
  F  F27  1  0.43021319  -0.70217585  -0.42136926  1
  F  F28  1  0.70217585  0.43021319  -0.42136926  1
  F  F29  1  -0.70217585  -0.43021319  -0.42136926  1
  F  F30  1  -0.43021319  -0.70217585  -0.42136926  1
  F  F31  1  0.43021319  0.70217585  -0.42136926  1
  F  F32  1  0.70217585  -0.43021319  -0.42136926  1
  F  F33  1  -0.70217585  0.43021319  -0.42136926  1
  F  F34  1  0.43021319  -0.70217585  0.42136926  1
  F  F35  1  -0.43021319  0.70217585  0.42136926  1
  F  F36  1  -0.70217585  -0.43021319  0.42136926  1
  F  F37  1  0.70217585  0.43021319  0.42136926  1
  F  F38  1  0.97142822  0.97142822  0.43339736  1
  F  F39  1  0.02857178  0.02857178  0.43339736  1
  F  F40  1  0.02857178  0.97142822  0.43339736  1
  F  F41  1  0.97142822  0.02857178  0.43339736  1
  F  F42  1  0.02857178  0.97142822  0.56660264  1
  F  F43  1  0.97142822  0.02857178  0.56660264  1
  F  F44  1  0.97142822  0.97142822  0.56660264  1
  F  F45  1  0.02857178  0.02857178  0.56660264  1
  F  F46  1  0.50000000  0.50000000  0.94383083  1
  F  F47  1  0.50000000  0.50000000  0.05616917  1
  Li  Li48  1  0.05879908  0.50000000  0.50000000  1
  Li  Li49  1  0.94120092  0.50000000  0.50000000  1
  Li  Li50  1  0.50000000  0.05879908  0.50000000  1
  Li  Li51  1  0.50000000  0.94120092  0.50000000  1
  Li  Li52  1  0.56654316  0.68132601  0.17873377  1
  Li  Li53  1  0.43345684  0.31867399  0.17873377  1
  Li  Li54  1  0.31867399  0.56654316  0.17873377  1
  Li  Li55  1  0.68132601  0.43345684  0.17873377  1
  Li  Li56  1  0.43345684  0.68132601  0.82126623  1
  Li  Li57  1  0.56654316  0.31867399  0.82126623  1
  Li  Li58  1  0.68132601  0.56654316  0.82126623  1
  Li  Li59  1  0.31867399  0.43345684  0.82126623  1
  Li  Li60  1  0.43345684  0.31867399  0.82126623  1
  Li  Li61  1  0.56654316  0.68132601  0.82126623  1
  Li  Li62  1  0.68132601  0.43345684  0.82126623  1
  Li  Li63  1  0.31867399  0.56654316  0.82126623  1
  Li  Li64  1  0.56654316  0.31867399  0.17873377  1
  Li  Li65  1  0.43345684  0.68132601  0.17873377  1
  Li  Li66  1  0.31867399  0.43345684  0.17873377  1
  Li  Li67  1  0.68132601  0.56654316  0.17873377  1
  Li  Li68  1  0.90982308  0.66997812  0.93051106  1
  Li  Li69  1  0.09017692  0.33002188  0.93051106  1
  Li  Li70  1  0.33002188  0.90982308  0.93051106  1
  Li  Li71  1  0.66997812  0.09017692  0.93051106  1
  Li  Li72  1  0.09017692  0.66997812  0.06948894  1
  Li  Li73  1  0.90982308  0.33002188  0.06948894  1
  Li  Li74  1  0.66997812  0.90982308  0.06948894  1
  Li  Li75  1  0.33002188  0.09017692  0.06948894  1
  Li  Li76  1  0.09017692  0.33002188  0.06948894  1
  Li  Li77  1  0.90982308  0.66997812  0.06948894  1
  Li  Li78  1  0.66997812  0.09017692  0.06948894  1
  Li  Li79  1  0.33002188  0.90982308  0.06948894  1
  Li  Li80  1  0.90982308  0.33002188  0.93051106  1
  Li  Li81  1  0.09017692  0.66997812  0.93051106  1
  Li  Li82  1  0.33002188  0.09017692  0.93051106  1
  Li  Li83  1  0.66997812  0.90982308  0.93051106  1
  Li  Li84  1  0.41327799  0.41327799  0.79618474  1
  Li  Li85  1  0.58672201  0.58672201  0.79618474  1
  Li  Li86  1  0.58672201  0.41327799  0.79618474  1
  Li  Li87  1  0.41327799  0.58672201  0.79618474  1
  Li  Li88  1  0.58672201  0.41327799  0.20381526  1
  Li  Li89  1  0.41327799  0.58672201  0.20381526  1
  Li  Li90  1  0.41327799  0.41327799  0.20381526  1
  Li  Li91  1  0.58672201  0.58672201  0.20381526  1
  Li  Li92  1  0.20042341  0.50000000  0.31454633  1
  Li  Li93  1  0.79957659  0.50000000  0.31454633  1
  Li  Li94  1  0.50000000  0.20042341  0.31454633  1
  Li  Li95  1  0.50000000  0.79957659  0.31454633  1
  Li  Li96  1  0.79957659  0.50000000  0.68545367  1
  Li  Li97  1  0.20042341  0.50000000  0.68545367  1
  Li  Li98  1  0.50000000  0.20042341  0.68545367  1
  Li  Li99  1  0.50000000  0.79957659  0.68545367  1
  Li  Li100  1  0.50000000  0.50000000  0.50000000  1
  Li  Li101  1  0.14432498  0.25317995  0.79528447  1
  Li  Li102  1  0.85567502  0.74682005  0.79528447  1
  Li  Li103  1  0.74682005  0.14432498  0.79528447  1
  Li  Li104  1  0.25317995  0.85567502  0.79528447  1
  Li  Li105  1  0.85567502  0.25317995  0.20471553  1
  Li  Li106  1  0.14432498  0.74682005  0.20471553  1
  Li  Li107  1  0.25317995  0.14432498  0.20471553  1
  Li  Li108  1  0.74682005  0.85567502  0.20471553  1
  Li  Li109  1  0.85567502  0.74682005  0.20471553  1
  Li  Li110  1  0.14432498  0.25317995  0.20471553  1
  Li  Li111  1  0.25317995  0.85567502  0.20471553  1
  Li  Li112  1  0.74682005  0.14432498  0.20471553  1
  Li  Li113  1  0.14432498  0.74682005  0.79528447  1
  Li  Li114  1  0.85567502  0.25317995  0.79528447  1
  Li  Li115  1  0.74682005  0.85567502  0.79528447  1
  Li  Li116  1  0.25317995  0.14432498  0.79528447  1
  Li  Li117  1  0.57435425  0.23893958  0.50000000  1
  Li  Li118  1  0.42564575  0.76106042  0.50000000  1
  Li  Li119  1  0.76106042  0.57435425  0.50000000  1
  Li  Li120  1  0.23893958  0.42564575  0.50000000  1
  Li  Li121  1  0.42564575  0.23893958  0.50000000  1
  Li  Li122  1  0.57435425  0.76106042  0.50000000  1
  Li  Li123  1  0.23893958  0.57435425  0.50000000  1
  Li  Li124  1  0.76106042  0.42564575  0.50000000  1
  Li  Li125  1  0.00000000  0.00000000  0.50000000  1
  Li  Li126  1  0.70246138  0.63739698  0.55714282  1
  Li  Li127  1  0.29753862  0.36260302  0.55714282  1
  Li  Li128  1  0.36260302  0.70246138  0.55714282  1
  Li  Li129  1  0.63739698  0.29753862  0.55714282  1
  Li  Li130  1  0.29753862  0.63739698  0.44285718  1
  Li  Li131  1  0.70246138  0.36260302  0.44285718  1
  Li  Li132  1  0.63739698  0.70246138  0.44285718  1
  Li  Li133  1  0.36260302  0.29753862  0.44285718  1
  Li  Li134  1  0.29753862  0.36260302  0.44285718  1
  Li  Li135  1  0.70246138  0.63739698  0.44285718  1
  Li  Li136  1  0.63739698  0.29753862  0.44285718  1
  Li  Li137  1  0.36260302  0.70246138  0.44285718  1
  Li  Li138  1  0.70246138  0.36260302  0.55714282  1
  Li  Li139  1  0.29753862  0.63739698  0.55714282  1
  Li  Li140  1  0.36260302  0.29753862  0.55714282  1
  Li  Li141  1  0.63739698  0.70246138  0.55714282  1
  Li  Li142  1  0.50000000  0.50000000  0.67931838  1
  Li  Li143  1  0.50000000  0.50000000  0.32068162  1
  Te  Te144  1  0.38514287  0.00000000  0.85727989  1
  Te  Te145  1  0.61485713  0.00000000  0.85727989  1
  Te  Te146  1  0.00000000  0.38514287  0.85727989  1
  Te  Te147  1  0.00000000  0.61485713  0.85727989  1
  Te  Te148  1  0.61485713  0.00000000  0.14272011  1
  Te  Te149  1  0.38514287  0.00000000  0.14272011  1
  Te  Te150  1  0.00000000  0.38514287  0.14272011  1
  Te  Te151  1  0.00000000  0.61485713  0.14272011  1
  Te  Te152  1  0.80169190  0.80169190  0.00000000  1
  Te  Te153  1  0.19830810  0.19830810  0.00000000  1
  Te  Te154  1  0.19830810  0.80169190  0.00000000  1
  Te  Te155  1  0.80169190  0.19830810  0.00000000  1
  Te  Te156  1  0.00000000  0.00000000  0.27860313  1
  Te  Te157  1  0.00000000  0.00000000  0.72139687  1
  Te  Te158  1  0.71069030  0.00000000  0.68308264  1
  Te  Te159  1  0.28930970  0.00000000  0.68308264  1
  Te  Te160  1  0.00000000  0.71069030  0.68308264  1
  Te  Te161  1  0.00000000  0.28930970  0.68308264  1
  Te  Te162  1  0.28930970  0.00000000  0.31691736  1
  Te  Te163  1  0.71069030  0.00000000  0.31691736  1
  Te  Te164  1  0.00000000  0.71069030  0.31691736  1
  Te  Te165  1  0.00000000  0.28930970  0.31691736  1
  Te  Te166  1  0.00000000  0.50000000  0.00000000  1
  Te  Te167  1  0.50000000  0.00000000  0.00000000  1
