# generated using pymatgen
data_Li4TeF2
_symmetry_space_group_name_H-M   'P 1'
_cell_length_a   15.71376769
_cell_length_b   15.71376769
_cell_length_c   14.66211052
_cell_angle_alpha   90.00000000
_cell_angle_beta   90.00000000
_cell_angle_gamma   90.00000000
_symmetry_Int_Tables_number   1
_chemical_formula_structural   Li4TeF2
_chemical_formula_sum   'Li96 Te24 F48'
_cell_volume   3620.40491058
_cell_formula_units_Z   24
loop_
 _symmetry_equiv_pos_site_id
 _symmetry_equiv_pos_as_xyz
  1  'x, y, z'
loop_
 _atom_site_type_symbol
 _atom_site_label
 _atom_site_symmetry_multiplicity
 _atom_site_fract_x
 _atom_site_fract_y
 _atom_site_fract_z
 _atom_site_occupancy
  F  F0  1  0.34578209  0.26529520  0.78495065  1
  F  F1  1  0.15421791  -0.26529520  1.28495065  1
  F  F2  1  -0.01529520  1.09578209  1.03495065  1
  F  F3  1  0.51529520  -0.09578209  1.53495065  1
  F  F4  1  0.15421791  0.26529520  -0.78495065  1
  F  F5  1  0.34578209  -0.26529520  -0.28495065  1
  F  F6  1  0.51529520  1.09578209  -0.03495065  1
  F  F7  1  -0.01529520  -0.09578209  -0.53495065  1
  F  F8  1  -0.34578209  -0.26529520  -0.78495065  1
  F  F9  1  0.84578209  0.26529520  -0.28495065  1
  F  F10  1  1.01529520  -0.09578209  -0.03495065  1
  F  F11  1  0.48470480  1.09578209  -0.53495065  1
  F  F12  1  0.84578209  -0.26529520  0.78495065  1
  F  F13  1  -0.34578209  0.26529520  1.28495065  1
  F  F14  1  0.48470480  -0.09578209  1.03495065  1
  F  F15  1  1.01529520  1.09578209  1.53495065  1
  F  F16  1  0.84578209  0.76529520  1.28495065  1
  F  F17  1  0.65421791  0.23470480  1.78495065  1
  F  F18  1  0.48470480  1.59578209  1.53495065  1
  F  F19  1  1.01529520  0.40421791  2.03495065  1
  F  F20  1  0.65421791  0.76529520  -0.28495065  1
  F  F21  1  0.84578209  0.23470480  0.21504935  1
  F  F22  1  1.01529520  1.59578209  0.46504935  1
  F  F23  1  0.48470480  0.40421791  -0.03495065  1
  F  F24  1  0.15421791  0.23470480  -0.28495065  1
  F  F25  1  1.34578209  0.76529520  0.21504935  1
  F  F26  1  1.51529520  0.40421791  0.46504935  1
  F  F27  1  0.98470480  1.59578209  -0.03495065  1
  F  F28  1  1.34578209  0.23470480  1.28495065  1
  F  F29  1  0.15421791  0.76529520  1.78495065  1
  F  F30  1  0.98470480  0.40421791  1.53495065  1
  F  F31  1  1.51529520  1.59578209  2.03495065  1
  F  F32  1  0.00000000  0.00000000  0.00000000  1
  F  F33  1  0.50000000  0.00000000  0.50000000  1
  F  F34  1  0.25000000  0.75000000  0.25000000  1
  F  F35  1  0.25000000  0.25000000  0.75000000  1
  F  F36  1  0.50000000  0.00000000  0.00000000  1
  F  F37  1  0.00000000  0.00000000  0.50000000  1
  F  F38  1  0.25000000  0.75000000  0.75000000  1
  F  F39  1  0.25000000  0.25000000  0.25000000  1
  F  F40  1  0.50000000  0.50000000  0.50000000  1
  F  F41  1  0.00000000  0.50000000  0.00000000  1
  F  F42  1  0.75000000  0.25000000  0.75000000  1
  F  F43  1  0.75000000  0.75000000  0.25000000  1
  F  F44  1  0.00000000  0.50000000  0.50000000  1
  F  F45  1  0.50000000  0.50000000  0.00000000  1
  F  F46  1  0.75000000  0.25000000  0.25000000  1
  F  F47  1  0.75000000  0.75000000  0.75000000  1
  Li  Li48  1  0.11006842  0.36006842  0.12500000  1
  Li  Li49  1  0.38993158  0.63993158  0.62500000  1
  Li  Li50  1  0.88993158  0.86006842  0.37500000  1
  Li  Li51  1  0.61006842  0.13993158  0.87500000  1
  Li  Li52  1  0.88993158  0.63993158  0.87500000  1
  Li  Li53  1  0.61006842  0.36006842  0.37500000  1
  Li  Li54  1  0.11006842  0.13993158  0.62500000  1
  Li  Li55  1  0.38993158  0.86006842  0.12500000  1
  Li  Li56  1  0.61006842  0.86006842  0.62500000  1
  Li  Li57  1  0.88993158  0.13993158  0.12500000  1
  Li  Li58  1  0.38993158  0.36006842  0.87500000  1
  Li  Li59  1  0.11006842  0.63993158  0.37500000  1
  Li  Li60  1  0.38993158  0.13993158  0.37500000  1
  Li  Li61  1  0.11006842  0.86006842  0.87500000  1
  Li  Li62  1  0.61006842  0.63993158  0.12500000  1
  Li  Li63  1  0.88993158  0.36006842  0.62500000  1
  Li  Li64  1  0.23882593  0.63403229  0.15091780  1
  Li  Li65  1  0.26117407  0.36596771  0.65091780  1
  Li  Li66  1  0.61596771  0.98882593  0.40091780  1
  Li  Li67  1  0.88403229  0.01117407  0.90091780  1
  Li  Li68  1  0.26117407  0.63403229  0.84908220  1
  Li  Li69  1  0.23882593  0.36596771  0.34908220  1
  Li  Li70  1  0.88403229  0.98882593  0.59908220  1
  Li  Li71  1  0.61596771  0.01117407  0.09908220  1
  Li  Li72  1  0.76117407  0.36596771  0.84908220  1
  Li  Li73  1  0.73882593  0.63403229  0.34908220  1
  Li  Li74  1  0.38403229  0.01117407  0.59908220  1
  Li  Li75  1  0.11596771  0.98882593  0.09908220  1
  Li  Li76  1  0.73882593  0.36596771  0.15091780  1
  Li  Li77  1  0.76117407  0.63403229  0.65091780  1
  Li  Li78  1  0.11596771  0.01117407  0.40091780  1
  Li  Li79  1  0.38403229  0.98882593  0.90091780  1
  Li  Li80  1  0.73882593  0.13403229  0.65091780  1
  Li  Li81  1  0.76117407  0.86596771  0.15091780  1
  Li  Li82  1  0.11596771  0.48882593  0.90091780  1
  Li  Li83  1  0.38403229  0.51117407  0.40091780  1
  Li  Li84  1  0.76117407  0.13403229  0.34908220  1
  Li  Li85  1  0.73882593  0.86596771  0.84908220  1
  Li  Li86  1  0.38403229  0.48882593  0.09908220  1
  Li  Li87  1  0.11596771  0.51117407  0.59908220  1
  Li  Li88  1  0.26117407  0.86596771  0.34908220  1
  Li  Li89  1  0.23882593  0.13403229  0.84908220  1
  Li  Li90  1  0.88403229  0.51117407  0.09908220  1
  Li  Li91  1  0.61596771  0.48882593  0.59908220  1
  Li  Li92  1  0.23882593  0.86596771  0.65091780  1
  Li  Li93  1  0.26117407  0.13403229  0.15091780  1
  Li  Li94  1  0.61596771  0.51117407  0.90091780  1
  Li  Li95  1  0.88403229  0.48882593  0.40091780  1
  Li  Li96  1  0.32304298  0.64440274  0.73361638  1
  Li  Li97  1  0.17695702  0.35559726  0.23361638  1
  Li  Li98  1  0.60559726  0.07304298  0.98361638  1
  Li  Li99  1  0.89440274  0.92695702  0.48361638  1
  Li  Li100  1  0.17695702  0.64440274  0.26638362  1
  Li  Li101  1  0.32304298  0.35559726  0.76638362  1
  Li  Li102  1  0.89440274  0.07304298  0.01638362  1
  Li  Li103  1  0.60559726  0.92695702  0.51638362  1
  Li  Li104  1  0.67695702  0.35559726  0.26638362  1
  Li  Li105  1  0.82304298  0.64440274  0.76638362  1
  Li  Li106  1  0.39440274  0.92695702  0.01638362  1
  Li  Li107  1  0.10559726  0.07304298  0.51638362  1
  Li  Li108  1  0.82304298  0.35559726  0.73361638  1
  Li  Li109  1  0.67695702  0.64440274  0.23361638  1
  Li  Li110  1  0.10559726  0.92695702  0.98361638  1
  Li  Li111  1  0.39440274  0.07304298  0.48361638  1
  Li  Li112  1  0.82304298  0.14440274  0.23361638  1
  Li  Li113  1  0.67695702  0.85559726  0.73361638  1
  Li  Li114  1  0.10559726  0.57304298  0.48361638  1
  Li  Li115  1  0.39440274  0.42695702  0.98361638  1
  Li  Li116  1  0.67695702  0.14440274  0.76638362  1
  Li  Li117  1  0.82304298  0.85559726  0.26638362  1
  Li  Li118  1  0.39440274  0.57304298  0.51638362  1
  Li  Li119  1  0.10559726  0.42695702  0.01638362  1
  Li  Li120  1  0.17695702  0.85559726  0.76638362  1
  Li  Li121  1  0.32304298  0.14440274  0.26638362  1
  Li  Li122  1  0.89440274  0.42695702  0.51638362  1
  Li  Li123  1  0.60559726  0.57304298  0.01638362  1
  Li  Li124  1  0.32304298  0.85559726  0.23361638  1
  Li  Li125  1  0.17695702  0.14440274  0.73361638  1
  Li  Li126  1  0.60559726  0.42695702  0.48361638  1
  Li  Li127  1  0.89440274  0.57304298  0.98361638  1
  Li  Li128  1  0.16987255  0.41987255  0.12500000  1
  Li  Li129  1  0.33012745  0.58012745  0.62500000  1
  Li  Li130  1  0.83012745  0.91987255  0.37500000  1
  Li  Li131  1  0.66987255  0.08012745  0.87500000  1
  Li  Li132  1  0.83012745  0.58012745  0.87500000  1
  Li  Li133  1  0.66987255  0.41987255  0.37500000  1
  Li  Li134  1  0.16987255  0.08012745  0.62500000  1
  Li  Li135  1  0.33012745  0.91987255  0.12500000  1
  Li  Li136  1  0.66987255  0.91987255  0.62500000  1
  Li  Li137  1  0.83012745  0.08012745  0.12500000  1
  Li  Li138  1  0.33012745  0.41987255  0.87500000  1
  Li  Li139  1  0.16987255  0.58012745  0.37500000  1
  Li  Li140  1  0.33012745  0.08012745  0.37500000  1
  Li  Li141  1  0.16987255  0.91987255  0.87500000  1
  Li  Li142  1  0.66987255  0.58012745  0.12500000  1
  Li  Li143  1  0.83012745  0.41987255  0.62500000  1
  Te  Te144  1  0.00000000  0.25000000  0.77228758  1
  Te  Te145  1  0.00000000  0.75000000  0.02228758  1
  Te  Te146  1  0.50000000  0.25000000  0.22771242  1
  Te  Te147  1  0.50000000  0.75000000  0.97771242  1
  Te  Te148  1  0.00000000  0.75000000  0.22771242  1
  Te  Te149  1  0.00000000  0.25000000  0.97771242  1
  Te  Te150  1  0.50000000  0.75000000  0.77228758  1
  Te  Te151  1  0.50000000  0.25000000  0.02228758  1
  Te  Te152  1  0.50000000  0.75000000  0.27228758  1
  Te  Te153  1  0.50000000  0.25000000  0.52228758  1
  Te  Te154  1  0.00000000  0.75000000  0.72771242  1
  Te  Te155  1  0.00000000  0.25000000  0.47771242  1
  Te  Te156  1  0.50000000  0.25000000  0.72771242  1
  Te  Te157  1  0.50000000  0.75000000  0.47771242  1
  Te  Te158  1  0.00000000  0.25000000  0.27228758  1
  Te  Te159  1  0.00000000  0.75000000  0.52228758  1
  Te  Te160  1  0.00000000  0.25000000  0.12500000  1
  Te  Te161  1  0.00000000  0.75000000  0.37500000  1
  Te  Te162  1  0.00000000  0.75000000  0.87500000  1
  Te  Te163  1  0.00000000  0.25000000  0.62500000  1
  Te  Te164  1  0.50000000  0.75000000  0.62500000  1
  Te  Te165  1  0.50000000  0.25000000  0.87500000  1
  Te  Te166  1  0.50000000  0.25000000  0.37500000  1
  Te  Te167  1  0.50000000  0.75000000  0.12500000  1
