# generated using pymatgen
data_NaLi2F3
_symmetry_space_group_name_H-M   'P 1'
_cell_length_a   11.05171859
_cell_length_b   11.05171859
_cell_length_c   9.44277354
_cell_angle_alpha   90.00000000
_cell_angle_beta   90.00000000
_cell_angle_gamma   120.00000000
_symmetry_Int_Tables_number   1
_chemical_formula_structural   NaLi2F3
_chemical_formula_sum   'Na12 Li24 F36'
_cell_volume   998.82600648
_cell_formula_units_Z   12
loop_
 _symmetry_equiv_pos_site_id
 _symmetry_equiv_pos_as_xyz
  1  'x, y, z'
loop_
 _atom_site_type_symbol
 _atom_site_label
 _atom_site_symmetry_multiplicity
 _atom_site_fract_x
 _atom_site_fract_y
 _atom_site_fract_z
 _atom_site_occupancy
  F  F0  1  0.00000000  0.00000000  0.00000000  1
  F  F1  1  0.00000000  0.00000000  0.50000000  1
  F  F2  1  0.69929628  0.39859257  0.25000000  1
  F  F3  1  0.60140743  0.30070372  0.25000000  1
  F  F4  1  0.69929628  0.30070372  0.25000000  1
  F  F5  1  0.30070372  0.60140743  0.75000000  1
  F  F6  1  0.39859257  0.69929628  0.75000000  1
  F  F7  1  0.30070372  0.69929628  0.75000000  1
  F  F8  1  0.22579990  0.45159981  0.25000000  1
  F  F9  1  0.54840019  0.77420010  0.25000000  1
  F  F10  1  0.22579990  0.77420010  0.25000000  1
  F  F11  1  0.77420010  0.54840019  0.75000000  1
  F  F12  1  0.45159981  0.22579990  0.75000000  1
  F  F13  1  0.77420010  0.22579990  0.75000000  1
  F  F14  1  0.43821152  0.64659000  0.25000000  1
  F  F15  1  -0.64659000  -0.20837849  0.25000000  1
  F  F16  1  0.20837849  -0.43821152  0.25000000  1
  F  F17  1  -0.43821152  -0.64659000  0.75000000  1
  F  F18  1  0.64659000  0.20837849  0.75000000  1
  F  F19  1  -0.20837849  0.43821152  0.75000000  1
  F  F20  1  0.64659000  0.43821152  0.75000000  1
  F  F21  1  -0.20837849  -0.64659000  0.75000000  1
  F  F22  1  -0.43821152  0.20837849  0.75000000  1
  F  F23  1  -0.64659000  -0.43821152  0.25000000  1
  F  F24  1  0.20837849  0.64659000  0.25000000  1
  F  F25  1  0.43821152  -0.20837849  0.25000000  1
  F  F26  1  0.50000000  0.00000000  0.00000000  1
  F  F27  1  0.00000000  0.50000000  0.00000000  1
  F  F28  1  0.50000000  0.50000000  0.00000000  1
  F  F29  1  0.50000000  0.00000000  0.50000000  1
  F  F30  1  0.00000000  0.50000000  0.50000000  1
  F  F31  1  0.50000000  0.50000000  0.50000000  1
  F  F32  1  0.33333333  0.66666667  0.63089920  1
  F  F33  1  0.66666667  0.33333333  0.13089920  1
  F  F34  1  0.66666667  0.33333333  0.36910080  1
  F  F35  1  0.33333333  0.66666667  0.86910080  1
  Li  Li36  1  0.59807243  0.19614486  0.02701380  1
  Li  Li37  1  0.80385514  0.40192757  0.02701380  1
  Li  Li38  1  0.59807243  0.40192757  0.02701380  1
  Li  Li39  1  0.40192757  0.80385514  0.52701380  1
  Li  Li40  1  0.19614486  0.59807243  0.52701380  1
  Li  Li41  1  0.40192757  0.59807243  0.52701380  1
  Li  Li42  1  0.19614486  0.59807243  0.97298620  1
  Li  Li43  1  0.40192757  0.80385514  0.97298620  1
  Li  Li44  1  0.40192757  0.59807243  0.97298620  1
  Li  Li45  1  0.80385514  0.40192757  0.47298620  1
  Li  Li46  1  0.59807243  0.19614486  0.47298620  1
  Li  Li47  1  0.59807243  0.40192757  0.47298620  1
  Li  Li48  1  0.15786714  0.31573428  0.25000000  1
  Li  Li49  1  0.68426572  0.84213286  0.25000000  1
  Li  Li50  1  0.15786714  0.84213286  0.25000000  1
  Li  Li51  1  0.84213286  0.68426572  0.75000000  1
  Li  Li52  1  0.31573428  0.15786714  0.75000000  1
  Li  Li53  1  0.84213286  0.15786714  0.75000000  1
  Li  Li54  1  0.79631653  0.59263305  0.25000000  1
  Li  Li55  1  0.40736695  0.20368347  0.25000000  1
  Li  Li56  1  0.79631653  0.20368347  0.25000000  1
  Li  Li57  1  0.20368347  0.40736695  0.75000000  1
  Li  Li58  1  0.59263305  0.79631653  0.75000000  1
  Li  Li59  1  0.20368347  0.79631653  0.75000000  1
  Na  Na60  1  0.99694865  0.63110664  0.25000000  1
  Na  Na61  1  0.36889336  0.36584201  0.25000000  1
  Na  Na62  1  0.63415799  0.00305135  0.25000000  1
  Na  Na63  1  0.00305135  0.36889336  0.75000000  1
  Na  Na64  1  0.63110664  0.63415799  0.75000000  1
  Na  Na65  1  0.36584201  0.99694865  0.75000000  1
  Na  Na66  1  0.63110664  0.99694865  0.75000000  1
  Na  Na67  1  0.36584201  0.36889336  0.75000000  1
  Na  Na68  1  0.00305135  0.63415799  0.75000000  1
  Na  Na69  1  0.36889336  0.00305135  0.25000000  1
  Na  Na70  1  0.63415799  0.63110664  0.25000000  1
  Na  Na71  1  0.99694865  0.36584201  0.25000000  1
