# generated using pymatgen
data_LiF
_symmetry_space_group_name_H-M   'P 1'
_cell_length_a   17.78425395
_cell_length_b   17.78425395
_cell_length_c   7.07515597
_cell_angle_alpha   90.00000000
_cell_angle_beta   90.00000000
_cell_angle_gamma   90.00000000
_symmetry_Int_Tables_number   1
_chemical_formula_structural   LiF
_chemical_formula_sum   'Li64 F64'
_cell_volume   2237.72812689
_cell_formula_units_Z   64
loop_
 _symmetry_equiv_pos_site_id
 _symmetry_equiv_pos_as_xyz
  1  'x, y, z'
loop_
 _atom_site_type_symbol
 _atom_site_label
 _atom_site_symmetry_multiplicity
 _atom_site_fract_x
 _atom_site_fract_y
 _atom_site_fract_z
 _atom_site_occupancy
  F  F0  1  0.09691108  0.34691108  0.12500000  1
  F  F1  1  0.40308892  0.65308892  0.62500000  1
  F  F2  1  0.90308892  0.84691108  0.37500000  1
  F  F3  1  0.59691108  0.15308892  0.87500000  1
  F  F4  1  0.90308892  0.65308892  0.87500000  1
  F  F5  1  0.59691108  0.34691108  0.37500000  1
  F  F6  1  0.09691108  0.15308892  0.62500000  1
  F  F7  1  0.40308892  0.84691108  0.12500000  1
  F  F8  1  0.59691108  0.84691108  0.62500000  1
  F  F9  1  0.90308892  0.15308892  0.12500000  1
  F  F10  1  0.40308892  0.34691108  0.87500000  1
  F  F11  1  0.09691108  0.65308892  0.37500000  1
  F  F12  1  0.40308892  0.15308892  0.37500000  1
  F  F13  1  0.09691108  0.84691108  0.87500000  1
  F  F14  1  0.59691108  0.65308892  0.12500000  1
  F  F15  1  0.90308892  0.34691108  0.62500000  1
  F  F16  1  0.15639930  0.14052975  0.05948778  1
  F  F17  1  0.34360070  0.85947025  0.55948778  1
  F  F18  1  0.10947025  0.90639930  0.30948778  1
  F  F19  1  0.39052975  0.09360070  0.80948778  1
  F  F20  1  0.34360070  0.14052975  0.94051222  1
  F  F21  1  0.15639930  0.85947025  0.44051222  1
  F  F22  1  0.39052975  0.90639930  0.69051222  1
  F  F23  1  0.10947025  0.09360070  0.19051222  1
  F  F24  1  0.84360070  0.85947025  0.94051222  1
  F  F25  1  0.65639930  0.14052975  0.44051222  1
  F  F26  1  0.89052975  0.09360070  0.69051222  1
  F  F27  1  0.60947025  0.90639930  0.19051222  1
  F  F28  1  0.65639930  0.85947025  0.05948778  1
  F  F29  1  0.84360070  0.14052975  0.55948778  1
  F  F30  1  0.60947025  0.09360070  0.30948778  1
  F  F31  1  0.89052975  0.90639930  0.80948778  1
  F  F32  1  0.65639930  0.64052975  0.55948778  1
  F  F33  1  0.84360070  0.35947025  0.05948778  1
  F  F34  1  0.60947025  0.40639930  0.80948778  1
  F  F35  1  0.89052975  0.59360070  0.30948778  1
  F  F36  1  0.84360070  0.64052975  0.44051222  1
  F  F37  1  0.65639930  0.35947025  0.94051222  1
  F  F38  1  0.89052975  0.40639930  0.19051222  1
  F  F39  1  0.60947025  0.59360070  0.69051222  1
  F  F40  1  0.34360070  0.35947025  0.44051222  1
  F  F41  1  0.15639930  0.64052975  0.94051222  1
  F  F42  1  0.39052975  0.59360070  0.19051222  1
  F  F43  1  0.10947025  0.40639930  0.69051222  1
  F  F44  1  0.15639930  0.35947025  0.55948778  1
  F  F45  1  0.34360070  0.64052975  0.05948778  1
  F  F46  1  0.10947025  0.59360070  0.80948778  1
  F  F47  1  0.39052975  0.40639930  0.30948778  1
  F  F48  1  0.27765536  0.52765536  0.12500000  1
  F  F49  1  0.22234464  0.47234464  0.62500000  1
  F  F50  1  0.72234464  0.02765536  0.37500000  1
  F  F51  1  0.77765536  0.97234464  0.87500000  1
  F  F52  1  0.72234464  0.47234464  0.87500000  1
  F  F53  1  0.77765536  0.52765536  0.37500000  1
  F  F54  1  0.27765536  0.97234464  0.62500000  1
  F  F55  1  0.22234464  0.02765536  0.12500000  1
  F  F56  1  0.77765536  0.02765536  0.62500000  1
  F  F57  1  0.72234464  0.97234464  0.12500000  1
  F  F58  1  0.22234464  0.52765536  0.87500000  1
  F  F59  1  0.27765536  0.47234464  0.37500000  1
  F  F60  1  0.22234464  0.97234464  0.37500000  1
  F  F61  1  0.27765536  0.02765536  0.87500000  1
  F  F62  1  0.77765536  0.47234464  0.12500000  1
  F  F63  1  0.72234464  0.52765536  0.62500000  1
  Li  Li64  1  0.20340846  0.45340846  0.12500000  1
  Li  Li65  1  0.29659154  0.54659154  0.62500000  1
  Li  Li66  1  0.79659154  0.95340846  0.37500000  1
  Li  Li67  1  0.70340846  0.04659154  0.87500000  1
  Li  Li68  1  0.79659154  0.54659154  0.87500000  1
  Li  Li69  1  0.70340846  0.45340846  0.37500000  1
  Li  Li70  1  0.20340846  0.04659154  0.62500000  1
  Li  Li71  1  0.29659154  0.95340846  0.12500000  1
  Li  Li72  1  0.70340846  0.95340846  0.62500000  1
  Li  Li73  1  0.79659154  0.04659154  0.12500000  1
  Li  Li74  1  0.29659154  0.45340846  0.87500000  1
  Li  Li75  1  0.20340846  0.54659154  0.37500000  1
  Li  Li76  1  0.29659154  0.04659154  0.37500000  1
  Li  Li77  1  0.20340846  0.95340846  0.87500000  1
  Li  Li78  1  0.70340846  0.54659154  0.12500000  1
  Li  Li79  1  0.79659154  0.45340846  0.62500000  1
  Li  Li80  1  0.00000000  0.25000000  0.37500000  1
  Li  Li81  1  0.00000000  0.75000000  0.62500000  1
  Li  Li82  1  0.50000000  0.25000000  0.62500000  1
  Li  Li83  1  0.50000000  0.75000000  0.37500000  1
  Li  Li84  1  0.50000000  0.75000000  0.87500000  1
  Li  Li85  1  0.50000000  0.25000000  0.12500000  1
  Li  Li86  1  0.00000000  0.75000000  0.12500000  1
  Li  Li87  1  0.00000000  0.25000000  0.87500000  1
  Li  Li88  1  0.78713331  0.33317751  0.73165079  1
  Li  Li89  1  -0.28713331  -0.33317751  1.23165079  1
  Li  Li90  1  -0.08317751  1.53713331  0.98165079  1
  Li  Li91  1  0.58317751  -0.53713331  1.48165079  1
  Li  Li92  1  -0.28713331  0.33317751  -0.73165079  1
  Li  Li93  1  0.78713331  -0.33317751  -0.23165079  1
  Li  Li94  1  0.58317751  1.53713331  0.01834921  1
  Li  Li95  1  -0.08317751  -0.53713331  -0.48165079  1
  Li  Li96  1  -0.78713331  -0.33317751  -0.73165079  1
  Li  Li97  1  1.28713331  0.33317751  -0.23165079  1
  Li  Li98  1  1.08317751  -0.53713331  0.01834921  1
  Li  Li99  1  0.41682249  1.53713331  -0.48165079  1
  Li  Li100  1  1.28713331  -0.33317751  0.73165079  1
  Li  Li101  1  -0.78713331  0.33317751  1.23165079  1
  Li  Li102  1  0.41682249  -0.53713331  0.98165079  1
  Li  Li103  1  1.08317751  1.53713331  1.48165079  1
  Li  Li104  1  1.28713331  0.83317751  1.23165079  1
  Li  Li105  1  0.21286669  0.16682249  1.73165079  1
  Li  Li106  1  0.41682249  2.03713331  1.48165079  1
  Li  Li107  1  1.08317751  -0.03713331  1.98165079  1
  Li  Li108  1  0.21286669  0.83317751  -0.23165079  1
  Li  Li109  1  1.28713331  0.16682249  0.26834921  1
  Li  Li110  1  1.08317751  2.03713331  0.51834921  1
  Li  Li111  1  0.41682249  -0.03713331  0.01834921  1
  Li  Li112  1  -0.28713331  0.16682249  -0.23165079  1
  Li  Li113  1  1.78713331  0.83317751  0.26834921  1
  Li  Li114  1  1.58317751  -0.03713331  0.51834921  1
  Li  Li115  1  0.91682249  2.03713331  0.01834921  1
  Li  Li116  1  1.78713331  0.16682249  1.23165079  1
  Li  Li117  1  -0.28713331  0.83317751  1.73165079  1
  Li  Li118  1  0.91682249  -0.03713331  1.48165079  1
  Li  Li119  1  1.58317751  2.03713331  1.98165079  1
  Li  Li120  1  0.00000000  0.25000000  0.12500000  1
  Li  Li121  1  0.00000000  0.75000000  0.37500000  1
  Li  Li122  1  0.00000000  0.75000000  0.87500000  1
  Li  Li123  1  0.00000000  0.25000000  0.62500000  1
  Li  Li124  1  0.50000000  0.75000000  0.62500000  1
  Li  Li125  1  0.50000000  0.25000000  0.87500000  1
  Li  Li126  1  0.50000000  0.25000000  0.37500000  1
  Li  Li127  1  0.50000000  0.75000000  0.12500000  1
