# generated using pymatgen
data_LiF
_symmetry_space_group_name_H-M   'P 1'
_cell_length_a   9.12233219
_cell_length_b   10.19801292
_cell_length_c   6.95625632
_cell_angle_alpha   90.00000000
_cell_angle_beta   90.00000000
_cell_angle_gamma   90.00000000
_symmetry_Int_Tables_number   1
_chemical_formula_structural   LiF
_chemical_formula_sum   'Li22 F22'
_cell_volume   647.13817090
_cell_formula_units_Z   22
loop_
 _symmetry_equiv_pos_site_id
 _symmetry_equiv_pos_as_xyz
  1  'x, y, z'
loop_
 _atom_site_type_symbol
 _atom_site_label
 _atom_site_symmetry_multiplicity
 _atom_site_fract_x
 _atom_site_fract_y
 _atom_site_fract_z
 _atom_site_occupancy
  F  F0  1  0.53486116  0.38228720  0.86816551  1
  F  F1  1  0.46513884  0.61771280  0.86816551  1
  F  F2  1  0.96513884  0.88228720  0.13183449  1
  F  F3  1  0.03486116  0.11771280  0.13183449  1
  F  F4  1  0.46513884  0.61771280  0.13183449  1
  F  F5  1  0.53486116  0.38228720  0.13183449  1
  F  F6  1  0.03486116  0.11771280  0.86816551  1
  F  F7  1  0.96513884  0.88228720  0.86816551  1
  F  F8  1  0.00000000  0.50000000  0.50000000  1
  F  F9  1  0.50000000  0.00000000  0.50000000  1
  F  F10  1  0.10777991  0.94775086  0.41054754  1
  F  F11  1  0.89222009  0.05224914  0.41054754  1
  F  F12  1  0.39222009  0.44775086  0.58945246  1
  F  F13  1  0.60777991  0.55224914  0.58945246  1
  F  F14  1  0.89222009  0.05224914  0.58945246  1
  F  F15  1  0.10777991  0.94775086  0.58945246  1
  F  F16  1  0.60777991  0.55224914  0.41054754  1
  F  F17  1  0.39222009  0.44775086  0.41054754  1
  F  F18  1  0.61992290  0.21606334  0.50000000  1
  F  F19  1  0.38007710  0.78393666  0.50000000  1
  F  F20  1  0.88007710  0.71606334  0.50000000  1
  F  F21  1  0.11992290  0.28393666  0.50000000  1
  Li  Li22  1  0.34034919  0.21725175  0.88644535  1
  Li  Li23  1  -0.34034919  -0.21725175  0.88644535  1
  Li  Li24  1  0.15965081  0.71725175  -0.88644535  1
  Li  Li25  1  0.84034919  0.28274825  -0.88644535  1
  Li  Li26  1  -0.34034919  -0.21725175  -0.88644535  1
  Li  Li27  1  0.34034919  0.21725175  -0.88644535  1
  Li  Li28  1  0.84034919  0.28274825  0.88644535  1
  Li  Li29  1  0.15965081  0.71725175  0.88644535  1
  Li  Li30  1  0.00000000  0.00000000  0.11357282  1
  Li  Li31  1  0.50000000  0.50000000  0.88642718  1
  Li  Li32  1  0.00000000  0.00000000  0.88642718  1
  Li  Li33  1  0.50000000  0.50000000  0.11357282  1
  Li  Li34  1  0.07417439  0.14444977  0.00000000  1
  Li  Li35  1  0.92582561  0.85555023  -0.00000000  1
  Li  Li36  1  0.42582561  0.64444977  0.00000000  1
  Li  Li37  1  0.57417439  0.35555023  -0.00000000  1
  Li  Li38  1  0.08467911  0.78286622  0.50000000  1
  Li  Li39  1  0.91532089  0.21713378  0.50000000  1
  Li  Li40  1  0.41532089  0.28286622  0.50000000  1
  Li  Li41  1  0.58467911  0.71713378  0.50000000  1
  Li  Li42  1  0.00000000  0.00000000  0.50000000  1
  Li  Li43  1  0.50000000  0.50000000  0.50000000  1
