# generated using pymatgen
data_LiF
_symmetry_space_group_name_H-M   'P 1'
_cell_length_a   6.70359965
_cell_length_b   11.46632068
_cell_length_c   11.68588215
_cell_angle_alpha   90.00000000
_cell_angle_beta   90.00000000
_cell_angle_gamma   90.00000000
_symmetry_Int_Tables_number   1
_chemical_formula_structural   LiF
_chemical_formula_sum   'Li32 F32'
_cell_volume   898.24261467
_cell_formula_units_Z   32
loop_
 _symmetry_equiv_pos_site_id
 _symmetry_equiv_pos_as_xyz
  1  'x, y, z'
loop_
 _atom_site_type_symbol
 _atom_site_label
 _atom_site_symmetry_multiplicity
 _atom_site_fract_x
 _atom_site_fract_y
 _atom_site_fract_z
 _atom_site_occupancy
  F  F0  1  0.68103798  0.78020702  0.64713928  1
  F  F1  1  0.81896202  0.21979298  0.14713928  1
  F  F2  1  0.31896202  0.28020702  0.35286072  1
  F  F3  1  0.18103798  0.71979298  0.85286072  1
  F  F4  1  0.31896202  0.21979298  0.35286072  1
  F  F5  1  0.18103798  0.78020702  0.85286072  1
  F  F6  1  0.68103798  0.71979298  0.64713928  1
  F  F7  1  0.81896202  0.28020702  0.14713928  1
  F  F8  1  0.00000000  0.00000000  0.00000000  1
  F  F9  1  0.50000000  0.00000000  0.50000000  1
  F  F10  1  0.00000000  0.50000000  0.00000000  1
  F  F11  1  0.50000000  0.50000000  0.50000000  1
  F  F12  1  0.96942840  0.32445069  0.59611122  1
  F  F13  1  0.53057160  0.67554931  0.09611122  1
  F  F14  1  0.03057160  0.82445069  0.40388878  1
  F  F15  1  0.46942840  0.17554931  0.90388878  1
  F  F16  1  0.03057160  0.67554931  0.40388878  1
  F  F17  1  0.46942840  0.32445069  0.90388878  1
  F  F18  1  0.96942840  0.17554931  0.59611122  1
  F  F19  1  0.53057160  0.82445069  0.09611122  1
  F  F20  1  0.49107983  0.34900002  0.62518963  1
  F  F21  1  0.00892017  0.65099998  0.12518963  1
  F  F22  1  0.50892017  0.84900002  0.37481037  1
  F  F23  1  0.99107983  0.15099998  0.87481037  1
  F  F24  1  0.50892017  0.65099998  0.37481037  1
  F  F25  1  0.99107983  0.34900002  0.87481037  1
  F  F26  1  0.49107983  0.15099998  0.62518963  1
  F  F27  1  0.00892017  0.84900002  0.12518963  1
  F  F28  1  0.17196753  0.25000000  0.81653075  1
  F  F29  1  0.32803247  0.75000000  0.31653075  1
  F  F30  1  0.82803247  0.75000000  0.18346925  1
  F  F31  1  0.67196753  0.25000000  0.68346925  1
  Li  Li32  1  0.93054409  0.37583757  0.97537489  1
  Li  Li33  1  -0.43054409  -0.37583757  1.47537489  1
  Li  Li34  1  -0.93054409  0.87583757  -0.97537489  1
  Li  Li35  1  1.43054409  0.12416243  -0.47537489  1
  Li  Li36  1  -0.93054409  -0.37583757  -0.97537489  1
  Li  Li37  1  1.43054409  0.37583757  -0.47537489  1
  Li  Li38  1  0.93054409  0.12416243  0.97537489  1
  Li  Li39  1  -0.43054409  0.87583757  1.47537489  1
  Li  Li40  1  0.00000000  0.00000000  0.50000000  1
  Li  Li41  1  0.50000000  0.00000000  0.00000000  1
  Li  Li42  1  0.00000000  0.50000000  0.50000000  1
  Li  Li43  1  0.50000000  0.50000000  0.00000000  1
  Li  Li44  1  0.61627583  0.01274813  0.34093972  1
  Li  Li45  1  0.88372417  0.98725187  0.84093972  1
  Li  Li46  1  0.38372417  0.51274813  0.65906028  1
  Li  Li47  1  0.11627583  0.48725187  0.15906028  1
  Li  Li48  1  0.38372417  0.98725187  0.65906028  1
  Li  Li49  1  0.11627583  0.01274813  0.15906028  1
  Li  Li50  1  0.61627583  0.48725187  0.34093972  1
  Li  Li51  1  0.88372417  0.51274813  0.84093972  1
  Li  Li52  1  0.39700994  0.58996694  0.10190802  1
  Li  Li53  1  0.10299006  0.41003306  0.60190802  1
  Li  Li54  1  0.60299006  0.08996694  0.89809198  1
  Li  Li55  1  0.89700994  0.91003306  0.39809198  1
  Li  Li56  1  0.60299006  0.41003306  0.89809198  1
  Li  Li57  1  0.89700994  0.58996694  0.39809198  1
  Li  Li58  1  0.39700994  0.91003306  0.10190802  1
  Li  Li59  1  0.10299006  0.08996694  0.60190802  1
  Li  Li60  1  0.40293082  0.25000000  0.94413980  1
  Li  Li61  1  0.09706918  0.75000000  0.44413980  1
  Li  Li62  1  0.59706918  0.75000000  0.05586020  1
  Li  Li63  1  0.90293082  0.25000000  0.55586020  1
