# generated using pymatgen
data_Li2Ti2As4N5O
_symmetry_space_group_name_H-M   'P 1'
_cell_length_a   5.38599936
_cell_length_b   5.36864614
_cell_length_c   6.33955046
_cell_angle_alpha   94.76705945
_cell_angle_beta   90.13787039
_cell_angle_gamma   107.71541511
_symmetry_Int_Tables_number   1
_chemical_formula_structural   Li2Ti2As4N5O
_chemical_formula_sum   'Li2 Ti2 As4 N5 O1'
_cell_volume   173.94062607
_cell_formula_units_Z   1
loop_
 _symmetry_equiv_pos_site_id
 _symmetry_equiv_pos_as_xyz
  1  'x, y, z'
loop_
 _atom_site_type_symbol
 _atom_site_label
 _atom_site_symmetry_multiplicity
 _atom_site_fract_x
 _atom_site_fract_y
 _atom_site_fract_z
 _atom_site_occupancy
  N  N0  1  0.00000000  0.00000000  0.00000000  1
  N  N1  1  0.50000000  0.50000000  0.50000000  1
  N  N2  1  0.50000000  0.50000000  0.00000000  1
  N  N3  1  0.50000000  0.00000000  0.50000000  1
  N  N4  1  0.00000000  0.50000000  0.50000000  1
  Ti  Ti5  1  0.88253789  0.68204249  0.50228223  1
  Ti  Ti6  1  0.27597080  0.97988159  0.18969162  1
  O  O7  1  0.28674018  0.52546876  0.56926940  1
  Li  Li8  1  0.30264654  0.44897610  0.23585650  1
  Li  Li9  1  0.61295864  0.72757276  0.16475481  1
  As  As10  1  0.99754271  0.29731771  0.87086359  1
  As  As11  1  0.24985157  0.68365959  0.00654187  1
  As  As12  1  0.95113417  0.99360808  0.97158205  1
  As  As13  1  0.60083412  0.15253796  0.52078894  1
