# generated using pymatgen
data_LiF
_symmetry_space_group_name_H-M   'P 1'
_cell_length_a   7.72041947
_cell_length_b   7.72041947
_cell_length_c   18.14592284
_cell_angle_alpha   90.00000000
_cell_angle_beta   90.00000000
_cell_angle_gamma   120.00000000
_symmetry_Int_Tables_number   1
_chemical_formula_structural   LiF
_chemical_formula_sum   'Li32 F32'
_cell_volume   936.68051548
_cell_formula_units_Z   32
loop_
 _symmetry_equiv_pos_site_id
 _symmetry_equiv_pos_as_xyz
  1  'x, y, z'
loop_
 _atom_site_type_symbol
 _atom_site_label
 _atom_site_symmetry_multiplicity
 _atom_site_fract_x
 _atom_site_fract_y
 _atom_site_fract_z
 _atom_site_occupancy
  F  F0  1  0.13175763  0.94869795  0.22258287  1
  F  F1  1  0.05130205  0.18305968  0.22258287  1
  F  F2  1  0.81694032  0.86824237  0.22258287  1
  F  F3  1  0.86824237  0.05130205  0.72258287  1
  F  F4  1  0.94869795  0.81694032  0.72258287  1
  F  F5  1  0.18305968  0.13175763  0.72258287  1
  F  F6  1  0.86824237  0.05130205  0.77741713  1
  F  F7  1  0.94869795  0.81694032  0.77741713  1
  F  F8  1  0.18305968  0.13175763  0.77741713  1
  F  F9  1  0.13175763  0.94869795  0.27741713  1
  F  F10  1  0.05130205  0.18305968  0.27741713  1
  F  F11  1  0.81694032  0.86824237  0.27741713  1
  F  F12  1  0.77049959  0.03408402  0.73281308  1
  F  F13  1  0.96591598  0.73641557  0.73281308  1
  F  F14  1  0.26358443  0.22950041  0.73281308  1
  F  F15  1  0.22950041  0.96591598  0.23281308  1
  F  F16  1  0.03408402  0.26358443  0.23281308  1
  F  F17  1  0.73641557  0.77049959  0.23281308  1
  F  F18  1  0.22950041  0.96591598  0.26718692  1
  F  F19  1  0.03408402  0.26358443  0.26718692  1
  F  F20  1  0.73641557  0.77049959  0.26718692  1
  F  F21  1  0.77049959  0.03408402  0.76718692  1
  F  F22  1  0.96591598  0.73641557  0.76718692  1
  F  F23  1  0.26358443  0.22950041  0.76718692  1
  F  F24  1  0.50000000  0.00000000  -0.00000000  1
  F  F25  1  0.00000000  0.50000000  0.00000000  1
  F  F26  1  0.50000000  0.50000000  0.00000000  1
  F  F27  1  0.50000000  0.00000000  0.50000000  1
  F  F28  1  0.00000000  0.50000000  0.50000000  1
  F  F29  1  0.50000000  0.50000000  0.50000000  1
  F  F30  1  0.33333333  0.66666667  0.25000000  1
  F  F31  1  0.66666667  0.33333333  0.75000000  1
  Li  Li32  1  0.05874491  0.52155346  0.44612812  1
  Li  Li33  1  -0.52155346  -0.46280855  0.44612812  1
  Li  Li34  1  0.46280855  -0.05874491  0.44612812  1
  Li  Li35  1  -0.05874491  -0.52155346  0.94612812  1
  Li  Li36  1  0.52155346  0.46280855  0.94612812  1
  Li  Li37  1  -0.46280855  0.05874491  0.94612812  1
  Li  Li38  1  -0.05874491  -0.52155346  -0.44612812  1
  Li  Li39  1  0.52155346  0.46280855  -0.44612812  1
  Li  Li40  1  -0.46280855  0.05874491  -0.44612812  1
  Li  Li41  1  0.05874491  0.52155346  0.05387188  1
  Li  Li42  1  -0.52155346  -0.46280855  0.05387188  1
  Li  Li43  1  0.46280855  -0.05874491  0.05387188  1
  Li  Li44  1  0.24253171  0.92900284  0.39641103  1
  Li  Li45  1  0.07099716  0.31352887  0.39641103  1
  Li  Li46  1  0.68647113  0.75746829  0.39641103  1
  Li  Li47  1  0.75746829  0.07099716  0.89641103  1
  Li  Li48  1  0.92900284  0.68647113  0.89641103  1
  Li  Li49  1  0.31352887  0.24253171  0.89641103  1
  Li  Li50  1  0.75746829  0.07099716  0.60358897  1
  Li  Li51  1  0.92900284  0.68647113  0.60358897  1
  Li  Li52  1  0.31352887  0.24253171  0.60358897  1
  Li  Li53  1  0.24253171  0.92900284  0.10358897  1
  Li  Li54  1  0.07099716  0.31352887  0.10358897  1
  Li  Li55  1  0.68647113  0.75746829  0.10358897  1
  Li  Li56  1  0.60933338  0.44679252  0.25000000  1
  Li  Li57  1  0.55320748  0.16254086  0.25000000  1
  Li  Li58  1  0.83745914  0.39066662  0.25000000  1
  Li  Li59  1  0.39066662  0.55320748  0.75000000  1
  Li  Li60  1  0.44679252  0.83745914  0.75000000  1
  Li  Li61  1  0.16254086  0.60933338  0.75000000  1
  Li  Li62  1  0.00000000  0.00000000  0.25000000  1
  Li  Li63  1  0.00000000  0.00000000  0.75000000  1
