# generated using pymatgen
data_LiF
_symmetry_space_group_name_H-M   'P 1'
_cell_length_a   6.47896970
_cell_length_b   7.42204214
_cell_length_c   4.22044538
_cell_angle_alpha   90.00000000
_cell_angle_beta   90.00000000
_cell_angle_gamma   90.00000000
_symmetry_Int_Tables_number   1
_chemical_formula_structural   LiF
_chemical_formula_sum   'Li8 F8'
_cell_volume   202.94934235
_cell_formula_units_Z   8
loop_
 _symmetry_equiv_pos_site_id
 _symmetry_equiv_pos_as_xyz
  1  'x, y, z'
loop_
 _atom_site_type_symbol
 _atom_site_label
 _atom_site_symmetry_multiplicity
 _atom_site_fract_x
 _atom_site_fract_y
 _atom_site_fract_z
 _atom_site_occupancy
  F  F0  1  0.95344669  0.55970646  0.24420277  1
  F  F1  1  -0.95344669  -0.55970646  0.24420277  1
  F  F2  1  -0.45344669  1.05970646  0.25579723  1
  F  F3  1  1.45344669  -0.05970646  0.25579723  1
  F  F4  1  -0.95344669  -0.55970646  -0.24420277  1
  F  F5  1  0.95344669  0.55970646  -0.24420277  1
  F  F6  1  1.45344669  -0.05970646  0.74420277  1
  F  F7  1  -0.45344669  1.05970646  0.74420277  1
  Li  Li8  1  0.47453773  0.61672800  0.24634007  1
  Li  Li9  1  0.52546227  0.38327200  0.24634007  1
  Li  Li10  1  0.02546227  0.11672800  0.25365993  1
  Li  Li11  1  0.97453773  0.88327200  0.25365993  1
  Li  Li12  1  0.52546227  0.38327200  0.75365993  1
  Li  Li13  1  0.47453773  0.61672800  0.75365993  1
  Li  Li14  1  0.97453773  0.88327200  0.74634007  1
  Li  Li15  1  0.02546227  0.11672800  0.74634007  1
