# generated using pymatgen
data_Li3Y2P3Se2
_symmetry_space_group_name_H-M   'P 1'
_cell_length_a   5.39233527
_cell_length_b   5.62053545
_cell_length_c   7.23476188
_cell_angle_alpha   94.00156123
_cell_angle_beta   98.71456845
_cell_angle_gamma   106.07268108
_symmetry_Int_Tables_number   1
_chemical_formula_structural   Li3Y2P3Se2
_chemical_formula_sum   'Li3 Y2 P3 Se2'
_cell_volume   206.82039949
_cell_formula_units_Z   1
loop_
 _symmetry_equiv_pos_site_id
 _symmetry_equiv_pos_as_xyz
  1  'x, y, z'
loop_
 _atom_site_type_symbol
 _atom_site_label
 _atom_site_symmetry_multiplicity
 _atom_site_fract_x
 _atom_site_fract_y
 _atom_site_fract_z
 _atom_site_occupancy
  Se  Se0  1  0.00000000  0.00000000  0.00000000  1
  Se  Se1  1  0.50000000  0.50000000  0.50000000  1
  P  P2  1  0.25000000  0.25000000  0.25000000  1
  P  P3  1  0.75000000  0.25000000  0.00000000  1
  P  P4  1  0.25000000  0.75000000  0.50000000  1
  Li  Li5  1  0.62316805  0.30557214  0.66720614  1
  Li  Li6  1  0.91013182  0.76047032  0.57562247  1
  Li  Li7  1  0.29541111  0.66239114  0.55979349  1
  Y  Y8  1  0.35706342  0.88128294  0.63183918  1
  Y  Y9  1  0.27262903  0.41821516  0.86099171  1
