# generated using pymatgen
data_LiF
_symmetry_space_group_name_H-M   'P 1'
_cell_length_a   7.81542234
_cell_length_b   7.81542234
_cell_length_c   13.52991847
_cell_angle_alpha   90.00000000
_cell_angle_beta   90.00000000
_cell_angle_gamma   90.00000000
_symmetry_Int_Tables_number   1
_chemical_formula_structural   LiF
_chemical_formula_sum   'Li38 F38'
_cell_volume   826.41860070
_cell_formula_units_Z   38
loop_
 _symmetry_equiv_pos_site_id
 _symmetry_equiv_pos_as_xyz
  1  'x, y, z'
loop_
 _atom_site_type_symbol
 _atom_site_label
 _atom_site_symmetry_multiplicity
 _atom_site_fract_x
 _atom_site_fract_y
 _atom_site_fract_z
 _atom_site_occupancy
  F  F0  1  0.12848900  0.12848900  0.14712320  1
  F  F1  1  0.87151100  0.87151100  0.14712320  1
  F  F2  1  0.87151100  0.12848900  0.14712320  1
  F  F3  1  0.12848900  0.87151100  0.14712320  1
  F  F4  1  0.87151100  0.12848900  0.85287680  1
  F  F5  1  0.12848900  0.87151100  0.85287680  1
  F  F6  1  0.12848900  0.12848900  0.85287680  1
  F  F7  1  0.87151100  0.87151100  0.85287680  1
  F  F8  1  0.23643115  0.50000000  0.00000000  1
  F  F9  1  0.76356885  0.50000000  -0.00000000  1
  F  F10  1  0.50000000  0.23643115  0.00000000  1
  F  F11  1  0.50000000  0.76356885  -0.00000000  1
  F  F12  1  0.28285730  0.28285730  0.39814495  1
  F  F13  1  0.71714270  0.71714270  0.39814495  1
  F  F14  1  0.71714270  0.28285730  0.39814495  1
  F  F15  1  0.28285730  0.71714270  0.39814495  1
  F  F16  1  0.71714270  0.28285730  0.60185505  1
  F  F17  1  0.28285730  0.71714270  0.60185505  1
  F  F18  1  0.28285730  0.28285730  0.60185505  1
  F  F19  1  0.71714270  0.71714270  0.60185505  1
  F  F20  1  0.42768207  0.09057727  0.50000000  1
  F  F21  1  0.57231793  0.90942273  0.50000000  1
  F  F22  1  0.90942273  0.42768207  0.50000000  1
  F  F23  1  0.09057727  0.57231793  0.50000000  1
  F  F24  1  0.57231793  0.09057727  0.50000000  1
  F  F25  1  0.42768207  0.90942273  0.50000000  1
  F  F26  1  0.09057727  0.42768207  0.50000000  1
  F  F27  1  0.90942273  0.57231793  0.50000000  1
  F  F28  1  0.40595952  0.40595952  -0.00000000  1
  F  F29  1  0.59404048  0.59404048  0.00000000  1
  F  F30  1  0.59404048  0.40595952  0.00000000  1
  F  F31  1  0.40595952  0.59404048  0.00000000  1
  F  F32  1  0.72989532  0.00000000  0.50000000  1
  F  F33  1  0.27010468  0.00000000  0.50000000  1
  F  F34  1  0.00000000  0.72989532  0.50000000  1
  F  F35  1  0.00000000  0.27010468  0.50000000  1
  F  F36  1  0.00000000  0.50000000  0.50000000  1
  F  F37  1  0.50000000  0.00000000  0.50000000  1
  Li  Li38  1  0.58507228  -0.00000000  -0.00000000  1
  Li  Li39  1  0.41492772  -0.00000000  -0.00000000  1
  Li  Li40  1  0.00000000  0.58507228  -0.00000000  1
  Li  Li41  1  0.00000000  0.41492772  -0.00000000  1
  Li  Li42  1  0.28411894  0.50000000  0.80033332  1
  Li  Li43  1  0.71588106  0.50000000  0.80033332  1
  Li  Li44  1  0.50000000  0.28411894  0.80033332  1
  Li  Li45  1  0.50000000  0.71588106  0.80033332  1
  Li  Li46  1  0.71588106  0.50000000  0.19966668  1
  Li  Li47  1  0.28411894  0.50000000  0.19966668  1
  Li  Li48  1  0.50000000  0.28411894  0.19966668  1
  Li  Li49  1  0.50000000  0.71588106  0.19966668  1
  Li  Li50  1  0.62880005  0.62880005  0.15457375  1
  Li  Li51  1  0.37119995  0.37119995  0.15457375  1
  Li  Li52  1  0.37119995  0.62880005  0.15457375  1
  Li  Li53  1  0.62880005  0.37119995  0.15457375  1
  Li  Li54  1  0.37119995  0.62880005  0.84542625  1
  Li  Li55  1  0.62880005  0.37119995  0.84542625  1
  Li  Li56  1  0.62880005  0.62880005  0.84542625  1
  Li  Li57  1  0.37119995  0.37119995  0.84542625  1
  Li  Li58  1  0.00000000  0.00000000  0.82762577  1
  Li  Li59  1  0.00000000  0.00000000  0.17237423  1
  Li  Li60  1  0.81592107  0.37640184  0.88836908  1
  Li  Li61  1  -0.81592107  -0.37640184  0.88836908  1
  Li  Li62  1  -0.37640184  0.81592107  0.88836908  1
  Li  Li63  1  0.37640184  -0.81592107  0.88836908  1
  Li  Li64  1  -0.81592107  0.37640184  -0.88836908  1
  Li  Li65  1  0.81592107  -0.37640184  -0.88836908  1
  Li  Li66  1  0.37640184  0.81592107  -0.88836908  1
  Li  Li67  1  -0.37640184  -0.81592107  -0.88836908  1
  Li  Li68  1  -0.81592107  -0.37640184  -0.88836908  1
  Li  Li69  1  0.81592107  0.37640184  -0.88836908  1
  Li  Li70  1  0.37640184  -0.81592107  -0.88836908  1
  Li  Li71  1  -0.37640184  0.81592107  -0.88836908  1
  Li  Li72  1  0.81592107  -0.37640184  0.88836908  1
  Li  Li73  1  -0.81592107  0.37640184  0.88836908  1
  Li  Li74  1  -0.37640184  -0.81592107  0.88836908  1
  Li  Li75  1  0.37640184  0.81592107  0.88836908  1
