# generated using pymatgen
data_LiCaSeF
_symmetry_space_group_name_H-M   'P 1'
_cell_length_a   9.23528532
_cell_length_b   9.74266508
_cell_length_c   4.42798753
_cell_angle_alpha   90.00000000
_cell_angle_beta   90.00000000
_cell_angle_gamma   90.00000000
_symmetry_Int_Tables_number   1
_chemical_formula_structural   LiCaSeF
_chemical_formula_sum   'Li4 Ca4 Se4 F4'
_cell_volume   398.41389783
_cell_formula_units_Z   4
loop_
 _symmetry_equiv_pos_site_id
 _symmetry_equiv_pos_as_xyz
  1  'x, y, z'
loop_
 _atom_site_type_symbol
 _atom_site_label
 _atom_site_symmetry_multiplicity
 _atom_site_fract_x
 _atom_site_fract_y
 _atom_site_fract_z
 _atom_site_occupancy
  Ca  Ca0  1  0.97527676  0.25000000  0.97468597  1
  Ca  Ca1  1  0.52472324  0.75000000  0.47468597  1
  Ca  Ca2  1  0.02472324  0.75000000  0.02531403  1
  Ca  Ca3  1  0.47527676  0.25000000  0.52531403  1
  F  F4  1  0.00000000  0.00000000  0.50000000  1
  F  F5  1  0.50000000  0.00000000  0.00000000  1
  F  F6  1  0.00000000  0.50000000  0.50000000  1
  F  F7  1  0.50000000  0.50000000  0.00000000  1
  Li  Li8  1  0.79179982  0.25000000  0.14623959  1
  Li  Li9  1  0.70820018  0.75000000  0.64623959  1
  Li  Li10  1  0.20820018  0.75000000  0.85376041  1
  Li  Li11  1  0.29179982  0.25000000  0.35376041  1
  Se  Se12  1  0.00000000  0.00000000  0.00000000  1
  Se  Se13  1  0.50000000  0.00000000  0.50000000  1
  Se  Se14  1  0.00000000  0.50000000  0.00000000  1
  Se  Se15  1  0.50000000  0.50000000  0.50000000  1
