# generated using pymatgen
data_LiF
_symmetry_space_group_name_H-M   'P 1'
_cell_length_a   7.87851647
_cell_length_b   10.86403726
_cell_length_c   10.03794751
_cell_angle_alpha   90.00000000
_cell_angle_beta   90.00000000
_cell_angle_gamma   90.00000000
_symmetry_Int_Tables_number   1
_chemical_formula_structural   LiF
_chemical_formula_sum   'Li48 F48'
_cell_volume   859.17298679
_cell_formula_units_Z   48
loop_
 _symmetry_equiv_pos_site_id
 _symmetry_equiv_pos_as_xyz
  1  'x, y, z'
loop_
 _atom_site_type_symbol
 _atom_site_label
 _atom_site_symmetry_multiplicity
 _atom_site_fract_x
 _atom_site_fract_y
 _atom_site_fract_z
 _atom_site_occupancy
  F  F0  1  0.31827267  0.00686012  0.89009481  1
  F  F1  1  0.68172733  0.99313988  0.89009481  1
  F  F2  1  0.18172733  0.50686012  0.10990519  1
  F  F3  1  0.81827267  0.49313988  0.10990519  1
  F  F4  1  0.68172733  0.99313988  0.10990519  1
  F  F5  1  0.31827267  0.00686012  0.10990519  1
  F  F6  1  0.81827267  0.49313988  0.89009481  1
  F  F7  1  0.18172733  0.50686012  0.89009481  1
  F  F8  1  0.39729928  0.00620988  0.04679447  1
  F  F9  1  0.60270072  0.99379012  0.04679447  1
  F  F10  1  0.10270072  0.50620988  0.95320553  1
  F  F11  1  0.89729928  0.49379012  0.95320553  1
  F  F12  1  0.60270072  0.99379012  0.95320553  1
  F  F13  1  0.39729928  0.00620988  0.95320553  1
  F  F14  1  0.89729928  0.49379012  0.04679447  1
  F  F15  1  0.10270072  0.50620988  0.04679447  1
  F  F16  1  0.48776853  0.22388428  -0.00000000  1
  F  F17  1  0.51223147  0.77611572  0.00000000  1
  F  F18  1  0.01223147  0.72388428  0.00000000  1
  F  F19  1  0.98776853  0.27611572  0.00000000  1
  F  F20  1  0.65172980  0.60528066  0.80346366  1
  F  F21  1  0.34827020  0.39471934  0.80346366  1
  F  F22  1  0.84827020  0.10528066  0.19653634  1
  F  F23  1  0.15172980  0.89471934  0.19653634  1
  F  F24  1  0.34827020  0.39471934  0.19653634  1
  F  F25  1  0.65172980  0.60528066  0.19653634  1
  F  F26  1  0.15172980  0.89471934  0.80346366  1
  F  F27  1  0.84827020  0.10528066  0.80346366  1
  F  F28  1  0.85950467  0.66292245  0.91515125  1
  F  F29  1  0.14049533  0.33707755  0.91515125  1
  F  F30  1  0.64049533  0.16292245  0.08484875  1
  F  F31  1  0.35950467  0.83707755  0.08484875  1
  F  F32  1  0.14049533  0.33707755  0.08484875  1
  F  F33  1  0.85950467  0.66292245  0.08484875  1
  F  F34  1  0.35950467  0.83707755  0.91515125  1
  F  F35  1  0.64049533  0.16292245  0.91515125  1
  F  F36  1  0.33185081  0.32554348  0.30270939  1
  F  F37  1  0.66814919  0.67445652  0.30270939  1
  F  F38  1  0.16814919  0.82554348  0.69729061  1
  F  F39  1  0.83185081  0.17445652  0.69729061  1
  F  F40  1  0.66814919  0.67445652  0.69729061  1
  F  F41  1  0.33185081  0.32554348  0.69729061  1
  F  F42  1  0.83185081  0.17445652  0.30270939  1
  F  F43  1  0.16814919  0.82554348  0.30270939  1
  F  F44  1  0.66248021  0.75708658  0.00000000  1
  F  F45  1  0.33751979  0.24291342  0.00000000  1
  F  F46  1  0.83751979  0.25708658  -0.00000000  1
  F  F47  1  0.16248021  0.74291342  0.00000000  1
  Li  Li48  1  0.00000000  0.50000000  0.50000000  1
  Li  Li49  1  0.50000000  -0.00000000  0.50000000  1
  Li  Li50  1  0.00000000  0.00000000  0.00000000  1
  Li  Li51  1  0.50000000  0.50000000  0.00000000  1
  Li  Li52  1  0.28279956  0.93659423  0.56924637  1
  Li  Li53  1  -0.28279956  -0.93659423  0.56924637  1
  Li  Li54  1  0.21720044  1.43659423  -0.56924637  1
  Li  Li55  1  0.78279956  -0.43659423  -0.56924637  1
  Li  Li56  1  -0.28279956  -0.93659423  -0.56924637  1
  Li  Li57  1  0.28279956  0.93659423  -0.56924637  1
  Li  Li58  1  0.78279956  -0.43659423  0.56924637  1
  Li  Li59  1  0.21720044  1.43659423  0.56924637  1
  Li  Li60  1  0.86944017  0.07522426  0.65865666  1
  Li  Li61  1  0.13055983  0.92477574  0.65865666  1
  Li  Li62  1  0.63055983  0.57522426  0.34134334  1
  Li  Li63  1  0.36944017  0.42477574  0.34134334  1
  Li  Li64  1  0.13055983  0.92477574  0.34134334  1
  Li  Li65  1  0.86944017  0.07522426  0.34134334  1
  Li  Li66  1  0.36944017  0.42477574  0.65865666  1
  Li  Li67  1  0.63055983  0.57522426  0.65865666  1
  Li  Li68  1  0.21438466  0.64096107  0.32783626  1
  Li  Li69  1  0.78561534  0.35903893  0.32783626  1
  Li  Li70  1  0.28561534  0.14096107  0.67216374  1
  Li  Li71  1  0.71438466  0.85903893  0.67216374  1
  Li  Li72  1  0.78561534  0.35903893  0.67216374  1
  Li  Li73  1  0.21438466  0.64096107  0.67216374  1
  Li  Li74  1  0.71438466  0.85903893  0.32783626  1
  Li  Li75  1  0.28561534  0.14096107  0.32783626  1
  Li  Li76  1  0.95792657  0.79644939  0.41090366  1
  Li  Li77  1  0.04207343  0.20355061  0.41090366  1
  Li  Li78  1  0.54207343  0.29644939  0.58909634  1
  Li  Li79  1  0.45792657  0.70355061  0.58909634  1
  Li  Li80  1  0.04207343  0.20355061  0.58909634  1
  Li  Li81  1  0.95792657  0.79644939  0.58909634  1
  Li  Li82  1  0.45792657  0.70355061  0.41090366  1
  Li  Li83  1  0.54207343  0.29644939  0.41090366  1
  Li  Li84  1  0.00000000  0.50000000  0.00000000  1
  Li  Li85  1  0.50000000  -0.00000000  0.00000000  1
  Li  Li86  1  0.79694763  0.49062407  0.69780957  1
  Li  Li87  1  0.20305237  0.50937593  0.69780957  1
  Li  Li88  1  0.70305237  0.99062407  0.30219043  1
  Li  Li89  1  0.29694763  0.00937593  0.30219043  1
  Li  Li90  1  0.20305237  0.50937593  0.30219043  1
  Li  Li91  1  0.79694763  0.49062407  0.30219043  1
  Li  Li92  1  0.29694763  0.00937593  0.69780957  1
  Li  Li93  1  0.70305237  0.99062407  0.69780957  1
  Li  Li94  1  0.00000000  0.00000000  0.50000000  1
  Li  Li95  1  0.50000000  0.50000000  0.50000000  1
