# generated using pymatgen
data_LiF
_symmetry_space_group_name_H-M   'P 1'
_cell_length_a   15.63383109
_cell_length_b   9.07880770
_cell_length_c   4.76884074
_cell_angle_alpha   90.00000000
_cell_angle_beta   90.00000000
_cell_angle_gamma   90.00000000
_symmetry_Int_Tables_number   1
_chemical_formula_structural   LiF
_chemical_formula_sum   'Li26 F26'
_cell_volume   676.87278303
_cell_formula_units_Z   26
loop_
 _symmetry_equiv_pos_site_id
 _symmetry_equiv_pos_as_xyz
  1  'x, y, z'
loop_
 _atom_site_type_symbol
 _atom_site_label
 _atom_site_symmetry_multiplicity
 _atom_site_fract_x
 _atom_site_fract_y
 _atom_site_fract_z
 _atom_site_occupancy
  F  F0  1  0.00000000  0.00000000  0.00000000  1
  F  F1  1  0.50000000  0.50000000  -0.00000000  1
  F  F2  1  0.09784021  0.05593152  0.30240279  1
  F  F3  1  -0.09784021  -0.05593152  0.30240279  1
  F  F4  1  0.40215979  0.55593152  -0.30240279  1
  F  F5  1  0.59784021  0.44406848  -0.30240279  1
  F  F6  1  -0.09784021  -0.05593152  -0.30240279  1
  F  F7  1  0.09784021  0.05593152  -0.30240279  1
  F  F8  1  0.59784021  0.44406848  0.30240279  1
  F  F9  1  0.40215979  0.55593152  0.30240279  1
  F  F10  1  0.90080939  0.16065139  0.50000000  1
  F  F11  1  0.09919061  0.83934861  0.50000000  1
  F  F12  1  0.59919061  0.66065139  0.50000000  1
  F  F13  1  0.40080939  0.33934861  0.50000000  1
  F  F14  1  0.00000000  0.50000000  0.37733030  1
  F  F15  1  0.50000000  -0.00000000  0.62266970  1
  F  F16  1  0.00000000  0.50000000  0.62266970  1
  F  F17  1  0.50000000  -0.00000000  0.37733030  1
  F  F18  1  0.57334184  0.81103246  0.11580074  1
  F  F19  1  0.42665816  0.18896754  0.11580074  1
  F  F20  1  0.92665816  0.31103246  0.88419926  1
  F  F21  1  0.07334184  0.68896754  0.88419926  1
  F  F22  1  0.42665816  0.18896754  0.88419926  1
  F  F23  1  0.57334184  0.81103246  0.88419926  1
  F  F24  1  0.07334184  0.68896754  0.11580074  1
  F  F25  1  0.92665816  0.31103246  0.11580074  1
  Li  Li26  1  0.25303017  0.62645396  0.00000000  1
  Li  Li27  1  0.74696983  0.37354604  -0.00000000  1
  Li  Li28  1  0.24696983  0.12645396  -0.00000000  1
  Li  Li29  1  0.75303017  0.87354604  -0.00000000  1
  Li  Li30  1  0.00000000  0.50000000  0.00000000  1
  Li  Li31  1  0.50000000  -0.00000000  -0.00000000  1
  Li  Li32  1  0.89203952  0.44829372  0.13652264  1
  Li  Li33  1  0.10796048  0.55170628  0.13652264  1
  Li  Li34  1  0.60796048  0.94829372  0.86347736  1
  Li  Li35  1  0.39203952  0.05170628  0.86347736  1
  Li  Li36  1  0.10796048  0.55170628  0.86347736  1
  Li  Li37  1  0.89203952  0.44829372  0.86347736  1
  Li  Li38  1  0.39203952  0.05170628  0.13652264  1
  Li  Li39  1  0.60796048  0.94829372  0.13652264  1
  Li  Li40  1  0.98237477  0.21617876  -0.00000000  1
  Li  Li41  1  0.01762523  0.78382124  -0.00000000  1
  Li  Li42  1  0.51762523  0.71617876  -0.00000000  1
  Li  Li43  1  0.48237477  0.28382124  -0.00000000  1
  Li  Li44  1  0.67411990  0.75379739  0.00000000  1
  Li  Li45  1  0.32588010  0.24620261  -0.00000000  1
  Li  Li46  1  0.82588010  0.25379739  -0.00000000  1
  Li  Li47  1  0.17411990  0.74620261  0.00000000  1
  Li  Li48  1  0.83063255  0.94352494  -0.00000000  1
  Li  Li49  1  0.16936745  0.05647506  -0.00000000  1
  Li  Li50  1  0.66936745  0.44352494  -0.00000000  1
  Li  Li51  1  0.33063255  0.55647506  -0.00000000  1
