# generated using pymatgen
data_LiF
_symmetry_space_group_name_H-M   'P 1'
_cell_length_a   5.94261613
_cell_length_b   5.94261613
_cell_length_c   15.50479794
_cell_angle_alpha   90.00000000
_cell_angle_beta   90.00000000
_cell_angle_gamma   120.00000000
_symmetry_Int_Tables_number   1
_chemical_formula_structural   LiF
_chemical_formula_sum   'Li21 F21'
_cell_volume   474.18967944
_cell_formula_units_Z   21
loop_
 _symmetry_equiv_pos_site_id
 _symmetry_equiv_pos_as_xyz
  1  'x, y, z'
loop_
 _atom_site_type_symbol
 _atom_site_label
 _atom_site_symmetry_multiplicity
 _atom_site_fract_x
 _atom_site_fract_y
 _atom_site_fract_z
 _atom_site_occupancy
  F  F0  1  0.33333333  0.66666667  0.50000000  1
  F  F1  1  0.23486828  0.26668239  0.07031771  1
  F  F2  1  0.73331761  0.96818589  0.07031771  1
  F  F3  1  0.03181411  0.76513172  0.07031771  1
  F  F4  1  0.73331761  0.76513172  0.92968229  1
  F  F5  1  0.03181411  0.26668239  0.92968229  1
  F  F6  1  0.23486828  0.96818589  0.92968229  1
  F  F7  1  0.27942063  0.80720054  0.28215517  1
  F  F8  1  0.19279946  0.47222009  0.28215517  1
  F  F9  1  0.52777991  0.72057937  0.28215517  1
  F  F10  1  0.19279946  0.72057937  0.71784483  1
  F  F11  1  0.52777991  0.80720054  0.71784483  1
  F  F12  1  0.27942063  0.47222009  0.71784483  1
  F  F13  1  0.45315064  0.59787445  0.74734961  1
  F  F14  1  0.40212555  0.85527619  0.74734961  1
  F  F15  1  0.14472381  0.54684936  0.74734961  1
  F  F16  1  0.40212555  0.54684936  0.25265039  1
  F  F17  1  0.14472381  0.59787445  0.25265039  1
  F  F18  1  0.45315064  0.85527619  0.25265039  1
  F  F19  1  0.66666667  0.33333333  0.19547960  1
  F  F20  1  0.66666667  0.33333333  0.80452040  1
  Li  Li21  1  0.00000000  0.00000000  0.55121569  1
  Li  Li22  1  0.00000000  0.00000000  0.44878431  1
  Li  Li23  1  0.20623751  0.88012876  0.18378617  1
  Li  Li24  1  -0.88012876  -0.67389125  0.18378617  1
  Li  Li25  1  0.67389125  -0.20623751  0.18378617  1
  Li  Li26  1  -0.88012876  -0.20623751  -0.18378617  1
  Li  Li27  1  0.67389125  0.88012876  -0.18378617  1
  Li  Li28  1  0.20623751  -0.67389125  -0.18378617  1
  Li  Li29  1  0.29912483  0.29641233  0.64498594  1
  Li  Li30  1  0.70358767  0.00271250  0.64498594  1
  Li  Li31  1  0.99728750  0.70087517  0.64498594  1
  Li  Li32  1  0.70358767  0.70087517  0.35501406  1
  Li  Li33  1  0.99728750  0.29641233  0.35501406  1
  Li  Li34  1  0.29912483  0.00271250  0.35501406  1
  Li  Li35  1  0.66666667  0.33333333  0.00000000  1
  Li  Li36  1  0.82086459  0.89826539  0.74055084  1
  Li  Li37  1  0.10173461  0.92259920  0.74055084  1
  Li  Li38  1  0.07740080  0.17913541  0.74055084  1
  Li  Li39  1  0.10173461  0.17913541  0.25944916  1
  Li  Li40  1  0.07740080  0.89826539  0.25944916  1
  Li  Li41  1  0.82086459  0.92259920  0.25944916  1
