# generated using pymatgen
data_LiF
_symmetry_space_group_name_H-M   'P 1'
_cell_length_a   10.74333508
_cell_length_b   10.74333508
_cell_length_c   6.16096491
_cell_angle_alpha   90.00000000
_cell_angle_beta   90.00000000
_cell_angle_gamma   90.00000000
_symmetry_Int_Tables_number   1
_chemical_formula_structural   LiF
_chemical_formula_sum   'Li36 F36'
_cell_volume   711.09394037
_cell_formula_units_Z   36
loop_
 _symmetry_equiv_pos_site_id
 _symmetry_equiv_pos_as_xyz
  1  'x, y, z'
loop_
 _atom_site_type_symbol
 _atom_site_label
 _atom_site_symmetry_multiplicity
 _atom_site_fract_x
 _atom_site_fract_y
 _atom_site_fract_z
 _atom_site_occupancy
  F  F0  1  0.00000000  0.75000000  0.12500000  1
  F  F1  1  0.50000000  0.75000000  0.37500000  1
  F  F2  1  0.50000000  0.25000000  0.62500000  1
  F  F3  1  0.00000000  0.25000000  0.87500000  1
  F  F4  1  0.12004019  0.01317348  0.40071637  1
  F  F5  1  0.37995981  -0.01317348  0.90071637  1
  F  F6  1  0.23682652  0.87004019  0.65071637  1
  F  F7  1  0.26317348  0.12995981  1.15071637  1
  F  F8  1  0.37995981  0.01317348  0.09928363  1
  F  F9  1  0.12004019  -0.01317348  -0.40071637  1
  F  F10  1  0.26317348  0.87004019  -0.15071637  1
  F  F11  1  0.23682652  0.12995981  0.34928363  1
  F  F12  1  -0.12004019  -0.01317348  -0.40071637  1
  F  F13  1  0.62004019  0.01317348  0.09928363  1
  F  F14  1  0.76317348  0.12995981  0.34928363  1
  F  F15  1  0.73682652  0.87004019  -0.15071637  1
  F  F16  1  0.62004019  -0.01317348  0.90071637  1
  F  F17  1  -0.12004019  0.01317348  0.40071637  1
  F  F18  1  0.73682652  0.12995981  1.15071637  1
  F  F19  1  0.76317348  0.87004019  0.65071637  1
  F  F20  1  0.62004019  0.51317348  0.90071637  1
  F  F21  1  0.87995981  0.48682652  1.40071637  1
  F  F22  1  0.73682652  1.37004019  1.15071637  1
  F  F23  1  0.76317348  0.62995981  1.65071637  1
  F  F24  1  0.87995981  0.51317348  0.59928363  1
  F  F25  1  0.62004019  0.48682652  0.09928363  1
  F  F26  1  0.76317348  1.37004019  0.34928363  1
  F  F27  1  0.73682652  0.62995981  0.84928363  1
  F  F28  1  0.37995981  0.48682652  0.09928363  1
  F  F29  1  1.12004019  0.51317348  0.59928363  1
  F  F30  1  1.26317348  0.62995981  0.84928363  1
  F  F31  1  1.23682652  1.37004019  0.34928363  1
  F  F32  1  1.12004019  0.48682652  1.40071637  1
  F  F33  1  0.37995981  0.51317348  0.90071637  1
  F  F34  1  1.23682652  0.62995981  1.65071637  1
  F  F35  1  1.26317348  1.37004019  1.15071637  1
  Li  Li36  1  0.00000000  0.25000000  0.09035537  1
  Li  Li37  1  0.00000000  0.75000000  0.34035537  1
  Li  Li38  1  0.50000000  0.25000000  0.40964463  1
  Li  Li39  1  0.50000000  0.75000000  0.15964463  1
  Li  Li40  1  0.50000000  0.75000000  0.59035537  1
  Li  Li41  1  0.50000000  0.25000000  0.84035537  1
  Li  Li42  1  0.00000000  0.75000000  0.90964463  1
  Li  Li43  1  0.00000000  0.25000000  0.65964463  1
  Li  Li44  1  0.00000000  0.00000000  0.50000000  1
  Li  Li45  1  0.50000000  0.00000000  0.00000000  1
  Li  Li46  1  0.25000000  0.75000000  0.75000000  1
  Li  Li47  1  0.25000000  0.25000000  0.25000000  1
  Li  Li48  1  0.50000000  0.50000000  0.00000000  1
  Li  Li49  1  0.00000000  0.50000000  0.50000000  1
  Li  Li50  1  0.75000000  0.25000000  0.25000000  1
  Li  Li51  1  0.75000000  0.75000000  0.75000000  1
  Li  Li52  1  0.06961950  0.00000000  0.00000000  1
  Li  Li53  1  0.43038050  0.00000000  0.50000000  1
  Li  Li54  1  0.25000000  0.81961950  0.25000000  1
  Li  Li55  1  0.25000000  0.18038050  0.75000000  1
  Li  Li56  1  0.93038050  0.00000000  0.00000000  1
  Li  Li57  1  0.56961950  0.00000000  0.50000000  1
  Li  Li58  1  0.75000000  0.18038050  0.75000000  1
  Li  Li59  1  0.75000000  0.81961950  0.25000000  1
  Li  Li60  1  0.56961950  0.50000000  0.50000000  1
  Li  Li61  1  0.93038050  0.50000000  0.00000000  1
  Li  Li62  1  0.75000000  0.31961950  0.75000000  1
  Li  Li63  1  0.75000000  0.68038050  0.25000000  1
  Li  Li64  1  0.43038050  0.50000000  0.50000000  1
  Li  Li65  1  0.06961950  0.50000000  0.00000000  1
  Li  Li66  1  0.25000000  0.68038050  0.25000000  1
  Li  Li67  1  0.25000000  0.31961950  0.75000000  1
  Li  Li68  1  0.00000000  0.25000000  0.37500000  1
  Li  Li69  1  0.00000000  0.75000000  0.62500000  1
  Li  Li70  1  0.50000000  0.75000000  0.87500000  1
  Li  Li71  1  0.50000000  0.25000000  0.12500000  1
