# generated using pymatgen
data_LiF
_symmetry_space_group_name_H-M   'P 1'
_cell_length_a   9.50339444
_cell_length_b   4.96239843
_cell_length_c   6.80957505
_cell_angle_alpha   90.00000000
_cell_angle_beta   90.00000000
_cell_angle_gamma   90.00000000
_symmetry_Int_Tables_number   1
_chemical_formula_structural   LiF
_chemical_formula_sum   'Li24 F24'
_cell_volume   321.13703753
_cell_formula_units_Z   24
loop_
 _symmetry_equiv_pos_site_id
 _symmetry_equiv_pos_as_xyz
  1  'x, y, z'
loop_
 _atom_site_type_symbol
 _atom_site_label
 _atom_site_symmetry_multiplicity
 _atom_site_fract_x
 _atom_site_fract_y
 _atom_site_fract_z
 _atom_site_occupancy
  F  F0  1  0.45865556  0.25000000  0.10428247  1
  F  F1  1  0.04134444  0.75000000  0.60428247  1
  F  F2  1  0.54134444  0.75000000  0.89571753  1
  F  F3  1  0.95865556  0.25000000  0.39571753  1
  F  F4  1  0.42173140  0.62004999  0.00196510  1
  F  F5  1  0.07826860  0.37995001  0.50196510  1
  F  F6  1  0.57826860  0.12004999  0.99803490  1
  F  F7  1  0.92173140  0.87995001  0.49803490  1
  F  F8  1  0.57826860  0.37995001  0.99803490  1
  F  F9  1  0.92173140  0.62004999  0.49803490  1
  F  F10  1  0.42173140  0.87995001  0.00196510  1
  F  F11  1  0.07826860  0.12004999  0.50196510  1
  F  F12  1  0.00000000  0.00000000  0.50000000  1
  F  F13  1  0.50000000  0.00000000  -0.00000000  1
  F  F14  1  0.00000000  0.50000000  0.50000000  1
  F  F15  1  0.50000000  0.50000000  -0.00000000  1
  F  F16  1  0.10736080  0.37529169  0.14254411  1
  F  F17  1  0.39263920  0.62470831  0.64254411  1
  F  F18  1  0.89263920  0.87529169  0.85745589  1
  F  F19  1  0.60736080  0.12470831  0.35745589  1
  F  F20  1  0.89263920  0.62470831  0.85745589  1
  F  F21  1  0.60736080  0.37529169  0.35745589  1
  F  F22  1  0.10736080  0.12470831  0.14254411  1
  F  F23  1  0.39263920  0.87529169  0.64254411  1
  Li  Li24  1  0.11762003  0.01295937  0.75175406  1
  Li  Li25  1  0.38237997  -0.01295937  1.25175406  1
  Li  Li26  1  -0.11762003  0.51295937  -0.75175406  1
  Li  Li27  1  0.61762003  0.48704063  -0.25175406  1
  Li  Li28  1  -0.11762003  -0.01295937  -0.75175406  1
  Li  Li29  1  0.61762003  0.01295937  -0.25175406  1
  Li  Li30  1  0.11762003  0.48704063  0.75175406  1
  Li  Li31  1  0.38237997  0.51295937  1.25175406  1
  Li  Li32  1  0.84356972  0.25000000  0.66788784  1
  Li  Li33  1  0.65643028  0.75000000  0.16788784  1
  Li  Li34  1  0.15643028  0.75000000  0.33211216  1
  Li  Li35  1  0.34356972  0.25000000  0.83211216  1
  Li  Li36  1  0.00000000  0.00000000  0.00000000  1
  Li  Li37  1  0.50000000  0.00000000  0.50000000  1
  Li  Li38  1  0.00000000  0.50000000  0.00000000  1
  Li  Li39  1  0.50000000  0.50000000  0.50000000  1
  Li  Li40  1  0.85001749  0.25000000  0.97163248  1
  Li  Li41  1  0.64998251  0.75000000  0.47163248  1
  Li  Li42  1  0.14998251  0.75000000  0.02836752  1
  Li  Li43  1  0.35001749  0.25000000  0.52836752  1
  Li  Li44  1  0.05880492  0.25000000  0.80343480  1
  Li  Li45  1  0.44119508  0.75000000  0.30343480  1
  Li  Li46  1  0.94119508  0.75000000  0.19656520  1
  Li  Li47  1  0.55880492  0.25000000  0.69656520  1
