# generated using pymatgen
data_Li4TeF2
_symmetry_space_group_name_H-M   'P 1'
_cell_length_a   16.57230581
_cell_length_b   16.57230581
_cell_length_c   13.87294941
_cell_angle_alpha   90.00000000
_cell_angle_beta   90.00000000
_cell_angle_gamma   90.00000000
_symmetry_Int_Tables_number   1
_chemical_formula_structural   Li4TeF2
_chemical_formula_sum   'Li96 Te24 F48'
_cell_volume   3810.08513571
_cell_formula_units_Z   24
loop_
 _symmetry_equiv_pos_site_id
 _symmetry_equiv_pos_as_xyz
  1  'x, y, z'
loop_
 _atom_site_type_symbol
 _atom_site_label
 _atom_site_symmetry_multiplicity
 _atom_site_fract_x
 _atom_site_fract_y
 _atom_site_fract_z
 _atom_site_occupancy
  F  F0  1  0.48242792  -0.00000000  0.50000000  1
  F  F1  1  0.51757208  -0.00000000  0.50000000  1
  F  F2  1  0.00000000  0.48242792  0.50000000  1
  F  F3  1  0.00000000  0.51757208  0.50000000  1
  F  F4  1  0.65818331  0.45932393  0.50000000  1
  F  F5  1  0.34181669  0.54067607  0.50000000  1
  F  F6  1  0.54067607  0.65818331  0.50000000  1
  F  F7  1  0.45932393  0.34181669  0.50000000  1
  F  F8  1  0.34181669  0.45932393  0.50000000  1
  F  F9  1  0.65818331  0.54067607  0.50000000  1
  F  F10  1  0.45932393  0.65818331  0.50000000  1
  F  F11  1  0.54067607  0.34181669  0.50000000  1
  F  F12  1  0.18536872  0.18536872  0.50000000  1
  F  F13  1  0.81463128  0.81463128  0.50000000  1
  F  F14  1  0.81463128  0.18536872  0.50000000  1
  F  F15  1  0.18536872  0.81463128  0.50000000  1
  F  F16  1  0.77066183  -0.00000000  0.60766321  1
  F  F17  1  0.22933817  -0.00000000  0.60766321  1
  F  F18  1  0.00000000  0.77066183  0.60766321  1
  F  F19  1  0.00000000  0.22933817  0.60766321  1
  F  F20  1  0.22933817  -0.00000000  0.39233679  1
  F  F21  1  0.77066183  -0.00000000  0.39233679  1
  F  F22  1  0.00000000  0.77066183  0.39233679  1
  F  F23  1  0.00000000  0.22933817  0.39233679  1
  F  F24  1  0.00000000  0.50000000  0.45108558  1
  F  F25  1  0.50000000  -0.00000000  0.45108558  1
  F  F26  1  0.00000000  0.50000000  0.54891442  1
  F  F27  1  0.50000000  -0.00000000  0.54891442  1
  F  F28  1  0.90546838  0.38777441  0.08616475  1
  F  F29  1  -0.90546838  -0.38777441  0.08616475  1
  F  F30  1  -0.38777441  0.90546838  0.08616475  1
  F  F31  1  0.38777441  -0.90546838  0.08616475  1
  F  F32  1  -0.90546838  0.38777441  -0.08616475  1
  F  F33  1  0.90546838  -0.38777441  -0.08616475  1
  F  F34  1  0.38777441  0.90546838  -0.08616475  1
  F  F35  1  -0.38777441  -0.90546838  -0.08616475  1
  F  F36  1  -0.90546838  -0.38777441  -0.08616475  1
  F  F37  1  0.90546838  0.38777441  -0.08616475  1
  F  F38  1  0.38777441  -0.90546838  -0.08616475  1
  F  F39  1  -0.38777441  0.90546838  -0.08616475  1
  F  F40  1  0.90546838  -0.38777441  0.08616475  1
  F  F41  1  -0.90546838  0.38777441  0.08616475  1
  F  F42  1  -0.38777441  -0.90546838  0.08616475  1
  F  F43  1  0.38777441  0.90546838  0.08616475  1
  F  F44  1  0.58909696  -0.00000000  0.00000000  1
  F  F45  1  0.41090304  -0.00000000  -0.00000000  1
  F  F46  1  0.00000000  0.58909696  0.00000000  1
  F  F47  1  0.00000000  0.41090304  -0.00000000  1
  Li  Li48  1  0.62469026  -0.00000000  0.13514183  1
  Li  Li49  1  0.37530974  -0.00000000  0.13514183  1
  Li  Li50  1  0.00000000  0.62469026  0.13514183  1
  Li  Li51  1  0.00000000  0.37530974  0.13514183  1
  Li  Li52  1  0.37530974  -0.00000000  0.86485817  1
  Li  Li53  1  0.62469026  -0.00000000  0.86485817  1
  Li  Li54  1  0.00000000  0.62469026  0.86485817  1
  Li  Li55  1  0.00000000  0.37530974  0.86485817  1
  Li  Li56  1  0.29531774  0.50000000  0.79114894  1
  Li  Li57  1  0.70468226  0.50000000  0.79114894  1
  Li  Li58  1  0.50000000  0.29531774  0.79114894  1
  Li  Li59  1  0.50000000  0.70468226  0.79114894  1
  Li  Li60  1  0.70468226  0.50000000  0.20885106  1
  Li  Li61  1  0.29531774  0.50000000  0.20885106  1
  Li  Li62  1  0.50000000  0.29531774  0.20885106  1
  Li  Li63  1  0.50000000  0.70468226  0.20885106  1
  Li  Li64  1  0.41999408  0.33347846  0.10056772  1
  Li  Li65  1  0.58000592  0.66652154  0.10056772  1
  Li  Li66  1  0.66652154  0.41999408  0.10056772  1
  Li  Li67  1  0.33347846  0.58000592  0.10056772  1
  Li  Li68  1  0.58000592  0.33347846  0.89943228  1
  Li  Li69  1  0.41999408  0.66652154  0.89943228  1
  Li  Li70  1  0.33347846  0.41999408  0.89943228  1
  Li  Li71  1  0.66652154  0.58000592  0.89943228  1
  Li  Li72  1  0.58000592  0.66652154  0.89943228  1
  Li  Li73  1  0.41999408  0.33347846  0.89943228  1
  Li  Li74  1  0.33347846  0.58000592  0.89943228  1
  Li  Li75  1  0.66652154  0.41999408  0.89943228  1
  Li  Li76  1  0.41999408  0.66652154  0.10056772  1
  Li  Li77  1  0.58000592  0.33347846  0.10056772  1
  Li  Li78  1  0.66652154  0.58000592  0.10056772  1
  Li  Li79  1  0.33347846  0.41999408  0.10056772  1
  Li  Li80  1  0.39619184  0.39619184  0.58946140  1
  Li  Li81  1  0.60380816  0.60380816  0.58946140  1
  Li  Li82  1  0.60380816  0.39619184  0.58946140  1
  Li  Li83  1  0.39619184  0.60380816  0.58946140  1
  Li  Li84  1  0.60380816  0.39619184  0.41053860  1
  Li  Li85  1  0.39619184  0.60380816  0.41053860  1
  Li  Li86  1  0.39619184  0.39619184  0.41053860  1
  Li  Li87  1  0.60380816  0.60380816  0.41053860  1
  Li  Li88  1  0.00000000  0.50000000  -0.00000000  1
  Li  Li89  1  0.50000000  -0.00000000  -0.00000000  1
  Li  Li90  1  0.25956448  0.61109501  0.05527017  1
  Li  Li91  1  0.74043552  0.38890499  0.05527017  1
  Li  Li92  1  0.38890499  0.25956448  0.05527017  1
  Li  Li93  1  0.61109501  0.74043552  0.05527017  1
  Li  Li94  1  0.74043552  0.61109501  0.94472983  1
  Li  Li95  1  0.25956448  0.38890499  0.94472983  1
  Li  Li96  1  0.61109501  0.25956448  0.94472983  1
  Li  Li97  1  0.38890499  0.74043552  0.94472983  1
  Li  Li98  1  0.74043552  0.38890499  0.94472983  1
  Li  Li99  1  0.25956448  0.61109501  0.94472983  1
  Li  Li100  1  0.61109501  0.74043552  0.94472983  1
  Li  Li101  1  0.38890499  0.25956448  0.94472983  1
  Li  Li102  1  0.25956448  0.38890499  0.05527017  1
  Li  Li103  1  0.74043552  0.61109501  0.05527017  1
  Li  Li104  1  0.38890499  0.74043552  0.05527017  1
  Li  Li105  1  0.61109501  0.25956448  0.05527017  1
  Li  Li106  1  0.13374059  0.45994456  0.44929045  1
  Li  Li107  1  0.86625941  0.54005544  0.44929045  1
  Li  Li108  1  0.54005544  0.13374059  0.44929045  1
  Li  Li109  1  0.45994456  0.86625941  0.44929045  1
  Li  Li110  1  0.86625941  0.45994456  0.55070955  1
  Li  Li111  1  0.13374059  0.54005544  0.55070955  1
  Li  Li112  1  0.45994456  0.13374059  0.55070955  1
  Li  Li113  1  0.54005544  0.86625941  0.55070955  1
  Li  Li114  1  0.86625941  0.54005544  0.55070955  1
  Li  Li115  1  0.13374059  0.45994456  0.55070955  1
  Li  Li116  1  0.45994456  0.86625941  0.55070955  1
  Li  Li117  1  0.54005544  0.13374059  0.55070955  1
  Li  Li118  1  0.13374059  0.54005544  0.44929045  1
  Li  Li119  1  0.86625941  0.45994456  0.44929045  1
  Li  Li120  1  0.54005544  0.86625941  0.44929045  1
  Li  Li121  1  0.45994456  0.13374059  0.44929045  1
  Li  Li122  1  0.44160321  0.63804164  0.68859790  1
  Li  Li123  1  0.55839679  0.36195836  0.68859790  1
  Li  Li124  1  0.36195836  0.44160321  0.68859790  1
  Li  Li125  1  0.63804164  0.55839679  0.68859790  1
  Li  Li126  1  0.55839679  0.63804164  0.31140210  1
  Li  Li127  1  0.44160321  0.36195836  0.31140210  1
  Li  Li128  1  0.63804164  0.44160321  0.31140210  1
  Li  Li129  1  0.36195836  0.55839679  0.31140210  1
  Li  Li130  1  0.55839679  0.36195836  0.31140210  1
  Li  Li131  1  0.44160321  0.63804164  0.31140210  1
  Li  Li132  1  0.63804164  0.55839679  0.31140210  1
  Li  Li133  1  0.36195836  0.44160321  0.31140210  1
  Li  Li134  1  0.44160321  0.36195836  0.68859790  1
  Li  Li135  1  0.55839679  0.63804164  0.68859790  1
  Li  Li136  1  0.36195836  0.55839679  0.68859790  1
  Li  Li137  1  0.63804164  0.44160321  0.68859790  1
  Li  Li138  1  0.05742696  0.05742696  0.50000000  1
  Li  Li139  1  0.94257304  0.94257304  0.50000000  1
  Li  Li140  1  0.94257304  0.05742696  0.50000000  1
  Li  Li141  1  0.05742696  0.94257304  0.50000000  1
  Li  Li142  1  0.50000000  0.50000000  0.91583684  1
  Li  Li143  1  0.50000000  0.50000000  0.08416316  1
  Te  Te144  1  0.26773134  0.50000000  0.50000000  1
  Te  Te145  1  0.73226866  0.50000000  0.50000000  1
  Te  Te146  1  0.50000000  0.26773134  0.50000000  1
  Te  Te147  1  0.50000000  0.73226866  0.50000000  1
  Te  Te148  1  0.00000000  0.00000000  0.00000000  1
  Te  Te149  1  0.08706761  0.30780511  -0.00000000  1
  Te  Te150  1  0.91293239  0.69219489  -0.00000000  1
  Te  Te151  1  0.69219489  0.08706761  -0.00000000  1
  Te  Te152  1  0.30780511  0.91293239  -0.00000000  1
  Te  Te153  1  0.91293239  0.30780511  -0.00000000  1
  Te  Te154  1  0.08706761  0.69219489  0.00000000  1
  Te  Te155  1  0.30780511  0.08706761  -0.00000000  1
  Te  Te156  1  0.69219489  0.91293239  -0.00000000  1
  Te  Te157  1  0.65622956  0.40813984  0.00000000  1
  Te  Te158  1  0.34377044  0.59186016  -0.00000000  1
  Te  Te159  1  0.59186016  0.65622956  -0.00000000  1
  Te  Te160  1  0.40813984  0.34377044  -0.00000000  1
  Te  Te161  1  0.34377044  0.40813984  -0.00000000  1
  Te  Te162  1  0.65622956  0.59186016  -0.00000000  1
  Te  Te163  1  0.40813984  0.65622956  0.00000000  1
  Te  Te164  1  0.59186016  0.34377044  -0.00000000  1
  Te  Te165  1  0.00000000  0.00000000  0.50000000  1
  Te  Te166  1  0.50000000  0.50000000  0.27083256  1
  Te  Te167  1  0.50000000  0.50000000  0.72916744  1
