# generated using pymatgen
data_Li3Y2(P2Se)2
_symmetry_space_group_name_H-M   'P 1'
_cell_length_a   4.29495112
_cell_length_b   4.58928641
_cell_length_c   6.91098663
_cell_angle_alpha   95.97618421
_cell_angle_beta   103.01488678
_cell_angle_gamma   114.00395678
_symmetry_Int_Tables_number   1
_chemical_formula_structural   Li3Y2(P2Se)2
_chemical_formula_sum   'Li3 Y2 P4 Se2'
_cell_volume   118.27547399
_cell_formula_units_Z   1
loop_
 _symmetry_equiv_pos_site_id
 _symmetry_equiv_pos_as_xyz
  1  'x, y, z'
loop_
 _atom_site_type_symbol
 _atom_site_label
 _atom_site_symmetry_multiplicity
 _atom_site_fract_x
 _atom_site_fract_y
 _atom_site_fract_z
 _atom_site_occupancy
  P  P0  1  0.12500000  0.12500000  0.12500000  1
  P  P1  1  0.50000000  0.50000000  0.50000000  1
  P  P2  1  0.25000000  0.25000000  0.25000000  1
  P  P3  1  0.75000000  0.75000000  0.75000000  1
  Se  Se4  1  0.69998572  0.65603674  0.80668278  1
  Se  Se5  1  0.64349834  0.31621854  0.73545862  1
  Li  Li6  1  0.85962946  0.79351684  0.99283743  1
  Li  Li7  1  0.79380700  0.40774053  0.15427822  1
  Li  Li8  1  0.90713428  0.58486005  0.81893505  1
  Y  Y9  1  0.96747781  0.30123767  0.31336850  1
  Y  Y10  1  0.81595046  0.15303235  0.15770247  1
