# generated using pymatgen
data_LiCaF3
_symmetry_space_group_name_H-M   'P 1'
_cell_length_a   16.01591869
_cell_length_b   16.01591869
_cell_length_c   6.02118239
_cell_angle_alpha   90.00000000
_cell_angle_beta   90.00000000
_cell_angle_gamma   120.00000000
_symmetry_Int_Tables_number   1
_chemical_formula_structural   LiCaF3
_chemical_formula_sum   'Li18 Ca18 F54'
_cell_volume   1337.56878583
_cell_formula_units_Z   18
loop_
 _symmetry_equiv_pos_site_id
 _symmetry_equiv_pos_as_xyz
  1  'x, y, z'
loop_
 _atom_site_type_symbol
 _atom_site_label
 _atom_site_symmetry_multiplicity
 _atom_site_fract_x
 _atom_site_fract_y
 _atom_site_fract_z
 _atom_site_occupancy
  Ca  Ca0  1  0.50000000  0.00000000  0.00000000  1
  Ca  Ca1  1  0.00000000  0.50000000  0.00000000  1
  Ca  Ca2  1  0.50000000  0.50000000  0.00000000  1
  Ca  Ca3  1  0.00000000  0.50000000  0.50000000  1
  Ca  Ca4  1  0.50000000  0.00000000  0.50000000  1
  Ca  Ca5  1  0.50000000  0.50000000  0.50000000  1
  Ca  Ca6  1  0.16666667  0.33333333  0.33333333  1
  Ca  Ca7  1  0.66666667  0.83333333  0.33333333  1
  Ca  Ca8  1  0.16666667  0.83333333  0.33333333  1
  Ca  Ca9  1  0.66666667  0.83333333  0.83333333  1
  Ca  Ca10  1  0.16666667  0.33333333  0.83333333  1
  Ca  Ca11  1  0.16666667  0.83333333  0.83333333  1
  Ca  Ca12  1  0.83333333  0.66666667  0.66666667  1
  Ca  Ca13  1  0.33333333  0.16666667  0.66666667  1
  Ca  Ca14  1  0.83333333  0.16666667  0.66666667  1
  Ca  Ca15  1  0.33333333  0.16666667  0.16666667  1
  Ca  Ca16  1  0.83333333  0.66666667  0.16666667  1
  Ca  Ca17  1  0.83333333  0.16666667  0.16666667  1
  F  F18  1  0.83095193  0.51574014  0.61177921  1
  F  F19  1  -0.51574014  0.31521179  0.61177921  1
  F  F20  1  -0.31521179  -0.83095193  0.61177921  1
  F  F21  1  0.51574014  0.83095193  -0.11177921  1
  F  F22  1  0.31521179  -0.51574014  -0.11177921  1
  F  F23  1  -0.83095193  -0.31521179  -0.11177921  1
  F  F24  1  -0.83095193  -0.51574014  -0.61177921  1
  F  F25  1  0.51574014  -0.31521179  -0.61177921  1
  F  F26  1  0.31521179  0.83095193  -0.61177921  1
  F  F27  1  -0.51574014  -0.83095193  1.11177921  1
  F  F28  1  -0.31521179  0.51574014  1.11177921  1
  F  F29  1  0.83095193  0.31521179  1.11177921  1
  F  F30  1  1.49761860  0.84907348  0.94511254  1
  F  F31  1  0.15092652  0.64854512  0.94511254  1
  F  F32  1  0.35145488  -0.49761860  0.94511254  1
  F  F33  1  1.18240681  1.16428527  0.22155413  1
  F  F34  1  0.98187846  -0.18240681  0.22155413  1
  F  F35  1  -0.16428527  0.01812154  0.22155413  1
  F  F36  1  -0.16428527  -0.18240681  -0.27844587  1
  F  F37  1  1.18240681  0.01812154  -0.27844587  1
  F  F38  1  0.98187846  1.16428527  -0.27844587  1
  F  F39  1  0.15092652  -0.49761860  1.44511254  1
  F  F40  1  0.35145488  0.84907348  1.44511254  1
  F  F41  1  1.49761860  0.64854512  1.44511254  1
  F  F42  1  1.16428527  1.18240681  1.27844587  1
  F  F43  1  -0.18240681  0.98187846  1.27844587  1
  F  F44  1  0.01812154  -0.16428527  1.27844587  1
  F  F45  1  0.84907348  1.49761860  0.55488746  1
  F  F46  1  0.64854512  0.15092652  0.55488746  1
  F  F47  1  -0.49761860  0.35145488  0.55488746  1
  F  F48  1  -0.49761860  0.15092652  0.05488746  1
  F  F49  1  0.84907348  0.35145488  0.05488746  1
  F  F50  1  0.64854512  1.49761860  0.05488746  1
  F  F51  1  -0.18240681  -0.16428527  1.77844587  1
  F  F52  1  0.01812154  1.18240681  1.77844587  1
  F  F53  1  1.16428527  0.98187846  1.77844587  1
  F  F54  1  0.66812223  0.00000000  0.25000000  1
  F  F55  1  0.00000000  0.66812223  0.25000000  1
  F  F56  1  0.33187777  0.33187777  0.25000000  1
  F  F57  1  0.33187777  0.00000000  0.75000000  1
  F  F58  1  0.00000000  0.33187777  0.75000000  1
  F  F59  1  0.66812223  0.66812223  0.75000000  1
  F  F60  1  0.33478890  0.33333333  0.58333333  1
  F  F61  1  0.66666667  0.00145556  0.58333333  1
  F  F62  1  0.99854444  0.66521110  0.58333333  1
  F  F63  1  0.99854444  0.33333333  0.08333333  1
  F  F64  1  0.66666667  0.66521110  0.08333333  1
  F  F65  1  0.33478890  0.00145556  0.08333333  1
  F  F66  1  0.00145556  0.66666667  0.91666667  1
  F  F67  1  0.33333333  0.33478890  0.91666667  1
  F  F68  1  0.66521110  0.99854444  0.91666667  1
  F  F69  1  0.66521110  0.66666667  0.41666667  1
  F  F70  1  0.33333333  0.99854444  0.41666667  1
  F  F71  1  0.00145556  0.33478890  0.41666667  1
  Li  Li72  1  0.89814607  0.00000000  0.25000000  1
  Li  Li73  1  0.00000000  0.89814607  0.25000000  1
  Li  Li74  1  0.10185393  0.10185393  0.25000000  1
  Li  Li75  1  0.10185393  0.00000000  0.75000000  1
  Li  Li76  1  0.00000000  0.10185393  0.75000000  1
  Li  Li77  1  0.89814607  0.89814607  0.75000000  1
  Li  Li78  1  0.56481273  0.33333333  0.58333333  1
  Li  Li79  1  0.66666667  0.23147940  0.58333333  1
  Li  Li80  1  0.76852060  0.43518727  0.58333333  1
  Li  Li81  1  0.76852060  0.33333333  0.08333333  1
  Li  Li82  1  0.66666667  0.43518727  0.08333333  1
  Li  Li83  1  0.56481273  0.23147940  0.08333333  1
  Li  Li84  1  0.23147940  0.66666667  0.91666667  1
  Li  Li85  1  0.33333333  0.56481273  0.91666667  1
  Li  Li86  1  0.43518727  0.76852060  0.91666667  1
  Li  Li87  1  0.43518727  0.66666667  0.41666667  1
  Li  Li88  1  0.33333333  0.76852060  0.41666667  1
  Li  Li89  1  0.23147940  0.56481273  0.41666667  1
