# generated using pymatgen
data_LiF
_symmetry_space_group_name_H-M   'P 1'
_cell_length_a   4.29606611
_cell_length_b   8.55393021
_cell_length_c   15.13442662
_cell_angle_alpha   90.00000000
_cell_angle_beta   90.00000000
_cell_angle_gamma   90.00000000
_symmetry_Int_Tables_number   1
_chemical_formula_structural   LiF
_chemical_formula_sum   'Li24 F24'
_cell_volume   556.16368924
_cell_formula_units_Z   24
loop_
 _symmetry_equiv_pos_site_id
 _symmetry_equiv_pos_as_xyz
  1  'x, y, z'
loop_
 _atom_site_type_symbol
 _atom_site_label
 _atom_site_symmetry_multiplicity
 _atom_site_fract_x
 _atom_site_fract_y
 _atom_site_fract_z
 _atom_site_occupancy
  F  F0  1  0.45191443  0.25000000  0.85033039  1
  F  F1  1  0.04808557  0.75000000  0.35033039  1
  F  F2  1  0.54808557  0.75000000  0.14966961  1
  F  F3  1  0.95191443  0.25000000  0.64966961  1
  F  F4  1  0.52758669  0.99731544  0.86856011  1
  F  F5  1  0.97241331  0.00268456  0.36856011  1
  F  F6  1  0.47241331  0.49731544  0.13143989  1
  F  F7  1  0.02758669  0.50268456  0.63143989  1
  F  F8  1  0.47241331  0.00268456  0.13143989  1
  F  F9  1  0.02758669  0.99731544  0.63143989  1
  F  F10  1  0.52758669  0.50268456  0.86856011  1
  F  F11  1  0.97241331  0.49731544  0.36856011  1
  F  F12  1  0.19078434  0.07548617  0.86700844  1
  F  F13  1  0.30921566  0.92451383  0.36700844  1
  F  F14  1  0.80921566  0.57548617  0.13299156  1
  F  F15  1  0.69078434  0.42451383  0.63299156  1
  F  F16  1  0.80921566  0.92451383  0.13299156  1
  F  F17  1  0.69078434  0.07548617  0.63299156  1
  F  F18  1  0.19078434  0.42451383  0.86700844  1
  F  F19  1  0.30921566  0.57548617  0.36700844  1
  F  F20  1  0.08068070  0.25000000  0.51389357  1
  F  F21  1  0.41931930  0.75000000  0.01389357  1
  F  F22  1  0.91931930  0.75000000  0.48610643  1
  F  F23  1  0.58068070  0.25000000  0.98610643  1
  Li  Li24  1  0.26865792  0.25000000  0.00238025  1
  Li  Li25  1  0.23134208  0.75000000  0.50238025  1
  Li  Li26  1  0.73134208  0.75000000  0.99761975  1
  Li  Li27  1  0.76865792  0.25000000  0.49761975  1
  Li  Li28  1  0.96804961  0.55490925  0.77572798  1
  Li  Li29  1  -0.46804961  -0.55490925  1.27572798  1
  Li  Li30  1  -0.96804961  1.05490925  -0.77572798  1
  Li  Li31  1  1.46804961  -0.05490925  -0.27572798  1
  Li  Li32  1  -0.96804961  -0.55490925  -0.77572798  1
  Li  Li33  1  1.46804961  0.55490925  -0.27572798  1
  Li  Li34  1  0.96804961  -0.05490925  0.77572798  1
  Li  Li35  1  -0.46804961  1.05490925  1.27572798  1
  Li  Li36  1  0.00000000  0.00000000  0.00000000  1
  Li  Li37  1  0.50000000  -0.00000000  0.50000000  1
  Li  Li38  1  0.00000000  0.50000000  0.00000000  1
  Li  Li39  1  0.50000000  0.50000000  0.50000000  1
  Li  Li40  1  0.41937075  0.39026022  0.81535436  1
  Li  Li41  1  0.08062925  0.60973978  0.31535436  1
  Li  Li42  1  0.58062925  0.89026022  0.18464564  1
  Li  Li43  1  0.91937075  0.10973978  0.68464564  1
  Li  Li44  1  0.58062925  0.60973978  0.18464564  1
  Li  Li45  1  0.91937075  0.39026022  0.68464564  1
  Li  Li46  1  0.41937075  0.10973978  0.81535436  1
  Li  Li47  1  0.08062925  0.89026022  0.31535436  1
