# generated using pymatgen
data_Li4TeF2
_symmetry_space_group_name_H-M   'P 1'
_cell_length_a   14.01259527
_cell_length_b   14.01259527
_cell_length_c   14.72170251
_cell_angle_alpha   90.00000000
_cell_angle_beta   90.00000000
_cell_angle_gamma   120.00000000
_symmetry_Int_Tables_number   1
_chemical_formula_structural   Li4TeF2
_chemical_formula_sum   'Li96 Te24 F48'
_cell_volume   2503.37450857
_cell_formula_units_Z   24
loop_
 _symmetry_equiv_pos_site_id
 _symmetry_equiv_pos_as_xyz
  1  'x, y, z'
loop_
 _atom_site_type_symbol
 _atom_site_label
 _atom_site_symmetry_multiplicity
 _atom_site_fract_x
 _atom_site_fract_y
 _atom_site_fract_z
 _atom_site_occupancy
  F  F0  1  0.42396249  0.11185993  0.99706785  1
  F  F1  1  -0.11185993  0.31210256  0.99706785  1
  F  F2  1  -0.31210256  -0.42396249  0.99706785  1
  F  F3  1  -0.11185993  -0.42396249  -0.99706785  1
  F  F4  1  -0.31210256  0.11185993  -0.99706785  1
  F  F5  1  0.42396249  0.31210256  -0.99706785  1
  F  F6  1  0.89429348  0.89969930  0.41311982  1
  F  F7  1  0.10030070  0.99459418  0.41311982  1
  F  F8  1  0.00540582  0.10570652  0.41311982  1
  F  F9  1  0.10030070  0.10570652  0.58688018  1
  F  F10  1  0.00540582  0.89969930  0.58688018  1
  F  F11  1  0.89429348  0.99459418  0.58688018  1
  F  F12  1  0.66666667  0.33333333  0.50000000  1
  F  F13  1  0.80164797  0.08810844  0.81568818  1
  F  F14  1  0.91189156  0.71353954  0.81568818  1
  F  F15  1  0.28646046  0.19835203  0.81568818  1
  F  F16  1  0.91189156  0.19835203  0.18431182  1
  F  F17  1  0.28646046  0.08810844  0.18431182  1
  F  F18  1  0.80164797  0.71353954  0.18431182  1
  F  F19  1  0.33333333  0.66666667  0.50000000  1
  F  F20  1  0.57335072  0.37671653  0.14701597  1
  F  F21  1  0.62328347  0.19663418  0.14701597  1
  F  F22  1  0.80336582  0.42664928  0.14701597  1
  F  F23  1  0.62328347  0.42664928  0.85298403  1
  F  F24  1  0.80336582  0.37671653  0.85298403  1
  F  F25  1  0.57335072  0.19663418  0.85298403  1
  F  F26  1  0.33333333  0.66666667  0.00000000  1
  F  F27  1  0.71776542  0.61049414  0.66645309  1
  F  F28  1  0.38950586  0.10727128  0.66645309  1
  F  F29  1  0.89272872  0.28223458  0.66645309  1
  F  F30  1  0.38950586  0.28223458  0.33354691  1
  F  F31  1  0.89272872  0.61049414  0.33354691  1
  F  F32  1  0.71776542  0.10727128  0.33354691  1
  F  F33  1  0.58667167  0.38464728  0.75311197  1
  F  F34  1  0.61535272  0.20202439  0.75311197  1
  F  F35  1  0.79797561  0.41332833  0.75311197  1
  F  F36  1  0.61535272  0.41332833  0.24688803  1
  F  F37  1  0.79797561  0.38464728  0.24688803  1
  F  F38  1  0.58667167  0.20202439  0.24688803  1
  F  F39  1  0.83556065  0.16443935  0.50000000  1
  F  F40  1  0.83556065  0.67112131  0.50000000  1
  F  F41  1  0.32887869  0.16443935  0.50000000  1
  F  F42  1  0.44589483  0.65029207  0.61301614  1
  F  F43  1  0.34970793  0.79560276  0.61301614  1
  F  F44  1  0.20439724  0.55410517  0.61301614  1
  F  F45  1  0.34970793  0.55410517  0.38698386  1
  F  F46  1  0.20439724  0.65029207  0.38698386  1
  F  F47  1  0.44589483  0.79560276  0.38698386  1
  Li  Li48  1  0.00498764  0.58750079  0.54649311  1
  Li  Li49  1  0.41249921  0.41748685  0.54649311  1
  Li  Li50  1  0.58251315  0.99501236  0.54649311  1
  Li  Li51  1  0.41249921  0.99501236  0.45350689  1
  Li  Li52  1  0.58251315  0.58750079  0.45350689  1
  Li  Li53  1  0.00498764  0.41748685  0.45350689  1
  Li  Li54  1  0.56458451  0.55282367  0.79217276  1
  Li  Li55  1  0.44717633  0.01176084  0.79217276  1
  Li  Li56  1  0.98823916  0.43541549  0.79217276  1
  Li  Li57  1  0.44717633  0.43541549  0.20782724  1
  Li  Li58  1  0.98823916  0.55282367  0.20782724  1
  Li  Li59  1  0.56458451  0.01176084  0.20782724  1
  Li  Li60  1  0.36543542  0.56570498  0.09612752  1
  Li  Li61  1  0.43429502  0.79973043  0.09612752  1
  Li  Li62  1  0.20026957  0.63456458  0.09612752  1
  Li  Li63  1  0.43429502  0.63456458  0.90387248  1
  Li  Li64  1  0.20026957  0.56570498  0.90387248  1
  Li  Li65  1  0.36543542  0.79973043  0.90387248  1
  Li  Li66  1  0.49584095  0.96422146  0.84494991  1
  Li  Li67  1  0.03577854  0.53161949  0.84494991  1
  Li  Li68  1  0.46838051  0.50415905  0.84494991  1
  Li  Li69  1  0.03577854  0.50415905  0.15505009  1
  Li  Li70  1  0.46838051  0.96422146  0.15505009  1
  Li  Li71  1  0.49584095  0.53161949  0.15505009  1
  Li  Li72  1  0.57979125  0.26832583  0.90313585  1
  Li  Li73  1  0.73167417  0.31146542  0.90313585  1
  Li  Li74  1  0.68853458  0.42020875  0.90313585  1
  Li  Li75  1  0.73167417  0.42020875  0.09686415  1
  Li  Li76  1  0.68853458  0.26832583  0.09686415  1
  Li  Li77  1  0.57979125  0.31146542  0.09686415  1
  Li  Li78  1  0.00000000  0.00000000  0.64812831  1
  Li  Li79  1  0.00000000  0.00000000  0.35187169  1
  Li  Li80  1  0.39371792  0.60628208  0.00000000  1
  Li  Li81  1  0.39371792  0.78743584  0.00000000  1
  Li  Li82  1  0.21256416  0.60628208  0.00000000  1
  Li  Li83  1  0.35208733  0.46584880  0.23828620  1
  Li  Li84  1  0.53415120  0.88623853  0.23828620  1
  Li  Li85  1  0.11376147  0.64791267  0.23828620  1
  Li  Li86  1  0.53415120  0.64791267  0.76171380  1
  Li  Li87  1  0.11376147  0.46584880  0.76171380  1
  Li  Li88  1  0.35208733  0.88623853  0.76171380  1
  Li  Li89  1  0.03140869  0.72745581  0.41472667  1
  Li  Li90  1  0.27254419  0.30395288  0.41472667  1
  Li  Li91  1  0.69604712  0.96859131  0.41472667  1
  Li  Li92  1  0.27254419  0.96859131  0.58527333  1
  Li  Li93  1  0.69604712  0.72745581  0.58527333  1
  Li  Li94  1  0.03140869  0.30395288  0.58527333  1
  Li  Li95  1  0.34478403  0.05599753  0.13512413  1
  Li  Li96  1  0.94400247  0.28878650  0.13512413  1
  Li  Li97  1  0.71121350  0.65521597  0.13512413  1
  Li  Li98  1  0.94400247  0.65521597  0.86487587  1
  Li  Li99  1  0.71121350  0.05599753  0.86487587  1
  Li  Li100  1  0.34478403  0.28878650  0.86487587  1
  Li  Li101  1  0.66666667  0.33333333  0.14557127  1
  Li  Li102  1  0.66666667  0.33333333  0.85442873  1
  Li  Li103  1  0.74903373  0.52870354  0.14260369  1
  Li  Li104  1  0.47129646  0.22033018  0.14260369  1
  Li  Li105  1  0.77966982  0.25096627  0.14260369  1
  Li  Li106  1  0.47129646  0.25096627  0.85739631  1
  Li  Li107  1  0.77966982  0.52870354  0.85739631  1
  Li  Li108  1  0.74903373  0.22033018  0.85739631  1
  Li  Li109  1  0.41621315  0.35493386  0.72454998  1
  Li  Li110  1  0.64506614  0.06127929  0.72454998  1
  Li  Li111  1  0.93872071  0.58378685  0.72454998  1
  Li  Li112  1  0.64506614  0.58378685  0.27545002  1
  Li  Li113  1  0.93872071  0.35493386  0.27545002  1
  Li  Li114  1  0.41621315  0.06127929  0.27545002  1
  Li  Li115  1  0.79436994  0.79642532  0.48707530  1
  Li  Li116  1  0.20357468  0.99794462  0.48707530  1
  Li  Li117  1  0.00205538  0.20563006  0.48707530  1
  Li  Li118  1  0.20357468  0.20563006  0.51292470  1
  Li  Li119  1  0.00205538  0.79642532  0.51292470  1
  Li  Li120  1  0.79436994  0.99794462  0.51292470  1
  Li  Li121  1  0.83864758  0.16135242  -0.00000000  1
  Li  Li122  1  0.83864758  0.67729515  0.00000000  1
  Li  Li123  1  0.32270485  0.16135242  -0.00000000  1
  Li  Li124  1  0.37405109  0.62594891  0.50000000  1
  Li  Li125  1  0.37405109  0.74810218  0.50000000  1
  Li  Li126  1  0.25189782  0.62594891  0.50000000  1
  Li  Li127  1  0.95584671  0.88632153  0.21950779  1
  Li  Li128  1  0.11367847  0.06952519  0.21950779  1
  Li  Li129  1  0.93047481  0.04415329  0.21950779  1
  Li  Li130  1  0.11367847  0.04415329  0.78049221  1
  Li  Li131  1  0.93047481  0.88632153  0.78049221  1
  Li  Li132  1  0.95584671  0.06952519  0.78049221  1
  Li  Li133  1  0.76862262  0.23137738  0.50000000  1
  Li  Li134  1  0.76862262  0.53724524  0.50000000  1
  Li  Li135  1  0.46275476  0.23137738  0.50000000  1
  Li  Li136  1  0.66666667  0.33333333  -0.00000000  1
  Li  Li137  1  0.00000000  0.00000000  0.50000000  1
  Li  Li138  1  0.89326038  0.54152284  0.63968603  1
  Li  Li139  1  0.45847716  0.35173754  0.63968603  1
  Li  Li140  1  0.64826246  0.10673962  0.63968603  1
  Li  Li141  1  0.45847716  0.10673962  0.36031397  1
  Li  Li142  1  0.64826246  0.54152284  0.36031397  1
  Li  Li143  1  0.89326038  0.35173754  0.36031397  1
  Te  Te144  1  0.78018967  0.10235629  0.45908488  1
  Te  Te145  1  0.89764371  0.67783338  0.45908488  1
  Te  Te146  1  0.32216662  0.21981033  0.45908488  1
  Te  Te147  1  0.89764371  0.21981033  0.54091512  1
  Te  Te148  1  0.32216662  0.10235629  0.54091512  1
  Te  Te149  1  0.78018967  0.67783338  0.54091512  1
  Te  Te150  1  0.68733823  0.89543811  0.57029147  1
  Te  Te151  1  0.10456189  0.79190012  0.57029147  1
  Te  Te152  1  0.20809988  0.31266177  0.57029147  1
  Te  Te153  1  0.10456189  0.31266177  0.42970853  1
  Te  Te154  1  0.20809988  0.89543811  0.42970853  1
  Te  Te155  1  0.68733823  0.79190012  0.42970853  1
  Te  Te156  1  0.28177547  0.71822453  0.00000000  1
  Te  Te157  1  0.28177547  0.56355094  0.00000000  1
  Te  Te158  1  0.43644906  0.71822453  -0.00000000  1
  Te  Te159  1  0.73944794  0.92433635  0.05437216  1
  Te  Te160  1  0.07566365  0.81511159  0.05437216  1
  Te  Te161  1  0.18488841  0.26055206  0.05437216  1
  Te  Te162  1  0.07566365  0.26055206  0.94562784  1
  Te  Te163  1  0.18488841  0.92433635  0.94562784  1
  Te  Te164  1  0.73944794  0.81511159  0.94562784  1
  Te  Te165  1  0.66666667  0.33333333  0.30288734  1
  Te  Te166  1  0.66666667  0.33333333  0.69711266  1
  Te  Te167  1  0.00000000  0.00000000  0.00000000  1
