# generated using pymatgen
data_Li2Y2MoP2
_symmetry_space_group_name_H-M   'P 1'
_cell_length_a   4.81432777
_cell_length_b   4.95948000
_cell_length_c   6.97162681
_cell_angle_alpha   95.05829006
_cell_angle_beta   101.01590416
_cell_angle_gamma   110.31714081
_symmetry_Int_Tables_number   1
_chemical_formula_structural   Li2Y2MoP2
_chemical_formula_sum   'Li2 Y2 Mo1 P2'
_cell_volume   151.05183365
_cell_formula_units_Z   1
loop_
 _symmetry_equiv_pos_site_id
 _symmetry_equiv_pos_as_xyz
  1  'x, y, z'
loop_
 _atom_site_type_symbol
 _atom_site_label
 _atom_site_symmetry_multiplicity
 _atom_site_fract_x
 _atom_site_fract_y
 _atom_site_fract_z
 _atom_site_occupancy
  Y  Y0  1  0.12500000  0.00000000  0.25000000  1
  Y  Y1  1  0.00000000  0.00000000  0.00000000  1
  P  P2  1  0.37500000  0.00000000  0.25000000  1
  P  P3  1  0.25000000  0.25000000  0.25000000  1
  Mo  Mo4  1  0.00000000  0.25000000  0.12500000  1
  Li  Li5  1  0.29966493  0.22952062  0.82238155  1
  Li  Li6  1  0.49377757  0.68523091  0.74989198  1
