# generated using pymatgen
data_Li(As2P)2
_symmetry_space_group_name_H-M   'P 1'
_cell_length_a   4.55094070
_cell_length_b   4.68575330
_cell_length_c   6.51413352
_cell_angle_alpha   95.45245376
_cell_angle_beta   100.48500840
_cell_angle_gamma   108.55611303
_symmetry_Int_Tables_number   1
_chemical_formula_structural   Li(As2P)2
_chemical_formula_sum   'Li1 As4 P2'
_cell_volume   127.73617587
_cell_formula_units_Z   1
loop_
 _symmetry_equiv_pos_site_id
 _symmetry_equiv_pos_as_xyz
  1  'x, y, z'
loop_
 _atom_site_type_symbol
 _atom_site_label
 _atom_site_symmetry_multiplicity
 _atom_site_fract_x
 _atom_site_fract_y
 _atom_site_fract_z
 _atom_site_occupancy
  P  P0  1  0.12500000  0.12500000  0.12500000  1
  P  P1  1  0.50000000  0.50000000  0.50000000  1
  As  As2  1  0.25000000  0.25000000  0.25000000  1
  As  As3  1  0.75000000  0.75000000  0.75000000  1
  As  As4  1  0.55433008  0.09887704  0.33886725  1
  As  As5  1  0.08115153  0.28840153  0.36878496  1
  Li  Li6  1  0.50351977  0.25386972  0.55295109  1
