# generated using pymatgen
data_Li3Y2As4P3Se
_symmetry_space_group_name_H-M   'P 1'
_cell_length_a   5.59875776
_cell_length_b   5.75758958
_cell_length_c   7.05664813
_cell_angle_alpha   93.07539046
_cell_angle_beta   97.01162475
_cell_angle_gamma   102.73183514
_symmetry_Int_Tables_number   1
_chemical_formula_structural   Li3Y2As4P3Se
_chemical_formula_sum   'Li3 Y2 As4 P3 Se1'
_cell_volume   219.45745992
_cell_formula_units_Z   1
loop_
 _symmetry_equiv_pos_site_id
 _symmetry_equiv_pos_as_xyz
  1  'x, y, z'
loop_
 _atom_site_type_symbol
 _atom_site_label
 _atom_site_symmetry_multiplicity
 _atom_site_fract_x
 _atom_site_fract_y
 _atom_site_fract_z
 _atom_site_occupancy
  Se  Se0  1  0.12500000  0.00000000  0.25000000  1
  P  P1  1  0.00000000  0.00000000  0.00000000  1
  P  P2  1  0.37500000  0.00000000  0.25000000  1
  P  P3  1  0.25000000  0.25000000  0.25000000  1
  As  As4  1  0.00000000  0.25000000  0.12500000  1
  As  As5  1  0.67112136  0.58622425  0.36583232  1
  As  As6  1  0.21473581  0.31220715  0.79260811  1
  As  As7  1  0.20067448  0.56958893  0.82818903  1
  Li  Li8  1  0.39774689  0.29138398  0.97258612  1
  Li  Li9  1  0.43763655  0.07062966  0.84699462  1
  Li  Li10  1  0.39888140  0.85261398  0.56791227  1
  Y  Y11  1  0.38970151  0.12098160  0.10155110  1
  Y  Y12  1  0.83665427  0.48260596  0.82016880  1
