# generated using pymatgen
data_LiF
_symmetry_space_group_name_H-M   'P 1'
_cell_length_a   6.79823582
_cell_length_b   6.79823582
_cell_length_c   4.23379919
_cell_angle_alpha   90.00000000
_cell_angle_beta   90.00000000
_cell_angle_gamma   120.00000000
_symmetry_Int_Tables_number   1
_chemical_formula_structural   LiF
_chemical_formula_sum   'Li7 F7'
_cell_volume   169.45459045
_cell_formula_units_Z   7
loop_
 _symmetry_equiv_pos_site_id
 _symmetry_equiv_pos_as_xyz
  1  'x, y, z'
loop_
 _atom_site_type_symbol
 _atom_site_label
 _atom_site_symmetry_multiplicity
 _atom_site_fract_x
 _atom_site_fract_y
 _atom_site_fract_z
 _atom_site_occupancy
  F  F0  1  0.74498836  0.25501164  0.00000000  1
  F  F1  1  0.74498836  0.48997672  0.00000000  1
  F  F2  1  0.51002328  0.25501164  0.00000000  1
  F  F3  1  0.45382250  0.54617750  0.50000000  1
  F  F4  1  0.45382250  0.90764500  0.50000000  1
  F  F5  1  0.09235500  0.54617750  0.50000000  1
  F  F6  1  0.00000000  0.00000000  0.50000000  1
  Li  Li7  1  0.81728090  0.20736957  0.21762309  1
  Li  Li8  1  -0.20736957  0.60991133  0.21762309  1
  Li  Li9  1  -0.60991133  -0.81728090  0.21762309  1
  Li  Li10  1  -0.20736957  -0.81728090  -0.21762309  1
  Li  Li11  1  -0.60991133  0.20736957  -0.21762309  1
  Li  Li12  1  0.81728090  0.60991133  -0.21762309  1
  Li  Li13  1  0.33333333  0.66666667  0.50000000  1
