# generated using pymatgen
data_Li4TeF2
_symmetry_space_group_name_H-M   'P 1'
_cell_length_a   10.71785555
_cell_length_b   10.71785555
_cell_length_c   20.44339085
_cell_angle_alpha   90.00000000
_cell_angle_beta   90.00000000
_cell_angle_gamma   120.00000000
_symmetry_Int_Tables_number   1
_chemical_formula_structural   Li4TeF2
_chemical_formula_sum   'Li96 Te24 F48'
_cell_volume   2033.75841184
_cell_formula_units_Z   24
loop_
 _symmetry_equiv_pos_site_id
 _symmetry_equiv_pos_as_xyz
  1  'x, y, z'
loop_
 _atom_site_type_symbol
 _atom_site_label
 _atom_site_symmetry_multiplicity
 _atom_site_fract_x
 _atom_site_fract_y
 _atom_site_fract_z
 _atom_site_occupancy
  F  F0  1  0.05250216  0.21237937  0.61056367  1
  F  F1  1  -0.21237937  -0.15987721  0.61056367  1
  F  F2  1  0.15987721  -0.05250216  0.61056367  1
  F  F3  1  0.21237937  0.05250216  -0.11056367  1
  F  F4  1  -0.15987721  -0.21237937  -0.11056367  1
  F  F5  1  -0.05250216  0.15987721  -0.11056367  1
  F  F6  1  -0.05250216  -0.21237937  -0.61056367  1
  F  F7  1  0.21237937  0.15987721  -0.61056367  1
  F  F8  1  -0.15987721  0.05250216  -0.61056367  1
  F  F9  1  -0.21237937  -0.05250216  1.11056367  1
  F  F10  1  0.15987721  0.21237937  1.11056367  1
  F  F11  1  0.05250216  -0.15987721  1.11056367  1
  F  F12  1  0.71916882  0.54571270  0.94389701  1
  F  F13  1  0.45428730  0.17345612  0.94389701  1
  F  F14  1  0.82654388  0.28083118  0.94389701  1
  F  F15  1  0.87904604  0.38583549  0.22276966  1
  F  F16  1  0.50678945  0.12095396  0.22276966  1
  F  F17  1  0.61416451  0.49321055  0.22276966  1
  F  F18  1  0.61416451  0.12095396  -0.27723034  1
  F  F19  1  0.87904604  0.49321055  -0.27723034  1
  F  F20  1  0.50678945  0.38583549  -0.27723034  1
  F  F21  1  0.45428730  0.28083118  1.44389701  1
  F  F22  1  0.82654388  0.54571270  1.44389701  1
  F  F23  1  0.71916882  0.17345612  1.44389701  1
  F  F24  1  0.38583549  0.87904604  1.27723034  1
  F  F25  1  0.12095396  0.50678945  1.27723034  1
  F  F26  1  0.49321055  0.61416451  1.27723034  1
  F  F27  1  0.54571270  0.71916882  0.55610299  1
  F  F28  1  0.17345612  0.45428730  0.55610299  1
  F  F29  1  0.28083118  0.82654388  0.55610299  1
  F  F30  1  0.28083118  0.45428730  0.05610299  1
  F  F31  1  0.54571270  0.82654388  0.05610299  1
  F  F32  1  0.17345612  0.71916882  0.05610299  1
  F  F33  1  0.12095396  0.61416451  1.77723034  1
  F  F34  1  0.49321055  0.87904604  1.77723034  1
  F  F35  1  0.38583549  0.50678945  1.77723034  1
  F  F36  1  0.00000000  0.00000000  0.44437634  1
  F  F37  1  0.00000000  0.00000000  0.05562366  1
  F  F38  1  0.00000000  0.00000000  0.55562366  1
  F  F39  1  0.00000000  0.00000000  0.94437634  1
  F  F40  1  0.66666667  0.33333333  0.77770967  1
  F  F41  1  0.66666667  0.33333333  0.38895699  1
  F  F42  1  0.66666667  0.33333333  0.88895699  1
  F  F43  1  0.66666667  0.33333333  0.27770967  1
  F  F44  1  0.33333333  0.66666667  0.11104301  1
  F  F45  1  0.33333333  0.66666667  0.72229033  1
  F  F46  1  0.33333333  0.66666667  0.22229033  1
  F  F47  1  0.33333333  0.66666667  0.61104301  1
  Li  Li48  1  0.50000000  0.00000000  0.00000000  1
  Li  Li49  1  0.00000000  0.50000000  0.00000000  1
  Li  Li50  1  0.50000000  0.50000000  0.00000000  1
  Li  Li51  1  0.00000000  0.50000000  0.50000000  1
  Li  Li52  1  0.50000000  0.00000000  0.50000000  1
  Li  Li53  1  0.50000000  0.50000000  0.50000000  1
  Li  Li54  1  0.16666667  0.33333333  0.33333333  1
  Li  Li55  1  0.66666667  0.83333333  0.33333333  1
  Li  Li56  1  0.16666667  0.83333333  0.33333333  1
  Li  Li57  1  0.66666667  0.83333333  0.83333333  1
  Li  Li58  1  0.16666667  0.33333333  0.83333333  1
  Li  Li59  1  0.16666667  0.83333333  0.83333333  1
  Li  Li60  1  0.83333333  0.66666667  0.66666667  1
  Li  Li61  1  0.33333333  0.16666667  0.66666667  1
  Li  Li62  1  0.83333333  0.16666667  0.66666667  1
  Li  Li63  1  0.33333333  0.16666667  0.16666667  1
  Li  Li64  1  0.83333333  0.66666667  0.16666667  1
  Li  Li65  1  0.83333333  0.16666667  0.16666667  1
  Li  Li66  1  0.00000000  0.00000000  0.25000000  1
  Li  Li67  1  0.00000000  0.00000000  0.75000000  1
  Li  Li68  1  0.66666667  0.33333333  0.58333333  1
  Li  Li69  1  0.66666667  0.33333333  0.08333333  1
  Li  Li70  1  0.33333333  0.66666667  0.91666667  1
  Li  Li71  1  0.33333333  0.66666667  0.41666667  1
  Li  Li72  1  0.10005862  0.91657438  0.71602873  1
  Li  Li73  1  0.08342562  0.18348425  0.71602873  1
  Li  Li74  1  0.81651575  0.89994138  0.71602873  1
  Li  Li75  1  0.91657438  0.10005862  0.78397127  1
  Li  Li76  1  0.18348425  0.08342562  0.78397127  1
  Li  Li77  1  0.89994138  0.81651575  0.78397127  1
  Li  Li78  1  0.89994138  0.08342562  0.28397127  1
  Li  Li79  1  0.91657438  0.81651575  0.28397127  1
  Li  Li80  1  0.18348425  0.10005862  0.28397127  1
  Li  Li81  1  0.08342562  0.89994138  0.21602873  1
  Li  Li82  1  0.81651575  0.91657438  0.21602873  1
  Li  Li83  1  0.10005862  0.18348425  0.21602873  1
  Li  Li84  1  0.76672529  0.24990771  0.04936206  1
  Li  Li85  1  0.75009229  0.51681758  0.04936206  1
  Li  Li86  1  0.48318242  0.23327471  0.04936206  1
  Li  Li87  1  0.58324104  0.43339196  0.11730461  1
  Li  Li88  1  0.85015091  0.41675896  0.11730461  1
  Li  Li89  1  0.56660804  0.14984909  0.11730461  1
  Li  Li90  1  0.56660804  0.41675896  0.61730461  1
  Li  Li91  1  0.58324104  0.14984909  0.61730461  1
  Li  Li92  1  0.85015091  0.43339196  0.61730461  1
  Li  Li93  1  0.75009229  0.23327471  0.54936206  1
  Li  Li94  1  0.48318242  0.24990771  0.54936206  1
  Li  Li95  1  0.76672529  0.51681758  0.54936206  1
  Li  Li96  1  0.43339196  0.58324104  0.38269539  1
  Li  Li97  1  0.41675896  0.85015091  0.38269539  1
  Li  Li98  1  0.14984909  0.56660804  0.38269539  1
  Li  Li99  1  0.24990771  0.76672529  0.45063794  1
  Li  Li100  1  0.51681758  0.75009229  0.45063794  1
  Li  Li101  1  0.23327471  0.48318242  0.45063794  1
  Li  Li102  1  0.23327471  0.75009229  0.95063794  1
  Li  Li103  1  0.24990771  0.48318242  0.95063794  1
  Li  Li104  1  0.51681758  0.76672529  0.95063794  1
  Li  Li105  1  0.41675896  0.56660804  0.88269539  1
  Li  Li106  1  0.14984909  0.58324104  0.88269539  1
  Li  Li107  1  0.43339196  0.85015091  0.88269539  1
  Li  Li108  1  0.08676163  0.62213157  0.28321823  1
  Li  Li109  1  0.37786843  0.46463006  0.28321823  1
  Li  Li110  1  0.53536994  0.91323837  0.28321823  1
  Li  Li111  1  0.62213157  0.08676163  0.21678177  1
  Li  Li112  1  0.46463006  0.37786843  0.21678177  1
  Li  Li113  1  0.91323837  0.53536994  0.21678177  1
  Li  Li114  1  0.91323837  0.37786843  0.71678177  1
  Li  Li115  1  0.62213157  0.53536994  0.71678177  1
  Li  Li116  1  0.46463006  0.08676163  0.71678177  1
  Li  Li117  1  0.37786843  0.91323837  0.78321823  1
  Li  Li118  1  0.53536994  0.62213157  0.78321823  1
  Li  Li119  1  0.08676163  0.46463006  0.78321823  1
  Li  Li120  1  0.75342829  0.95546490  0.61655156  1
  Li  Li121  1  0.04453510  0.79796339  0.61655156  1
  Li  Li122  1  0.20203661  0.24657171  0.61655156  1
  Li  Li123  1  0.28879823  0.42009496  0.55011511  1
  Li  Li124  1  0.13129673  0.71120177  0.55011511  1
  Li  Li125  1  0.57990504  0.86870327  0.55011511  1
  Li  Li126  1  0.57990504  0.71120177  0.05011511  1
  Li  Li127  1  0.28879823  0.86870327  0.05011511  1
  Li  Li128  1  0.13129673  0.42009496  0.05011511  1
  Li  Li129  1  0.04453510  0.24657171  0.11655156  1
  Li  Li130  1  0.20203661  0.95546490  0.11655156  1
  Li  Li131  1  0.75342829  0.79796339  0.11655156  1
  Li  Li132  1  0.42009496  0.28879823  0.94988489  1
  Li  Li133  1  0.71120177  0.13129673  0.94988489  1
  Li  Li134  1  0.86870327  0.57990504  0.94988489  1
  Li  Li135  1  0.95546490  0.75342829  0.88344844  1
  Li  Li136  1  0.79796339  0.04453510  0.88344844  1
  Li  Li137  1  0.24657171  0.20203661  0.88344844  1
  Li  Li138  1  0.24657171  0.04453510  0.38344844  1
  Li  Li139  1  0.95546490  0.20203661  0.38344844  1
  Li  Li140  1  0.79796339  0.75342829  0.38344844  1
  Li  Li141  1  0.71120177  0.57990504  0.44988489  1
  Li  Li142  1  0.86870327  0.28879823  0.44988489  1
  Li  Li143  1  0.42009496  0.13129673  0.44988489  1
  Te  Te144  1  0.69457146  0.00000000  0.25000000  1
  Te  Te145  1  0.00000000  0.69457146  0.25000000  1
  Te  Te146  1  0.30542854  0.30542854  0.25000000  1
  Te  Te147  1  0.30542854  0.00000000  0.75000000  1
  Te  Te148  1  0.00000000  0.30542854  0.75000000  1
  Te  Te149  1  0.69457146  0.69457146  0.75000000  1
  Te  Te150  1  0.36123813  0.33333333  0.58333333  1
  Te  Te151  1  0.66666667  0.02790479  0.58333333  1
  Te  Te152  1  0.97209521  0.63876187  0.58333333  1
  Te  Te153  1  0.97209521  0.33333333  0.08333333  1
  Te  Te154  1  0.66666667  0.63876187  0.08333333  1
  Te  Te155  1  0.36123813  0.02790479  0.08333333  1
  Te  Te156  1  0.02790479  0.66666667  0.91666667  1
  Te  Te157  1  0.33333333  0.36123813  0.91666667  1
  Te  Te158  1  0.63876187  0.97209521  0.91666667  1
  Te  Te159  1  0.63876187  0.66666667  0.41666667  1
  Te  Te160  1  0.33333333  0.97209521  0.41666667  1
  Te  Te161  1  0.02790479  0.36123813  0.41666667  1
  Te  Te162  1  0.00000000  0.00000000  0.00000000  1
  Te  Te163  1  0.00000000  0.00000000  0.50000000  1
  Te  Te164  1  0.66666667  0.33333333  0.33333333  1
  Te  Te165  1  0.66666667  0.33333333  0.83333333  1
  Te  Te166  1  0.33333333  0.66666667  0.66666667  1
  Te  Te167  1  0.33333333  0.66666667  0.16666667  1
