# generated using pymatgen
data_LiF
_symmetry_space_group_name_H-M   'P 1'
_cell_length_a   16.82117356
_cell_length_b   16.82117356
_cell_length_c   2.90625589
_cell_angle_alpha   90.00000000
_cell_angle_beta   90.00000000
_cell_angle_gamma   90.00000000
_symmetry_Int_Tables_number   1
_chemical_formula_structural   LiF
_chemical_formula_sum   'Li48 F48'
_cell_volume   822.33056627
_cell_formula_units_Z   48
loop_
 _symmetry_equiv_pos_site_id
 _symmetry_equiv_pos_as_xyz
  1  'x, y, z'
loop_
 _atom_site_type_symbol
 _atom_site_label
 _atom_site_symmetry_multiplicity
 _atom_site_fract_x
 _atom_site_fract_y
 _atom_site_fract_z
 _atom_site_occupancy
  F  F0  1  0.99453072  0.82413772  0.50568614  1
  F  F1  1  0.50546928  0.17586228  0.00568614  1
  F  F2  1  0.42586228  0.74453072  0.75568614  1
  F  F3  1  0.07413772  0.25546928  0.25568614  1
  F  F4  1  0.50546928  0.82413772  0.49431386  1
  F  F5  1  0.99453072  0.17586228  0.99431386  1
  F  F6  1  0.07413772  0.74453072  0.24431386  1
  F  F7  1  0.42586228  0.25546928  0.74431386  1
  F  F8  1  0.00546928  0.17586228  0.49431386  1
  F  F9  1  0.49453072  0.82413772  0.99431386  1
  F  F10  1  0.57413772  0.25546928  0.24431386  1
  F  F11  1  0.92586228  0.74453072  0.74431386  1
  F  F12  1  0.49453072  0.17586228  0.50568614  1
  F  F13  1  0.00546928  0.82413772  0.00568614  1
  F  F14  1  0.92586228  0.25546928  0.75568614  1
  F  F15  1  0.57413772  0.74453072  0.25568614  1
  F  F16  1  0.49453072  0.32413772  0.00568614  1
  F  F17  1  0.00546928  0.67586228  0.50568614  1
  F  F18  1  0.92586228  0.24453072  0.25568614  1
  F  F19  1  0.57413772  0.75546928  0.75568614  1
  F  F20  1  0.00546928  0.32413772  0.99431386  1
  F  F21  1  0.49453072  0.67586228  0.49431386  1
  F  F22  1  0.57413772  0.24453072  0.74431386  1
  F  F23  1  0.92586228  0.75546928  0.24431386  1
  F  F24  1  0.50546928  0.67586228  0.99431386  1
  F  F25  1  0.99453072  0.32413772  0.49431386  1
  F  F26  1  0.07413772  0.75546928  0.74431386  1
  F  F27  1  0.42586228  0.24453072  0.24431386  1
  F  F28  1  0.99453072  0.67586228  0.00568614  1
  F  F29  1  0.50546928  0.32413772  0.50568614  1
  F  F30  1  0.42586228  0.75546928  0.25568614  1
  F  F31  1  0.07413772  0.24453072  0.75568614  1
  F  F32  1  0.41603072  0.66603072  0.12500000  1
  F  F33  1  0.08396928  0.33396928  0.62500000  1
  F  F34  1  0.58396928  0.16603072  0.37500000  1
  F  F35  1  0.91603072  0.83396928  0.87500000  1
  F  F36  1  0.58396928  0.33396928  0.87500000  1
  F  F37  1  0.91603072  0.66603072  0.37500000  1
  F  F38  1  0.41603072  0.83396928  0.62500000  1
  F  F39  1  0.08396928  0.16603072  0.12500000  1
  F  F40  1  0.91603072  0.16603072  0.62500000  1
  F  F41  1  0.58396928  0.83396928  0.12500000  1
  F  F42  1  0.08396928  0.66603072  0.87500000  1
  F  F43  1  0.41603072  0.33396928  0.37500000  1
  F  F44  1  0.08396928  0.83396928  0.37500000  1
  F  F45  1  0.41603072  0.16603072  0.87500000  1
  F  F46  1  0.91603072  0.33396928  0.12500000  1
  F  F47  1  0.58396928  0.66603072  0.62500000  1
  Li  Li48  1  0.44492745  0.57620077  0.06326038  1
  Li  Li49  1  0.05507255  -0.57620077  0.56326038  1
  Li  Li50  1  -0.32620077  1.19492745  0.31326038  1
  Li  Li51  1  0.82620077  -0.19492745  0.81326038  1
  Li  Li52  1  0.05507255  0.57620077  -0.06326038  1
  Li  Li53  1  0.44492745  -0.57620077  0.43673962  1
  Li  Li54  1  0.82620077  1.19492745  0.68673962  1
  Li  Li55  1  -0.32620077  -0.19492745  0.18673962  1
  Li  Li56  1  -0.44492745  -0.57620077  -0.06326038  1
  Li  Li57  1  0.94492745  0.57620077  0.43673962  1
  Li  Li58  1  1.32620077  -0.19492745  0.68673962  1
  Li  Li59  1  0.17379923  1.19492745  0.18673962  1
  Li  Li60  1  0.94492745  -0.57620077  0.06326038  1
  Li  Li61  1  -0.44492745  0.57620077  0.56326038  1
  Li  Li62  1  0.17379923  -0.19492745  0.31326038  1
  Li  Li63  1  1.32620077  1.19492745  0.81326038  1
  Li  Li64  1  0.94492745  1.07620077  0.56326038  1
  Li  Li65  1  0.55507255  -0.07620077  1.06326038  1
  Li  Li66  1  0.17379923  1.69492745  0.81326038  1
  Li  Li67  1  1.32620077  0.30507255  1.31326038  1
  Li  Li68  1  0.55507255  1.07620077  0.43673962  1
  Li  Li69  1  0.94492745  -0.07620077  0.93673962  1
  Li  Li70  1  1.32620077  1.69492745  1.18673962  1
  Li  Li71  1  0.17379923  0.30507255  0.68673962  1
  Li  Li72  1  0.05507255  -0.07620077  0.43673962  1
  Li  Li73  1  1.44492745  1.07620077  0.93673962  1
  Li  Li74  1  1.82620077  0.30507255  1.18673962  1
  Li  Li75  1  0.67379923  1.69492745  0.68673962  1
  Li  Li76  1  1.44492745  -0.07620077  0.56326038  1
  Li  Li77  1  0.05507255  1.07620077  1.06326038  1
  Li  Li78  1  0.67379923  0.30507255  0.81326038  1
  Li  Li79  1  1.82620077  1.69492745  1.31326038  1
  Li  Li80  1  0.00000000  0.00000000  0.00000000  1
  Li  Li81  1  0.50000000  0.00000000  0.50000000  1
  Li  Li82  1  0.25000000  0.75000000  0.25000000  1
  Li  Li83  1  0.25000000  0.25000000  0.75000000  1
  Li  Li84  1  0.50000000  0.00000000  0.00000000  1
  Li  Li85  1  0.00000000  0.00000000  0.50000000  1
  Li  Li86  1  0.25000000  0.75000000  0.75000000  1
  Li  Li87  1  0.25000000  0.25000000  0.25000000  1
  Li  Li88  1  0.50000000  0.50000000  0.50000000  1
  Li  Li89  1  0.00000000  0.50000000  0.00000000  1
  Li  Li90  1  0.75000000  0.25000000  0.75000000  1
  Li  Li91  1  0.75000000  0.75000000  0.25000000  1
  Li  Li92  1  0.00000000  0.50000000  0.50000000  1
  Li  Li93  1  0.50000000  0.50000000  0.00000000  1
  Li  Li94  1  0.75000000  0.25000000  0.25000000  1
  Li  Li95  1  0.75000000  0.75000000  0.75000000  1
