# generated using pymatgen
data_LiYP
_symmetry_space_group_name_H-M   'P 1'
_cell_length_a   4.70549777
_cell_length_b   4.79817687
_cell_length_c   6.76783632
_cell_angle_alpha   95.16530891
_cell_angle_beta   100.98153728
_cell_angle_gamma   110.32758932
_symmetry_Int_Tables_number   1
_chemical_formula_structural   LiYP
_chemical_formula_sum   'Li2 Y2 P2'
_cell_volume   138.62299373
_cell_formula_units_Z   2
loop_
 _symmetry_equiv_pos_site_id
 _symmetry_equiv_pos_as_xyz
  1  'x, y, z'
loop_
 _atom_site_type_symbol
 _atom_site_label
 _atom_site_symmetry_multiplicity
 _atom_site_fract_x
 _atom_site_fract_y
 _atom_site_fract_z
 _atom_site_occupancy
  P  P0  1  0.12500000  0.00000000  0.25000000  1
  P  P1  1  0.00000000  0.00000000  0.00000000  1
  Li  Li2  1  0.37500000  0.00000000  0.25000000  1
  Li  Li3  1  0.25000000  0.25000000  0.25000000  1
  Y  Y4  1  0.00000000  0.25000000  0.12500000  1
  Y  Y5  1  0.11421554  0.10432606  0.32306191  1
