# generated using pymatgen
data_LiYAs2P
_symmetry_space_group_name_H-M   'P 1'
_cell_length_a   4.85150515
_cell_length_b   4.89141097
_cell_length_c   6.83993964
_cell_angle_alpha   94.96558863
_cell_angle_beta   100.81401971
_cell_angle_gamma   109.94479599
_symmetry_Int_Tables_number   1
_chemical_formula_structural   LiYAs2P
_chemical_formula_sum   'Li2 Y2 As4 P2'
_cell_volume   147.86563415
_cell_formula_units_Z   2
loop_
 _symmetry_equiv_pos_site_id
 _symmetry_equiv_pos_as_xyz
  1  'x, y, z'
loop_
 _atom_site_type_symbol
 _atom_site_label
 _atom_site_symmetry_multiplicity
 _atom_site_fract_x
 _atom_site_fract_y
 _atom_site_fract_z
 _atom_site_occupancy
  P  P0  1  0.12500000  0.12500000  0.12500000  1
  P  P1  1  0.50000000  0.50000000  0.50000000  1
  As  As2  1  0.25000000  0.25000000  0.25000000  1
  As  As3  1  0.75000000  0.75000000  0.75000000  1
  As  As4  1  0.20173798  0.47729689  0.80850379  1
  As  As5  1  0.21752039  0.40670681  0.45262907  1
  Li  Li6  1  0.08201112  0.01139801  0.69436712  1
  Li  Li7  1  0.37346535  0.57707286  0.49792187  1
  Y  Y8  1  0.85141044  0.34116447  0.95548016  1
  Y  Y9  1  0.57026780  0.50653035  0.04427466  1
