# generated using pymatgen
data_LiF
_symmetry_space_group_name_H-M   'P 1'
_cell_length_a   8.42591616
_cell_length_b   6.06720665
_cell_length_c   7.19953447
_cell_angle_alpha   90.00000000
_cell_angle_beta   90.00000000
_cell_angle_gamma   90.00000000
_symmetry_Int_Tables_number   1
_chemical_formula_structural   LiF
_chemical_formula_sum   'Li16 F16'
_cell_volume   368.05297807
_cell_formula_units_Z   16
loop_
 _symmetry_equiv_pos_site_id
 _symmetry_equiv_pos_as_xyz
  1  'x, y, z'
loop_
 _atom_site_type_symbol
 _atom_site_label
 _atom_site_symmetry_multiplicity
 _atom_site_fract_x
 _atom_site_fract_y
 _atom_site_fract_z
 _atom_site_occupancy
  F  F0  1  0.54987093  0.81971816  0.75631408  1
  F  F1  1  -0.54987093  -0.81971816  0.75631408  1
  F  F2  1  -0.04987093  1.31971816  -0.25631408  1
  F  F3  1  1.04987093  -0.31971816  -0.25631408  1
  F  F4  1  -0.54987093  -0.81971816  -0.75631408  1
  F  F5  1  0.54987093  0.81971816  -0.75631408  1
  F  F6  1  1.04987093  -0.31971816  1.25631408  1
  F  F7  1  -0.04987093  1.31971816  1.25631408  1
  F  F8  1  0.03621979  0.20189107  0.17893471  1
  F  F9  1  0.96378021  0.79810893  0.17893471  1
  F  F10  1  0.46378021  0.70189107  0.32106529  1
  F  F11  1  0.53621979  0.29810893  0.32106529  1
  F  F12  1  0.96378021  0.79810893  0.82106529  1
  F  F13  1  0.03621979  0.20189107  0.82106529  1
  F  F14  1  0.53621979  0.29810893  0.67893471  1
  F  F15  1  0.46378021  0.70189107  0.67893471  1
  Li  Li16  1  0.75161859  0.76110037  -0.00000000  1
  Li  Li17  1  0.24838141  0.23889963  -0.00000000  1
  Li  Li18  1  0.74838141  0.26110037  0.50000000  1
  Li  Li19  1  0.25161859  0.73889963  0.50000000  1
  Li  Li20  1  0.00000000  0.00000000  0.50000000  1
  Li  Li21  1  0.50000000  0.50000000  0.00000000  1
  Li  Li22  1  0.00000000  0.50000000  0.00000000  1
  Li  Li23  1  0.50000000  -0.00000000  0.50000000  1
  Li  Li24  1  0.00000000  0.00000000  0.00000000  1
  Li  Li25  1  0.50000000  0.50000000  0.50000000  1
  Li  Li26  1  0.77251242  0.41464733  0.00000000  1
  Li  Li27  1  0.22748758  0.58535267  0.00000000  1
  Li  Li28  1  0.72748758  0.91464733  0.50000000  1
  Li  Li29  1  0.27251242  0.08535267  0.50000000  1
  Li  Li30  1  0.00000000  0.50000000  0.50000000  1
  Li  Li31  1  0.50000000  -0.00000000  0.00000000  1
