# generated using pymatgen
data_LiF
_symmetry_space_group_name_H-M   'P 1'
_cell_length_a   9.17861305
_cell_length_b   9.17861305
_cell_length_c   17.12429931
_cell_angle_alpha   90.00000000
_cell_angle_beta   90.00000000
_cell_angle_gamma   120.00000000
_symmetry_Int_Tables_number   1
_chemical_formula_structural   LiF
_chemical_formula_sum   'Li62 F62'
_cell_volume   1249.38867424
_cell_formula_units_Z   62
loop_
 _symmetry_equiv_pos_site_id
 _symmetry_equiv_pos_as_xyz
  1  'x, y, z'
loop_
 _atom_site_type_symbol
 _atom_site_label
 _atom_site_symmetry_multiplicity
 _atom_site_fract_x
 _atom_site_fract_y
 _atom_site_fract_z
 _atom_site_occupancy
  F  F0  1  0.42134509  0.71175578  0.65721092  1
  F  F1  1  0.28824422  0.70958931  0.65721092  1
  F  F2  1  0.29041069  0.57865491  0.65721092  1
  F  F3  1  0.28824422  0.57865491  0.34278908  1
  F  F4  1  0.29041069  0.71175578  0.34278908  1
  F  F5  1  0.42134509  0.70958931  0.34278908  1
  F  F6  1  0.79713663  0.24618298  0.07405965  1
  F  F7  1  0.75381702  0.55095366  0.07405965  1
  F  F8  1  0.44904634  0.20286337  0.07405965  1
  F  F9  1  0.75381702  0.20286337  0.92594035  1
  F  F10  1  0.44904634  0.24618298  0.92594035  1
  F  F11  1  0.79713663  0.55095366  0.92594035  1
  F  F12  1  0.33333333  0.66666667  0.00000000  1
  F  F13  1  0.33333333  0.66666667  0.93626882  1
  F  F14  1  0.33333333  0.66666667  0.06373118  1
  F  F15  1  0.07550056  0.86492706  0.09542659  1
  F  F16  1  0.13507294  0.21057350  0.09542659  1
  F  F17  1  0.78942650  0.92449944  0.09542659  1
  F  F18  1  0.13507294  0.92449944  0.90457341  1
  F  F19  1  0.78942650  0.86492706  0.90457341  1
  F  F20  1  0.07550056  0.21057350  0.90457341  1
  F  F21  1  0.21008035  0.29665636  0.93952777  1
  F  F22  1  0.70334364  0.91342399  0.93952777  1
  F  F23  1  0.08657601  0.78991965  0.93952777  1
  F  F24  1  0.70334364  0.78991965  0.06047223  1
  F  F25  1  0.08657601  0.29665636  0.06047223  1
  F  F26  1  0.21008035  0.91342399  0.06047223  1
  F  F27  1  0.60202029  0.60617687  0.80680990  1
  F  F28  1  0.39382313  0.99584341  0.80680990  1
  F  F29  1  0.00415659  0.39797971  0.80680990  1
  F  F30  1  0.39382313  0.39797971  0.19319010  1
  F  F31  1  0.00415659  0.60617687  0.19319010  1
  F  F32  1  0.60202029  0.99584341  0.19319010  1
  F  F33  1  0.81335122  0.18664878  0.00000000  1
  F  F34  1  0.81335122  0.62670245  0.00000000  1
  F  F35  1  0.37329755  0.18664878  0.00000000  1
  F  F36  1  0.57297759  0.51001259  0.64573578  1
  F  F37  1  0.48998741  0.06296501  0.64573578  1
  F  F38  1  0.93703499  0.42702241  0.64573578  1
  F  F39  1  0.48998741  0.42702241  0.35426422  1
  F  F40  1  0.93703499  0.51001259  0.35426422  1
  F  F41  1  0.57297759  0.06296501  0.35426422  1
  F  F42  1  0.41855904  0.44632241  0.12028030  1
  F  F43  1  0.55367759  0.97223663  0.12028030  1
  F  F44  1  0.02776337  0.58144096  0.12028030  1
  F  F45  1  0.55367759  0.58144096  0.87971970  1
  F  F46  1  0.02776337  0.44632241  0.87971970  1
  F  F47  1  0.41855904  0.97223663  0.87971970  1
  F  F48  1  0.00000000  0.00000000  0.19304476  1
  F  F49  1  0.00000000  0.00000000  0.80695524  1
  F  F50  1  0.35740239  0.98904748  0.38280568  1
  F  F51  1  0.01095252  0.36835492  0.38280568  1
  F  F52  1  0.63164508  0.64259761  0.38280568  1
  F  F53  1  0.01095252  0.64259761  0.61719432  1
  F  F54  1  0.63164508  0.98904748  0.61719432  1
  F  F55  1  0.35740239  0.36835492  0.61719432  1
  F  F56  1  0.96190983  0.72727038  0.09371539  1
  F  F57  1  0.27272962  0.23463944  0.09371539  1
  F  F58  1  0.76536056  0.03809017  0.09371539  1
  F  F59  1  0.27272962  0.03809017  0.90628461  1
  F  F60  1  0.76536056  0.72727038  0.90628461  1
  F  F61  1  0.96190983  0.23463944  0.90628461  1
  Li  Li62  1  0.33333333  0.66666667  0.87192689  1
  Li  Li63  1  0.33333333  0.66666667  0.12807311  1
  Li  Li64  1  0.00000000  0.00000000  0.50000000  1
  Li  Li65  1  0.74802546  0.01032824  0.71872707  1
  Li  Li66  1  -0.01032824  0.73769723  0.71872707  1
  Li  Li67  1  -0.73769723  -0.74802546  0.71872707  1
  Li  Li68  1  -0.01032824  -0.74802546  -0.71872707  1
  Li  Li69  1  -0.73769723  0.01032824  -0.71872707  1
  Li  Li70  1  0.74802546  0.73769723  -0.71872707  1
  Li  Li71  1  0.54091806  0.45908194  0.50000000  1
  Li  Li72  1  0.54091806  0.08183612  0.50000000  1
  Li  Li73  1  0.91816388  0.45908194  0.50000000  1
  Li  Li74  1  0.88535581  0.38373860  0.57340389  1
  Li  Li75  1  0.61626140  0.50161721  0.57340389  1
  Li  Li76  1  0.49838279  0.11464419  0.57340389  1
  Li  Li77  1  0.61626140  0.11464419  0.42659611  1
  Li  Li78  1  0.49838279  0.38373860  0.42659611  1
  Li  Li79  1  0.88535581  0.50161721  0.42659611  1
  Li  Li80  1  0.96375646  0.76618580  0.49716814  1
  Li  Li81  1  0.23381420  0.19757066  0.49716814  1
  Li  Li82  1  0.80242934  0.03624354  0.49716814  1
  Li  Li83  1  0.23381420  0.03624354  0.50283186  1
  Li  Li84  1  0.80242934  0.76618580  0.50283186  1
  Li  Li85  1  0.96375646  0.19757066  0.50283186  1
  Li  Li86  1  0.58344891  0.59743524  0.11974025  1
  Li  Li87  1  0.40256476  0.98601367  0.11974025  1
  Li  Li88  1  0.01398633  0.41655109  0.11974025  1
  Li  Li89  1  0.40256476  0.41655109  0.88025975  1
  Li  Li90  1  0.01398633  0.59743524  0.88025975  1
  Li  Li91  1  0.58344891  0.98601367  0.88025975  1
  Li  Li92  1  0.66666667  0.33333333  0.00000000  1
  Li  Li93  1  0.19685231  0.16327649  0.59978142  1
  Li  Li94  1  0.83672351  0.03357582  0.59978142  1
  Li  Li95  1  0.96642418  0.80314769  0.59978142  1
  Li  Li96  1  0.83672351  0.80314769  0.40021858  1
  Li  Li97  1  0.96642418  0.16327649  0.40021858  1
  Li  Li98  1  0.19685231  0.03357582  0.40021858  1
  Li  Li99  1  0.75986050  0.64740326  0.76685529  1
  Li  Li100  1  0.35259674  0.11245724  0.76685529  1
  Li  Li101  1  0.88754276  0.24013950  0.76685529  1
  Li  Li102  1  0.35259674  0.24013950  0.23314471  1
  Li  Li103  1  0.88754276  0.64740326  0.23314471  1
  Li  Li104  1  0.75986050  0.11245724  0.23314471  1
  Li  Li105  1  0.76163763  0.23836237  0.50000000  1
  Li  Li106  1  0.76163763  0.52327527  0.50000000  1
  Li  Li107  1  0.47672473  0.23836237  0.50000000  1
  Li  Li108  1  0.24048096  0.70818916  0.75656363  1
  Li  Li109  1  0.29181084  0.53229181  0.75656363  1
  Li  Li110  1  0.46770819  0.75951904  0.75656363  1
  Li  Li111  1  0.29181084  0.75951904  0.24343637  1
  Li  Li112  1  0.46770819  0.70818916  0.24343637  1
  Li  Li113  1  0.24048096  0.53229181  0.24343637  1
  Li  Li114  1  0.33333333  0.66666667  0.50000000  1
  Li  Li115  1  0.34442072  0.04003090  0.69361474  1
  Li  Li116  1  0.95996910  0.30438982  0.69361474  1
  Li  Li117  1  0.69561018  0.65557928  0.69361474  1
  Li  Li118  1  0.95996910  0.65557928  0.30638526  1
  Li  Li119  1  0.69561018  0.04003090  0.30638526  1
  Li  Li120  1  0.34442072  0.30438982  0.30638526  1
  Li  Li121  1  0.66666667  0.33333333  0.50000000  1
  Li  Li122  1  0.00000000  0.00000000  0.40788858  1
  Li  Li123  1  0.00000000  0.00000000  0.59211142  1
