# generated using pymatgen
data_NaLi8Br3(ClF2)2
_symmetry_space_group_name_H-M   'P 1'
_cell_length_a   8.91319618
_cell_length_b   8.91319618
_cell_length_c   19.09292434
_cell_angle_alpha   90.00000000
_cell_angle_beta   90.00000000
_cell_angle_gamma   90.00000000
_symmetry_Int_Tables_number   1
_chemical_formula_structural   NaLi8Br3(ClF2)2
_chemical_formula_sum   'Na4 Li32 Br12 Cl8 F16'
_cell_volume   1516.83863526
_cell_formula_units_Z   4
loop_
 _symmetry_equiv_pos_site_id
 _symmetry_equiv_pos_as_xyz
  1  'x, y, z'
loop_
 _atom_site_type_symbol
 _atom_site_label
 _atom_site_symmetry_multiplicity
 _atom_site_fract_x
 _atom_site_fract_y
 _atom_site_fract_z
 _atom_site_occupancy
  Br  Br0  1  0.91412234  0.91412234  0.96290562  1
  Br  Br1  1  0.08587766  0.08587766  0.96290562  1
  Br  Br2  1  0.08587766  0.91412234  0.96290562  1
  Br  Br3  1  0.91412234  0.08587766  0.96290562  1
  Br  Br4  1  0.08587766  0.91412234  0.03709438  1
  Br  Br5  1  0.91412234  0.08587766  0.03709438  1
  Br  Br6  1  0.91412234  0.91412234  0.03709438  1
  Br  Br7  1  0.08587766  0.08587766  0.03709438  1
  Br  Br8  1  0.00000000  0.50000000  0.00000000  1
  Br  Br9  1  0.50000000  0.00000000  0.00000000  1
  Br  Br10  1  0.00000000  0.00000000  0.55151996  1
  Br  Br11  1  0.00000000  0.00000000  0.44848004  1
  Cl  Cl12  1  0.90035389  0.50000000  0.82445142  1
  Cl  Cl13  1  0.09964611  0.50000000  0.82445142  1
  Cl  Cl14  1  0.50000000  0.90035389  0.82445142  1
  Cl  Cl15  1  0.50000000  0.09964611  0.82445142  1
  Cl  Cl16  1  0.09964611  0.50000000  0.17554858  1
  Cl  Cl17  1  0.90035389  0.50000000  0.17554858  1
  Cl  Cl18  1  0.50000000  0.90035389  0.17554858  1
  Cl  Cl19  1  0.50000000  0.09964611  0.17554858  1
  F  F20  1  0.00000000  0.00000000  0.13912458  1
  F  F21  1  0.00000000  0.00000000  0.86087542  1
  F  F22  1  0.43213904  0.63682385  0.00000000  1
  F  F23  1  0.56786096  0.36317615  0.00000000  1
  F  F24  1  0.36317615  0.43213904  0.00000000  1
  F  F25  1  0.63682385  0.56786096  0.00000000  1
  F  F26  1  0.56786096  0.63682385  0.00000000  1
  F  F27  1  0.43213904  0.36317615  0.00000000  1
  F  F28  1  0.63682385  0.43213904  0.00000000  1
  F  F29  1  0.36317615  0.56786096  0.00000000  1
  F  F30  1  0.42014816  0.50000000  0.50000000  1
  F  F31  1  0.57985184  0.50000000  0.50000000  1
  F  F32  1  0.50000000  0.42014816  0.50000000  1
  F  F33  1  0.50000000  0.57985184  0.50000000  1
  F  F34  1  0.50000000  0.50000000  0.50000000  1
  F  F35  1  0.00000000  0.00000000  0.50000000  1
  Li  Li36  1  0.00000000  0.00000000  0.69336604  1
  Li  Li37  1  0.00000000  0.00000000  0.30663396  1
  Li  Li38  1  0.86548154  -0.00000000  0.22180674  1
  Li  Li39  1  0.13451846  0.00000000  0.22180674  1
  Li  Li40  1  0.00000000  0.86548154  0.22180674  1
  Li  Li41  1  0.00000000  0.13451846  0.22180674  1
  Li  Li42  1  0.13451846  0.00000000  0.77819326  1
  Li  Li43  1  0.86548154  -0.00000000  0.77819326  1
  Li  Li44  1  0.00000000  0.86548154  0.77819326  1
  Li  Li45  1  0.00000000  0.13451846  0.77819326  1
  Li  Li46  1  0.69847862  0.69847862  0.00000000  1
  Li  Li47  1  0.30152138  0.30152138  0.00000000  1
  Li  Li48  1  0.30152138  0.69847862  0.00000000  1
  Li  Li49  1  0.69847862  0.30152138  0.00000000  1
  Li  Li50  1  0.86922471  0.73062822  0.45592268  1
  Li  Li51  1  -0.86922471  -0.73062822  0.45592268  1
  Li  Li52  1  -0.73062822  0.86922471  0.45592268  1
  Li  Li53  1  0.73062822  -0.86922471  0.45592268  1
  Li  Li54  1  -0.86922471  0.73062822  -0.45592268  1
  Li  Li55  1  0.86922471  -0.73062822  -0.45592268  1
  Li  Li56  1  0.73062822  0.86922471  -0.45592268  1
  Li  Li57  1  -0.73062822  -0.86922471  -0.45592268  1
  Li  Li58  1  -0.86922471  -0.73062822  -0.45592268  1
  Li  Li59  1  0.86922471  0.73062822  -0.45592268  1
  Li  Li60  1  0.73062822  -0.86922471  -0.45592268  1
  Li  Li61  1  -0.73062822  0.86922471  -0.45592268  1
  Li  Li62  1  0.86922471  -0.73062822  0.45592268  1
  Li  Li63  1  -0.86922471  0.73062822  0.45592268  1
  Li  Li64  1  -0.73062822  -0.86922471  0.45592268  1
  Li  Li65  1  0.73062822  0.86922471  0.45592268  1
  Li  Li66  1  0.50000000  0.50000000  0.94202052  1
  Li  Li67  1  0.50000000  0.50000000  0.05797948  1
  Na  Na68  1  0.67906090  0.67906090  0.50000000  1
  Na  Na69  1  0.32093910  0.32093910  0.50000000  1
  Na  Na70  1  0.32093910  0.67906090  0.50000000  1
  Na  Na71  1  0.67906090  0.32093910  0.50000000  1
