# generated using pymatgen
data_Li4TeF2
_symmetry_space_group_name_H-M   'P 1'
_cell_length_a   16.24526220
_cell_length_b   16.24526220
_cell_length_c   16.58733635
_cell_angle_alpha   90.00000000
_cell_angle_beta   90.00000000
_cell_angle_gamma   120.00000000
_symmetry_Int_Tables_number   1
_chemical_formula_structural   Li4TeF2
_chemical_formula_sum   'Li96 Te24 F48'
_cell_volume   3791.06065717
_cell_formula_units_Z   24
loop_
 _symmetry_equiv_pos_site_id
 _symmetry_equiv_pos_as_xyz
  1  'x, y, z'
loop_
 _atom_site_type_symbol
 _atom_site_label
 _atom_site_symmetry_multiplicity
 _atom_site_fract_x
 _atom_site_fract_y
 _atom_site_fract_z
 _atom_site_occupancy
  F  F0  1  0.69605953  0.74775387  0.65537135  1
  F  F1  1  -0.74775387  -0.05169434  0.65537135  1
  F  F2  1  0.05169434  -0.69605953  0.65537135  1
  F  F3  1  0.69605953  0.74775387  -0.65537135  1
  F  F4  1  -0.74775387  -0.05169434  -0.65537135  1
  F  F5  1  0.05169434  -0.69605953  -0.65537135  1
  F  F6  1  0.74775387  0.69605953  -0.65537135  1
  F  F7  1  -0.05169434  -0.74775387  -0.65537135  1
  F  F8  1  -0.69605953  0.05169434  -0.65537135  1
  F  F9  1  0.74775387  0.69605953  0.65537135  1
  F  F10  1  -0.05169434  -0.74775387  0.65537135  1
  F  F11  1  -0.69605953  0.05169434  0.65537135  1
  F  F12  1  0.00000000  0.00000000  0.65953491  1
  F  F13  1  0.00000000  0.00000000  0.34046509  1
  F  F14  1  0.00000000  0.00000000  0.00000000  1
  F  F15  1  0.63732450  0.30632501  0.45595884  1
  F  F16  1  0.69367499  0.33099949  0.45595884  1
  F  F17  1  0.66900051  0.36267550  0.45595884  1
  F  F18  1  0.63732450  0.30632501  0.54404116  1
  F  F19  1  0.69367499  0.33099949  0.54404116  1
  F  F20  1  0.66900051  0.36267550  0.54404116  1
  F  F21  1  0.30632501  0.63732450  0.54404116  1
  F  F22  1  0.33099949  0.69367499  0.54404116  1
  F  F23  1  0.36267550  0.66900051  0.54404116  1
  F  F24  1  0.30632501  0.63732450  0.45595884  1
  F  F25  1  0.33099949  0.69367499  0.45595884  1
  F  F26  1  0.36267550  0.66900051  0.45595884  1
  F  F27  1  0.20770556  0.53006881  0.86174833  1
  F  F28  1  0.46993119  0.67763676  0.86174833  1
  F  F29  1  0.32236324  0.79229444  0.86174833  1
  F  F30  1  0.20770556  0.53006881  0.13825167  1
  F  F31  1  0.46993119  0.67763676  0.13825167  1
  F  F32  1  0.32236324  0.79229444  0.13825167  1
  F  F33  1  0.53006881  0.20770556  0.13825167  1
  F  F34  1  0.67763676  0.46993119  0.13825167  1
  F  F35  1  0.79229444  0.32236324  0.13825167  1
  F  F36  1  0.53006881  0.20770556  0.86174833  1
  F  F37  1  0.67763676  0.46993119  0.86174833  1
  F  F38  1  0.79229444  0.32236324  0.86174833  1
  F  F39  1  0.08530397  0.32855959  0.00000000  1
  F  F40  1  0.67144041  0.75674438  0.00000000  1
  F  F41  1  0.24325562  0.91469603  0.00000000  1
  F  F42  1  0.32855959  0.08530397  0.00000000  1
  F  F43  1  0.75674438  0.67144041  0.00000000  1
  F  F44  1  0.91469603  0.24325562  -0.00000000  1
  F  F45  1  0.37215729  0.00000000  0.00000000  1
  F  F46  1  0.00000000  0.37215729  0.00000000  1
  F  F47  1  0.62784271  0.62784271  0.00000000  1
  Li  Li48  1  0.10229443  0.89938464  0.61497875  1
  Li  Li49  1  0.10061536  0.20290979  0.61497875  1
  Li  Li50  1  0.79709021  0.89770557  0.61497875  1
  Li  Li51  1  0.10229443  0.89938464  0.38502125  1
  Li  Li52  1  0.10061536  0.20290979  0.38502125  1
  Li  Li53  1  0.79709021  0.89770557  0.38502125  1
  Li  Li54  1  0.89938464  0.10229443  0.38502125  1
  Li  Li55  1  0.20290979  0.10061536  0.38502125  1
  Li  Li56  1  0.89770557  0.79709021  0.38502125  1
  Li  Li57  1  0.89938464  0.10229443  0.61497875  1
  Li  Li58  1  0.20290979  0.10061536  0.61497875  1
  Li  Li59  1  0.89770557  0.79709021  0.61497875  1
  Li  Li60  1  0.47473901  0.74402957  0.00000000  1
  Li  Li61  1  0.25597043  0.73070944  0.00000000  1
  Li  Li62  1  0.26929056  0.52526099  0.00000000  1
  Li  Li63  1  0.74402957  0.47473901  0.00000000  1
  Li  Li64  1  0.73070944  0.25597043  0.00000000  1
  Li  Li65  1  0.52526099  0.26929056  0.00000000  1
  Li  Li66  1  0.35062517  0.41279216  0.50000000  1
  Li  Li67  1  0.58720784  0.93783301  0.50000000  1
  Li  Li68  1  0.06216699  0.64937483  0.50000000  1
  Li  Li69  1  0.41279216  0.35062517  0.50000000  1
  Li  Li70  1  0.93783301  0.58720784  0.50000000  1
  Li  Li71  1  0.64937483  0.06216699  0.50000000  1
  Li  Li72  1  0.85301510  0.59719199  0.36008360  1
  Li  Li73  1  0.40280801  0.25582311  0.36008360  1
  Li  Li74  1  0.74417689  0.14698490  0.36008360  1
  Li  Li75  1  0.85301510  0.59719199  0.63991640  1
  Li  Li76  1  0.40280801  0.25582311  0.63991640  1
  Li  Li77  1  0.74417689  0.14698490  0.63991640  1
  Li  Li78  1  0.59719199  0.85301510  0.63991640  1
  Li  Li79  1  0.25582311  0.40280801  0.63991640  1
  Li  Li80  1  0.14698490  0.74417689  0.63991640  1
  Li  Li81  1  0.59719199  0.85301510  0.36008360  1
  Li  Li82  1  0.25582311  0.40280801  0.36008360  1
  Li  Li83  1  0.14698490  0.74417689  0.36008360  1
  Li  Li84  1  0.51824040  0.63933540  0.00000000  1
  Li  Li85  1  0.36066460  0.87890499  0.00000000  1
  Li  Li86  1  0.12109501  0.48175960  0.00000000  1
  Li  Li87  1  0.63933540  0.51824040  0.00000000  1
  Li  Li88  1  0.87890499  0.36066460  0.00000000  1
  Li  Li89  1  0.48175960  0.12109501  0.00000000  1
  Li  Li90  1  0.57028036  0.00000000  0.94162685  1
  Li  Li91  1  0.00000000  0.57028036  0.94162685  1
  Li  Li92  1  0.42971964  0.42971964  0.94162685  1
  Li  Li93  1  0.57028036  0.00000000  0.05837315  1
  Li  Li94  1  0.00000000  0.57028036  0.05837315  1
  Li  Li95  1  0.42971964  0.42971964  0.05837315  1
  Li  Li96  1  0.17939492  0.42523789  0.07916827  1
  Li  Li97  1  0.57476211  0.75415704  0.07916827  1
  Li  Li98  1  0.24584296  0.82060508  0.07916827  1
  Li  Li99  1  0.17939492  0.42523789  0.92083173  1
  Li  Li100  1  0.57476211  0.75415704  0.92083173  1
  Li  Li101  1  0.24584296  0.82060508  0.92083173  1
  Li  Li102  1  0.42523789  0.17939492  0.92083173  1
  Li  Li103  1  0.75415704  0.57476211  0.92083173  1
  Li  Li104  1  0.82060508  0.24584296  0.92083173  1
  Li  Li105  1  0.42523789  0.17939492  0.07916827  1
  Li  Li106  1  0.75415704  0.57476211  0.07916827  1
  Li  Li107  1  0.82060508  0.24584296  0.07916827  1
  Li  Li108  1  0.75057315  0.36511683  0.58817954  1
  Li  Li109  1  0.63488317  0.38545632  0.58817954  1
  Li  Li110  1  0.61454368  0.24942685  0.58817954  1
  Li  Li111  1  0.75057315  0.36511683  0.41182046  1
  Li  Li112  1  0.63488317  0.38545632  0.41182046  1
  Li  Li113  1  0.61454368  0.24942685  0.41182046  1
  Li  Li114  1  0.36511683  0.75057315  0.41182046  1
  Li  Li115  1  0.38545632  0.63488317  0.41182046  1
  Li  Li116  1  0.24942685  0.61454368  0.41182046  1
  Li  Li117  1  0.36511683  0.75057315  0.58817954  1
  Li  Li118  1  0.38545632  0.63488317  0.58817954  1
  Li  Li119  1  0.24942685  0.61454368  0.58817954  1
  Li  Li120  1  0.19900534  0.72695244  0.50000000  1
  Li  Li121  1  0.27304756  0.47205290  0.50000000  1
  Li  Li122  1  0.52794710  0.80099466  0.50000000  1
  Li  Li123  1  0.72695244  0.19900534  0.50000000  1
  Li  Li124  1  0.47205290  0.27304756  0.50000000  1
  Li  Li125  1  0.80099466  0.52794710  0.50000000  1
  Li  Li126  1  0.14131909  0.00000000  0.78344841  1
  Li  Li127  1  0.00000000  0.14131909  0.78344841  1
  Li  Li128  1  0.85868091  0.85868091  0.78344841  1
  Li  Li129  1  0.14131909  0.00000000  0.21655159  1
  Li  Li130  1  0.00000000  0.14131909  0.21655159  1
  Li  Li131  1  0.85868091  0.85868091  0.21655159  1
  Li  Li132  1  0.29940001  0.81127700  0.36192046  1
  Li  Li133  1  0.18872300  0.48812301  0.36192046  1
  Li  Li134  1  0.51187699  0.70059999  0.36192046  1
  Li  Li135  1  0.29940001  0.81127700  0.63807954  1
  Li  Li136  1  0.18872300  0.48812301  0.63807954  1
  Li  Li137  1  0.51187699  0.70059999  0.63807954  1
  Li  Li138  1  0.81127700  0.29940001  0.63807954  1
  Li  Li139  1  0.48812301  0.18872300  0.63807954  1
  Li  Li140  1  0.70059999  0.51187699  0.63807954  1
  Li  Li141  1  0.81127700  0.29940001  0.36192046  1
  Li  Li142  1  0.48812301  0.18872300  0.36192046  1
  Li  Li143  1  0.70059999  0.51187699  0.36192046  1
  Te  Te144  1  0.74548387  0.61660290  0.82875178  1
  Te  Te145  1  0.38339710  0.12888096  0.82875178  1
  Te  Te146  1  0.87111904  0.25451613  0.82875178  1
  Te  Te147  1  0.74548387  0.61660290  0.17124822  1
  Te  Te148  1  0.38339710  0.12888096  0.17124822  1
  Te  Te149  1  0.87111904  0.25451613  0.17124822  1
  Te  Te150  1  0.61660290  0.74548387  0.17124822  1
  Te  Te151  1  0.12888096  0.38339710  0.17124822  1
  Te  Te152  1  0.25451613  0.87111904  0.17124822  1
  Te  Te153  1  0.61660290  0.74548387  0.82875178  1
  Te  Te154  1  0.12888096  0.38339710  0.82875178  1
  Te  Te155  1  0.25451613  0.87111904  0.82875178  1
  Te  Te156  1  0.29805814  0.00000000  0.50000000  1
  Te  Te157  1  0.00000000  0.29805814  0.50000000  1
  Te  Te158  1  0.70194186  0.70194186  0.50000000  1
  Te  Te159  1  0.00000000  0.00000000  0.50000000  1
  Te  Te160  1  0.63964698  0.00000000  0.28161863  1
  Te  Te161  1  0.00000000  0.63964698  0.28161863  1
  Te  Te162  1  0.36035302  0.36035302  0.28161863  1
  Te  Te163  1  0.63964698  0.00000000  0.71838137  1
  Te  Te164  1  0.00000000  0.63964698  0.71838137  1
  Te  Te165  1  0.36035302  0.36035302  0.71838137  1
  Te  Te166  1  0.33333333  0.66666667  -0.00000000  1
  Te  Te167  1  0.66666667  0.33333333  -0.00000000  1
