# generated using pymatgen
data_LiF
_symmetry_space_group_name_H-M   'P 1'
_cell_length_a   5.84306007
_cell_length_b   9.93110908
_cell_length_c   11.74074878
_cell_angle_alpha   90.00000000
_cell_angle_beta   90.00000000
_cell_angle_gamma   90.00000000
_symmetry_Int_Tables_number   1
_chemical_formula_structural   LiF
_chemical_formula_sum   'Li20 F20'
_cell_volume   681.29295608
_cell_formula_units_Z   20
loop_
 _symmetry_equiv_pos_site_id
 _symmetry_equiv_pos_as_xyz
  1  'x, y, z'
loop_
 _atom_site_type_symbol
 _atom_site_label
 _atom_site_symmetry_multiplicity
 _atom_site_fract_x
 _atom_site_fract_y
 _atom_site_fract_z
 _atom_site_occupancy
  F  F0  1  0.97337253  0.31224615  0.56338688  1
  F  F1  1  -0.97337253  -0.31224615  0.56338688  1
  F  F2  1  -0.47337253  0.81224615  -0.56338688  1
  F  F3  1  1.47337253  0.18775385  -0.56338688  1
  F  F4  1  -0.97337253  -0.31224615  -0.56338688  1
  F  F5  1  0.97337253  0.31224615  -0.56338688  1
  F  F6  1  1.47337253  0.18775385  0.56338688  1
  F  F7  1  -0.47337253  0.81224615  0.56338688  1
  F  F8  1  0.00000000  0.50000000  0.00000000  1
  F  F9  1  0.50000000  0.00000000  0.00000000  1
  F  F10  1  0.00000000  0.50000000  0.50000000  1
  F  F11  1  0.50000000  0.00000000  0.50000000  1
  F  F12  1  0.33826903  0.91585468  0.72765717  1
  F  F13  1  0.66173097  0.08414532  0.72765717  1
  F  F14  1  0.16173097  0.41585468  0.27234283  1
  F  F15  1  0.83826903  0.58414532  0.27234283  1
  F  F16  1  0.66173097  0.08414532  0.27234283  1
  F  F17  1  0.33826903  0.91585468  0.27234283  1
  F  F18  1  0.83826903  0.58414532  0.72765717  1
  F  F19  1  0.16173097  0.41585468  0.72765717  1
  Li  Li20  1  0.21276172  0.52006300  0.29764153  1
  Li  Li21  1  0.78723828  0.47993700  0.29764153  1
  Li  Li22  1  0.28723828  0.02006300  0.70235847  1
  Li  Li23  1  0.71276172  0.97993700  0.70235847  1
  Li  Li24  1  0.78723828  0.47993700  0.70235847  1
  Li  Li25  1  0.21276172  0.52006300  0.70235847  1
  Li  Li26  1  0.71276172  0.97993700  0.29764153  1
  Li  Li27  1  0.28723828  0.02006300  0.29764153  1
  Li  Li28  1  0.00000000  0.00000000  0.00000000  1
  Li  Li29  1  0.50000000  0.50000000  0.00000000  1
  Li  Li30  1  0.77659762  0.45305875  0.50000000  1
  Li  Li31  1  0.22340238  0.54694125  0.50000000  1
  Li  Li32  1  0.72340238  0.95305875  0.50000000  1
  Li  Li33  1  0.27659762  0.04694125  0.50000000  1
  Li  Li34  1  0.00000000  0.00000000  0.50000000  1
  Li  Li35  1  0.50000000  0.50000000  0.50000000  1
  Li  Li36  1  0.00000000  0.00000000  0.27702174  1
  Li  Li37  1  0.50000000  0.50000000  0.72297826  1
  Li  Li38  1  0.00000000  0.00000000  0.72297826  1
  Li  Li39  1  0.50000000  0.50000000  0.27702174  1
