# generated using pymatgen
data_LiF
_symmetry_space_group_name_H-M   'P 1'
_cell_length_a   10.94024473
_cell_length_b   13.51636735
_cell_length_c   8.13961027
_cell_angle_alpha   90.00000000
_cell_angle_beta   90.00000000
_cell_angle_gamma   90.00000000
_symmetry_Int_Tables_number   1
_chemical_formula_structural   LiF
_chemical_formula_sum   'Li44 F44'
_cell_volume   1203.62343505
_cell_formula_units_Z   44
loop_
 _symmetry_equiv_pos_site_id
 _symmetry_equiv_pos_as_xyz
  1  'x, y, z'
loop_
 _atom_site_type_symbol
 _atom_site_label
 _atom_site_symmetry_multiplicity
 _atom_site_fract_x
 _atom_site_fract_y
 _atom_site_fract_z
 _atom_site_occupancy
  F  F0  1  0.67837917  0.31096700  -0.00000000  1
  F  F1  1  0.32162083  0.68903300  -0.00000000  1
  F  F2  1  0.82162083  0.81096700  -0.00000000  1
  F  F3  1  0.17837917  0.18903300  -0.00000000  1
  F  F4  1  0.33024926  0.38315690  0.89348155  1
  F  F5  1  0.66975074  0.61684310  0.89348155  1
  F  F6  1  0.16975074  0.88315690  0.10651845  1
  F  F7  1  0.83024926  0.11684310  0.10651845  1
  F  F8  1  0.66975074  0.61684310  0.10651845  1
  F  F9  1  0.33024926  0.38315690  0.10651845  1
  F  F10  1  0.83024926  0.11684310  0.89348155  1
  F  F11  1  0.16975074  0.88315690  0.89348155  1
  F  F12  1  0.77907570  0.94289390  0.42763169  1
  F  F13  1  0.22092430  0.05710610  0.42763169  1
  F  F14  1  0.72092430  0.44289390  0.57236831  1
  F  F15  1  0.27907570  0.55710610  0.57236831  1
  F  F16  1  0.22092430  0.05710610  0.57236831  1
  F  F17  1  0.77907570  0.94289390  0.57236831  1
  F  F18  1  0.27907570  0.55710610  0.42763169  1
  F  F19  1  0.72092430  0.44289390  0.42763169  1
  F  F20  1  0.00000000  0.00000000  0.50000000  1
  F  F21  1  0.50000000  0.50000000  0.50000000  1
  F  F22  1  0.28354773  0.30824609  0.50000000  1
  F  F23  1  0.71645227  0.69175391  0.50000000  1
  F  F24  1  0.21645227  0.80824609  0.50000000  1
  F  F25  1  0.78354773  0.19175391  0.50000000  1
  F  F26  1  0.86770448  0.14768780  0.43191540  1
  F  F27  1  0.13229552  0.85231220  0.43191540  1
  F  F28  1  0.63229552  0.64768780  0.56808460  1
  F  F29  1  0.36770448  0.35231220  0.56808460  1
  F  F30  1  0.13229552  0.85231220  0.56808460  1
  F  F31  1  0.86770448  0.14768780  0.56808460  1
  F  F32  1  0.36770448  0.35231220  0.43191540  1
  F  F33  1  0.63229552  0.64768780  0.43191540  1
  F  F34  1  0.96669386  0.58875767  0.55635658  1
  F  F35  1  0.03330614  0.41124233  0.55635658  1
  F  F36  1  0.53330614  0.08875767  0.44364342  1
  F  F37  1  0.46669386  0.91124233  0.44364342  1
  F  F38  1  0.03330614  0.41124233  0.44364342  1
  F  F39  1  0.96669386  0.58875767  0.44364342  1
  F  F40  1  0.46669386  0.91124233  0.55635658  1
  F  F41  1  0.53330614  0.08875767  0.55635658  1
  F  F42  1  0.00000000  0.00000000  0.00000000  1
  F  F43  1  0.50000000  0.50000000  -0.00000000  1
  Li  Li44  1  0.40648850  0.21667581  0.78839564  1
  Li  Li45  1  -0.40648850  -0.21667581  0.78839564  1
  Li  Li46  1  0.09351150  0.71667581  -0.78839564  1
  Li  Li47  1  0.90648850  0.28332419  -0.78839564  1
  Li  Li48  1  -0.40648850  -0.21667581  -0.78839564  1
  Li  Li49  1  0.40648850  0.21667581  -0.78839564  1
  Li  Li50  1  0.90648850  0.28332419  0.78839564  1
  Li  Li51  1  0.09351150  0.71667581  0.78839564  1
  Li  Li52  1  0.28827569  0.23309856  0.50000000  1
  Li  Li53  1  0.71172431  0.76690144  0.50000000  1
  Li  Li54  1  0.21172431  0.73309856  0.50000000  1
  Li  Li55  1  0.78827569  0.26690144  0.50000000  1
  Li  Li56  1  0.00000000  0.00000000  0.36110175  1
  Li  Li57  1  0.50000000  0.50000000  0.63889825  1
  Li  Li58  1  0.00000000  0.00000000  0.63889825  1
  Li  Li59  1  0.50000000  0.50000000  0.36110175  1
  Li  Li60  1  0.39168042  0.15467132  -0.00000000  1
  Li  Li61  1  0.60831958  0.84532868  0.00000000  1
  Li  Li62  1  0.10831958  0.65467132  -0.00000000  1
  Li  Li63  1  0.89168042  0.34532868  -0.00000000  1
  Li  Li64  1  0.32775731  0.51720780  0.30721121  1
  Li  Li65  1  0.67224269  0.48279220  0.30721121  1
  Li  Li66  1  0.17224269  0.01720780  0.69278879  1
  Li  Li67  1  0.82775731  0.98279220  0.69278879  1
  Li  Li68  1  0.67224269  0.48279220  0.69278879  1
  Li  Li69  1  0.32775731  0.51720780  0.69278879  1
  Li  Li70  1  0.82775731  0.98279220  0.30721121  1
  Li  Li71  1  0.17224269  0.01720780  0.30721121  1
  Li  Li72  1  0.00000000  0.50000000  0.00000000  1
  Li  Li73  1  0.50000000  0.00000000  -0.00000000  1
  Li  Li74  1  0.34052771  0.79395127  0.50000000  1
  Li  Li75  1  0.65947229  0.20604873  0.50000000  1
  Li  Li76  1  0.15947229  0.29395127  0.50000000  1
  Li  Li77  1  0.84052771  0.70604873  0.50000000  1
  Li  Li78  1  0.41332035  0.27972597  0.50000000  1
  Li  Li79  1  0.58667965  0.72027403  0.50000000  1
  Li  Li80  1  0.08667965  0.77972597  0.50000000  1
  Li  Li81  1  0.91332035  0.22027403  0.50000000  1
  Li  Li82  1  0.15324172  0.42409611  0.50000000  1
  Li  Li83  1  0.84675828  0.57590389  0.50000000  1
  Li  Li84  1  0.34675828  0.92409611  0.50000000  1
  Li  Li85  1  0.65324172  0.07590389  0.50000000  1
  Li  Li86  1  0.00000000  0.50000000  0.50000000  1
  Li  Li87  1  0.50000000  0.00000000  0.50000000  1
