# generated using pymatgen
data_LiBO2
_symmetry_space_group_name_H-M   'P 1'
_cell_length_a   9.30765185
_cell_length_b   9.30765185
_cell_length_c   10.75586296
_cell_angle_alpha   90.00000000
_cell_angle_beta   90.00000000
_cell_angle_gamma   120.00000000
_symmetry_Int_Tables_number   1
_chemical_formula_structural   LiBO2
_chemical_formula_sum   'Li18 B18 O36'
_cell_volume   806.96770175
_cell_formula_units_Z   18
loop_
 _symmetry_equiv_pos_site_id
 _symmetry_equiv_pos_as_xyz
  1  'x, y, z'
loop_
 _atom_site_type_symbol
 _atom_site_label
 _atom_site_symmetry_multiplicity
 _atom_site_fract_x
 _atom_site_fract_y
 _atom_site_fract_z
 _atom_site_occupancy
  B  B0  1  0.00000000  0.00000000  0.25000000  1
  B  B1  1  0.00000000  0.00000000  0.75000000  1
  B  B2  1  0.66666667  0.33333333  0.58333333  1
  B  B3  1  0.66666667  0.33333333  0.08333333  1
  B  B4  1  0.33333333  0.66666667  0.91666667  1
  B  B5  1  0.33333333  0.66666667  0.41666667  1
  B  B6  1  0.00000000  0.00000000  0.43367360  1
  B  B7  1  0.00000000  0.00000000  0.06632640  1
  B  B8  1  0.00000000  0.00000000  0.56632640  1
  B  B9  1  0.00000000  0.00000000  0.93367360  1
  B  B10  1  0.66666667  0.33333333  0.76700693  1
  B  B11  1  0.66666667  0.33333333  0.39965973  1
  B  B12  1  0.66666667  0.33333333  0.89965973  1
  B  B13  1  0.66666667  0.33333333  0.26700693  1
  B  B14  1  0.33333333  0.66666667  0.10034027  1
  B  B15  1  0.33333333  0.66666667  0.73299307  1
  B  B16  1  0.33333333  0.66666667  0.23299307  1
  B  B17  1  0.33333333  0.66666667  0.60034027  1
  Li  Li18  1  0.86850616  0.00000000  0.25000000  1
  Li  Li19  1  0.00000000  0.86850616  0.25000000  1
  Li  Li20  1  0.13149384  0.13149384  0.25000000  1
  Li  Li21  1  0.13149384  -0.00000000  0.75000000  1
  Li  Li22  1  0.00000000  0.13149384  0.75000000  1
  Li  Li23  1  0.86850616  0.86850616  0.75000000  1
  Li  Li24  1  0.53517282  0.33333333  0.58333333  1
  Li  Li25  1  0.66666667  0.20183949  0.58333333  1
  Li  Li26  1  0.79816051  0.46482718  0.58333333  1
  Li  Li27  1  0.79816051  0.33333333  0.08333333  1
  Li  Li28  1  0.66666667  0.46482718  0.08333333  1
  Li  Li29  1  0.53517282  0.20183949  0.08333333  1
  Li  Li30  1  0.20183949  0.66666667  0.91666667  1
  Li  Li31  1  0.33333333  0.53517282  0.91666667  1
  Li  Li32  1  0.46482718  0.79816051  0.91666667  1
  Li  Li33  1  0.46482718  0.66666667  0.41666667  1
  Li  Li34  1  0.33333333  0.79816051  0.41666667  1
  Li  Li35  1  0.20183949  0.53517282  0.41666667  1
  O  O36  1  0.71191670  0.94732857  0.86776952  1
  O  O37  1  -0.94732857  -0.23541187  0.86776952  1
  O  O38  1  0.23541187  -0.71191670  0.86776952  1
  O  O39  1  0.94732857  0.71191670  -0.36776952  1
  O  O40  1  -0.23541187  -0.94732857  -0.36776952  1
  O  O41  1  -0.71191670  0.23541187  -0.36776952  1
  O  O42  1  -0.71191670  -0.94732857  -0.86776952  1
  O  O43  1  0.94732857  0.23541187  -0.86776952  1
  O  O44  1  -0.23541187  0.71191670  -0.86776952  1
  O  O45  1  -0.94732857  -0.71191670  1.36776952  1
  O  O46  1  0.23541187  0.94732857  1.36776952  1
  O  O47  1  0.71191670  -0.23541187  1.36776952  1
  O  O48  1  1.37858337  1.28066191  1.20110286  1
  O  O49  1  -0.28066191  0.09792146  1.20110286  1
  O  O50  1  0.90207854  -0.37858337  1.20110286  1
  O  O51  1  1.61399524  1.04525004  -0.03443619  1
  O  O52  1  0.43125480  -0.61399524  -0.03443619  1
  O  O53  1  -0.04525004  0.56874520  -0.03443619  1
  O  O54  1  -0.04525004  -0.61399524  -0.53443619  1
  O  O55  1  1.61399524  0.56874520  -0.53443619  1
  O  O56  1  0.43125480  1.04525004  -0.53443619  1
  O  O57  1  -0.28066191  -0.37858337  1.70110286  1
  O  O58  1  0.90207854  1.28066191  1.70110286  1
  O  O59  1  1.37858337  0.09792146  1.70110286  1
  O  O60  1  1.04525004  1.61399524  1.53443619  1
  O  O61  1  -0.61399524  0.43125480  1.53443619  1
  O  O62  1  0.56874520  -0.04525004  1.53443619  1
  O  O63  1  1.28066191  1.37858337  0.29889714  1
  O  O64  1  0.09792146  -0.28066191  0.29889714  1
  O  O65  1  -0.37858337  0.90207854  0.29889714  1
  O  O66  1  -0.37858337  -0.28066191  -0.20110286  1
  O  O67  1  1.28066191  0.90207854  -0.20110286  1
  O  O68  1  0.09792146  1.37858337  -0.20110286  1
  O  O69  1  -0.61399524  -0.04525004  2.03443619  1
  O  O70  1  0.56874520  1.61399524  2.03443619  1
  O  O71  1  1.04525004  0.43125480  2.03443619  1
