# generated using pymatgen
data_LiF
_symmetry_space_group_name_H-M   'P 1'
_cell_length_a   11.53261114
_cell_length_b   11.53261114
_cell_length_c   5.69997654
_cell_angle_alpha   90.00000000
_cell_angle_beta   90.00000000
_cell_angle_gamma   120.00000000
_symmetry_Int_Tables_number   1
_chemical_formula_structural   LiF
_chemical_formula_sum   'Li23 F23'
_cell_volume   656.53668379
_cell_formula_units_Z   23
loop_
 _symmetry_equiv_pos_site_id
 _symmetry_equiv_pos_as_xyz
  1  'x, y, z'
loop_
 _atom_site_type_symbol
 _atom_site_label
 _atom_site_symmetry_multiplicity
 _atom_site_fract_x
 _atom_site_fract_y
 _atom_site_fract_z
 _atom_site_occupancy
  F  F0  1  0.33333333  0.66666667  0.50000000  1
  F  F1  1  0.93553715  0.80943101  0.44093266  1
  F  F2  1  0.19056899  0.12610614  0.44093266  1
  F  F3  1  0.87389386  0.06446285  0.44093266  1
  F  F4  1  0.19056899  0.06446285  0.55906734  1
  F  F5  1  0.87389386  0.80943101  0.55906734  1
  F  F6  1  0.93553715  0.12610614  0.55906734  1
  F  F7  1  0.33333333  0.66666667  0.00000000  1
  F  F8  1  0.21333012  0.16896745  0.35172455  1
  F  F9  1  0.83103255  0.04436266  0.35172455  1
  F  F10  1  0.95563734  0.78666988  0.35172455  1
  F  F11  1  0.83103255  0.78666988  0.64827545  1
  F  F12  1  0.95563734  0.16896745  0.64827545  1
  F  F13  1  0.21333012  0.04436266  0.64827545  1
  F  F14  1  0.66666667  0.33333333  0.12397648  1
  F  F15  1  0.66666667  0.33333333  0.87602352  1
  F  F16  1  0.00000000  0.00000000  0.00000000  1
  F  F17  1  0.54640521  0.40876059  0.29211799  1
  F  F18  1  0.59123941  0.13764462  0.29211799  1
  F  F19  1  0.86235538  0.45359479  0.29211799  1
  F  F20  1  0.59123941  0.45359479  0.70788201  1
  F  F21  1  0.86235538  0.40876059  0.70788201  1
  F  F22  1  0.54640521  0.13764462  0.70788201  1
  Li  Li23  1  0.54202471  0.70568865  0.72900395  1
  Li  Li24  1  -0.70568865  -0.16366394  0.72900395  1
  Li  Li25  1  0.16366394  -0.54202471  0.72900395  1
  Li  Li26  1  -0.70568865  -0.54202471  -0.72900395  1
  Li  Li27  1  0.16366394  0.70568865  -0.72900395  1
  Li  Li28  1  0.54202471  -0.16366394  -0.72900395  1
  Li  Li29  1  0.66666667  0.33333333  0.50000000  1
  Li  Li30  1  0.58716442  0.41283558  0.00000000  1
  Li  Li31  1  0.58716442  0.17432884  -0.00000000  1
  Li  Li32  1  0.82567116  0.41283558  0.00000000  1
  Li  Li33  1  0.92843885  0.79700949  0.16322058  1
  Li  Li34  1  0.20299051  0.13142936  0.16322058  1
  Li  Li35  1  0.86857064  0.07156115  0.16322058  1
  Li  Li36  1  0.20299051  0.07156115  0.83677942  1
  Li  Li37  1  0.86857064  0.79700949  0.83677942  1
  Li  Li38  1  0.92843885  0.13142936  0.83677942  1
  Li  Li39  1  0.00000000  0.00000000  0.50000000  1
  Li  Li40  1  0.97697565  0.36387323  0.80011423  1
  Li  Li41  1  0.63612677  0.61310242  0.80011423  1
  Li  Li42  1  0.38689758  0.02302435  0.80011423  1
  Li  Li43  1  0.63612677  0.02302435  0.19988577  1
  Li  Li44  1  0.38689758  0.36387323  0.19988577  1
  Li  Li45  1  0.97697565  0.61310242  0.19988577  1
