# generated using pymatgen
data_Li2Y2As4P2Se
_symmetry_space_group_name_H-M   'P 1'
_cell_length_a   5.57557139
_cell_length_b   5.76109504
_cell_length_c   6.80796107
_cell_angle_alpha   92.97338200
_cell_angle_beta   95.36420295
_cell_angle_gamma   100.11858085
_symmetry_Int_Tables_number   1
_chemical_formula_structural   Li2Y2As4P2Se
_chemical_formula_sum   'Li2 Y2 As4 P2 Se1'
_cell_volume   213.81612742
_cell_formula_units_Z   1
loop_
 _symmetry_equiv_pos_site_id
 _symmetry_equiv_pos_as_xyz
  1  'x, y, z'
loop_
 _atom_site_type_symbol
 _atom_site_label
 _atom_site_symmetry_multiplicity
 _atom_site_fract_x
 _atom_site_fract_y
 _atom_site_fract_z
 _atom_site_occupancy
  Se  Se0  1  0.00000000  0.00000000  0.00000000  1
  P  P1  1  0.50000000  0.50000000  0.50000000  1
  P  P2  1  0.50000000  0.50000000  0.00000000  1
  As  As3  1  0.50000000  0.00000000  0.50000000  1
  As  As4  1  0.00000000  0.50000000  0.50000000  1
  As  As5  1  0.29560893  0.12937186  0.31240415  1
  As  As6  1  0.44609650  0.74600866  0.92189560  1
  Li  Li7  1  0.15361198  0.37761199  0.81363460  1
  Li  Li8  1  0.45551546  0.17580633  0.81780632  1
  Y  Y9  1  0.74598359  0.65433008  0.80893780  1
  Y  Y10  1  0.66217880  0.37800297  0.94356907  1
