# generated using pymatgen
data_LiF
_symmetry_space_group_name_H-M   'P 1'
_cell_length_a   13.64119170
_cell_length_b   6.94879607
_cell_length_c   6.08222421
_cell_angle_alpha   90.00000000
_cell_angle_beta   90.00000000
_cell_angle_gamma   90.00000000
_symmetry_Int_Tables_number   1
_chemical_formula_structural   LiF
_chemical_formula_sum   'Li24 F24'
_cell_volume   576.53317635
_cell_formula_units_Z   24
loop_
 _symmetry_equiv_pos_site_id
 _symmetry_equiv_pos_as_xyz
  1  'x, y, z'
loop_
 _atom_site_type_symbol
 _atom_site_label
 _atom_site_symmetry_multiplicity
 _atom_site_fract_x
 _atom_site_fract_y
 _atom_site_fract_z
 _atom_site_occupancy
  F  F0  1  0.88604881  0.00784993  0.09655604  1
  F  F1  1  0.61395119  0.99215007  0.59655604  1
  F  F2  1  0.11395119  0.50784993  0.90344396  1
  F  F3  1  0.38604881  0.49215007  0.40344396  1
  F  F4  1  0.11395119  0.99215007  0.90344396  1
  F  F5  1  0.38604881  0.00784993  0.40344396  1
  F  F6  1  0.88604881  0.49215007  0.09655604  1
  F  F7  1  0.61395119  0.50784993  0.59655604  1
  F  F8  1  0.57119319  0.25000000  0.22684095  1
  F  F9  1  0.92880681  0.75000000  0.72684095  1
  F  F10  1  0.42880681  0.75000000  0.77315905  1
  F  F11  1  0.07119319  0.25000000  0.27315905  1
  F  F12  1  0.00000000  0.00000000  0.50000000  1
  F  F13  1  0.50000000  0.00000000  -0.00000000  1
  F  F14  1  0.00000000  0.50000000  0.50000000  1
  F  F15  1  0.50000000  0.50000000  0.00000000  1
  F  F16  1  0.53856218  0.25000000  0.38987682  1
  F  F17  1  0.96143782  0.75000000  0.88987682  1
  F  F18  1  0.46143782  0.75000000  0.61012318  1
  F  F19  1  0.03856218  0.25000000  0.11012318  1
  F  F20  1  0.74877322  0.25000000  0.88848992  1
  F  F21  1  0.75122678  0.75000000  0.38848992  1
  F  F22  1  0.25122678  0.75000000  0.11151008  1
  F  F23  1  0.24877322  0.25000000  0.61151008  1
  Li  Li24  1  0.92235341  0.25000000  0.94962220  1
  Li  Li25  1  0.57764659  0.75000000  0.44962220  1
  Li  Li26  1  0.07764659  0.75000000  0.05037780  1
  Li  Li27  1  0.42235341  0.25000000  0.55037780  1
  Li  Li28  1  0.42500253  0.08302593  0.98571256  1
  Li  Li29  1  0.07499747  -0.08302593  1.48571256  1
  Li  Li30  1  -0.42500253  0.58302593  -0.98571256  1
  Li  Li31  1  0.92500253  0.41697407  -0.48571256  1
  Li  Li32  1  -0.42500253  -0.08302593  -0.98571256  1
  Li  Li33  1  0.92500253  0.08302593  -0.48571256  1
  Li  Li34  1  0.42500253  0.41697407  0.98571256  1
  Li  Li35  1  0.07499747  0.58302593  1.48571256  1
  Li  Li36  1  0.99930132  0.86129335  0.04727309  1
  Li  Li37  1  0.50069868  0.13870665  0.54727309  1
  Li  Li38  1  0.00069868  0.36129335  0.95272691  1
  Li  Li39  1  0.49930132  0.63870665  0.45272691  1
  Li  Li40  1  0.00069868  0.13870665  0.95272691  1
  Li  Li41  1  0.49930132  0.86129335  0.45272691  1
  Li  Li42  1  0.99930132  0.63870665  0.04727309  1
  Li  Li43  1  0.50069868  0.36129335  0.54727309  1
  Li  Li44  1  0.70542041  0.25000000  0.63136987  1
  Li  Li45  1  0.79457959  0.75000000  0.13136987  1
  Li  Li46  1  0.29457959  0.75000000  0.36863013  1
  Li  Li47  1  0.20542041  0.25000000  0.86863013  1
