# generated using pymatgen
data_Li2Y2As2P3Se
_symmetry_space_group_name_H-M   'P 1'
_cell_length_a   5.94879260
_cell_length_b   6.08948271
_cell_length_c   7.62098225
_cell_angle_alpha   93.18177188
_cell_angle_beta   96.92923767
_cell_angle_gamma   102.77991306
_symmetry_Int_Tables_number   1
_chemical_formula_structural   Li2Y2As2P3Se
_chemical_formula_sum   'Li2 Y2 As2 P3 Se1'
_cell_volume   266.30007253
_cell_formula_units_Z   1
loop_
 _symmetry_equiv_pos_site_id
 _symmetry_equiv_pos_as_xyz
  1  'x, y, z'
loop_
 _atom_site_type_symbol
 _atom_site_label
 _atom_site_symmetry_multiplicity
 _atom_site_fract_x
 _atom_site_fract_y
 _atom_site_fract_z
 _atom_site_occupancy
  Se  Se0  1  0.12500000  0.00000000  0.25000000  1
  Y  Y1  1  0.00000000  0.00000000  0.00000000  1
  Y  Y2  1  0.37500000  0.00000000  0.25000000  1
  P  P3  1  0.25000000  0.25000000  0.25000000  1
  P  P4  1  0.00000000  0.25000000  0.12500000  1
  P  P5  1  0.43428792  0.90391718  0.43171945  1
  As  As6  1  0.92381785  0.89031527  0.84293578  1
  As  As7  1  0.77024103  0.11831057  0.33627353  1
  Li  Li8  1  0.71102445  0.68103515  0.44916799  1
  Li  Li9  1  0.55235606  0.49635644  0.24594065  1
