# generated using pymatgen
data_LiF
_symmetry_space_group_name_H-M   'P 1'
_cell_length_a   12.99048384
_cell_length_b   12.99048384
_cell_length_c   9.88519884
_cell_angle_alpha   90.00000000
_cell_angle_beta   90.00000000
_cell_angle_gamma   120.00000000
_symmetry_Int_Tables_number   1
_chemical_formula_structural   LiF
_chemical_formula_sum   'Li48 F48'
_cell_volume   1444.66348312
_cell_formula_units_Z   48
loop_
 _symmetry_equiv_pos_site_id
 _symmetry_equiv_pos_as_xyz
  1  'x, y, z'
loop_
 _atom_site_type_symbol
 _atom_site_label
 _atom_site_symmetry_multiplicity
 _atom_site_fract_x
 _atom_site_fract_y
 _atom_site_fract_z
 _atom_site_occupancy
  F  F0  1  0.09862704  0.00000000  0.25000000  1
  F  F1  1  0.00000000  0.09862704  0.25000000  1
  F  F2  1  0.90137296  0.90137296  0.25000000  1
  F  F3  1  0.90137296  0.00000000  0.75000000  1
  F  F4  1  0.00000000  0.90137296  0.75000000  1
  F  F5  1  0.09862704  0.09862704  0.75000000  1
  F  F6  1  0.76529371  0.33333333  0.58333333  1
  F  F7  1  0.66666667  0.43196038  0.58333333  1
  F  F8  1  0.56803962  0.23470629  0.58333333  1
  F  F9  1  0.56803962  0.33333333  0.08333333  1
  F  F10  1  0.66666667  0.23470629  0.08333333  1
  F  F11  1  0.76529371  0.43196038  0.08333333  1
  F  F12  1  0.43196038  0.66666667  0.91666667  1
  F  F13  1  0.33333333  0.76529371  0.91666667  1
  F  F14  1  0.23470629  0.56803962  0.91666667  1
  F  F15  1  0.23470629  0.66666667  0.41666667  1
  F  F16  1  0.33333333  0.56803962  0.41666667  1
  F  F17  1  0.43196038  0.76529371  0.41666667  1
  F  F18  1  0.50000000  0.00000000  0.00000000  1
  F  F19  1  0.00000000  0.50000000  -0.00000000  1
  F  F20  1  0.50000000  0.50000000  0.00000000  1
  F  F21  1  0.00000000  0.50000000  0.50000000  1
  F  F22  1  0.50000000  0.00000000  0.50000000  1
  F  F23  1  0.50000000  0.50000000  0.50000000  1
  F  F24  1  0.16666667  0.33333333  0.33333333  1
  F  F25  1  0.66666667  0.83333333  0.33333333  1
  F  F26  1  0.16666667  0.83333333  0.33333333  1
  F  F27  1  0.66666667  0.83333333  0.83333333  1
  F  F28  1  0.16666667  0.33333333  0.83333333  1
  F  F29  1  0.16666667  0.83333333  0.83333333  1
  F  F30  1  0.83333333  0.66666667  0.66666667  1
  F  F31  1  0.33333333  0.16666667  0.66666667  1
  F  F32  1  0.83333333  0.16666667  0.66666667  1
  F  F33  1  0.33333333  0.16666667  0.16666667  1
  F  F34  1  0.83333333  0.66666667  0.16666667  1
  F  F35  1  0.83333333  0.16666667  0.16666667  1
  F  F36  1  0.00000000  0.00000000  0.86595693  1
  F  F37  1  0.00000000  0.00000000  0.63404307  1
  F  F38  1  0.00000000  0.00000000  0.13404307  1
  F  F39  1  0.00000000  0.00000000  0.36595693  1
  F  F40  1  0.66666667  0.33333333  0.19929026  1
  F  F41  1  0.66666667  0.33333333  0.96737640  1
  F  F42  1  0.66666667  0.33333333  0.46737640  1
  F  F43  1  0.66666667  0.33333333  0.69929026  1
  F  F44  1  0.33333333  0.66666667  0.53262360  1
  F  F45  1  0.33333333  0.66666667  0.30070974  1
  F  F46  1  0.33333333  0.66666667  0.80070974  1
  F  F47  1  0.33333333  0.66666667  0.03262360  1
  Li  Li48  1  0.00000000  0.00000000  0.00000000  1
  Li  Li49  1  0.00000000  0.00000000  0.50000000  1
  Li  Li50  1  0.66666667  0.33333333  0.33333333  1
  Li  Li51  1  0.66666667  0.33333333  0.83333333  1
  Li  Li52  1  0.33333333  0.66666667  0.66666667  1
  Li  Li53  1  0.33333333  0.66666667  0.16666667  1
  Li  Li54  1  0.78386842  -0.00000000  0.25000000  1
  Li  Li55  1  0.00000000  0.78386842  0.25000000  1
  Li  Li56  1  0.21613158  0.21613158  0.25000000  1
  Li  Li57  1  0.21613158  0.00000000  0.75000000  1
  Li  Li58  1  0.00000000  0.21613158  0.75000000  1
  Li  Li59  1  0.78386842  0.78386842  0.75000000  1
  Li  Li60  1  0.45053509  0.33333333  0.58333333  1
  Li  Li61  1  0.66666667  0.11720176  0.58333333  1
  Li  Li62  1  0.88279824  0.54946491  0.58333333  1
  Li  Li63  1  0.88279824  0.33333333  0.08333333  1
  Li  Li64  1  0.66666667  0.54946491  0.08333333  1
  Li  Li65  1  0.45053509  0.11720176  0.08333333  1
  Li  Li66  1  0.11720176  0.66666667  0.91666667  1
  Li  Li67  1  0.33333333  0.45053509  0.91666667  1
  Li  Li68  1  0.54946491  0.88279824  0.91666667  1
  Li  Li69  1  0.54946491  0.66666667  0.41666667  1
  Li  Li70  1  0.33333333  0.88279824  0.41666667  1
  Li  Li71  1  0.11720176  0.45053509  0.41666667  1
  Li  Li72  1  0.44364148  0.00000000  0.25000000  1
  Li  Li73  1  0.00000000  0.44364148  0.25000000  1
  Li  Li74  1  0.55635852  0.55635852  0.25000000  1
  Li  Li75  1  0.55635852  0.00000000  0.75000000  1
  Li  Li76  1  0.00000000  0.55635852  0.75000000  1
  Li  Li77  1  0.44364148  0.44364148  0.75000000  1
  Li  Li78  1  0.11030815  0.33333333  0.58333333  1
  Li  Li79  1  0.66666667  0.77697482  0.58333333  1
  Li  Li80  1  0.22302518  0.88969185  0.58333333  1
  Li  Li81  1  0.22302518  0.33333333  0.08333333  1
  Li  Li82  1  0.66666667  0.88969185  0.08333333  1
  Li  Li83  1  0.11030815  0.77697482  0.08333333  1
  Li  Li84  1  0.77697482  0.66666667  0.91666667  1
  Li  Li85  1  0.33333333  0.11030815  0.91666667  1
  Li  Li86  1  0.88969185  0.22302518  0.91666667  1
  Li  Li87  1  0.88969185  0.66666667  0.41666667  1
  Li  Li88  1  0.33333333  0.22302518  0.41666667  1
  Li  Li89  1  0.77697482  0.11030815  0.41666667  1
  Li  Li90  1  0.00000000  0.00000000  0.25000000  1
  Li  Li91  1  0.00000000  0.00000000  0.75000000  1
  Li  Li92  1  0.66666667  0.33333333  0.58333333  1
  Li  Li93  1  0.66666667  0.33333333  0.08333333  1
  Li  Li94  1  0.33333333  0.66666667  0.91666667  1
  Li  Li95  1  0.33333333  0.66666667  0.41666667  1
