# generated using pymatgen
data_Li2Y2P3Se2
_symmetry_space_group_name_H-M   'P 1'
_cell_length_a   5.44064185
_cell_length_b   5.51479162
_cell_length_c   7.08804543
_cell_angle_alpha   93.90838671
_cell_angle_beta   98.51165372
_cell_angle_gamma   105.69843606
_symmetry_Int_Tables_number   1
_chemical_formula_structural   Li2Y2P3Se2
_chemical_formula_sum   'Li2 Y2 P3 Se2'
_cell_volume   201.16997724
_cell_formula_units_Z   1
loop_
 _symmetry_equiv_pos_site_id
 _symmetry_equiv_pos_as_xyz
  1  'x, y, z'
loop_
 _atom_site_type_symbol
 _atom_site_label
 _atom_site_symmetry_multiplicity
 _atom_site_fract_x
 _atom_site_fract_y
 _atom_site_fract_z
 _atom_site_occupancy
  Se  Se0  1  0.00000000  0.00000000  0.00000000  1
  Se  Se1  1  0.33300000  0.66700000  0.25000000  1
  Y  Y2  1  0.66700000  0.33300000  0.50000000  1
  Y  Y3  1  0.00000000  0.00000000  0.75000000  1
  P  P4  1  0.83072522  0.48181949  0.57765937  1
  P  P5  1  0.08918056  0.61632664  0.53959436  1
  P  P6  1  0.27002173  0.97717689  0.42097650  1
  Li  Li7  1  0.84864198  0.35279545  0.69840908  1
  Li  Li8  1  0.61488212  0.58425551  0.45433588  1
