# generated using pymatgen
data_LiF
_symmetry_space_group_name_H-M   'P 1'
_cell_length_a   9.53908091
_cell_length_b   9.53908091
_cell_length_c   2.55934965
_cell_angle_alpha   90.00000000
_cell_angle_beta   90.00000000
_cell_angle_gamma   90.00000000
_symmetry_Int_Tables_number   1
_chemical_formula_structural   LiF
_chemical_formula_sum   'Li14 F14'
_cell_volume   232.88562713
_cell_formula_units_Z   14
loop_
 _symmetry_equiv_pos_site_id
 _symmetry_equiv_pos_as_xyz
  1  'x, y, z'
loop_
 _atom_site_type_symbol
 _atom_site_label
 _atom_site_symmetry_multiplicity
 _atom_site_fract_x
 _atom_site_fract_y
 _atom_site_fract_z
 _atom_site_occupancy
  F  F0  1  0.86015962  0.50000000  0.00000000  1
  F  F1  1  -0.86015962  0.50000000  0.00000000  1
  F  F2  1  0.50000000  0.86015962  0.00000000  1
  F  F3  1  0.50000000  -0.86015962  0.00000000  1
  F  F4  1  0.60353413  0.00000000  0.50000000  1
  F  F5  1  0.39646587  0.00000000  0.50000000  1
  F  F6  1  0.00000000  0.60353413  0.50000000  1
  F  F7  1  0.00000000  0.39646587  0.50000000  1
  F  F8  1  0.83151768  0.50000000  0.50000000  1
  F  F9  1  0.16848232  0.50000000  0.50000000  1
  F  F10  1  0.50000000  0.83151768  0.50000000  1
  F  F11  1  0.50000000  0.16848232  0.50000000  1
  F  F12  1  0.50000000  0.50000000  0.00000000  1
  F  F13  1  0.00000000  0.00000000  0.00000000  1
  Li  Li14  1  0.25596261  0.50000000  0.00000000  1
  Li  Li15  1  0.74403739  0.50000000  -0.00000000  1
  Li  Li16  1  0.50000000  0.25596261  -0.00000000  1
  Li  Li17  1  0.50000000  0.74403739  -0.00000000  1
  Li  Li18  1  0.23756915  0.23756915  0.50000000  1
  Li  Li19  1  0.76243085  0.76243085  0.50000000  1
  Li  Li20  1  0.76243085  0.23756915  0.50000000  1
  Li  Li21  1  0.23756915  0.76243085  0.50000000  1
  Li  Li22  1  0.50000000  0.50000000  0.50000000  1
  Li  Li23  1  0.67050419  0.00000000  -0.00000000  1
  Li  Li24  1  0.32949581  0.00000000  0.00000000  1
  Li  Li25  1  0.00000000  0.67050419  -0.00000000  1
  Li  Li26  1  0.00000000  0.32949581  0.00000000  1
  Li  Li27  1  0.00000000  0.00000000  0.50000000  1
