# generated using pymatgen
data_Li2As4P2Se
_symmetry_space_group_name_H-M   'P 1'
_cell_length_a   5.66034690
_cell_length_b   5.90442226
_cell_length_c   6.86225708
_cell_angle_alpha   92.05942708
_cell_angle_beta   95.11559602
_cell_angle_gamma   98.97468907
_symmetry_Int_Tables_number   1
_chemical_formula_structural   Li2As4P2Se
_chemical_formula_sum   'Li2 As4 P2 Se1'
_cell_volume   225.34413580
_cell_formula_units_Z   1
loop_
 _symmetry_equiv_pos_site_id
 _symmetry_equiv_pos_as_xyz
  1  'x, y, z'
loop_
 _atom_site_type_symbol
 _atom_site_label
 _atom_site_symmetry_multiplicity
 _atom_site_fract_x
 _atom_site_fract_y
 _atom_site_fract_z
 _atom_site_occupancy
  P  P0  1  0.00000000  0.00000000  0.00000000  1
  P  P1  1  0.50000000  0.50000000  0.50000000  1
  Se  Se2  1  0.25000000  0.25000000  0.25000000  1
  As  As3  1  0.75000000  0.25000000  0.00000000  1
  As  As4  1  0.25000000  0.75000000  0.50000000  1
  As  As5  1  0.22008036  0.63686329  0.00545052  1
  As  As6  1  0.99677413  0.01839542  0.53473567  1
  Li  Li7  1  0.95219157  0.02512804  0.01884496  1
  Li  Li8  1  0.48527635  0.55838622  0.09121295  1
