# generated using pymatgen
data_LiCaF3
_symmetry_space_group_name_H-M   'P 1'
_cell_length_a   10.77237662
_cell_length_b   10.77237662
_cell_length_c   11.80133844
_cell_angle_alpha   90.00000000
_cell_angle_beta   90.00000000
_cell_angle_gamma   120.00000000
_symmetry_Int_Tables_number   1
_chemical_formula_structural   LiCaF3
_chemical_formula_sum   'Li18 Ca18 F54'
_cell_volume   1186.00072337
_cell_formula_units_Z   18
loop_
 _symmetry_equiv_pos_site_id
 _symmetry_equiv_pos_as_xyz
  1  'x, y, z'
loop_
 _atom_site_type_symbol
 _atom_site_label
 _atom_site_symmetry_multiplicity
 _atom_site_fract_x
 _atom_site_fract_y
 _atom_site_fract_z
 _atom_site_occupancy
  Ca  Ca0  1  0.33333333  0.66666667  0.17697209  1
  Ca  Ca1  1  0.33333333  0.66666667  0.82302791  1
  Ca  Ca2  1  0.00000000  0.00000000  0.50000000  1
  Ca  Ca3  1  0.07590067  0.48258582  0.56309324  1
  Ca  Ca4  1  -0.48258582  -0.40668515  0.56309324  1
  Ca  Ca5  1  0.40668515  -0.07590067  0.56309324  1
  Ca  Ca6  1  -0.48258582  -0.07590067  -0.56309324  1
  Ca  Ca7  1  0.40668515  0.48258582  -0.56309324  1
  Ca  Ca8  1  0.07590067  -0.40668515  -0.56309324  1
  Ca  Ca9  1  0.47071056  0.33706384  0.37773784  1
  Ca  Ca10  1  0.66293616  0.13364672  0.37773784  1
  Ca  Ca11  1  0.86635328  0.52928944  0.37773784  1
  Ca  Ca12  1  0.66293616  0.52928944  0.62226216  1
  Ca  Ca13  1  0.86635328  0.33706384  0.62226216  1
  Ca  Ca14  1  0.47071056  0.13364672  0.62226216  1
  Ca  Ca15  1  0.72806612  0.27193388  0.50000000  1
  Ca  Ca16  1  0.72806612  0.45613224  0.50000000  1
  Ca  Ca17  1  0.54386776  0.27193388  0.50000000  1
  F  F18  1  0.31489707  0.95185834  0.65616005  1
  F  F19  1  0.04814166  0.36303873  0.65616005  1
  F  F20  1  0.63696127  0.68510293  0.65616005  1
  F  F21  1  0.04814166  0.68510293  0.34383995  1
  F  F22  1  0.63696127  0.95185834  0.34383995  1
  F  F23  1  0.31489707  0.36303873  0.34383995  1
  F  F24  1  0.27905124  0.82846589  0.60999993  1
  F  F25  1  0.17153411  0.45058535  0.60999993  1
  F  F26  1  0.54941465  0.72094876  0.60999993  1
  F  F27  1  0.17153411  0.72094876  0.39000007  1
  F  F28  1  0.54941465  0.82846589  0.39000007  1
  F  F29  1  0.27905124  0.45058535  0.39000007  1
  F  F30  1  0.66666667  0.33333333  0.53083357  1
  F  F31  1  0.66666667  0.33333333  0.46916643  1
  F  F32  1  0.66666667  0.33333333  0.70935262  1
  F  F33  1  0.66666667  0.33333333  0.29064738  1
  F  F34  1  0.00000000  0.00000000  0.93589885  1
  F  F35  1  0.00000000  0.00000000  0.06410115  1
  F  F36  1  0.53681392  0.78461694  0.14787041  1
  F  F37  1  0.21538306  0.75219698  0.14787041  1
  F  F38  1  0.24780302  0.46318608  0.14787041  1
  F  F39  1  0.21538306  0.46318608  0.85212959  1
  F  F40  1  0.24780302  0.78461694  0.85212959  1
  F  F41  1  0.53681392  0.75219698  0.85212959  1
  F  F42  1  0.23878072  0.85302651  0.94933387  1
  F  F43  1  0.14697349  0.38575421  0.94933387  1
  F  F44  1  0.61424579  0.76121928  0.94933387  1
  F  F45  1  0.14697349  0.76121928  0.05066613  1
  F  F46  1  0.61424579  0.85302651  0.05066613  1
  F  F47  1  0.23878072  0.38575421  0.05066613  1
  F  F48  1  0.66901439  0.78497181  0.86695126  1
  F  F49  1  0.21502819  0.88404258  0.86695126  1
  F  F50  1  0.11595742  0.33098561  0.86695126  1
  F  F51  1  0.21502819  0.33098561  0.13304874  1
  F  F52  1  0.11595742  0.78497181  0.13304874  1
  F  F53  1  0.66901439  0.88404258  0.13304874  1
  F  F54  1  0.25728255  0.74271745  0.00000000  1
  F  F55  1  0.25728255  0.51456510  0.00000000  1
  F  F56  1  0.48543490  0.74271745  0.00000000  1
  F  F57  1  0.33333333  0.66666667  0.50000000  1
  F  F58  1  0.44460800  0.49008857  0.83608858  1
  F  F59  1  0.50991143  0.95451942  0.83608858  1
  F  F60  1  0.04548058  0.55539200  0.83608858  1
  F  F61  1  0.50991143  0.55539200  0.16391142  1
  F  F62  1  0.04548058  0.49008857  0.16391142  1
  F  F63  1  0.44460800  0.95451942  0.16391142  1
  F  F64  1  0.51333174  0.48666826  0.50000000  1
  F  F65  1  0.51333174  0.02666348  0.50000000  1
  F  F66  1  0.97333652  0.48666826  0.50000000  1
  F  F67  1  0.88489529  0.11510471  0.00000000  1
  F  F68  1  0.88489529  0.76979057  0.00000000  1
  F  F69  1  0.23020943  0.11510471  -0.00000000  1
  F  F70  1  0.33333333  0.66666667  0.04913519  1
  F  F71  1  0.33333333  0.66666667  0.95086481  1
  Li  Li72  1  0.25257200  0.17158400  0.25384875  1
  Li  Li73  1  0.82841600  0.08098800  0.25384875  1
  Li  Li74  1  0.91901200  0.74742800  0.25384875  1
  Li  Li75  1  0.82841600  0.74742800  0.74615125  1
  Li  Li76  1  0.91901200  0.17158400  0.74615125  1
  Li  Li77  1  0.25257200  0.08098800  0.74615125  1
  Li  Li78  1  0.51857073  0.36453860  0.14887711  1
  Li  Li79  1  0.63546140  0.15403212  0.14887711  1
  Li  Li80  1  0.84596788  0.48142927  0.14887711  1
  Li  Li81  1  0.63546140  0.48142927  0.85112289  1
  Li  Li82  1  0.84596788  0.36453860  0.85112289  1
  Li  Li83  1  0.51857073  0.15403212  0.85112289  1
  Li  Li84  1  0.89725497  0.60445017  0.67963232  1
  Li  Li85  1  0.39554983  0.29280481  0.67963232  1
  Li  Li86  1  0.70719519  0.10274503  0.67963232  1
  Li  Li87  1  0.39554983  0.10274503  0.32036768  1
  Li  Li88  1  0.70719519  0.60445017  0.32036768  1
  Li  Li89  1  0.89725497  0.29280481  0.32036768  1
