# generated using pymatgen
data_LiY2MoP2
_symmetry_space_group_name_H-M   'P 1'
_cell_length_a   4.96542754
_cell_length_b   5.21185810
_cell_length_c   6.97903384
_cell_angle_alpha   94.69094258
_cell_angle_beta   99.46770284
_cell_angle_gamma   107.66828440
_symmetry_Int_Tables_number   1
_chemical_formula_structural   LiY2MoP2
_chemical_formula_sum   'Li1 Y2 Mo1 P2'
_cell_volume   168.07252001
_cell_formula_units_Z   1
loop_
 _symmetry_equiv_pos_site_id
 _symmetry_equiv_pos_as_xyz
  1  'x, y, z'
loop_
 _atom_site_type_symbol
 _atom_site_label
 _atom_site_symmetry_multiplicity
 _atom_site_fract_x
 _atom_site_fract_y
 _atom_site_fract_z
 _atom_site_occupancy
  Y  Y0  1  0.00000000  0.00000000  0.00000000  1
  Y  Y1  1  0.33300000  0.66700000  0.25000000  1
  P  P2  1  0.66700000  0.33300000  0.50000000  1
  P  P3  1  0.00000000  0.00000000  0.75000000  1
  Mo  Mo4  1  0.92534733  0.54161037  0.19082420  1
  Li  Li5  1  0.94933217  0.16840207  0.44597760  1
