# generated using pymatgen
data_LiF
_symmetry_space_group_name_H-M   'P 1'
_cell_length_a   10.27342691
_cell_length_b   10.27342691
_cell_length_c   22.54660946
_cell_angle_alpha   90.00000000
_cell_angle_beta   90.00000000
_cell_angle_gamma   90.00000000
_symmetry_Int_Tables_number   1
_chemical_formula_structural   LiF
_chemical_formula_sum   'Li64 F64'
_cell_volume   2379.64357621
_cell_formula_units_Z   64
loop_
 _symmetry_equiv_pos_site_id
 _symmetry_equiv_pos_as_xyz
  1  'x, y, z'
loop_
 _atom_site_type_symbol
 _atom_site_label
 _atom_site_symmetry_multiplicity
 _atom_site_fract_x
 _atom_site_fract_y
 _atom_site_fract_z
 _atom_site_occupancy
  F  F0  1  0.00000000  0.25000000  0.31016127  1
  F  F1  1  0.00000000  0.75000000  0.56016127  1
  F  F2  1  0.50000000  0.25000000  0.68983873  1
  F  F3  1  0.50000000  0.75000000  0.43983873  1
  F  F4  1  0.00000000  0.75000000  0.68983873  1
  F  F5  1  0.00000000  0.25000000  0.43983873  1
  F  F6  1  0.50000000  0.75000000  0.31016127  1
  F  F7  1  0.50000000  0.25000000  0.56016127  1
  F  F8  1  0.50000000  0.75000000  0.81016127  1
  F  F9  1  0.50000000  0.25000000  0.06016127  1
  F  F10  1  0.00000000  0.75000000  0.18983873  1
  F  F11  1  0.00000000  0.25000000  0.93983873  1
  F  F12  1  0.50000000  0.25000000  0.18983873  1
  F  F13  1  0.50000000  0.75000000  0.93983873  1
  F  F14  1  0.00000000  0.25000000  0.81016127  1
  F  F15  1  0.00000000  0.75000000  0.06016127  1
  F  F16  1  0.65799349  -0.00000000  0.25000000  1
  F  F17  1  0.84200651  -0.00000000  0.75000000  1
  F  F18  1  0.25000000  0.40799349  0.50000000  1
  F  F19  1  0.25000000  0.59200651  0.00000000  1
  F  F20  1  0.34200651  -0.00000000  0.75000000  1
  F  F21  1  0.15799349  -0.00000000  0.25000000  1
  F  F22  1  0.75000000  0.59200651  0.50000000  1
  F  F23  1  0.75000000  0.40799349  0.00000000  1
  F  F24  1  0.15799349  0.50000000  0.75000000  1
  F  F25  1  0.34200651  0.50000000  0.25000000  1
  F  F26  1  0.75000000  0.90799349  0.00000000  1
  F  F27  1  0.75000000  0.09200651  0.50000000  1
  F  F28  1  0.84200651  0.50000000  0.25000000  1
  F  F29  1  0.65799349  0.50000000  0.75000000  1
  F  F30  1  0.25000000  0.09200651  0.00000000  1
  F  F31  1  0.25000000  0.90799349  0.50000000  1
  F  F32  1  0.43684844  0.41740136  0.02695664  1
  F  F33  1  0.06315156  -0.41740136  0.52695664  1
  F  F34  1  -0.16740136  1.18684844  0.27695664  1
  F  F35  1  0.66740136  -0.18684844  0.77695664  1
  F  F36  1  0.06315156  0.41740136  -0.02695664  1
  F  F37  1  0.43684844  -0.41740136  0.47304336  1
  F  F38  1  0.66740136  1.18684844  0.72304336  1
  F  F39  1  -0.16740136  -0.18684844  0.22304336  1
  F  F40  1  -0.43684844  -0.41740136  -0.02695664  1
  F  F41  1  0.93684844  0.41740136  0.47304336  1
  F  F42  1  1.16740136  -0.18684844  0.72304336  1
  F  F43  1  0.33259864  1.18684844  0.22304336  1
  F  F44  1  0.93684844  -0.41740136  0.02695664  1
  F  F45  1  -0.43684844  0.41740136  0.52695664  1
  F  F46  1  0.33259864  -0.18684844  0.27695664  1
  F  F47  1  1.16740136  1.18684844  0.77695664  1
  F  F48  1  0.93684844  0.91740136  0.52695664  1
  F  F49  1  0.56315156  0.08259864  1.02695664  1
  F  F50  1  0.33259864  1.68684844  0.77695664  1
  F  F51  1  1.16740136  0.31315156  1.27695664  1
  F  F52  1  0.56315156  0.91740136  0.47304336  1
  F  F53  1  0.93684844  0.08259864  0.97304336  1
  F  F54  1  1.16740136  1.68684844  1.22304336  1
  F  F55  1  0.33259864  0.31315156  0.72304336  1
  F  F56  1  0.06315156  0.08259864  0.47304336  1
  F  F57  1  1.43684844  0.91740136  0.97304336  1
  F  F58  1  1.66740136  0.31315156  1.22304336  1
  F  F59  1  0.83259864  1.68684844  0.72304336  1
  F  F60  1  1.43684844  0.08259864  0.52695664  1
  F  F61  1  0.06315156  0.91740136  1.02695664  1
  F  F62  1  0.83259864  0.31315156  0.77695664  1
  F  F63  1  1.66740136  1.68684844  1.27695664  1
  Li  Li64  1  0.09319453  0.89470924  0.45311284  1
  Li  Li65  1  0.40680547  0.10529076  0.95311284  1
  Li  Li66  1  0.35529076  0.84319453  0.70311284  1
  Li  Li67  1  0.14470924  0.15680547  0.20311284  1
  Li  Li68  1  0.40680547  0.89470924  0.54688716  1
  Li  Li69  1  0.09319453  0.10529076  0.04688716  1
  Li  Li70  1  0.14470924  0.84319453  0.29688716  1
  Li  Li71  1  0.35529076  0.15680547  0.79688716  1
  Li  Li72  1  0.90680547  0.10529076  0.54688716  1
  Li  Li73  1  0.59319453  0.89470924  0.04688716  1
  Li  Li74  1  0.64470924  0.15680547  0.29688716  1
  Li  Li75  1  0.85529076  0.84319453  0.79688716  1
  Li  Li76  1  0.59319453  0.10529076  0.45311284  1
  Li  Li77  1  0.90680547  0.89470924  0.95311284  1
  Li  Li78  1  0.85529076  0.15680547  0.70311284  1
  Li  Li79  1  0.64470924  0.84319453  0.20311284  1
  Li  Li80  1  0.59319453  0.39470924  0.95311284  1
  Li  Li81  1  0.90680547  0.60529076  0.45311284  1
  Li  Li82  1  0.85529076  0.34319453  0.20311284  1
  Li  Li83  1  0.64470924  0.65680547  0.70311284  1
  Li  Li84  1  0.90680547  0.39470924  0.04688716  1
  Li  Li85  1  0.59319453  0.60529076  0.54688716  1
  Li  Li86  1  0.64470924  0.34319453  0.79688716  1
  Li  Li87  1  0.85529076  0.65680547  0.29688716  1
  Li  Li88  1  0.40680547  0.60529076  0.04688716  1
  Li  Li89  1  0.09319453  0.39470924  0.54688716  1
  Li  Li90  1  0.14470924  0.65680547  0.79688716  1
  Li  Li91  1  0.35529076  0.34319453  0.29688716  1
  Li  Li92  1  0.09319453  0.60529076  0.95311284  1
  Li  Li93  1  0.40680547  0.39470924  0.45311284  1
  Li  Li94  1  0.35529076  0.65680547  0.20311284  1
  Li  Li95  1  0.14470924  0.34319453  0.70311284  1
  Li  Li96  1  0.25657226  0.44885749  0.76706242  1
  Li  Li97  1  0.24342774  0.55114251  0.26706242  1
  Li  Li98  1  0.80114251  0.00657226  0.01706242  1
  Li  Li99  1  0.69885749  0.99342774  0.51706242  1
  Li  Li100  1  0.24342774  0.44885749  0.23293758  1
  Li  Li101  1  0.25657226  0.55114251  0.73293758  1
  Li  Li102  1  0.69885749  0.00657226  0.98293758  1
  Li  Li103  1  0.80114251  0.99342774  0.48293758  1
  Li  Li104  1  0.74342774  0.55114251  0.23293758  1
  Li  Li105  1  0.75657226  0.44885749  0.73293758  1
  Li  Li106  1  0.19885749  0.99342774  0.98293758  1
  Li  Li107  1  0.30114251  0.00657226  0.48293758  1
  Li  Li108  1  0.75657226  0.55114251  0.76706242  1
  Li  Li109  1  0.74342774  0.44885749  0.26706242  1
  Li  Li110  1  0.30114251  0.99342774  0.01706242  1
  Li  Li111  1  0.19885749  0.00657226  0.51706242  1
  Li  Li112  1  0.75657226  0.94885749  0.26706242  1
  Li  Li113  1  0.74342774  0.05114251  0.76706242  1
  Li  Li114  1  0.30114251  0.50657226  0.51706242  1
  Li  Li115  1  0.19885749  0.49342774  0.01706242  1
  Li  Li116  1  0.74342774  0.94885749  0.73293758  1
  Li  Li117  1  0.75657226  0.05114251  0.23293758  1
  Li  Li118  1  0.19885749  0.50657226  0.48293758  1
  Li  Li119  1  0.30114251  0.49342774  0.98293758  1
  Li  Li120  1  0.24342774  0.05114251  0.73293758  1
  Li  Li121  1  0.25657226  0.94885749  0.23293758  1
  Li  Li122  1  0.69885749  0.49342774  0.48293758  1
  Li  Li123  1  0.80114251  0.50657226  0.98293758  1
  Li  Li124  1  0.25657226  0.05114251  0.26706242  1
  Li  Li125  1  0.24342774  0.94885749  0.76706242  1
  Li  Li126  1  0.80114251  0.49342774  0.51706242  1
  Li  Li127  1  0.69885749  0.50657226  0.01706242  1
