# generated using pymatgen
data_Li2Si4Te3F12
_symmetry_space_group_name_H-M   'P 1'
_cell_length_a   8.49466351
_cell_length_b   8.49466351
_cell_length_c   25.47827986
_cell_angle_alpha   90.00000000
_cell_angle_beta   90.00000000
_cell_angle_gamma   120.00000000
_symmetry_Int_Tables_number   1
_chemical_formula_structural   Li2Si4Te3F12
_chemical_formula_sum   'Li8 Si16 Te12 F48'
_cell_volume   1592.18341762
_cell_formula_units_Z   4
loop_
 _symmetry_equiv_pos_site_id
 _symmetry_equiv_pos_as_xyz
  1  'x, y, z'
loop_
 _atom_site_type_symbol
 _atom_site_label
 _atom_site_symmetry_multiplicity
 _atom_site_fract_x
 _atom_site_fract_y
 _atom_site_fract_z
 _atom_site_occupancy
  F  F0  1  0.66666667  0.33333333  0.25000000  1
  F  F1  1  0.33333333  0.66666667  0.75000000  1
  F  F2  1  0.33333333  0.66666667  0.22322019  1
  F  F3  1  0.66666667  0.33333333  0.72322019  1
  F  F4  1  0.66666667  0.33333333  0.77677981  1
  F  F5  1  0.33333333  0.66666667  0.27677981  1
  F  F6  1  0.82865873  0.56748537  0.76662079  1
  F  F7  1  0.43251463  0.26117336  0.76662079  1
  F  F8  1  0.73882664  0.17134127  0.76662079  1
  F  F9  1  0.17134127  0.43251463  0.26662079  1
  F  F10  1  0.56748537  0.73882664  0.26662079  1
  F  F11  1  0.26117336  0.82865873  0.26662079  1
  F  F12  1  0.17134127  0.43251463  0.23337921  1
  F  F13  1  0.56748537  0.73882664  0.23337921  1
  F  F14  1  0.26117336  0.82865873  0.23337921  1
  F  F15  1  0.82865873  0.56748537  0.73337921  1
  F  F16  1  0.43251463  0.26117336  0.73337921  1
  F  F17  1  0.73882664  0.17134127  0.73337921  1
  F  F18  1  0.00723879  0.96453481  0.06330458  1
  F  F19  1  0.03546519  0.04270398  0.06330458  1
  F  F20  1  0.95729602  0.99276121  0.06330458  1
  F  F21  1  0.99276121  0.03546519  0.56330458  1
  F  F22  1  0.96453481  0.95729602  0.56330458  1
  F  F23  1  0.04270398  0.00723879  0.56330458  1
  F  F24  1  0.99276121  0.03546519  0.93669542  1
  F  F25  1  0.96453481  0.95729602  0.93669542  1
  F  F26  1  0.04270398  0.00723879  0.93669542  1
  F  F27  1  0.00723879  0.96453481  0.43669542  1
  F  F28  1  0.03546519  0.04270398  0.43669542  1
  F  F29  1  0.95729602  0.99276121  0.43669542  1
  F  F30  1  0.52165312  0.41115537  0.72328815  1
  F  F31  1  0.58884463  0.11049775  0.72328815  1
  F  F32  1  0.88950225  0.47834688  0.72328815  1
  F  F33  1  0.47834688  0.58884463  0.22328815  1
  F  F34  1  0.41115537  0.88950225  0.22328815  1
  F  F35  1  0.11049775  0.52165312  0.22328815  1
  F  F36  1  0.47834688  0.58884463  0.27671185  1
  F  F37  1  0.41115537  0.88950225  0.27671185  1
  F  F38  1  0.11049775  0.52165312  0.27671185  1
  F  F39  1  0.52165312  0.41115537  0.77671185  1
  F  F40  1  0.58884463  0.11049775  0.77671185  1
  F  F41  1  0.88950225  0.47834688  0.77671185  1
  F  F42  1  0.33333333  0.66666667  0.25000000  1
  F  F43  1  0.66666667  0.33333333  0.75000000  1
  F  F44  1  0.00000000  0.00000000  0.35105182  1
  F  F45  1  0.00000000  0.00000000  0.85105182  1
  F  F46  1  0.00000000  0.00000000  0.64894818  1
  F  F47  1  0.00000000  0.00000000  0.14894818  1
  Li  Li48  1  0.62186856  0.20600522  0.25000000  1
  Li  Li49  1  0.79399478  0.41586334  0.25000000  1
  Li  Li50  1  0.58413666  0.37813144  0.25000000  1
  Li  Li51  1  0.37813144  0.79399478  0.75000000  1
  Li  Li52  1  0.20600522  0.58413666  0.75000000  1
  Li  Li53  1  0.41586334  0.62186856  0.75000000  1
  Li  Li54  1  0.00000000  0.00000000  0.25000000  1
  Li  Li55  1  0.00000000  0.00000000  0.75000000  1
  Si  Si56  1  0.37934073  0.99949045  0.58842172  1
  Si  Si57  1  0.00050955  0.37985028  0.58842172  1
  Si  Si58  1  0.62014972  0.62065927  0.58842172  1
  Si  Si59  1  0.62065927  0.00050955  0.08842172  1
  Si  Si60  1  0.99949045  0.62014972  0.08842172  1
  Si  Si61  1  0.37985028  0.37934073  0.08842172  1
  Si  Si62  1  0.62065927  0.00050955  0.41157828  1
  Si  Si63  1  0.99949045  0.62014972  0.41157828  1
  Si  Si64  1  0.37985028  0.37934073  0.41157828  1
  Si  Si65  1  0.37934073  0.99949045  0.91157828  1
  Si  Si66  1  0.00050955  0.37985028  0.91157828  1
  Si  Si67  1  0.62014972  0.62065927  0.91157828  1
  Si  Si68  1  0.00000000  0.00000000  0.69331674  1
  Si  Si69  1  0.00000000  0.00000000  0.19331674  1
  Si  Si70  1  0.00000000  0.00000000  0.30668326  1
  Si  Si71  1  0.00000000  0.00000000  0.80668326  1
  Te  Te72  1  0.07984121  0.80983896  0.59734203  1
  Te  Te73  1  -0.80983896  -0.72999775  0.59734203  1
  Te  Te74  1  0.72999775  -0.07984121  0.59734203  1
  Te  Te75  1  -0.07984121  -0.80983896  1.09734203  1
  Te  Te76  1  0.80983896  0.72999775  1.09734203  1
  Te  Te77  1  -0.72999775  0.07984121  1.09734203  1
  Te  Te78  1  -0.07984121  -0.80983896  -0.59734203  1
  Te  Te79  1  0.80983896  0.72999775  -0.59734203  1
  Te  Te80  1  -0.72999775  0.07984121  -0.59734203  1
  Te  Te81  1  0.07984121  0.80983896  -0.09734203  1
  Te  Te82  1  -0.80983896  -0.72999775  -0.09734203  1
  Te  Te83  1  0.72999775  -0.07984121  -0.09734203  1
