# generated using pymatgen
data_Li2Y2MoP3Se2
_symmetry_space_group_name_H-M   'P 1'
_cell_length_a   5.11098248
_cell_length_b   5.43198380
_cell_length_c   7.20352457
_cell_angle_alpha   94.58328702
_cell_angle_beta   99.98144627
_cell_angle_gamma   108.40924235
_symmetry_Int_Tables_number   1
_chemical_formula_structural   Li2Y2MoP3Se2
_chemical_formula_sum   'Li2 Y2 Mo1 P3 Se2'
_cell_volume   184.93303622
_cell_formula_units_Z   1
loop_
 _symmetry_equiv_pos_site_id
 _symmetry_equiv_pos_as_xyz
  1  'x, y, z'
loop_
 _atom_site_type_symbol
 _atom_site_label
 _atom_site_symmetry_multiplicity
 _atom_site_fract_x
 _atom_site_fract_y
 _atom_site_fract_z
 _atom_site_occupancy
  Se  Se0  1  0.12500000  0.00000000  0.25000000  1
  Se  Se1  1  0.00000000  0.00000000  0.00000000  1
  Y  Y2  1  0.37500000  0.00000000  0.25000000  1
  Y  Y3  1  0.25000000  0.25000000  0.25000000  1
  P  P4  1  0.00000000  0.25000000  0.12500000  1
  P  P5  1  0.05189149  0.63064181  0.42431232  1
  P  P6  1  0.69091768  0.18896404  0.33583531  1
  Mo  Mo7  1  0.23673069  0.12934689  0.12756880  1
  Li  Li8  1  0.00805341  0.26494307  0.19378674  1
  Li  Li9  1  0.62080551  0.83110163  0.66467966  1
