# generated using pymatgen
data_K2Li3Ti2O6F
_symmetry_space_group_name_H-M   'P 1'
_cell_length_a   15.73153968
_cell_length_b   15.73153968
_cell_length_c   15.73153968
_cell_angle_alpha   90.00000000
_cell_angle_beta   90.00000000
_cell_angle_gamma   90.00000000
_symmetry_Int_Tables_number   1
_chemical_formula_structural   K2Li3Ti2O6F
_chemical_formula_sum   'K32 Li48 Ti32 O96 F16'
_cell_volume   3893.26252769
_cell_formula_units_Z   16
loop_
 _symmetry_equiv_pos_site_id
 _symmetry_equiv_pos_as_xyz
  1  'x, y, z'
loop_
 _atom_site_type_symbol
 _atom_site_label
 _atom_site_symmetry_multiplicity
 _atom_site_fract_x
 _atom_site_fract_y
 _atom_site_fract_z
 _atom_site_occupancy
  F  F0  1  0.00000000  0.00000000  0.00000000  1
  F  F1  1  0.75000000  0.25000000  0.50000000  1
  F  F2  1  0.25000000  0.50000000  0.75000000  1
  F  F3  1  0.50000000  0.75000000  0.25000000  1
  F  F4  1  0.00000000  0.50000000  0.50000000  1
  F  F5  1  0.75000000  0.75000000  -0.00000000  1
  F  F6  1  0.25000000  0.00000000  0.25000000  1
  F  F7  1  0.50000000  0.25000000  0.75000000  1
  F  F8  1  0.50000000  0.00000000  0.50000000  1
  F  F9  1  0.25000000  0.25000000  -0.00000000  1
  F  F10  1  0.75000000  0.50000000  0.25000000  1
  F  F11  1  0.00000000  0.75000000  0.75000000  1
  F  F12  1  0.50000000  0.50000000  -0.00000000  1
  F  F13  1  0.25000000  0.75000000  0.50000000  1
  F  F14  1  0.75000000  -0.00000000  0.75000000  1
  F  F15  1  0.00000000  0.25000000  0.25000000  1
  K  K16  1  0.25643906  0.25643906  0.25643906  1
  K  K17  1  0.49356094  0.99356094  0.75643906  1
  K  K18  1  0.99356094  0.75643906  0.49356094  1
  K  K19  1  0.75643906  0.49356094  0.99356094  1
  K  K20  1  0.00643906  0.50643906  0.24356094  1
  K  K21  1  0.74356094  0.74356094  0.74356094  1
  K  K22  1  0.50643906  0.24356094  0.00643906  1
  K  K23  1  0.24356094  0.00643906  0.50643906  1
  K  K24  1  0.25643906  0.75643906  0.75643906  1
  K  K25  1  0.49356094  0.49356094  0.25643906  1
  K  K26  1  0.99356094  0.25643906  0.99356094  1
  K  K27  1  0.75643906  0.99356094  0.49356094  1
  K  K28  1  0.00643906  0.00643906  0.74356094  1
  K  K29  1  0.74356094  0.24356094  0.24356094  1
  K  K30  1  0.50643906  0.74356094  0.50643906  1
  K  K31  1  0.24356094  0.50643906  0.00643906  1
  K  K32  1  0.75643906  0.25643906  0.75643906  1
  K  K33  1  0.99356094  0.99356094  0.25643906  1
  K  K34  1  0.49356094  0.75643906  0.99356094  1
  K  K35  1  0.25643906  0.49356094  0.49356094  1
  K  K36  1  0.50643906  0.50643906  0.74356094  1
  K  K37  1  0.24356094  0.74356094  0.24356094  1
  K  K38  1  0.00643906  0.24356094  0.50643906  1
  K  K39  1  0.74356094  0.00643906  0.00643906  1
  K  K40  1  0.75643906  0.75643906  0.25643906  1
  K  K41  1  0.99356094  0.49356094  0.75643906  1
  K  K42  1  0.49356094  0.25643906  0.49356094  1
  K  K43  1  0.25643906  0.99356094  0.99356094  1
  K  K44  1  0.50643906  0.00643906  0.24356094  1
  K  K45  1  0.24356094  0.24356094  0.74356094  1
  K  K46  1  0.00643906  0.74356094  0.00643906  1
  K  K47  1  0.74356094  0.50643906  0.50643906  1
  Li  Li48  1  0.27355011  0.12500000  0.12500000  1
  Li  Li49  1  0.47644989  0.12500000  0.62500000  1
  Li  Li50  1  0.12500000  0.27355011  0.12500000  1
  Li  Li51  1  0.62500000  0.47644989  0.12500000  1
  Li  Li52  1  0.12500000  0.12500000  0.27355011  1
  Li  Li53  1  0.12500000  0.62500000  0.47644989  1
  Li  Li54  1  0.87500000  0.52355011  0.37500000  1
  Li  Li55  1  0.87500000  0.72644989  0.87500000  1
  Li  Li56  1  0.02355011  0.37500000  0.37500000  1
  Li  Li57  1  0.22644989  0.87500000  0.37500000  1
  Li  Li58  1  0.87500000  0.37500000  0.22644989  1
  Li  Li59  1  0.37500000  0.37500000  0.02355011  1
  Li  Li60  1  0.27355011  0.62500000  0.62500000  1
  Li  Li61  1  0.47644989  0.62500000  0.12500000  1
  Li  Li62  1  0.12500000  0.77355011  0.62500000  1
  Li  Li63  1  0.62500000  0.97644989  0.62500000  1
  Li  Li64  1  0.12500000  0.62500000  0.77355011  1
  Li  Li65  1  0.12500000  0.12500000  0.97644989  1
  Li  Li66  1  0.87500000  0.02355011  0.87500000  1
  Li  Li67  1  0.87500000  0.22644989  0.37500000  1
  Li  Li68  1  0.02355011  0.87500000  0.87500000  1
  Li  Li69  1  0.22644989  0.37500000  0.87500000  1
  Li  Li70  1  0.87500000  0.87500000  0.72644989  1
  Li  Li71  1  0.37500000  0.87500000  0.52355011  1
  Li  Li72  1  0.77355011  0.12500000  0.62500000  1
  Li  Li73  1  0.97644989  0.12500000  0.12500000  1
  Li  Li74  1  0.62500000  0.27355011  0.62500000  1
  Li  Li75  1  0.12500000  0.47644989  0.62500000  1
  Li  Li76  1  0.62500000  0.12500000  0.77355011  1
  Li  Li77  1  0.62500000  0.62500000  0.97644989  1
  Li  Li78  1  0.37500000  0.52355011  0.87500000  1
  Li  Li79  1  0.37500000  0.72644989  0.37500000  1
  Li  Li80  1  0.52355011  0.37500000  0.87500000  1
  Li  Li81  1  0.72644989  0.87500000  0.87500000  1
  Li  Li82  1  0.37500000  0.37500000  0.72644989  1
  Li  Li83  1  0.87500000  0.37500000  0.52355011  1
  Li  Li84  1  0.77355011  0.62500000  0.12500000  1
  Li  Li85  1  0.97644989  0.62500000  0.62500000  1
  Li  Li86  1  0.62500000  0.77355011  0.12500000  1
  Li  Li87  1  0.12500000  0.97644989  0.12500000  1
  Li  Li88  1  0.62500000  0.62500000  0.27355011  1
  Li  Li89  1  0.62500000  0.12500000  0.47644989  1
  Li  Li90  1  0.37500000  0.02355011  0.37500000  1
  Li  Li91  1  0.37500000  0.22644989  0.87500000  1
  Li  Li92  1  0.52355011  0.87500000  0.37500000  1
  Li  Li93  1  0.72644989  0.37500000  0.37500000  1
  Li  Li94  1  0.37500000  0.87500000  0.22644989  1
  Li  Li95  1  0.87500000  0.87500000  0.02355011  1
  O  O96  1  0.00000000  0.30916405  -0.30916405  1
  O  O97  1  0.75000000  -0.05916405  0.19083595  1
  O  O98  1  0.25000000  0.80916405  1.05916405  1
  O  O99  1  0.50000000  0.44083595  0.55916405  1
  O  O100  1  -0.30916405  0.00000000  0.30916405  1
  O  O101  1  0.19083595  0.75000000  -0.05916405  1
  O  O102  1  1.05916405  0.25000000  0.80916405  1
  O  O103  1  0.55916405  0.50000000  0.44083595  1
  O  O104  1  0.30916405  -0.30916405  0.00000000  1
  O  O105  1  -0.05916405  0.19083595  0.75000000  1
  O  O106  1  0.80916405  1.05916405  0.25000000  1
  O  O107  1  0.44083595  0.55916405  0.50000000  1
  O  O108  1  0.00000000  -0.30916405  0.30916405  1
  O  O109  1  0.25000000  1.05916405  0.80916405  1
  O  O110  1  0.75000000  0.19083595  -0.05916405  1
  O  O111  1  0.50000000  0.55916405  0.44083595  1
  O  O112  1  0.30916405  0.00000000  -0.30916405  1
  O  O113  1  0.80916405  0.25000000  1.05916405  1
  O  O114  1  -0.05916405  0.75000000  0.19083595  1
  O  O115  1  0.44083595  0.50000000  0.55916405  1
  O  O116  1  -0.30916405  0.30916405  0.00000000  1
  O  O117  1  1.05916405  0.80916405  0.25000000  1
  O  O118  1  0.19083595  -0.05916405  0.75000000  1
  O  O119  1  0.55916405  0.44083595  0.50000000  1
  O  O120  1  0.00000000  0.80916405  0.19083595  1
  O  O121  1  0.75000000  0.44083595  0.69083595  1
  O  O122  1  0.25000000  1.30916405  1.55916405  1
  O  O123  1  0.50000000  0.94083595  1.05916405  1
  O  O124  1  -0.30916405  0.50000000  0.80916405  1
  O  O125  1  0.19083595  1.25000000  0.44083595  1
  O  O126  1  1.05916405  0.75000000  1.30916405  1
  O  O127  1  0.55916405  1.00000000  0.94083595  1
  O  O128  1  0.30916405  0.19083595  0.50000000  1
  O  O129  1  -0.05916405  0.69083595  1.25000000  1
  O  O130  1  0.80916405  1.55916405  0.75000000  1
  O  O131  1  0.44083595  1.05916405  1.00000000  1
  O  O132  1  0.00000000  0.19083595  0.80916405  1
  O  O133  1  0.25000000  1.55916405  1.30916405  1
  O  O134  1  0.75000000  0.69083595  0.44083595  1
  O  O135  1  0.50000000  1.05916405  0.94083595  1
  O  O136  1  0.30916405  0.50000000  0.19083595  1
  O  O137  1  0.80916405  0.75000000  1.55916405  1
  O  O138  1  -0.05916405  1.25000000  0.69083595  1
  O  O139  1  0.44083595  1.00000000  1.05916405  1
  O  O140  1  -0.30916405  0.80916405  0.50000000  1
  O  O141  1  1.05916405  1.30916405  0.75000000  1
  O  O142  1  0.19083595  0.44083595  1.25000000  1
  O  O143  1  0.55916405  0.94083595  1.00000000  1
  O  O144  1  0.50000000  0.30916405  0.19083595  1
  O  O145  1  1.25000000  -0.05916405  0.69083595  1
  O  O146  1  0.75000000  0.80916405  1.55916405  1
  O  O147  1  1.00000000  0.44083595  1.05916405  1
  O  O148  1  0.19083595  0.00000000  0.80916405  1
  O  O149  1  0.69083595  0.75000000  0.44083595  1
  O  O150  1  1.55916405  0.25000000  1.30916405  1
  O  O151  1  1.05916405  0.50000000  0.94083595  1
  O  O152  1  0.80916405  -0.30916405  0.50000000  1
  O  O153  1  0.44083595  0.19083595  1.25000000  1
  O  O154  1  1.30916405  1.05916405  0.75000000  1
  O  O155  1  0.94083595  0.55916405  1.00000000  1
  O  O156  1  0.50000000  -0.30916405  0.80916405  1
  O  O157  1  0.75000000  1.05916405  1.30916405  1
  O  O158  1  1.25000000  0.19083595  0.44083595  1
  O  O159  1  1.00000000  0.55916405  0.94083595  1
  O  O160  1  0.80916405  -0.00000000  0.19083595  1
  O  O161  1  1.30916405  0.25000000  1.55916405  1
  O  O162  1  0.44083595  0.75000000  0.69083595  1
  O  O163  1  0.94083595  0.50000000  1.05916405  1
  O  O164  1  0.19083595  0.30916405  0.50000000  1
  O  O165  1  1.55916405  0.80916405  0.75000000  1
  O  O166  1  0.69083595  -0.05916405  1.25000000  1
  O  O167  1  1.05916405  0.44083595  1.00000000  1
  O  O168  1  0.50000000  0.80916405  -0.30916405  1
  O  O169  1  1.25000000  0.44083595  0.19083595  1
  O  O170  1  0.75000000  1.30916405  1.05916405  1
  O  O171  1  1.00000000  0.94083595  0.55916405  1
  O  O172  1  0.19083595  0.50000000  0.30916405  1
  O  O173  1  0.69083595  1.25000000  -0.05916405  1
  O  O174  1  1.55916405  0.75000000  0.80916405  1
  O  O175  1  1.05916405  1.00000000  0.44083595  1
  O  O176  1  0.80916405  0.19083595  -0.00000000  1
  O  O177  1  0.44083595  0.69083595  0.75000000  1
  O  O178  1  1.30916405  1.55916405  0.25000000  1
  O  O179  1  0.94083595  1.05916405  0.50000000  1
  O  O180  1  0.50000000  0.19083595  0.30916405  1
  O  O181  1  0.75000000  1.55916405  0.80916405  1
  O  O182  1  1.25000000  0.69083595  -0.05916405  1
  O  O183  1  1.00000000  1.05916405  0.44083595  1
  O  O184  1  0.80916405  0.50000000  -0.30916405  1
  O  O185  1  1.30916405  0.75000000  1.05916405  1
  O  O186  1  0.44083595  1.25000000  0.19083595  1
  O  O187  1  0.94083595  1.00000000  0.55916405  1
  O  O188  1  0.19083595  0.80916405  0.00000000  1
  O  O189  1  1.55916405  1.30916405  0.25000000  1
  O  O190  1  0.69083595  0.44083595  0.75000000  1
  O  O191  1  1.05916405  0.94083595  0.50000000  1
  Ti  Ti192  1  0.12500000  0.12500000  0.12500000  1
  Ti  Ti193  1  0.87500000  0.37500000  0.37500000  1
  Ti  Ti194  1  0.12500000  0.62500000  0.62500000  1
  Ti  Ti195  1  0.87500000  0.87500000  0.87500000  1
  Ti  Ti196  1  0.62500000  0.12500000  0.62500000  1
  Ti  Ti197  1  0.37500000  0.37500000  0.87500000  1
  Ti  Ti198  1  0.62500000  0.62500000  0.12500000  1
  Ti  Ti199  1  0.37500000  0.87500000  0.37500000  1
  Ti  Ti200  1  0.50000000  0.50000000  0.50000000  1
  Ti  Ti201  1  0.25000000  0.75000000  0.00000000  1
  Ti  Ti202  1  0.75000000  -0.00000000  0.25000000  1
  Ti  Ti203  1  0.00000000  0.25000000  0.75000000  1
  Ti  Ti204  1  0.50000000  0.00000000  0.00000000  1
  Ti  Ti205  1  0.25000000  0.25000000  0.50000000  1
  Ti  Ti206  1  0.75000000  0.50000000  0.75000000  1
  Ti  Ti207  1  0.00000000  0.75000000  0.25000000  1
  Ti  Ti208  1  0.00000000  0.50000000  0.00000000  1
  Ti  Ti209  1  0.75000000  0.75000000  0.50000000  1
  Ti  Ti210  1  0.25000000  0.00000000  0.75000000  1
  Ti  Ti211  1  0.50000000  0.25000000  0.25000000  1
  Ti  Ti212  1  0.00000000  0.00000000  0.50000000  1
  Ti  Ti213  1  0.75000000  0.25000000  -0.00000000  1
  Ti  Ti214  1  0.25000000  0.50000000  0.25000000  1
  Ti  Ti215  1  0.50000000  0.75000000  0.75000000  1
  Ti  Ti216  1  0.37500000  0.37500000  0.37500000  1
  Ti  Ti217  1  0.12500000  0.62500000  0.12500000  1
  Ti  Ti218  1  0.37500000  0.87500000  0.87500000  1
  Ti  Ti219  1  0.12500000  0.12500000  0.62500000  1
  Ti  Ti220  1  0.87500000  0.37500000  0.87500000  1
  Ti  Ti221  1  0.62500000  0.62500000  0.62500000  1
  Ti  Ti222  1  0.87500000  0.87500000  0.37500000  1
  Ti  Ti223  1  0.62500000  0.12500000  0.12500000  1
