# generated using pymatgen
data_LiYPSe
_symmetry_space_group_name_H-M   'P 1'
_cell_length_a   5.28936277
_cell_length_b   5.52106074
_cell_length_c   7.10129107
_cell_angle_alpha   94.10110917
_cell_angle_beta   98.57810048
_cell_angle_gamma   105.91851619
_symmetry_Int_Tables_number   1
_chemical_formula_structural   LiYPSe
_chemical_formula_sum   'Li2 Y2 P2 Se2'
_cell_volume   195.81184511
_cell_formula_units_Z   2
loop_
 _symmetry_equiv_pos_site_id
 _symmetry_equiv_pos_as_xyz
  1  'x, y, z'
loop_
 _atom_site_type_symbol
 _atom_site_label
 _atom_site_symmetry_multiplicity
 _atom_site_fract_x
 _atom_site_fract_y
 _atom_site_fract_z
 _atom_site_occupancy
  Se  Se0  1  0.00000000  0.00000000  0.00000000  1
  Se  Se1  1  0.50000000  0.50000000  0.50000000  1
  Y  Y2  1  0.25000000  0.25000000  0.25000000  1
  Y  Y3  1  0.75000000  0.25000000  0.00000000  1
  P  P4  1  0.25000000  0.75000000  0.50000000  1
  P  P5  1  0.58916130  0.91885957  0.44229765  1
  Li  Li6  1  0.22048152  0.86006978  0.43771386  1
  Li  Li7  1  0.03544037  0.25356031  0.74454539  1
