# generated using pymatgen
data_Li2Ca3F8
_symmetry_space_group_name_H-M   'P 1'
_cell_length_a   12.73200093
_cell_length_b   12.73200093
_cell_length_c   12.81478985
_cell_angle_alpha   90.00000000
_cell_angle_beta   90.00000000
_cell_angle_gamma   90.00000000
_symmetry_Int_Tables_number   1
_chemical_formula_structural   Li2Ca3F8
_chemical_formula_sum   'Li16 Ca24 F64'
_cell_volume   2077.32674015
_cell_formula_units_Z   8
loop_
 _symmetry_equiv_pos_site_id
 _symmetry_equiv_pos_as_xyz
  1  'x, y, z'
loop_
 _atom_site_type_symbol
 _atom_site_label
 _atom_site_symmetry_multiplicity
 _atom_site_fract_x
 _atom_site_fract_y
 _atom_site_fract_z
 _atom_site_occupancy
  Ca  Ca0  1  0.81713854  -0.00000000  0.90816694  1
  Ca  Ca1  1  0.18286146  -0.00000000  0.90816694  1
  Ca  Ca2  1  0.00000000  0.81713854  0.90816694  1
  Ca  Ca3  1  0.00000000  0.18286146  0.90816694  1
  Ca  Ca4  1  0.18286146  -0.00000000  0.09183306  1
  Ca  Ca5  1  0.81713854  -0.00000000  0.09183306  1
  Ca  Ca6  1  0.00000000  0.81713854  0.09183306  1
  Ca  Ca7  1  0.00000000  0.18286146  0.09183306  1
  Ca  Ca8  1  0.38142879  0.38142879  0.50000000  1
  Ca  Ca9  1  0.61857121  0.61857121  0.50000000  1
  Ca  Ca10  1  0.61857121  0.38142879  0.50000000  1
  Ca  Ca11  1  0.38142879  0.61857121  0.50000000  1
  Ca  Ca12  1  0.50000000  0.50000000  0.14953899  1
  Ca  Ca13  1  0.50000000  0.50000000  0.85046101  1
  Ca  Ca14  1  0.74307204  0.74307204  0.71668344  1
  Ca  Ca15  1  0.25692796  0.25692796  0.71668344  1
  Ca  Ca16  1  0.25692796  0.74307204  0.71668344  1
  Ca  Ca17  1  0.74307204  0.25692796  0.71668344  1
  Ca  Ca18  1  0.25692796  0.74307204  0.28331656  1
  Ca  Ca19  1  0.74307204  0.25692796  0.28331656  1
  Ca  Ca20  1  0.74307204  0.74307204  0.28331656  1
  Ca  Ca21  1  0.25692796  0.25692796  0.28331656  1
  Ca  Ca22  1  0.50000000  0.50000000  -0.00000000  1
  Ca  Ca23  1  0.50000000  0.50000000  0.50000000  1
  F  F24  1  0.53674751  0.00000000  0.50000000  1
  F  F25  1  0.46325249  -0.00000000  0.50000000  1
  F  F26  1  0.00000000  0.53674751  0.50000000  1
  F  F27  1  0.00000000  0.46325249  0.50000000  1
  F  F28  1  0.30071698  0.56673673  0.50000000  1
  F  F29  1  0.69928302  0.43326327  0.50000000  1
  F  F30  1  0.43326327  0.30071698  0.50000000  1
  F  F31  1  0.56673673  0.69928302  0.50000000  1
  F  F32  1  0.69928302  0.56673673  0.50000000  1
  F  F33  1  0.30071698  0.43326327  0.50000000  1
  F  F34  1  0.56673673  0.30071698  0.50000000  1
  F  F35  1  0.43326327  0.69928302  0.50000000  1
  F  F36  1  0.43392021  0.00000000  -0.00000000  1
  F  F37  1  0.56607979  -0.00000000  -0.00000000  1
  F  F38  1  0.00000000  0.43392021  -0.00000000  1
  F  F39  1  0.00000000  0.56607979  -0.00000000  1
  F  F40  1  0.00000000  0.00000000  0.20161967  1
  F  F41  1  0.00000000  0.00000000  0.79838033  1
  F  F42  1  0.56048218  0.60433581  0.81663595  1
  F  F43  1  -0.56048218  -0.60433581  0.81663595  1
  F  F44  1  -0.60433581  0.56048218  0.81663595  1
  F  F45  1  0.60433581  -0.56048218  0.81663595  1
  F  F46  1  -0.56048218  0.60433581  -0.81663595  1
  F  F47  1  0.56048218  -0.60433581  -0.81663595  1
  F  F48  1  0.60433581  0.56048218  -0.81663595  1
  F  F49  1  -0.60433581  -0.56048218  -0.81663595  1
  F  F50  1  -0.56048218  -0.60433581  -0.81663595  1
  F  F51  1  0.56048218  0.60433581  -0.81663595  1
  F  F52  1  0.60433581  -0.56048218  -0.81663595  1
  F  F53  1  -0.60433581  0.56048218  -0.81663595  1
  F  F54  1  0.56048218  -0.60433581  0.81663595  1
  F  F55  1  -0.56048218  0.60433581  0.81663595  1
  F  F56  1  -0.60433581  -0.56048218  0.81663595  1
  F  F57  1  0.60433581  0.56048218  0.81663595  1
  F  F58  1  0.00000000  0.00000000  0.00000000  1
  F  F59  1  0.09444818  0.72761966  0.94605187  1
  F  F60  1  0.90555182  0.27238034  0.94605187  1
  F  F61  1  0.27238034  0.09444818  0.94605187  1
  F  F62  1  0.72761966  0.90555182  0.94605187  1
  F  F63  1  0.90555182  0.72761966  0.05394813  1
  F  F64  1  0.09444818  0.27238034  0.05394813  1
  F  F65  1  0.72761966  0.09444818  0.05394813  1
  F  F66  1  0.27238034  0.90555182  0.05394813  1
  F  F67  1  0.90555182  0.27238034  0.05394813  1
  F  F68  1  0.09444818  0.72761966  0.05394813  1
  F  F69  1  0.72761966  0.90555182  0.05394813  1
  F  F70  1  0.27238034  0.09444818  0.05394813  1
  F  F71  1  0.09444818  0.27238034  0.94605187  1
  F  F72  1  0.90555182  0.72761966  0.94605187  1
  F  F73  1  0.27238034  0.90555182  0.94605187  1
  F  F74  1  0.72761966  0.09444818  0.94605187  1
  F  F75  1  0.33132964  -0.00000000  0.26520171  1
  F  F76  1  0.66867036  0.00000000  0.26520171  1
  F  F77  1  0.00000000  0.33132964  0.26520171  1
  F  F78  1  0.00000000  0.66867036  0.26520171  1
  F  F79  1  0.66867036  0.00000000  0.73479829  1
  F  F80  1  0.33132964  -0.00000000  0.73479829  1
  F  F81  1  0.00000000  0.33132964  0.73479829  1
  F  F82  1  0.00000000  0.66867036  0.73479829  1
  F  F83  1  0.85782630  0.85782630  0.50000000  1
  F  F84  1  0.14217370  0.14217370  0.50000000  1
  F  F85  1  0.14217370  0.85782630  0.50000000  1
  F  F86  1  0.85782630  0.14217370  0.50000000  1
  F  F87  1  0.00000000  0.00000000  0.50000000  1
  Li  Li88  1  0.92161294  0.21159622  0.42876639  1
  Li  Li89  1  0.07838706  0.78840378  0.42876639  1
  Li  Li90  1  0.78840378  0.92161294  0.42876639  1
  Li  Li91  1  0.21159622  0.07838706  0.42876639  1
  Li  Li92  1  0.07838706  0.21159622  0.57123361  1
  Li  Li93  1  0.92161294  0.78840378  0.57123361  1
  Li  Li94  1  0.21159622  0.92161294  0.57123361  1
  Li  Li95  1  0.78840378  0.07838706  0.57123361  1
  Li  Li96  1  0.07838706  0.78840378  0.57123361  1
  Li  Li97  1  0.92161294  0.21159622  0.57123361  1
  Li  Li98  1  0.21159622  0.07838706  0.57123361  1
  Li  Li99  1  0.78840378  0.92161294  0.57123361  1
  Li  Li100  1  0.92161294  0.78840378  0.42876639  1
  Li  Li101  1  0.07838706  0.21159622  0.42876639  1
  Li  Li102  1  0.78840378  0.07838706  0.42876639  1
  Li  Li103  1  0.21159622  0.92161294  0.42876639  1
