# generated using pymatgen
data_Li4Y2AlAsSe2
_symmetry_space_group_name_H-M   'P 1'
_cell_length_a   5.11358074
_cell_length_b   5.63784477
_cell_length_c   6.61485564
_cell_angle_alpha   94.48245903
_cell_angle_beta   96.54235126
_cell_angle_gamma   92.35846839
_symmetry_Int_Tables_number   1
_chemical_formula_structural   Li4Y2AlAsSe2
_chemical_formula_sum   'Li4 Y2 Al1 As1 Se2'
_cell_volume   188.64071739
_cell_formula_units_Z   1
loop_
 _symmetry_equiv_pos_site_id
 _symmetry_equiv_pos_as_xyz
  1  'x, y, z'
loop_
 _atom_site_type_symbol
 _atom_site_label
 _atom_site_symmetry_multiplicity
 _atom_site_fract_x
 _atom_site_fract_y
 _atom_site_fract_z
 _atom_site_occupancy
  Al  Al0  1  0.12500000  0.00000000  0.25000000  1
  Se  Se1  1  0.00000000  0.00000000  0.00000000  1
  Se  Se2  1  0.37500000  0.00000000  0.25000000  1
  Y  Y3  1  0.25000000  0.25000000  0.25000000  1
  Y  Y4  1  0.00000000  0.25000000  0.12500000  1
  As  As5  1  0.69266467  0.75250604  0.05023872  1
  Li  Li6  1  0.49595020  0.07215686  0.68728735  1
  Li  Li7  1  0.02340148  0.11584623  0.80345015  1
  Li  Li8  1  0.03693731  0.96670249  0.20314373  1
  Li  Li9  1  0.84397332  0.07453223  0.05175422  1
