# generated using pymatgen
data_LiF
_symmetry_space_group_name_H-M   'P 1'
_cell_length_a   11.95854604
_cell_length_b   11.95854604
_cell_length_c   3.70319407
_cell_angle_alpha   90.00000000
_cell_angle_beta   90.00000000
_cell_angle_gamma   90.00000000
_symmetry_Int_Tables_number   1
_chemical_formula_structural   LiF
_chemical_formula_sum   'Li27 F27'
_cell_volume   529.58202065
_cell_formula_units_Z   27
loop_
 _symmetry_equiv_pos_site_id
 _symmetry_equiv_pos_as_xyz
  1  'x, y, z'
loop_
 _atom_site_type_symbol
 _atom_site_label
 _atom_site_symmetry_multiplicity
 _atom_site_fract_x
 _atom_site_fract_y
 _atom_site_fract_z
 _atom_site_occupancy
  F  F0  1  0.06516440  0.50000000  0.50000000  1
  F  F1  1  0.93483560  0.50000000  0.50000000  1
  F  F2  1  0.50000000  0.06516440  0.50000000  1
  F  F3  1  0.50000000  0.93483560  0.50000000  1
  F  F4  1  0.79746073  0.79746073  0.00000000  1
  F  F5  1  0.20253927  0.20253927  -0.00000000  1
  F  F6  1  0.20253927  0.79746073  0.00000000  1
  F  F7  1  0.79746073  0.20253927  0.00000000  1
  F  F8  1  0.76951865  0.95346354  0.88474311  1
  F  F9  1  0.23048135  0.04653646  0.88474311  1
  F  F10  1  0.04653646  0.76951865  0.88474311  1
  F  F11  1  0.95346354  0.23048135  0.88474311  1
  F  F12  1  0.23048135  0.95346354  0.11525689  1
  F  F13  1  0.76951865  0.04653646  0.11525689  1
  F  F14  1  0.95346354  0.76951865  0.11525689  1
  F  F15  1  0.04653646  0.23048135  0.11525689  1
  F  F16  1  0.23048135  0.04653646  0.11525689  1
  F  F17  1  0.76951865  0.95346354  0.11525689  1
  F  F18  1  0.95346354  0.23048135  0.11525689  1
  F  F19  1  0.04653646  0.76951865  0.11525689  1
  F  F20  1  0.76951865  0.04653646  0.88474311  1
  F  F21  1  0.23048135  0.95346354  0.88474311  1
  F  F22  1  0.04653646  0.23048135  0.88474311  1
  F  F23  1  0.95346354  0.76951865  0.88474311  1
  F  F24  1  0.00000000  0.50000000  0.00000000  1
  F  F25  1  0.50000000  0.00000000  0.00000000  1
  F  F26  1  0.50000000  0.50000000  0.50000000  1
  Li  Li27  1  0.87320021  0.50000000  -0.00000000  1
  Li  Li28  1  0.12679979  0.50000000  0.00000000  1
  Li  Li29  1  0.50000000  0.87320021  0.00000000  1
  Li  Li30  1  0.50000000  0.12679979  0.00000000  1
  Li  Li31  1  0.74241399  0.64520777  0.70541613  1
  Li  Li32  1  -0.74241399  -0.64520777  0.70541613  1
  Li  Li33  1  -0.64520777  0.74241399  0.70541613  1
  Li  Li34  1  0.64520777  -0.74241399  0.70541613  1
  Li  Li35  1  -0.74241399  0.64520777  -0.70541613  1
  Li  Li36  1  0.74241399  -0.64520777  -0.70541613  1
  Li  Li37  1  0.64520777  0.74241399  -0.70541613  1
  Li  Li38  1  -0.64520777  -0.74241399  -0.70541613  1
  Li  Li39  1  -0.74241399  -0.64520777  -0.70541613  1
  Li  Li40  1  0.74241399  0.64520777  -0.70541613  1
  Li  Li41  1  0.64520777  -0.74241399  -0.70541613  1
  Li  Li42  1  -0.64520777  0.74241399  -0.70541613  1
  Li  Li43  1  0.74241399  -0.64520777  0.70541613  1
  Li  Li44  1  -0.74241399  0.64520777  0.70541613  1
  Li  Li45  1  -0.64520777  -0.74241399  0.70541613  1
  Li  Li46  1  0.64520777  0.74241399  0.70541613  1
  Li  Li47  1  0.90231327  0.90231327  0.50000000  1
  Li  Li48  1  0.09768673  0.09768673  0.50000000  1
  Li  Li49  1  0.09768673  0.90231327  0.50000000  1
  Li  Li50  1  0.90231327  0.09768673  0.50000000  1
  Li  Li51  1  0.00000000  0.00000000  0.00000000  1
  Li  Li52  1  0.00000000  0.00000000  0.50000000  1
  Li  Li53  1  0.50000000  0.50000000  0.00000000  1
