# generated using pymatgen
data_LiCaF3
_symmetry_space_group_name_H-M   'P 1'
_cell_length_a   11.23903648
_cell_length_b   8.40624634
_cell_length_c   15.86151722
_cell_angle_alpha   90.00000000
_cell_angle_beta   90.00000000
_cell_angle_gamma   90.00000000
_symmetry_Int_Tables_number   1
_chemical_formula_structural   LiCaF3
_chemical_formula_sum   'Li18 Ca18 F54'
_cell_volume   1498.56615761
_cell_formula_units_Z   18
loop_
 _symmetry_equiv_pos_site_id
 _symmetry_equiv_pos_as_xyz
  1  'x, y, z'
loop_
 _atom_site_type_symbol
 _atom_site_label
 _atom_site_symmetry_multiplicity
 _atom_site_fract_x
 _atom_site_fract_y
 _atom_site_fract_z
 _atom_site_occupancy
  Ca  Ca0  1  0.23966102  0.52708770  0.90119767  1
  Ca  Ca1  1  -0.23966102  -0.52708770  0.90119767  1
  Ca  Ca2  1  0.26033898  1.02708770  -0.90119767  1
  Ca  Ca3  1  0.73966102  -0.02708770  -0.90119767  1
  Ca  Ca4  1  -0.23966102  -0.52708770  -0.90119767  1
  Ca  Ca5  1  0.23966102  0.52708770  -0.90119767  1
  Ca  Ca6  1  0.73966102  -0.02708770  0.90119767  1
  Ca  Ca7  1  0.26033898  1.02708770  0.90119767  1
  Ca  Ca8  1  0.39337907  0.45212527  0.78035641  1
  Ca  Ca9  1  0.60662093  0.54787473  0.78035641  1
  Ca  Ca10  1  0.10662093  0.95212527  0.21964359  1
  Ca  Ca11  1  0.89337907  0.04787473  0.21964359  1
  Ca  Ca12  1  0.60662093  0.54787473  0.21964359  1
  Ca  Ca13  1  0.39337907  0.45212527  0.21964359  1
  Ca  Ca14  1  0.89337907  0.04787473  0.78035641  1
  Ca  Ca15  1  0.10662093  0.95212527  0.78035641  1
  Ca  Ca16  1  0.00000000  0.00000000  0.00000000  1
  Ca  Ca17  1  0.50000000  0.50000000  -0.00000000  1
  F  F18  1  0.43402996  0.64748824  0.36392057  1
  F  F19  1  0.56597004  0.35251176  0.36392057  1
  F  F20  1  0.06597004  0.14748824  0.63607943  1
  F  F21  1  0.93402996  0.85251176  0.63607943  1
  F  F22  1  0.56597004  0.35251176  0.63607943  1
  F  F23  1  0.43402996  0.64748824  0.63607943  1
  F  F24  1  0.93402996  0.85251176  0.36392057  1
  F  F25  1  0.06597004  0.14748824  0.36392057  1
  F  F26  1  0.00000000  0.00000000  0.33325196  1
  F  F27  1  0.50000000  0.50000000  0.66674804  1
  F  F28  1  0.00000000  0.00000000  0.66674804  1
  F  F29  1  0.50000000  0.50000000  0.33325196  1
  F  F30  1  0.64795831  0.78333783  0.40197578  1
  F  F31  1  0.35204169  0.21666217  0.40197578  1
  F  F32  1  0.85204169  0.28333783  0.59802422  1
  F  F33  1  0.14795831  0.71666217  0.59802422  1
  F  F34  1  0.35204169  0.21666217  0.59802422  1
  F  F35  1  0.64795831  0.78333783  0.59802422  1
  F  F36  1  0.14795831  0.71666217  0.40197578  1
  F  F37  1  0.85204169  0.28333783  0.40197578  1
  F  F38  1  0.00000000  0.00000000  0.50000000  1
  F  F39  1  0.50000000  0.50000000  0.50000000  1
  F  F40  1  0.26473949  0.49184479  0.50000000  1
  F  F41  1  0.73526051  0.50815521  0.50000000  1
  F  F42  1  0.23526051  0.99184479  0.50000000  1
  F  F43  1  0.76473949  0.00815521  0.50000000  1
  F  F44  1  0.00000000  0.00000000  0.81372698  1
  F  F45  1  0.50000000  0.50000000  0.18627302  1
  F  F46  1  0.00000000  0.00000000  0.18627302  1
  F  F47  1  0.50000000  0.50000000  0.81372698  1
  F  F48  1  0.02875513  0.17382385  0.83275666  1
  F  F49  1  0.97124487  0.82617615  0.83275666  1
  F  F50  1  0.47124487  0.67382385  0.16724334  1
  F  F51  1  0.52875513  0.32617615  0.16724334  1
  F  F52  1  0.97124487  0.82617615  0.16724334  1
  F  F53  1  0.02875513  0.17382385  0.16724334  1
  F  F54  1  0.52875513  0.32617615  0.83275666  1
  F  F55  1  0.47124487  0.67382385  0.83275666  1
  F  F56  1  0.99243780  0.64705622  0.14693320  1
  F  F57  1  0.00756220  0.35294378  0.14693320  1
  F  F58  1  0.50756220  0.14705622  0.85306680  1
  F  F59  1  0.49243780  0.85294378  0.85306680  1
  F  F60  1  0.00756220  0.35294378  0.85306680  1
  F  F61  1  0.99243780  0.64705622  0.85306680  1
  F  F62  1  0.49243780  0.85294378  0.14693320  1
  F  F63  1  0.50756220  0.14705622  0.14693320  1
  F  F64  1  0.06048484  0.20664980  0.23229364  1
  F  F65  1  0.93951516  0.79335020  0.23229364  1
  F  F66  1  0.43951516  0.70664980  0.76770636  1
  F  F67  1  0.56048484  0.29335020  0.76770636  1
  F  F68  1  0.93951516  0.79335020  0.76770636  1
  F  F69  1  0.06048484  0.20664980  0.76770636  1
  F  F70  1  0.56048484  0.29335020  0.23229364  1
  F  F71  1  0.43951516  0.70664980  0.23229364  1
  Li  Li72  1  0.08500572  0.51209879  0.17254166  1
  Li  Li73  1  0.91499428  0.48790121  0.17254166  1
  Li  Li74  1  0.41499428  0.01209879  0.82745834  1
  Li  Li75  1  0.58500572  0.98790121  0.82745834  1
  Li  Li76  1  0.91499428  0.48790121  0.82745834  1
  Li  Li77  1  0.08500572  0.51209879  0.82745834  1
  Li  Li78  1  0.58500572  0.98790121  0.17254166  1
  Li  Li79  1  0.41499428  0.01209879  0.17254166  1
  Li  Li80  1  0.43577510  0.17827873  0.50000000  1
  Li  Li81  1  0.56422490  0.82172127  0.50000000  1
  Li  Li82  1  0.06422490  0.67827873  0.50000000  1
  Li  Li83  1  0.93577510  0.32172127  0.50000000  1
  Li  Li84  1  0.00000000  0.50000000  0.22880517  1
  Li  Li85  1  0.50000000  0.00000000  0.77119483  1
  Li  Li86  1  0.00000000  0.50000000  0.77119483  1
  Li  Li87  1  0.50000000  0.00000000  0.22880517  1
  Li  Li88  1  0.00000000  0.50000000  -0.00000000  1
  Li  Li89  1  0.50000000  0.00000000  0.00000000  1
