# generated using pymatgen
data_LiF
_symmetry_space_group_name_H-M   'P 1'
_cell_length_a   8.93216877
_cell_length_b   4.50276227
_cell_length_c   10.13662563
_cell_angle_alpha   90.00000000
_cell_angle_beta   90.00000000
_cell_angle_gamma   90.00000000
_symmetry_Int_Tables_number   1
_chemical_formula_structural   LiF
_chemical_formula_sum   'Li14 F14'
_cell_volume   407.68932984
_cell_formula_units_Z   14
loop_
 _symmetry_equiv_pos_site_id
 _symmetry_equiv_pos_as_xyz
  1  'x, y, z'
loop_
 _atom_site_type_symbol
 _atom_site_label
 _atom_site_symmetry_multiplicity
 _atom_site_fract_x
 _atom_site_fract_y
 _atom_site_fract_z
 _atom_site_occupancy
  F  F0  1  0.84172495  0.18996795  0.50000000  1
  F  F1  1  0.15827505  0.81003205  0.50000000  1
  F  F2  1  0.65827505  0.68996795  0.50000000  1
  F  F3  1  0.34172495  0.31003205  0.50000000  1
  F  F4  1  0.99726631  0.79374451  0.18660480  1
  F  F5  1  -0.99726631  -0.79374451  0.18660480  1
  F  F6  1  -0.49726631  1.29374451  -0.18660480  1
  F  F7  1  1.49726631  -0.29374451  -0.18660480  1
  F  F8  1  -0.99726631  -0.79374451  -0.18660480  1
  F  F9  1  0.99726631  0.79374451  -0.18660480  1
  F  F10  1  1.49726631  -0.29374451  0.18660480  1
  F  F11  1  -0.49726631  1.29374451  0.18660480  1
  F  F12  1  0.00000000  0.50000000  0.50000000  1
  F  F13  1  0.50000000  0.00000000  0.50000000  1
  Li  Li14  1  0.72725715  0.77635086  0.36649047  1
  Li  Li15  1  0.27274285  0.22364914  0.36649047  1
  Li  Li16  1  0.77274285  0.27635086  0.63350953  1
  Li  Li17  1  0.22725715  0.72364914  0.63350953  1
  Li  Li18  1  0.27274285  0.22364914  0.63350953  1
  Li  Li19  1  0.72725715  0.77635086  0.63350953  1
  Li  Li20  1  0.22725715  0.72364914  0.36649047  1
  Li  Li21  1  0.77274285  0.27635086  0.36649047  1
  Li  Li22  1  0.00000000  0.50000000  0.00000000  1
  Li  Li23  1  0.50000000  0.00000000  0.00000000  1
  Li  Li24  1  0.81267085  0.79731795  0.50000000  1
  Li  Li25  1  0.18732915  0.20268205  0.50000000  1
  Li  Li26  1  0.68732915  0.29731795  0.50000000  1
  Li  Li27  1  0.31267085  0.70268205  0.50000000  1
