# generated using pymatgen
data_LiF
_symmetry_space_group_name_H-M   'P 1'
_cell_length_a   10.75114693
_cell_length_b   4.31657259
_cell_length_c   10.25826472
_cell_angle_alpha   90.00000000
_cell_angle_beta   90.00000000
_cell_angle_gamma   90.00000000
_symmetry_Int_Tables_number   1
_chemical_formula_structural   LiF
_chemical_formula_sum   'Li24 F24'
_cell_volume   476.06663786
_cell_formula_units_Z   24
loop_
 _symmetry_equiv_pos_site_id
 _symmetry_equiv_pos_as_xyz
  1  'x, y, z'
loop_
 _atom_site_type_symbol
 _atom_site_label
 _atom_site_symmetry_multiplicity
 _atom_site_fract_x
 _atom_site_fract_y
 _atom_site_fract_z
 _atom_site_occupancy
  F  F0  1  0.43280833  0.32613931  0.82216369  1
  F  F1  1  -0.43280833  -0.32613931  0.82216369  1
  F  F2  1  0.06719167  0.82613931  -0.82216369  1
  F  F3  1  0.93280833  0.17386069  -0.82216369  1
  F  F4  1  -0.43280833  -0.32613931  -0.82216369  1
  F  F5  1  0.43280833  0.32613931  -0.82216369  1
  F  F6  1  0.93280833  0.17386069  0.82216369  1
  F  F7  1  0.06719167  0.82613931  0.82216369  1
  F  F8  1  0.97115959  0.18922387  0.50000000  1
  F  F9  1  0.02884041  0.81077613  0.50000000  1
  F  F10  1  0.52884041  0.68922387  0.50000000  1
  F  F11  1  0.47115959  0.31077613  0.50000000  1
  F  F12  1  0.32028652  0.86360975  0.69755112  1
  F  F13  1  0.67971348  0.13639025  0.69755112  1
  F  F14  1  0.17971348  0.36360975  0.30244888  1
  F  F15  1  0.82028652  0.63639025  0.30244888  1
  F  F16  1  0.67971348  0.13639025  0.30244888  1
  F  F17  1  0.32028652  0.86360975  0.30244888  1
  F  F18  1  0.82028652  0.63639025  0.69755112  1
  F  F19  1  0.17971348  0.36360975  0.69755112  1
  F  F20  1  0.83714738  0.33661129  0.00000000  1
  F  F21  1  0.16285262  0.66338871  0.00000000  1
  F  F22  1  0.66285262  0.83661129  0.00000000  1
  F  F23  1  0.33714738  0.16338871  0.00000000  1
  Li  Li24  1  0.00000000  0.50000000  0.00000000  1
  Li  Li25  1  0.50000000  0.00000000  0.00000000  1
  Li  Li26  1  0.77277291  0.83366407  0.88019917  1
  Li  Li27  1  0.22722709  0.16633593  0.88019917  1
  Li  Li28  1  0.72722709  0.33366407  0.11980083  1
  Li  Li29  1  0.27277291  0.66633593  0.11980083  1
  Li  Li30  1  0.22722709  0.16633593  0.11980083  1
  Li  Li31  1  0.77277291  0.83366407  0.11980083  1
  Li  Li32  1  0.27277291  0.66633593  0.88019917  1
  Li  Li33  1  0.72722709  0.33366407  0.88019917  1
  Li  Li34  1  0.00000000  0.50000000  0.50000000  1
  Li  Li35  1  0.50000000  0.00000000  0.50000000  1
  Li  Li36  1  0.47447446  0.80201510  0.41051894  1
  Li  Li37  1  0.52552554  0.19798490  0.41051894  1
  Li  Li38  1  0.02552554  0.30201510  0.58948106  1
  Li  Li39  1  0.97447446  0.69798490  0.58948106  1
  Li  Li40  1  0.52552554  0.19798490  0.58948106  1
  Li  Li41  1  0.47447446  0.80201510  0.58948106  1
  Li  Li42  1  0.97447446  0.69798490  0.41051894  1
  Li  Li43  1  0.02552554  0.30201510  0.41051894  1
  Li  Li44  1  0.00000000  0.50000000  0.27459499  1
  Li  Li45  1  0.50000000  0.00000000  0.72540501  1
  Li  Li46  1  0.00000000  0.50000000  0.72540501  1
  Li  Li47  1  0.50000000  0.00000000  0.27459499  1
