# generated using pymatgen
data_LiF
_symmetry_space_group_name_H-M   'P 1'
_cell_length_a   14.28714380
_cell_length_b   14.28714380
_cell_length_c   3.56384005
_cell_angle_alpha   90.00000000
_cell_angle_beta   90.00000000
_cell_angle_gamma   120.00000000
_symmetry_Int_Tables_number   1
_chemical_formula_structural   LiF
_chemical_formula_sum   'Li26 F26'
_cell_volume   629.99872133
_cell_formula_units_Z   26
loop_
 _symmetry_equiv_pos_site_id
 _symmetry_equiv_pos_as_xyz
  1  'x, y, z'
loop_
 _atom_site_type_symbol
 _atom_site_label
 _atom_site_symmetry_multiplicity
 _atom_site_fract_x
 _atom_site_fract_y
 _atom_site_fract_z
 _atom_site_occupancy
  F  F0  1  0.33333333  0.66666667  0.13064538  1
  F  F1  1  0.33333333  0.66666667  0.86935462  1
  F  F2  1  0.00000000  0.00000000  0.29502322  1
  F  F3  1  0.00000000  0.00000000  0.70497678  1
  F  F4  1  0.69776143  0.66611382  0.71712221  1
  F  F5  1  0.33388618  0.03164761  0.71712221  1
  F  F6  1  0.96835239  0.30223857  0.71712221  1
  F  F7  1  0.33388618  0.30223857  0.28287779  1
  F  F8  1  0.96835239  0.66611382  0.28287779  1
  F  F9  1  0.69776143  0.03164761  0.28287779  1
  F  F10  1  0.18624206  0.55889945  0.08169285  1
  F  F11  1  0.44110055  0.62734261  0.08169285  1
  F  F12  1  0.37265739  0.81375794  0.08169285  1
  F  F13  1  0.44110055  0.81375794  0.91830715  1
  F  F14  1  0.37265739  0.55889945  0.91830715  1
  F  F15  1  0.18624206  0.62734261  0.91830715  1
  F  F16  1  0.64077920  0.76003516  0.26351849  1
  F  F17  1  0.23996484  0.88074404  0.26351849  1
  F  F18  1  0.11925596  0.35922080  0.26351849  1
  F  F19  1  0.23996484  0.35922080  0.73648151  1
  F  F20  1  0.11925596  0.76003516  0.73648151  1
  F  F21  1  0.64077920  0.88074404  0.73648151  1
  F  F22  1  0.27816057  0.72183943  0.50000000  1
  F  F23  1  0.27816057  0.55632115  0.50000000  1
  F  F24  1  0.44367885  0.72183943  0.50000000  1
  F  F25  1  0.33333333  0.66666667  0.50000000  1
  Li  Li26  1  0.77661062  0.38701138  0.71897996  1
  Li  Li27  1  -0.38701138  0.38959924  0.71897996  1
  Li  Li28  1  -0.38959924  -0.77661062  0.71897996  1
  Li  Li29  1  -0.38701138  -0.77661062  -0.71897996  1
  Li  Li30  1  -0.38959924  0.38701138  -0.71897996  1
  Li  Li31  1  0.77661062  0.38959924  -0.71897996  1
  Li  Li32  1  0.02783300  0.52132365  0.79790607  1
  Li  Li33  1  0.47867635  0.50650935  0.79790607  1
  Li  Li34  1  0.49349065  0.97216700  0.79790607  1
  Li  Li35  1  0.47867635  0.97216700  0.20209393  1
  Li  Li36  1  0.49349065  0.52132365  0.20209393  1
  Li  Li37  1  0.02783300  0.50650935  0.20209393  1
  Li  Li38  1  0.66666667  0.33333333  -0.00000000  1
  Li  Li39  1  0.66666667  0.33333333  0.50000000  1
  Li  Li40  1  0.10819042  0.71834990  0.00121567  1
  Li  Li41  1  0.28165010  0.38984052  0.00121567  1
  Li  Li42  1  0.61015948  0.89180958  0.00121567  1
  Li  Li43  1  0.28165010  0.89180958  0.99878433  1
  Li  Li44  1  0.61015948  0.71834990  0.99878433  1
  Li  Li45  1  0.10819042  0.38984052  0.99878433  1
  Li  Li46  1  0.38523242  0.19777517  0.28546067  1
  Li  Li47  1  0.80222483  0.18745724  0.28546067  1
  Li  Li48  1  0.81254276  0.61476758  0.28546067  1
  Li  Li49  1  0.80222483  0.61476758  0.71453933  1
  Li  Li50  1  0.81254276  0.19777517  0.71453933  1
  Li  Li51  1  0.38523242  0.18745724  0.71453933  1
