# generated using pymatgen
data_LiF
_symmetry_space_group_name_H-M   'P 1'
_cell_length_a   12.15226460
_cell_length_b   12.15226460
_cell_length_c   7.84156144
_cell_angle_alpha   90.00000000
_cell_angle_beta   90.00000000
_cell_angle_gamma   90.00000000
_symmetry_Int_Tables_number   1
_chemical_formula_structural   LiF
_chemical_formula_sum   'Li46 F46'
_cell_volume   1158.02246355
_cell_formula_units_Z   46
loop_
 _symmetry_equiv_pos_site_id
 _symmetry_equiv_pos_as_xyz
  1  'x, y, z'
loop_
 _atom_site_type_symbol
 _atom_site_label
 _atom_site_symmetry_multiplicity
 _atom_site_fract_x
 _atom_site_fract_y
 _atom_site_fract_z
 _atom_site_occupancy
  F  F0  1  0.00000000  0.50000000  0.22369785  1
  F  F1  1  0.50000000  0.00000000  0.22369785  1
  F  F2  1  0.00000000  0.50000000  0.77630215  1
  F  F3  1  0.50000000  0.00000000  0.77630215  1
  F  F4  1  0.37385845  0.88288342  0.38527081  1
  F  F5  1  0.62614155  0.11711658  0.38527081  1
  F  F6  1  0.11711658  0.37385845  0.38527081  1
  F  F7  1  0.88288342  0.62614155  0.38527081  1
  F  F8  1  0.62614155  0.88288342  0.61472919  1
  F  F9  1  0.37385845  0.11711658  0.61472919  1
  F  F10  1  0.88288342  0.37385845  0.61472919  1
  F  F11  1  0.11711658  0.62614155  0.61472919  1
  F  F12  1  0.62614155  0.11711658  0.61472919  1
  F  F13  1  0.37385845  0.88288342  0.61472919  1
  F  F14  1  0.88288342  0.62614155  0.61472919  1
  F  F15  1  0.11711658  0.37385845  0.61472919  1
  F  F16  1  0.37385845  0.11711658  0.38527081  1
  F  F17  1  0.62614155  0.88288342  0.38527081  1
  F  F18  1  0.11711658  0.62614155  0.38527081  1
  F  F19  1  0.88288342  0.37385845  0.38527081  1
  F  F20  1  0.31403499  0.50000000  0.37166232  1
  F  F21  1  0.68596501  0.50000000  0.37166232  1
  F  F22  1  0.50000000  0.31403499  0.37166232  1
  F  F23  1  0.50000000  0.68596501  0.37166232  1
  F  F24  1  0.68596501  0.50000000  0.62833768  1
  F  F25  1  0.31403499  0.50000000  0.62833768  1
  F  F26  1  0.50000000  0.31403499  0.62833768  1
  F  F27  1  0.50000000  0.68596501  0.62833768  1
  F  F28  1  0.44760219  0.84946428  0.50000000  1
  F  F29  1  0.55239781  0.15053572  0.50000000  1
  F  F30  1  0.15053572  0.44760219  0.50000000  1
  F  F31  1  0.84946428  0.55239781  0.50000000  1
  F  F32  1  0.55239781  0.84946428  0.50000000  1
  F  F33  1  0.44760219  0.15053572  0.50000000  1
  F  F34  1  0.84946428  0.44760219  0.50000000  1
  F  F35  1  0.15053572  0.55239781  0.50000000  1
  F  F36  1  0.81860888  0.00000000  0.67487001  1
  F  F37  1  0.18139112  0.00000000  0.67487001  1
  F  F38  1  0.00000000  0.81860888  0.67487001  1
  F  F39  1  0.00000000  0.18139112  0.67487001  1
  F  F40  1  0.18139112  0.00000000  0.32512999  1
  F  F41  1  0.81860888  0.00000000  0.32512999  1
  F  F42  1  0.00000000  0.81860888  0.32512999  1
  F  F43  1  0.00000000  0.18139112  0.32512999  1
  F  F44  1  0.00000000  0.00000000  0.62222737  1
  F  F45  1  0.00000000  0.00000000  0.37777263  1
  Li  Li46  1  0.00000000  0.50000000  0.50000000  1
  Li  Li47  1  0.50000000  0.00000000  0.50000000  1
  Li  Li48  1  0.11033309  0.11033309  0.15711661  1
  Li  Li49  1  0.88966691  0.88966691  0.15711661  1
  Li  Li50  1  0.88966691  0.11033309  0.15711661  1
  Li  Li51  1  0.11033309  0.88966691  0.15711661  1
  Li  Li52  1  0.88966691  0.11033309  0.84288339  1
  Li  Li53  1  0.11033309  0.88966691  0.84288339  1
  Li  Li54  1  0.11033309  0.11033309  0.84288339  1
  Li  Li55  1  0.88966691  0.88966691  0.84288339  1
  Li  Li56  1  0.89946726  0.00000000  0.88064296  1
  Li  Li57  1  0.10053274  0.00000000  0.88064296  1
  Li  Li58  1  0.00000000  0.89946726  0.88064296  1
  Li  Li59  1  0.00000000  0.10053274  0.88064296  1
  Li  Li60  1  0.10053274  0.00000000  0.11935704  1
  Li  Li61  1  0.89946726  0.00000000  0.11935704  1
  Li  Li62  1  0.00000000  0.89946726  0.11935704  1
  Li  Li63  1  0.00000000  0.10053274  0.11935704  1
  Li  Li64  1  0.18214991  0.29653142  0.71506500  1
  Li  Li65  1  -0.18214991  -0.29653142  0.71506500  1
  Li  Li66  1  -0.29653142  0.18214991  0.71506500  1
  Li  Li67  1  0.29653142  -0.18214991  0.71506500  1
  Li  Li68  1  -0.18214991  0.29653142  -0.71506500  1
  Li  Li69  1  0.18214991  -0.29653142  -0.71506500  1
  Li  Li70  1  0.29653142  0.18214991  -0.71506500  1
  Li  Li71  1  -0.29653142  -0.18214991  -0.71506500  1
  Li  Li72  1  -0.18214991  -0.29653142  -0.71506500  1
  Li  Li73  1  0.18214991  0.29653142  -0.71506500  1
  Li  Li74  1  0.29653142  -0.18214991  -0.71506500  1
  Li  Li75  1  -0.29653142  0.18214991  -0.71506500  1
  Li  Li76  1  0.18214991  -0.29653142  0.71506500  1
  Li  Li77  1  -0.18214991  0.29653142  0.71506500  1
  Li  Li78  1  -0.29653142  -0.18214991  0.71506500  1
  Li  Li79  1  0.29653142  0.18214991  0.71506500  1
  Li  Li80  1  0.81367774  0.81367774  0.65233157  1
  Li  Li81  1  0.18632226  0.18632226  0.65233157  1
  Li  Li82  1  0.18632226  0.81367774  0.65233157  1
  Li  Li83  1  0.81367774  0.18632226  0.65233157  1
  Li  Li84  1  0.18632226  0.81367774  0.34766843  1
  Li  Li85  1  0.81367774  0.18632226  0.34766843  1
  Li  Li86  1  0.81367774  0.81367774  0.34766843  1
  Li  Li87  1  0.18632226  0.18632226  0.34766843  1
  Li  Li88  1  0.61912170  0.00000000  0.00000000  1
  Li  Li89  1  0.38087830  0.00000000  0.00000000  1
  Li  Li90  1  0.00000000  0.61912170  0.00000000  1
  Li  Li91  1  0.00000000  0.38087830  0.00000000  1
