# generated using pymatgen
data_NaLi3Se2
_symmetry_space_group_name_H-M   'P 1'
_cell_length_a   5.68196205
_cell_length_b   5.68196205
_cell_length_c   19.03545466
_cell_angle_alpha   90.00000000
_cell_angle_beta   90.00000000
_cell_angle_gamma   120.00000000
_symmetry_Int_Tables_number   1
_chemical_formula_structural   NaLi3Se2
_chemical_formula_sum   'Na4 Li12 Se8'
_cell_volume   532.21920658
_cell_formula_units_Z   4
loop_
 _symmetry_equiv_pos_site_id
 _symmetry_equiv_pos_as_xyz
  1  'x, y, z'
loop_
 _atom_site_type_symbol
 _atom_site_label
 _atom_site_symmetry_multiplicity
 _atom_site_fract_x
 _atom_site_fract_y
 _atom_site_fract_z
 _atom_site_occupancy
  Li  Li0  1  0.33333333  0.66666667  0.25000000  1
  Li  Li1  1  0.66666667  0.33333333  0.75000000  1
  Li  Li2  1  0.33333333  0.66666667  0.86900459  1
  Li  Li3  1  0.66666667  0.33333333  0.36900459  1
  Li  Li4  1  0.66666667  0.33333333  0.13099541  1
  Li  Li5  1  0.33333333  0.66666667  0.63099541  1
  Li  Li6  1  0.88519645  1.77039290  0.25000000  1
  Li  Li7  1  -1.77039290  -0.88519645  0.25000000  1
  Li  Li8  1  0.88519645  -0.88519645  0.25000000  1
  Li  Li9  1  -0.88519645  -1.77039290  0.75000000  1
  Li  Li10  1  1.77039290  0.88519645  0.75000000  1
  Li  Li11  1  -0.88519645  0.88519645  0.75000000  1
  Na  Na12  1  0.33333333  0.66666667  0.13470929  1
  Na  Na13  1  0.66666667  0.33333333  0.63470929  1
  Na  Na14  1  0.66666667  0.33333333  0.86529071  1
  Na  Na15  1  0.33333333  0.66666667  0.36529071  1
  Se  Se16  1  0.50000000  0.00000000  0.00000000  1
  Se  Se17  1  0.00000000  0.50000000  0.00000000  1
  Se  Se18  1  0.50000000  0.50000000  0.00000000  1
  Se  Se19  1  0.50000000  0.00000000  0.50000000  1
  Se  Se20  1  0.00000000  0.50000000  0.50000000  1
  Se  Se21  1  0.50000000  0.50000000  0.50000000  1
  Se  Se22  1  0.33333333  0.66666667  0.75000000  1
  Se  Se23  1  0.66666667  0.33333333  0.25000000  1
