# generated using pymatgen
data_LiF
_symmetry_space_group_name_H-M   'P 1'
_cell_length_a   9.22980758
_cell_length_b   9.22980758
_cell_length_c   4.66591371
_cell_angle_alpha   90.00000000
_cell_angle_beta   90.00000000
_cell_angle_gamma   120.00000000
_symmetry_Int_Tables_number   1
_chemical_formula_structural   LiF
_chemical_formula_sum   'Li24 F24'
_cell_volume   344.23310056
_cell_formula_units_Z   24
loop_
 _symmetry_equiv_pos_site_id
 _symmetry_equiv_pos_as_xyz
  1  'x, y, z'
loop_
 _atom_site_type_symbol
 _atom_site_label
 _atom_site_symmetry_multiplicity
 _atom_site_fract_x
 _atom_site_fract_y
 _atom_site_fract_z
 _atom_site_occupancy
  F  F0  1  0.50000000  -0.00000000  0.00000000  1
  F  F1  1  0.00000000  0.50000000  0.00000000  1
  F  F2  1  0.50000000  0.50000000  0.00000000  1
  F  F3  1  0.50000000  -0.00000000  0.50000000  1
  F  F4  1  0.00000000  0.50000000  0.50000000  1
  F  F5  1  0.50000000  0.50000000  0.50000000  1
  F  F6  1  0.33333333  0.66666667  0.60990917  1
  F  F7  1  0.66666667  0.33333333  0.10990917  1
  F  F8  1  0.66666667  0.33333333  0.39009083  1
  F  F9  1  0.33333333  0.66666667  0.89009083  1
  F  F10  1  0.66666667  0.33333333  0.25000000  1
  F  F11  1  0.33333333  0.66666667  0.75000000  1
  F  F12  1  0.95127113  0.52741666  0.25000000  1
  F  F13  1  0.47258334  0.42385446  0.25000000  1
  F  F14  1  0.57614554  0.04872887  0.25000000  1
  F  F15  1  0.04872887  0.47258334  0.75000000  1
  F  F16  1  0.52741666  0.57614554  0.75000000  1
  F  F17  1  0.42385446  0.95127113  0.75000000  1
  F  F18  1  0.00000000  0.00000000  0.00000000  1
  F  F19  1  0.00000000  0.00000000  0.50000000  1
  F  F20  1  0.00000000  0.00000000  0.17593150  1
  F  F21  1  0.00000000  0.00000000  0.67593150  1
  F  F22  1  0.00000000  0.00000000  0.82406850  1
  F  F23  1  0.00000000  0.00000000  0.32406850  1
  Li  Li24  1  0.44906527  0.15218907  0.52189120  1
  Li  Li25  1  -0.15218907  0.29687620  0.52189120  1
  Li  Li26  1  -0.29687620  -0.44906527  0.52189120  1
  Li  Li27  1  -0.44906527  -0.15218907  1.02189120  1
  Li  Li28  1  0.15218907  -0.29687620  1.02189120  1
  Li  Li29  1  0.29687620  0.44906527  1.02189120  1
  Li  Li30  1  -0.44906527  -0.15218907  -0.52189120  1
  Li  Li31  1  0.15218907  -0.29687620  -0.52189120  1
  Li  Li32  1  0.29687620  0.44906527  -0.52189120  1
  Li  Li33  1  0.44906527  0.15218907  -0.02189120  1
  Li  Li34  1  -0.15218907  0.29687620  -0.02189120  1
  Li  Li35  1  -0.29687620  -0.44906527  -0.02189120  1
  Li  Li36  1  0.97963040  0.78899422  0.25000000  1
  Li  Li37  1  0.21100578  0.19063619  0.25000000  1
  Li  Li38  1  0.80936381  0.02036960  0.25000000  1
  Li  Li39  1  0.02036960  0.21100578  0.75000000  1
  Li  Li40  1  0.78899422  0.80936381  0.75000000  1
  Li  Li41  1  0.19063619  0.97963040  0.75000000  1
  Li  Li42  1  0.43089977  0.60417377  0.25000000  1
  Li  Li43  1  0.39582623  0.82672600  0.25000000  1
  Li  Li44  1  0.17327400  0.56910023  0.25000000  1
  Li  Li45  1  0.56910023  0.39582623  0.75000000  1
  Li  Li46  1  0.60417377  0.17327400  0.75000000  1
  Li  Li47  1  0.82672600  0.43089977  0.75000000  1
