# generated using pymatgen
data_LiY2P3Se2
_symmetry_space_group_name_H-M   'P 1'
_cell_length_a   5.45713917
_cell_length_b   5.58501174
_cell_length_c   7.20683842
_cell_angle_alpha   93.94949786
_cell_angle_beta   98.60118525
_cell_angle_gamma   105.86356320
_symmetry_Int_Tables_number   1
_chemical_formula_structural   LiY2P3Se2
_chemical_formula_sum   'Li1 Y2 P3 Se2'
_cell_volume   207.51400566
_cell_formula_units_Z   1
loop_
 _symmetry_equiv_pos_site_id
 _symmetry_equiv_pos_as_xyz
  1  'x, y, z'
loop_
 _atom_site_type_symbol
 _atom_site_label
 _atom_site_symmetry_multiplicity
 _atom_site_fract_x
 _atom_site_fract_y
 _atom_site_fract_z
 _atom_site_occupancy
  Se  Se0  1  0.12500000  0.00000000  0.25000000  1
  Se  Se1  1  0.00000000  0.00000000  0.00000000  1
  Y  Y2  1  0.37500000  0.00000000  0.25000000  1
  Y  Y3  1  0.25000000  0.25000000  0.25000000  1
  P  P4  1  0.00000000  0.25000000  0.12500000  1
  P  P5  1  0.88666002  0.60890054  0.35139837  1
  P  P6  1  0.06417698  0.36926712  0.61067887  1
  Li  Li7  1  0.76775346  0.85143060  0.82731152  1
