# generated using pymatgen
data_LiF
_symmetry_space_group_name_H-M   'P 1'
_cell_length_a   11.33612028
_cell_length_b   8.12659323
_cell_length_c   18.80476471
_cell_angle_alpha   90.00000000
_cell_angle_beta   90.00000000
_cell_angle_gamma   90.00000000
_symmetry_Int_Tables_number   1
_chemical_formula_structural   LiF
_chemical_formula_sum   'Li50 F50'
_cell_volume   1732.37086470
_cell_formula_units_Z   50
loop_
 _symmetry_equiv_pos_site_id
 _symmetry_equiv_pos_as_xyz
  1  'x, y, z'
loop_
 _atom_site_type_symbol
 _atom_site_label
 _atom_site_symmetry_multiplicity
 _atom_site_fract_x
 _atom_site_fract_y
 _atom_site_fract_z
 _atom_site_occupancy
  F  F0  1  0.71254959  0.33869462  0.21354074  1
  F  F1  1  0.28745041  0.66130538  0.21354074  1
  F  F2  1  0.78745041  0.83869462  0.78645926  1
  F  F3  1  0.21254959  0.16130538  0.78645926  1
  F  F4  1  0.28745041  0.66130538  0.78645926  1
  F  F5  1  0.71254959  0.33869462  0.78645926  1
  F  F6  1  0.21254959  0.16130538  0.21354074  1
  F  F7  1  0.78745041  0.83869462  0.21354074  1
  F  F8  1  0.81128345  0.68628925  0.40675370  1
  F  F9  1  0.18871655  0.31371075  0.40675370  1
  F  F10  1  0.68871655  0.18628925  0.59324630  1
  F  F11  1  0.31128345  0.81371075  0.59324630  1
  F  F12  1  0.18871655  0.31371075  0.59324630  1
  F  F13  1  0.81128345  0.68628925  0.59324630  1
  F  F14  1  0.31128345  0.81371075  0.40675370  1
  F  F15  1  0.68871655  0.18628925  0.40675370  1
  F  F16  1  0.38838495  0.06680492  0.65071328  1
  F  F17  1  0.61161505  0.93319508  0.65071328  1
  F  F18  1  0.11161505  0.56680492  0.34928672  1
  F  F19  1  0.88838495  0.43319508  0.34928672  1
  F  F20  1  0.61161505  0.93319508  0.34928672  1
  F  F21  1  0.38838495  0.06680492  0.34928672  1
  F  F22  1  0.88838495  0.43319508  0.65071328  1
  F  F23  1  0.11161505  0.56680492  0.65071328  1
  F  F24  1  0.57171914  0.49684745  -0.00000000  1
  F  F25  1  0.42828086  0.50315255  -0.00000000  1
  F  F26  1  0.92828086  0.99684745  0.00000000  1
  F  F27  1  0.07171914  0.00315255  0.00000000  1
  F  F28  1  0.83283155  0.85900427  0.73898241  1
  F  F29  1  0.16716845  0.14099573  0.73898241  1
  F  F30  1  0.66716845  0.35900427  0.26101759  1
  F  F31  1  0.33283155  0.64099573  0.26101759  1
  F  F32  1  0.16716845  0.14099573  0.26101759  1
  F  F33  1  0.83283155  0.85900427  0.26101759  1
  F  F34  1  0.33283155  0.64099573  0.73898241  1
  F  F35  1  0.66716845  0.35900427  0.73898241  1
  F  F36  1  0.09881166  0.81569856  0.93119567  1
  F  F37  1  0.90118834  0.18430144  0.93119567  1
  F  F38  1  0.40118834  0.31569856  0.06880433  1
  F  F39  1  0.59881166  0.68430144  0.06880433  1
  F  F40  1  0.90118834  0.18430144  0.06880433  1
  F  F41  1  0.09881166  0.81569856  0.06880433  1
  F  F42  1  0.59881166  0.68430144  0.93119567  1
  F  F43  1  0.40118834  0.31569856  0.93119567  1
  F  F44  1  0.00000000  0.50000000  0.64071623  1
  F  F45  1  0.50000000  0.00000000  0.35928377  1
  F  F46  1  0.00000000  0.50000000  0.35928377  1
  F  F47  1  0.50000000  0.00000000  0.64071623  1
  F  F48  1  0.00000000  0.00000000  0.00000000  1
  F  F49  1  0.50000000  0.50000000  0.00000000  1
  Li  Li50  1  0.00000000  0.50000000  0.79270169  1
  Li  Li51  1  0.50000000  0.00000000  0.20729831  1
  Li  Li52  1  0.00000000  0.50000000  0.20729831  1
  Li  Li53  1  0.50000000  0.00000000  0.79270169  1
  Li  Li54  1  0.37613792  0.62151842  0.62477834  1
  Li  Li55  1  -0.37613792  -0.62151842  0.62477834  1
  Li  Li56  1  0.12386208  1.12151842  -0.62477834  1
  Li  Li57  1  0.87613792  -0.12151842  -0.62477834  1
  Li  Li58  1  -0.37613792  -0.62151842  -0.62477834  1
  Li  Li59  1  0.37613792  0.62151842  -0.62477834  1
  Li  Li60  1  0.87613792  -0.12151842  0.62477834  1
  Li  Li61  1  0.12386208  1.12151842  0.62477834  1
  Li  Li62  1  0.00000000  0.50000000  0.50000000  1
  Li  Li63  1  0.50000000  0.00000000  0.50000000  1
  Li  Li64  1  0.41225080  0.27951045  0.26128275  1
  Li  Li65  1  0.58774920  0.72048955  0.26128275  1
  Li  Li66  1  0.08774920  0.77951045  0.73871725  1
  Li  Li67  1  0.91225080  0.22048955  0.73871725  1
  Li  Li68  1  0.58774920  0.72048955  0.73871725  1
  Li  Li69  1  0.41225080  0.27951045  0.73871725  1
  Li  Li70  1  0.91225080  0.22048955  0.26128275  1
  Li  Li71  1  0.08774920  0.77951045  0.26128275  1
  Li  Li72  1  0.66224100  0.92285537  0.10637740  1
  Li  Li73  1  0.33775900  0.07714463  0.10637740  1
  Li  Li74  1  0.83775900  0.42285537  0.89362260  1
  Li  Li75  1  0.16224100  0.57714463  0.89362260  1
  Li  Li76  1  0.33775900  0.07714463  0.89362260  1
  Li  Li77  1  0.66224100  0.92285537  0.89362260  1
  Li  Li78  1  0.16224100  0.57714463  0.10637740  1
  Li  Li79  1  0.83775900  0.42285537  0.10637740  1
  Li  Li80  1  0.09944468  0.77273052  0.11912729  1
  Li  Li81  1  0.90055532  0.22726948  0.11912729  1
  Li  Li82  1  0.40055532  0.27273052  0.88087271  1
  Li  Li83  1  0.59944468  0.72726948  0.88087271  1
  Li  Li84  1  0.90055532  0.22726948  0.88087271  1
  Li  Li85  1  0.09944468  0.77273052  0.88087271  1
  Li  Li86  1  0.59944468  0.72726948  0.11912729  1
  Li  Li87  1  0.40055532  0.27273052  0.11912729  1
  Li  Li88  1  0.29791738  0.84255399  0.92032477  1
  Li  Li89  1  0.70208262  0.15744601  0.92032477  1
  Li  Li90  1  0.20208262  0.34255399  0.07967523  1
  Li  Li91  1  0.79791738  0.65744601  0.07967523  1
  Li  Li92  1  0.70208262  0.15744601  0.07967523  1
  Li  Li93  1  0.29791738  0.84255399  0.07967523  1
  Li  Li94  1  0.79791738  0.65744601  0.92032477  1
  Li  Li95  1  0.20208262  0.34255399  0.92032477  1
  Li  Li96  1  0.00000000  0.50000000  -0.00000000  1
  Li  Li97  1  0.50000000  0.00000000  0.00000000  1
  Li  Li98  1  0.00000000  0.00000000  0.50000000  1
  Li  Li99  1  0.50000000  0.50000000  0.50000000  1
