# generated using pymatgen
data_LiF
_symmetry_space_group_name_H-M   'P 1'
_cell_length_a   14.30409188
_cell_length_b   14.30409188
_cell_length_c   8.68481905
_cell_angle_alpha   90.00000000
_cell_angle_beta   90.00000000
_cell_angle_gamma   90.00000000
_symmetry_Int_Tables_number   1
_chemical_formula_structural   LiF
_chemical_formula_sum   'Li64 F64'
_cell_volume   1776.97515846
_cell_formula_units_Z   64
loop_
 _symmetry_equiv_pos_site_id
 _symmetry_equiv_pos_as_xyz
  1  'x, y, z'
loop_
 _atom_site_type_symbol
 _atom_site_label
 _atom_site_symmetry_multiplicity
 _atom_site_fract_x
 _atom_site_fract_y
 _atom_site_fract_z
 _atom_site_occupancy
  F  F0  1  0.63467687  0.70111581  0.73554356  1
  F  F1  1  -0.13467687  -0.70111581  1.23554356  1
  F  F2  1  -0.45111581  1.38467687  0.98554356  1
  F  F3  1  0.95111581  -0.38467687  1.48554356  1
  F  F4  1  -0.13467687  0.70111581  -0.73554356  1
  F  F5  1  0.63467687  -0.70111581  -0.23554356  1
  F  F6  1  0.95111581  1.38467687  0.01445644  1
  F  F7  1  -0.45111581  -0.38467687  -0.48554356  1
  F  F8  1  -0.63467687  -0.70111581  -0.73554356  1
  F  F9  1  1.13467687  0.70111581  -0.23554356  1
  F  F10  1  1.45111581  -0.38467687  0.01445644  1
  F  F11  1  0.04888419  1.38467687  -0.48554356  1
  F  F12  1  1.13467687  -0.70111581  0.73554356  1
  F  F13  1  -0.63467687  0.70111581  1.23554356  1
  F  F14  1  0.04888419  -0.38467687  0.98554356  1
  F  F15  1  1.45111581  1.38467687  1.48554356  1
  F  F16  1  1.13467687  1.20111581  1.23554356  1
  F  F17  1  0.36532313  -0.20111581  1.73554356  1
  F  F18  1  0.04888419  1.88467687  1.48554356  1
  F  F19  1  1.45111581  0.11532313  1.98554356  1
  F  F20  1  0.36532313  1.20111581  -0.23554356  1
  F  F21  1  1.13467687  -0.20111581  0.26445644  1
  F  F22  1  1.45111581  1.88467687  0.51445644  1
  F  F23  1  0.04888419  0.11532313  0.01445644  1
  F  F24  1  -0.13467687  -0.20111581  -0.23554356  1
  F  F25  1  1.63467687  1.20111581  0.26445644  1
  F  F26  1  1.95111581  0.11532313  0.51445644  1
  F  F27  1  0.54888419  1.88467687  0.01445644  1
  F  F28  1  1.63467687  -0.20111581  1.23554356  1
  F  F29  1  -0.13467687  1.20111581  1.73554356  1
  F  F30  1  0.54888419  0.11532313  1.48554356  1
  F  F31  1  1.95111581  1.88467687  1.98554356  1
  F  F32  1  0.82464730  0.62196484  0.80141056  1
  F  F33  1  0.67535270  0.37803516  0.30141056  1
  F  F34  1  0.62803516  0.57464730  0.05141056  1
  F  F35  1  0.87196484  0.42535270  0.55141056  1
  F  F36  1  0.67535270  0.62196484  0.19858944  1
  F  F37  1  0.82464730  0.37803516  0.69858944  1
  F  F38  1  0.87196484  0.57464730  0.94858944  1
  F  F39  1  0.62803516  0.42535270  0.44858944  1
  F  F40  1  0.17535270  0.37803516  0.19858944  1
  F  F41  1  0.32464730  0.62196484  0.69858944  1
  F  F42  1  0.37196484  0.42535270  0.94858944  1
  F  F43  1  0.12803516  0.57464730  0.44858944  1
  F  F44  1  0.32464730  0.37803516  0.80141056  1
  F  F45  1  0.17535270  0.62196484  0.30141056  1
  F  F46  1  0.12803516  0.42535270  0.05141056  1
  F  F47  1  0.37196484  0.57464730  0.55141056  1
  F  F48  1  0.32464730  0.12196484  0.30141056  1
  F  F49  1  0.17535270  0.87803516  0.80141056  1
  F  F50  1  0.12803516  0.07464730  0.55141056  1
  F  F51  1  0.37196484  0.92535270  0.05141056  1
  F  F52  1  0.17535270  0.12196484  0.69858944  1
  F  F53  1  0.32464730  0.87803516  0.19858944  1
  F  F54  1  0.37196484  0.07464730  0.44858944  1
  F  F55  1  0.12803516  0.92535270  0.94858944  1
  F  F56  1  0.67535270  0.87803516  0.69858944  1
  F  F57  1  0.82464730  0.12196484  0.19858944  1
  F  F58  1  0.87196484  0.92535270  0.44858944  1
  F  F59  1  0.62803516  0.07464730  0.94858944  1
  F  F60  1  0.82464730  0.87803516  0.30141056  1
  F  F61  1  0.67535270  0.12196484  0.80141056  1
  F  F62  1  0.62803516  0.92535270  0.55141056  1
  F  F63  1  0.87196484  0.07464730  0.05141056  1
  Li  Li64  1  0.63715245  0.01843482  0.39899367  1
  Li  Li65  1  0.86284755  0.98156518  0.89899367  1
  Li  Li66  1  0.23156518  0.38715245  0.64899367  1
  Li  Li67  1  0.26843482  0.61284755  0.14899367  1
  Li  Li68  1  0.86284755  0.01843482  0.60100633  1
  Li  Li69  1  0.63715245  0.98156518  0.10100633  1
  Li  Li70  1  0.26843482  0.38715245  0.35100633  1
  Li  Li71  1  0.23156518  0.61284755  0.85100633  1
  Li  Li72  1  0.36284755  0.98156518  0.60100633  1
  Li  Li73  1  0.13715245  0.01843482  0.10100633  1
  Li  Li74  1  0.76843482  0.61284755  0.35100633  1
  Li  Li75  1  0.73156518  0.38715245  0.85100633  1
  Li  Li76  1  0.13715245  0.98156518  0.39899367  1
  Li  Li77  1  0.36284755  0.01843482  0.89899367  1
  Li  Li78  1  0.73156518  0.61284755  0.64899367  1
  Li  Li79  1  0.76843482  0.38715245  0.14899367  1
  Li  Li80  1  0.13715245  0.51843482  0.89899367  1
  Li  Li81  1  0.36284755  0.48156518  0.39899367  1
  Li  Li82  1  0.73156518  0.88715245  0.14899367  1
  Li  Li83  1  0.76843482  0.11284755  0.64899367  1
  Li  Li84  1  0.36284755  0.51843482  0.10100633  1
  Li  Li85  1  0.13715245  0.48156518  0.60100633  1
  Li  Li86  1  0.76843482  0.88715245  0.85100633  1
  Li  Li87  1  0.73156518  0.11284755  0.35100633  1
  Li  Li88  1  0.86284755  0.48156518  0.10100633  1
  Li  Li89  1  0.63715245  0.51843482  0.60100633  1
  Li  Li90  1  0.26843482  0.11284755  0.85100633  1
  Li  Li91  1  0.23156518  0.88715245  0.35100633  1
  Li  Li92  1  0.63715245  0.48156518  0.89899367  1
  Li  Li93  1  0.86284755  0.51843482  0.39899367  1
  Li  Li94  1  0.23156518  0.11284755  0.14899367  1
  Li  Li95  1  0.26843482  0.88715245  0.64899367  1
  Li  Li96  1  0.74209858  0.00000000  0.25000000  1
  Li  Li97  1  0.75790142  -0.00000000  0.75000000  1
  Li  Li98  1  0.25000000  0.49209858  0.50000000  1
  Li  Li99  1  0.25000000  0.50790142  0.00000000  1
  Li  Li100  1  0.25790142  -0.00000000  0.75000000  1
  Li  Li101  1  0.24209858  -0.00000000  0.25000000  1
  Li  Li102  1  0.75000000  0.50790142  0.50000000  1
  Li  Li103  1  0.75000000  0.49209858  0.00000000  1
  Li  Li104  1  0.24209858  0.50000000  0.75000000  1
  Li  Li105  1  0.25790142  0.50000000  0.25000000  1
  Li  Li106  1  0.75000000  0.99209858  0.00000000  1
  Li  Li107  1  0.75000000  0.00790142  0.50000000  1
  Li  Li108  1  0.75790142  0.50000000  0.25000000  1
  Li  Li109  1  0.74209858  0.50000000  0.75000000  1
  Li  Li110  1  0.25000000  0.00790142  0.00000000  1
  Li  Li111  1  0.25000000  0.99209858  0.50000000  1
  Li  Li112  1  0.00000000  0.25000000  0.26024957  1
  Li  Li113  1  0.00000000  0.75000000  0.51024957  1
  Li  Li114  1  0.50000000  0.25000000  0.73975043  1
  Li  Li115  1  0.50000000  0.75000000  0.48975043  1
  Li  Li116  1  0.00000000  0.75000000  0.73975043  1
  Li  Li117  1  0.00000000  0.25000000  0.48975043  1
  Li  Li118  1  0.50000000  0.75000000  0.26024957  1
  Li  Li119  1  0.50000000  0.25000000  0.51024957  1
  Li  Li120  1  0.50000000  0.75000000  0.76024957  1
  Li  Li121  1  0.50000000  0.25000000  0.01024957  1
  Li  Li122  1  0.00000000  0.75000000  0.23975043  1
  Li  Li123  1  0.00000000  0.25000000  0.98975043  1
  Li  Li124  1  0.50000000  0.25000000  0.23975043  1
  Li  Li125  1  0.50000000  0.75000000  0.98975043  1
  Li  Li126  1  0.00000000  0.25000000  0.76024957  1
  Li  Li127  1  0.00000000  0.75000000  0.01024957  1
