# generated using pymatgen
data_LiBS2
_symmetry_space_group_name_H-M   'P 1'
_cell_length_a   5.22025550
_cell_length_b   6.56616838
_cell_length_c   11.28384842
_cell_angle_alpha   90.00000000
_cell_angle_beta   90.00000000
_cell_angle_gamma   90.00000000
_symmetry_Int_Tables_number   1
_chemical_formula_structural   LiBS2
_chemical_formula_sum   'Li4 B4 S8'
_cell_volume   386.77733633
_cell_formula_units_Z   4
loop_
 _symmetry_equiv_pos_site_id
 _symmetry_equiv_pos_as_xyz
  1  'x, y, z'
loop_
 _atom_site_type_symbol
 _atom_site_label
 _atom_site_symmetry_multiplicity
 _atom_site_fract_x
 _atom_site_fract_y
 _atom_site_fract_z
 _atom_site_occupancy
  B  B0  1  0.00000000  0.50000000  0.50000000  1
  B  B1  1  0.50000000  -0.00000000  0.50000000  1
  B  B2  1  0.00000000  0.00000000  0.00000000  1
  B  B3  1  0.50000000  0.50000000  0.00000000  1
  Li  Li4  1  0.00000000  0.00000000  0.15784324  1
  Li  Li5  1  0.50000000  0.50000000  0.84215676  1
  Li  Li6  1  0.00000000  0.00000000  0.84215676  1
  Li  Li7  1  0.50000000  0.50000000  0.15784324  1
  S  S8  1  0.48230195  0.64543700  0.35794612  1
  S  S9  1  -0.48230195  -0.64543700  0.35794612  1
  S  S10  1  0.01769805  1.14543700  -0.35794612  1
  S  S11  1  0.98230195  -0.14543700  -0.35794612  1
  S  S12  1  -0.48230195  -0.64543700  -0.35794612  1
  S  S13  1  0.48230195  0.64543700  -0.35794612  1
  S  S14  1  0.98230195  -0.14543700  0.35794612  1
  S  S15  1  0.01769805  1.14543700  0.35794612  1
