# generated using pymatgen
data_LiF
_symmetry_space_group_name_H-M   'P 1'
_cell_length_a   12.91443621
_cell_length_b   12.91443621
_cell_length_c   3.23875468
_cell_angle_alpha   90.00000000
_cell_angle_beta   90.00000000
_cell_angle_gamma   120.00000000
_symmetry_Int_Tables_number   1
_chemical_formula_structural   LiF
_chemical_formula_sum   'Li23 F23'
_cell_volume   467.79932231
_cell_formula_units_Z   23
loop_
 _symmetry_equiv_pos_site_id
 _symmetry_equiv_pos_as_xyz
  1  'x, y, z'
loop_
 _atom_site_type_symbol
 _atom_site_label
 _atom_site_symmetry_multiplicity
 _atom_site_fract_x
 _atom_site_fract_y
 _atom_site_fract_z
 _atom_site_occupancy
  F  F0  1  0.81475106  0.00613608  0.68524079  1
  F  F1  1  0.99386392  0.80861498  0.68524079  1
  F  F2  1  0.19138502  0.18524894  0.68524079  1
  F  F3  1  0.99386392  0.18524894  0.31475921  1
  F  F4  1  0.19138502  0.00613608  0.31475921  1
  F  F5  1  0.81475106  0.80861498  0.31475921  1
  F  F6  1  0.58411300  0.44367884  0.86758341  1
  F  F7  1  0.55632116  0.14043416  0.86758341  1
  F  F8  1  0.85956584  0.41588700  0.86758341  1
  F  F9  1  0.55632116  0.41588700  0.13241659  1
  F  F10  1  0.85956584  0.44367884  0.13241659  1
  F  F11  1  0.58411300  0.14043416  0.13241659  1
  F  F12  1  0.95287404  0.12240750  0.98507826  1
  F  F13  1  0.87759250  0.83046655  0.98507826  1
  F  F14  1  0.16953345  0.04712596  0.98507826  1
  F  F15  1  0.87759250  0.04712596  0.01492174  1
  F  F16  1  0.16953345  0.12240750  0.01492174  1
  F  F17  1  0.95287404  0.83046655  0.01492174  1
  F  F18  1  0.57305188  0.42694812  0.50000000  1
  F  F19  1  0.57305188  0.14610377  0.50000000  1
  F  F20  1  0.85389623  0.42694812  0.50000000  1
  F  F21  1  0.66666667  0.33333333  0.00000000  1
  F  F22  1  0.33333333  0.66666667  0.50000000  1
  Li  Li23  1  0.66666667  0.33333333  0.50000000  1
  Li  Li24  1  0.52875706  0.68760108  0.73070317  1
  Li  Li25  1  -0.68760108  -0.15884403  0.73070317  1
  Li  Li26  1  0.15884403  -0.52875706  0.73070317  1
  Li  Li27  1  -0.68760108  -0.52875706  -0.73070317  1
  Li  Li28  1  0.15884403  0.68760108  -0.73070317  1
  Li  Li29  1  0.52875706  -0.15884403  -0.73070317  1
  Li  Li30  1  0.40642325  0.30858993  0.57816950  1
  Li  Li31  1  0.69141007  0.09783333  0.57816950  1
  Li  Li32  1  0.90216667  0.59357675  0.57816950  1
  Li  Li33  1  0.69141007  0.59357675  0.42183050  1
  Li  Li34  1  0.90216667  0.30858993  0.42183050  1
  Li  Li35  1  0.40642325  0.09783333  0.42183050  1
  Li  Li36  1  0.38264368  0.50013171  0.75264250  1
  Li  Li37  1  0.49986829  0.88251197  0.75264250  1
  Li  Li38  1  0.11748803  0.61735632  0.75264250  1
  Li  Li39  1  0.49986829  0.61735632  0.24735750  1
  Li  Li40  1  0.11748803  0.50013171  0.24735750  1
  Li  Li41  1  0.38264368  0.88251197  0.24735750  1
  Li  Li42  1  0.00000000  0.00000000  0.50000000  1
  Li  Li43  1  0.76281522  0.23718478  0.50000000  1
  Li  Li44  1  0.76281522  0.52563043  0.50000000  1
  Li  Li45  1  0.47436957  0.23718478  0.50000000  1
