# generated using pymatgen
data_LiSb2PSeF6
_symmetry_space_group_name_H-M   'P 1'
_cell_length_a   5.41921998
_cell_length_b   5.23613172
_cell_length_c   5.17528344
_cell_angle_alpha   92.20880382
_cell_angle_beta   87.72404454
_cell_angle_gamma   87.75873875
_symmetry_Int_Tables_number   1
_chemical_formula_structural   LiSb2PSeF6
_chemical_formula_sum   'Li1 Sb2 P1 Se1 F6'
_cell_volume   146.50618202
_cell_formula_units_Z   1
loop_
 _symmetry_equiv_pos_site_id
 _symmetry_equiv_pos_as_xyz
  1  'x, y, z'
loop_
 _atom_site_type_symbol
 _atom_site_label
 _atom_site_symmetry_multiplicity
 _atom_site_fract_x
 _atom_site_fract_y
 _atom_site_fract_z
 _atom_site_occupancy
  Se  Se0  1  0.00000000  0.00000000  0.00000000  1
  F  F1  1  0.50000000  0.50000000  0.50000000  1
  F  F2  1  0.25000000  0.25000000  0.25000000  1
  F  F3  1  0.75000000  0.25000000  0.00000000  1
  F  F4  1  0.25000000  0.75000000  0.50000000  1
  F  F5  1  0.46578979  0.63267337  0.13487203  1
  F  F6  1  0.16823583  0.69960485  0.12835570  1
  P  P7  1  0.96465566  0.79838111  0.41595300  1
  Li  Li8  1  0.16030917  0.26822675  0.23200685  1
  Sb  Sb9  1  0.81648556  0.29670346  0.58808131  1
  Sb  Sb10  1  0.04918590  0.86728341  0.92945967  1
