# generated using pymatgen
data_LiF
_symmetry_space_group_name_H-M   'P 1'
_cell_length_a   6.42752343
_cell_length_b   6.42752343
_cell_length_c   9.50254325
_cell_angle_alpha   90.00000000
_cell_angle_beta   90.00000000
_cell_angle_gamma   120.00000000
_symmetry_Int_Tables_number   1
_chemical_formula_structural   LiF
_chemical_formula_sum   'Li20 F20'
_cell_volume   339.98348633
_cell_formula_units_Z   20
loop_
 _symmetry_equiv_pos_site_id
 _symmetry_equiv_pos_as_xyz
  1  'x, y, z'
loop_
 _atom_site_type_symbol
 _atom_site_label
 _atom_site_symmetry_multiplicity
 _atom_site_fract_x
 _atom_site_fract_y
 _atom_site_fract_z
 _atom_site_occupancy
  F  F0  1  0.35021548  0.54635520  0.27291483  1
  F  F1  1  0.45364480  0.80386028  0.27291483  1
  F  F2  1  0.19613972  0.64978452  0.27291483  1
  F  F3  1  0.35021548  0.54635520  0.72708517  1
  F  F4  1  0.45364480  0.80386028  0.72708517  1
  F  F5  1  0.19613972  0.64978452  0.72708517  1
  F  F6  1  0.54635520  0.35021548  0.72708517  1
  F  F7  1  0.80386028  0.45364480  0.72708517  1
  F  F8  1  0.64978452  0.19613972  0.72708517  1
  F  F9  1  0.54635520  0.35021548  0.27291483  1
  F  F10  1  0.80386028  0.45364480  0.27291483  1
  F  F11  1  0.64978452  0.19613972  0.27291483  1
  F  F12  1  0.47271163  0.76840746  0.50000000  1
  F  F13  1  0.23159254  0.70430417  0.50000000  1
  F  F14  1  0.29569583  0.52728837  0.50000000  1
  F  F15  1  0.76840746  0.47271163  0.50000000  1
  F  F16  1  0.70430417  0.23159254  0.50000000  1
  F  F17  1  0.52728837  0.29569583  0.50000000  1
  F  F18  1  0.33333333  0.66666667  0.50000000  1
  F  F19  1  0.66666667  0.33333333  0.50000000  1
  Li  Li20  1  0.55980356  0.00000000  -0.00000000  1
  Li  Li21  1  0.00000000  0.55980356  -0.00000000  1
  Li  Li22  1  0.44019644  0.44019644  0.00000000  1
  Li  Li23  1  0.00000000  0.00000000  0.61066090  1
  Li  Li24  1  0.00000000  0.00000000  0.38933910  1
  Li  Li25  1  0.62824714  0.00000000  0.50000000  1
  Li  Li26  1  0.00000000  0.62824714  0.50000000  1
  Li  Li27  1  0.37175286  0.37175286  0.50000000  1
  Li  Li28  1  0.86255873  0.12449187  0.64423966  1
  Li  Li29  1  -0.12449187  0.73806686  0.64423966  1
  Li  Li30  1  -0.73806686  -0.86255873  0.64423966  1
  Li  Li31  1  0.86255873  0.12449187  -0.64423966  1
  Li  Li32  1  -0.12449187  0.73806686  -0.64423966  1
  Li  Li33  1  -0.73806686  -0.86255873  -0.64423966  1
  Li  Li34  1  0.12449187  0.86255873  -0.64423966  1
  Li  Li35  1  0.73806686  -0.12449187  -0.64423966  1
  Li  Li36  1  -0.86255873  -0.73806686  -0.64423966  1
  Li  Li37  1  0.12449187  0.86255873  0.64423966  1
  Li  Li38  1  0.73806686  -0.12449187  0.64423966  1
  Li  Li39  1  -0.86255873  -0.73806686  0.64423966  1
