# generated using pymatgen
data_LiF
_symmetry_space_group_name_H-M   'P 1'
_cell_length_a   6.84788393
_cell_length_b   9.26208110
_cell_length_c   8.16460029
_cell_angle_alpha   90.00000000
_cell_angle_beta   90.00000000
_cell_angle_gamma   90.00000000
_symmetry_Int_Tables_number   1
_chemical_formula_structural   LiF
_chemical_formula_sum   'Li24 F24'
_cell_volume   517.84513198
_cell_formula_units_Z   24
loop_
 _symmetry_equiv_pos_site_id
 _symmetry_equiv_pos_as_xyz
  1  'x, y, z'
loop_
 _atom_site_type_symbol
 _atom_site_label
 _atom_site_symmetry_multiplicity
 _atom_site_fract_x
 _atom_site_fract_y
 _atom_site_fract_z
 _atom_site_occupancy
  F  F0  1  0.47014693  0.25000000  0.14024923  1
  F  F1  1  0.02985307  0.75000000  0.64024923  1
  F  F2  1  0.52985307  0.75000000  0.85975077  1
  F  F3  1  0.97014693  0.25000000  0.35975077  1
  F  F4  1  0.34064080  0.60739041  0.69624337  1
  F  F5  1  0.15935920  0.39260959  0.19624337  1
  F  F6  1  0.65935920  0.10739041  0.30375663  1
  F  F7  1  0.84064080  0.89260959  0.80375663  1
  F  F8  1  0.65935920  0.39260959  0.30375663  1
  F  F9  1  0.84064080  0.60739041  0.80375663  1
  F  F10  1  0.34064080  0.89260959  0.69624337  1
  F  F11  1  0.15935920  0.10739041  0.19624337  1
  F  F12  1  0.41834667  0.25000000  0.00626630  1
  F  F13  1  0.08165333  0.75000000  0.50626630  1
  F  F14  1  0.58165333  0.75000000  0.99373370  1
  F  F15  1  0.91834667  0.25000000  0.49373370  1
  F  F16  1  0.68468058  0.03118660  0.78083377  1
  F  F17  1  0.81531942  0.96881340  0.28083377  1
  F  F18  1  0.31531942  0.53118660  0.21916623  1
  F  F19  1  0.18468058  0.46881340  0.71916623  1
  F  F20  1  0.31531942  0.96881340  0.21916623  1
  F  F21  1  0.18468058  0.03118660  0.71916623  1
  F  F22  1  0.68468058  0.46881340  0.78083377  1
  F  F23  1  0.81531942  0.53118660  0.28083377  1
  Li  Li24  1  0.72463250  0.25000000  0.84837490  1
  Li  Li25  1  0.77536750  0.75000000  0.34837490  1
  Li  Li26  1  0.27536750  0.75000000  0.15162510  1
  Li  Li27  1  0.22463250  0.25000000  0.65162510  1
  Li  Li28  1  0.00000000  0.00000000  0.50000000  1
  Li  Li29  1  0.50000000  0.00000000  0.00000000  1
  Li  Li30  1  0.00000000  0.50000000  0.50000000  1
  Li  Li31  1  0.50000000  0.50000000  0.00000000  1
  Li  Li32  1  0.63284984  0.33953378  0.18361973  1
  Li  Li33  1  -0.13284984  -0.33953378  0.68361973  1
  Li  Li34  1  -0.63284984  0.83953378  -0.18361973  1
  Li  Li35  1  1.13284984  0.16046622  0.31638027  1
  Li  Li36  1  -0.63284984  -0.33953378  -0.18361973  1
  Li  Li37  1  1.13284984  0.33953378  0.31638027  1
  Li  Li38  1  0.63284984  0.16046622  0.18361973  1
  Li  Li39  1  -0.13284984  0.83953378  0.68361973  1
  Li  Li40  1  0.39830527  0.25000000  0.54043588  1
  Li  Li41  1  0.10169473  0.75000000  0.04043588  1
  Li  Li42  1  0.60169473  0.75000000  0.45956412  1
  Li  Li43  1  0.89830527  0.25000000  0.95956412  1
  Li  Li44  1  0.00000000  0.00000000  0.00000000  1
  Li  Li45  1  0.50000000  0.00000000  0.50000000  1
  Li  Li46  1  0.00000000  0.50000000  0.00000000  1
  Li  Li47  1  0.50000000  0.50000000  0.50000000  1
