# generated using pymatgen
data_LiF
_symmetry_space_group_name_H-M   'P 1'
_cell_length_a   12.93636997
_cell_length_b   10.59500923
_cell_length_c   5.30152691
_cell_angle_alpha   90.00000000
_cell_angle_beta   90.00000000
_cell_angle_gamma   90.00000000
_symmetry_Int_Tables_number   1
_chemical_formula_structural   LiF
_chemical_formula_sum   'Li34 F34'
_cell_volume   726.63236373
_cell_formula_units_Z   34
loop_
 _symmetry_equiv_pos_site_id
 _symmetry_equiv_pos_as_xyz
  1  'x, y, z'
loop_
 _atom_site_type_symbol
 _atom_site_label
 _atom_site_symmetry_multiplicity
 _atom_site_fract_x
 _atom_site_fract_y
 _atom_site_fract_z
 _atom_site_occupancy
  F  F0  1  0.65002859  0.99589291  0.70285035  1
  F  F1  1  -0.65002859  -0.99589291  0.70285035  1
  F  F2  1  -0.15002859  1.49589291  -0.70285035  1
  F  F3  1  1.15002859  -0.49589291  -0.70285035  1
  F  F4  1  -0.65002859  -0.99589291  -0.70285035  1
  F  F5  1  0.65002859  0.99589291  -0.70285035  1
  F  F6  1  1.15002859  -0.49589291  0.70285035  1
  F  F7  1  -0.15002859  1.49589291  0.70285035  1
  F  F8  1  0.00000000  0.00000000  0.50000000  1
  F  F9  1  0.50000000  0.50000000  0.50000000  1
  F  F10  1  0.61381560  0.09726644  0.50000000  1
  F  F11  1  0.38618440  0.90273356  0.50000000  1
  F  F12  1  0.88618440  0.59726644  0.50000000  1
  F  F13  1  0.11381560  0.40273356  0.50000000  1
  F  F14  1  0.02143385  0.77208631  -0.00000000  1
  F  F15  1  0.97856615  0.22791369  0.00000000  1
  F  F16  1  0.47856615  0.27208631  0.00000000  1
  F  F17  1  0.52143385  0.72791369  0.00000000  1
  F  F18  1  0.00000000  0.00000000  0.62914404  1
  F  F19  1  0.50000000  0.50000000  0.37085596  1
  F  F20  1  0.00000000  0.00000000  0.37085596  1
  F  F21  1  0.50000000  0.50000000  0.62914404  1
  F  F22  1  0.74722101  0.57953470  0.11991135  1
  F  F23  1  0.25277899  0.42046530  0.11991135  1
  F  F24  1  0.75277899  0.07953470  0.88008865  1
  F  F25  1  0.24722101  0.92046530  0.88008865  1
  F  F26  1  0.25277899  0.42046530  0.88008865  1
  F  F27  1  0.74722101  0.57953470  0.88008865  1
  F  F28  1  0.24722101  0.92046530  0.11991135  1
  F  F29  1  0.75277899  0.07953470  0.11991135  1
  F  F30  1  0.23334394  0.73653316  0.00000000  1
  F  F31  1  0.76665606  0.26346684  0.00000000  1
  F  F32  1  0.26665606  0.23653316  0.00000000  1
  F  F33  1  0.73334394  0.76346684  -0.00000000  1
  Li  Li34  1  0.00000000  0.50000000  0.00000000  1
  Li  Li35  1  0.50000000  0.00000000  0.00000000  1
  Li  Li36  1  0.22863658  0.49144375  0.00000000  1
  Li  Li37  1  0.77136342  0.50855625  0.00000000  1
  Li  Li38  1  0.27136342  0.99144375  -0.00000000  1
  Li  Li39  1  0.72863658  0.00855625  0.00000000  1
  Li  Li40  1  0.63144857  0.12743677  0.83800506  1
  Li  Li41  1  0.36855143  0.87256323  0.83800506  1
  Li  Li42  1  0.86855143  0.62743677  0.16199494  1
  Li  Li43  1  0.13144857  0.37256323  0.16199494  1
  Li  Li44  1  0.36855143  0.87256323  0.16199494  1
  Li  Li45  1  0.63144857  0.12743677  0.16199494  1
  Li  Li46  1  0.13144857  0.37256323  0.83800506  1
  Li  Li47  1  0.86855143  0.62743677  0.83800506  1
  Li  Li48  1  0.23050591  0.57863373  0.31032831  1
  Li  Li49  1  0.76949409  0.42136627  0.31032831  1
  Li  Li50  1  0.26949409  0.07863373  0.68967169  1
  Li  Li51  1  0.73050591  0.92136627  0.68967169  1
  Li  Li52  1  0.76949409  0.42136627  0.68967169  1
  Li  Li53  1  0.23050591  0.57863373  0.68967169  1
  Li  Li54  1  0.73050591  0.92136627  0.31032831  1
  Li  Li55  1  0.26949409  0.07863373  0.31032831  1
  Li  Li56  1  0.00000000  0.50000000  0.50000000  1
  Li  Li57  1  0.50000000  0.00000000  0.50000000  1
  Li  Li58  1  0.02458176  0.26162971  0.87228043  1
  Li  Li59  1  0.97541824  0.73837029  0.87228043  1
  Li  Li60  1  0.47541824  0.76162971  0.12771957  1
  Li  Li61  1  0.52458176  0.23837029  0.12771957  1
  Li  Li62  1  0.97541824  0.73837029  0.12771957  1
  Li  Li63  1  0.02458176  0.26162971  0.12771957  1
  Li  Li64  1  0.52458176  0.23837029  0.87228043  1
  Li  Li65  1  0.47541824  0.76162971  0.87228043  1
  Li  Li66  1  0.00000000  0.00000000  0.00000000  1
  Li  Li67  1  0.50000000  0.50000000  0.00000000  1
