# generated using pymatgen
data_Li2YAs2P3Se2
_symmetry_space_group_name_H-M   'P 1'
_cell_length_a   5.61792163
_cell_length_b   5.66366317
_cell_length_c   7.20979314
_cell_angle_alpha   94.15362939
_cell_angle_beta   98.74996212
_cell_angle_gamma   105.24608757
_symmetry_Int_Tables_number   1
_chemical_formula_structural   Li2YAs2P3Se2
_chemical_formula_sum   'Li2 Y1 As2 P3 Se2'
_cell_volume   217.22581104
_cell_formula_units_Z   1
loop_
 _symmetry_equiv_pos_site_id
 _symmetry_equiv_pos_as_xyz
  1  'x, y, z'
loop_
 _atom_site_type_symbol
 _atom_site_label
 _atom_site_symmetry_multiplicity
 _atom_site_fract_x
 _atom_site_fract_y
 _atom_site_fract_z
 _atom_site_occupancy
  Se  Se0  1  0.00000000  0.00000000  0.00000000  1
  Se  Se1  1  0.50000000  0.50000000  0.50000000  1
  P  P2  1  0.50000000  0.50000000  0.00000000  1
  P  P3  1  0.50000000  0.00000000  0.50000000  1
  P  P4  1  0.00000000  0.50000000  0.50000000  1
  As  As5  1  0.26704782  0.97570055  0.04847068  1
  As  As6  1  0.95256998  0.27445507  0.27922941  1
  Li  Li7  1  0.61920710  0.95106047  0.31938501  1
  Li  Li8  1  0.26446110  0.84501248  0.96828318  1
  Y  Y9  1  0.52587060  0.22846766  0.55520708  1
