# generated using pymatgen
data_Ca3Zr6Te(Br4F3)4
_symmetry_space_group_name_H-M   'P 1'
_cell_length_a   13.16514163
_cell_length_b   13.16514163
_cell_length_c   41.21608518
_cell_angle_alpha   90.00000000
_cell_angle_beta   90.00000000
_cell_angle_gamma   120.00000000
_symmetry_Int_Tables_number   1
_chemical_formula_structural   Ca3Zr6Te(Br4F3)4
_chemical_formula_sum   'Ca24 Zr48 Te8 Br128 F96'
_cell_volume   6186.54877973
_cell_formula_units_Z   8
loop_
 _symmetry_equiv_pos_site_id
 _symmetry_equiv_pos_as_xyz
  1  'x, y, z'
loop_
 _atom_site_type_symbol
 _atom_site_label
 _atom_site_symmetry_multiplicity
 _atom_site_fract_x
 _atom_site_fract_y
 _atom_site_fract_z
 _atom_site_occupancy
  Br  Br0  1  0.14297717  0.97229060  0.53390859  1
  Br  Br1  1  0.02770940  0.17068657  0.53390859  1
  Br  Br2  1  0.82931343  0.85702283  0.53390859  1
  Br  Br3  1  0.85702283  0.02770940  0.03390859  1
  Br  Br4  1  0.97229060  0.82931343  0.03390859  1
  Br  Br5  1  0.17068657  0.14297717  0.03390859  1
  Br  Br6  1  0.85702283  0.02770940  0.46609141  1
  Br  Br7  1  0.97229060  0.82931343  0.46609141  1
  Br  Br8  1  0.17068657  0.14297717  0.46609141  1
  Br  Br9  1  0.14297717  0.97229060  0.96609141  1
  Br  Br10  1  0.02770940  0.17068657  0.96609141  1
  Br  Br11  1  0.82931343  0.85702283  0.96609141  1
  Br  Br12  1  0.74482757  0.94510474  0.34199299  1
  Br  Br13  1  0.05489526  0.79972283  0.34199299  1
  Br  Br14  1  0.20027717  0.25517243  0.34199299  1
  Br  Br15  1  0.25517243  0.05489526  0.84199299  1
  Br  Br16  1  0.94510474  0.20027717  0.84199299  1
  Br  Br17  1  0.79972283  0.74482757  0.84199299  1
  Br  Br18  1  0.25517243  0.05489526  0.65800701  1
  Br  Br19  1  0.94510474  0.20027717  0.65800701  1
  Br  Br20  1  0.79972283  0.74482757  0.65800701  1
  Br  Br21  1  0.74482757  0.94510474  0.15800701  1
  Br  Br22  1  0.05489526  0.79972283  0.15800701  1
  Br  Br23  1  0.20027717  0.25517243  0.15800701  1
  Br  Br24  1  0.78803090  0.43666792  0.05771488  1
  Br  Br25  1  0.56333208  0.35136298  0.05771488  1
  Br  Br26  1  0.64863702  0.21196910  0.05771488  1
  Br  Br27  1  0.21196910  0.56333208  0.55771488  1
  Br  Br28  1  0.43666792  0.64863702  0.55771488  1
  Br  Br29  1  0.35136298  0.78803090  0.55771488  1
  Br  Br30  1  0.21196910  0.56333208  0.94228512  1
  Br  Br31  1  0.43666792  0.64863702  0.94228512  1
  Br  Br32  1  0.35136298  0.78803090  0.94228512  1
  Br  Br33  1  0.78803090  0.43666792  0.44228512  1
  Br  Br34  1  0.56333208  0.35136298  0.44228512  1
  Br  Br35  1  0.64863702  0.21196910  0.44228512  1
  Br  Br36  1  0.91095869  0.88121499  0.59847452  1
  Br  Br37  1  0.11878501  0.02974370  0.59847452  1
  Br  Br38  1  0.97025630  0.08904131  0.59847452  1
  Br  Br39  1  0.08904131  0.11878501  0.09847452  1
  Br  Br40  1  0.88121499  0.97025630  0.09847452  1
  Br  Br41  1  0.02974370  0.91095869  0.09847452  1
  Br  Br42  1  0.08904131  0.11878501  0.40152548  1
  Br  Br43  1  0.88121499  0.97025630  0.40152548  1
  Br  Br44  1  0.02974370  0.91095869  0.40152548  1
  Br  Br45  1  0.91095869  0.88121499  0.90152548  1
  Br  Br46  1  0.11878501  0.02974370  0.90152548  1
  Br  Br47  1  0.97025630  0.08904131  0.90152548  1
  Br  Br48  1  0.86716664  0.84941002  0.33010468  1
  Br  Br49  1  0.15058998  0.01775661  0.33010468  1
  Br  Br50  1  0.98224339  0.13283336  0.33010468  1
  Br  Br51  1  0.13283336  0.15058998  0.83010468  1
  Br  Br52  1  0.84941002  0.98224339  0.83010468  1
  Br  Br53  1  0.01775661  0.86716664  0.83010468  1
  Br  Br54  1  0.13283336  0.15058998  0.66989532  1
  Br  Br55  1  0.84941002  0.98224339  0.66989532  1
  Br  Br56  1  0.01775661  0.86716664  0.66989532  1
  Br  Br57  1  0.86716664  0.84941002  0.16989532  1
  Br  Br58  1  0.15058998  0.01775661  0.16989532  1
  Br  Br59  1  0.98224339  0.13283336  0.16989532  1
  Br  Br60  1  0.70159876  0.77031080  0.97343860  1
  Br  Br61  1  0.22968920  0.93128796  0.97343860  1
  Br  Br62  1  0.06871204  0.29840124  0.97343860  1
  Br  Br63  1  0.29840124  0.22968920  0.47343860  1
  Br  Br64  1  0.77031080  0.06871204  0.47343860  1
  Br  Br65  1  0.93128796  0.70159876  0.47343860  1
  Br  Br66  1  0.29840124  0.22968920  0.02656140  1
  Br  Br67  1  0.77031080  0.06871204  0.02656140  1
  Br  Br68  1  0.93128796  0.70159876  0.02656140  1
  Br  Br69  1  0.70159876  0.77031080  0.52656140  1
  Br  Br70  1  0.22968920  0.93128796  0.52656140  1
  Br  Br71  1  0.06871204  0.29840124  0.52656140  1
  Br  Br72  1  0.83971988  0.87820534  0.78713924  1
  Br  Br73  1  0.12179466  0.96151454  0.78713924  1
  Br  Br74  1  0.03848546  0.16028012  0.78713924  1
  Br  Br75  1  0.16028012  0.12179466  0.28713924  1
  Br  Br76  1  0.87820534  0.03848546  0.28713924  1
  Br  Br77  1  0.96151454  0.83971988  0.28713924  1
  Br  Br78  1  0.16028012  0.12179466  0.21286076  1
  Br  Br79  1  0.87820534  0.03848546  0.21286076  1
  Br  Br80  1  0.96151454  0.83971988  0.21286076  1
  Br  Br81  1  0.83971988  0.87820534  0.71286076  1
  Br  Br82  1  0.12179466  0.96151454  0.71286076  1
  Br  Br83  1  0.03848546  0.16028012  0.71286076  1
  Br  Br84  1  0.81683267  0.75998984  0.58642078  1
  Br  Br85  1  0.24001016  0.05684283  0.58642078  1
  Br  Br86  1  0.94315717  0.18316733  0.58642078  1
  Br  Br87  1  0.18316733  0.24001016  0.08642078  1
  Br  Br88  1  0.75998984  0.94315717  0.08642078  1
  Br  Br89  1  0.05684283  0.81683267  0.08642078  1
  Br  Br90  1  0.18316733  0.24001016  0.41357922  1
  Br  Br91  1  0.75998984  0.94315717  0.41357922  1
  Br  Br92  1  0.05684283  0.81683267  0.41357922  1
  Br  Br93  1  0.81683267  0.75998984  0.91357922  1
  Br  Br94  1  0.24001016  0.05684283  0.91357922  1
  Br  Br95  1  0.94315717  0.18316733  0.91357922  1
  Br  Br96  1  0.45320786  0.30361104  0.80386734  1
  Br  Br97  1  0.69638896  0.14959682  0.80386734  1
  Br  Br98  1  0.85040318  0.54679214  0.80386734  1
  Br  Br99  1  0.54679214  0.69638896  0.30386734  1
  Br  Br100  1  0.30361104  0.85040318  0.30386734  1
  Br  Br101  1  0.14959682  0.45320786  0.30386734  1
  Br  Br102  1  0.54679214  0.69638896  0.19613266  1
  Br  Br103  1  0.30361104  0.85040318  0.19613266  1
  Br  Br104  1  0.14959682  0.45320786  0.19613266  1
  Br  Br105  1  0.45320786  0.30361104  0.69613266  1
  Br  Br106  1  0.69638896  0.14959682  0.69613266  1
  Br  Br107  1  0.85040318  0.54679214  0.69613266  1
  Br  Br108  1  0.00000000  0.00000000  0.53814571  1
  Br  Br109  1  0.00000000  0.00000000  0.03814571  1
  Br  Br110  1  0.00000000  0.00000000  0.46185429  1
  Br  Br111  1  0.00000000  0.00000000  0.96185429  1
  Br  Br112  1  0.26894484  0.07428305  0.11820258  1
  Br  Br113  1  0.92571695  0.19466180  0.11820258  1
  Br  Br114  1  0.80533820  0.73105516  0.11820258  1
  Br  Br115  1  0.73105516  0.92571695  0.61820258  1
  Br  Br116  1  0.07428305  0.80533820  0.61820258  1
  Br  Br117  1  0.19466180  0.26894484  0.61820258  1
  Br  Br118  1  0.73105516  0.92571695  0.88179742  1
  Br  Br119  1  0.07428305  0.80533820  0.88179742  1
  Br  Br120  1  0.19466180  0.26894484  0.88179742  1
  Br  Br121  1  0.26894484  0.07428305  0.38179742  1
  Br  Br122  1  0.92571695  0.19466180  0.38179742  1
  Br  Br123  1  0.80533820  0.73105516  0.38179742  1
  Br  Br124  1  0.00000000  0.00000000  0.92159481  1
  Br  Br125  1  0.00000000  0.00000000  0.42159481  1
  Br  Br126  1  0.00000000  0.00000000  0.07840519  1
  Br  Br127  1  0.00000000  0.00000000  0.57840519  1
  Ca  Ca128  1  0.00000000  0.00000000  0.00000000  1
  Ca  Ca129  1  0.00000000  0.00000000  0.50000000  1
  Ca  Ca130  1  0.80139060  0.22524354  0.01050026  1
  Ca  Ca131  1  -0.22524354  0.57614706  0.01050026  1
  Ca  Ca132  1  -0.57614706  -0.80139060  0.01050026  1
  Ca  Ca133  1  -0.80139060  -0.22524354  0.51050026  1
  Ca  Ca134  1  0.22524354  -0.57614706  0.51050026  1
  Ca  Ca135  1  0.57614706  0.80139060  0.51050026  1
  Ca  Ca136  1  -0.80139060  -0.22524354  -0.01050026  1
  Ca  Ca137  1  0.22524354  -0.57614706  -0.01050026  1
  Ca  Ca138  1  0.57614706  0.80139060  -0.01050026  1
  Ca  Ca139  1  0.80139060  0.22524354  0.48949974  1
  Ca  Ca140  1  -0.22524354  0.57614706  0.48949974  1
  Ca  Ca141  1  -0.57614706  -0.80139060  0.48949974  1
  Ca  Ca142  1  0.50000000  0.00000000  0.00000000  1
  Ca  Ca143  1  0.00000000  0.50000000  0.00000000  1
  Ca  Ca144  1  0.50000000  0.50000000  0.00000000  1
  Ca  Ca145  1  0.50000000  0.00000000  0.50000000  1
  Ca  Ca146  1  0.00000000  0.50000000  0.50000000  1
  Ca  Ca147  1  0.50000000  0.50000000  0.50000000  1
  Ca  Ca148  1  0.33333333  0.66666667  0.48072784  1
  Ca  Ca149  1  0.66666667  0.33333333  0.98072784  1
  Ca  Ca150  1  0.66666667  0.33333333  0.51927216  1
  Ca  Ca151  1  0.33333333  0.66666667  0.01927216  1
  F  F152  1  0.55145951  0.36342095  0.47579276  1
  F  F153  1  0.63657905  0.18803857  0.47579276  1
  F  F154  1  0.81196143  0.44854049  0.47579276  1
  F  F155  1  0.44854049  0.63657905  0.97579276  1
  F  F156  1  0.36342095  0.81196143  0.97579276  1
  F  F157  1  0.18803857  0.55145951  0.97579276  1
  F  F158  1  0.44854049  0.63657905  0.52420724  1
  F  F159  1  0.36342095  0.81196143  0.52420724  1
  F  F160  1  0.18803857  0.55145951  0.52420724  1
  F  F161  1  0.55145951  0.36342095  0.02420724  1
  F  F162  1  0.63657905  0.18803857  0.02420724  1
  F  F163  1  0.81196143  0.44854049  0.02420724  1
  F  F164  1  0.72761103  0.39034755  0.62501280  1
  F  F165  1  0.60965245  0.33726347  0.62501280  1
  F  F166  1  0.66273653  0.27238897  0.62501280  1
  F  F167  1  0.27238897  0.60965245  0.12501280  1
  F  F168  1  0.39034755  0.66273653  0.12501280  1
  F  F169  1  0.33726347  0.72761103  0.12501280  1
  F  F170  1  0.27238897  0.60965245  0.37498720  1
  F  F171  1  0.39034755  0.66273653  0.37498720  1
  F  F172  1  0.33726347  0.72761103  0.37498720  1
  F  F173  1  0.72761103  0.39034755  0.87498720  1
  F  F174  1  0.60965245  0.33726347  0.87498720  1
  F  F175  1  0.66273653  0.27238897  0.87498720  1
  F  F176  1  0.22585544  0.57493880  0.62060339  1
  F  F177  1  0.42506120  0.65091664  0.62060339  1
  F  F178  1  0.34908336  0.77414456  0.62060339  1
  F  F179  1  0.77414456  0.42506120  0.12060339  1
  F  F180  1  0.57493880  0.34908336  0.12060339  1
  F  F181  1  0.65091664  0.22585544  0.12060339  1
  F  F182  1  0.77414456  0.42506120  0.37939661  1
  F  F183  1  0.57493880  0.34908336  0.37939661  1
  F  F184  1  0.65091664  0.22585544  0.37939661  1
  F  F185  1  0.22585544  0.57493880  0.87939661  1
  F  F186  1  0.42506120  0.65091664  0.87939661  1
  F  F187  1  0.34908336  0.77414456  0.87939661  1
  F  F188  1  0.33333333  0.66666667  0.60095506  1
  F  F189  1  0.66666667  0.33333333  0.10095506  1
  F  F190  1  0.66666667  0.33333333  0.39904494  1
  F  F191  1  0.33333333  0.66666667  0.89904494  1
  F  F192  1  0.65019722  0.56655570  0.30174532  1
  F  F193  1  0.43344430  0.08364152  0.30174532  1
  F  F194  1  0.91635848  0.34980278  0.30174532  1
  F  F195  1  0.34980278  0.43344430  0.80174532  1
  F  F196  1  0.56655570  0.91635848  0.80174532  1
  F  F197  1  0.08364152  0.65019722  0.80174532  1
  F  F198  1  0.34980278  0.43344430  0.69825468  1
  F  F199  1  0.56655570  0.91635848  0.69825468  1
  F  F200  1  0.08364152  0.65019722  0.69825468  1
  F  F201  1  0.65019722  0.56655570  0.19825468  1
  F  F202  1  0.43344430  0.08364152  0.19825468  1
  F  F203  1  0.91635848  0.34980278  0.19825468  1
  F  F204  1  0.45334105  0.82360505  0.16998861  1
  F  F205  1  0.17639495  0.62973600  0.16998861  1
  F  F206  1  0.37026400  0.54665895  0.16998861  1
  F  F207  1  0.54665895  0.17639495  0.66998861  1
  F  F208  1  0.82360505  0.37026400  0.66998861  1
  F  F209  1  0.62973600  0.45334105  0.66998861  1
  F  F210  1  0.54665895  0.17639495  0.83001139  1
  F  F211  1  0.82360505  0.37026400  0.83001139  1
  F  F212  1  0.62973600  0.45334105  0.83001139  1
  F  F213  1  0.45334105  0.82360505  0.33001139  1
  F  F214  1  0.17639495  0.62973600  0.33001139  1
  F  F215  1  0.37026400  0.54665895  0.33001139  1
  F  F216  1  0.08088537  0.93086733  0.23593268  1
  F  F217  1  0.06913267  0.15001804  0.23593268  1
  F  F218  1  0.84998196  0.91911463  0.23593268  1
  F  F219  1  0.91911463  0.06913267  0.73593268  1
  F  F220  1  0.93086733  0.84998196  0.73593268  1
  F  F221  1  0.15001804  0.08088537  0.73593268  1
  F  F222  1  0.91911463  0.06913267  0.76406732  1
  F  F223  1  0.93086733  0.84998196  0.76406732  1
  F  F224  1  0.15001804  0.08088537  0.76406732  1
  F  F225  1  0.08088537  0.93086733  0.26406732  1
  F  F226  1  0.06913267  0.15001804  0.26406732  1
  F  F227  1  0.84998196  0.91911463  0.26406732  1
  F  F228  1  0.88925922  0.28009662  0.81150110  1
  F  F229  1  0.71990338  0.60916260  0.81150110  1
  F  F230  1  0.39083740  0.11074078  0.81150110  1
  F  F231  1  0.11074078  0.71990338  0.31150110  1
  F  F232  1  0.28009662  0.39083740  0.31150110  1
  F  F233  1  0.60916260  0.88925922  0.31150110  1
  F  F234  1  0.11074078  0.71990338  0.18849890  1
  F  F235  1  0.28009662  0.39083740  0.18849890  1
  F  F236  1  0.60916260  0.88925922  0.18849890  1
  F  F237  1  0.88925922  0.28009662  0.68849890  1
  F  F238  1  0.71990338  0.60916260  0.68849890  1
  F  F239  1  0.39083740  0.11074078  0.68849890  1
  F  F240  1  0.00000000  0.00000000  0.11971759  1
  F  F241  1  0.00000000  0.00000000  0.61971759  1
  F  F242  1  0.00000000  0.00000000  0.88028241  1
  F  F243  1  0.00000000  0.00000000  0.38028241  1
  F  F244  1  0.33333333  0.66666667  0.77682167  1
  F  F245  1  0.66666667  0.33333333  0.27682167  1
  F  F246  1  0.66666667  0.33333333  0.22317833  1
  F  F247  1  0.33333333  0.66666667  0.72317833  1
  Te  Te248  1  0.00000000  0.00000000  0.70582018  1
  Te  Te249  1  0.00000000  0.00000000  0.20582018  1
  Te  Te250  1  0.00000000  0.00000000  0.29417982  1
  Te  Te251  1  0.00000000  0.00000000  0.79417982  1
  Te  Te252  1  0.66666667  0.33333333  0.25000000  1
  Te  Te253  1  0.33333333  0.66666667  0.75000000  1
  Te  Te254  1  0.33333333  0.66666667  0.25000000  1
  Te  Te255  1  0.66666667  0.33333333  0.75000000  1
  Zr  Zr256  1  0.11100373  0.61701454  0.25000000  1
  Zr  Zr257  1  0.38298546  0.49398919  0.25000000  1
  Zr  Zr258  1  0.50601081  0.88899627  0.25000000  1
  Zr  Zr259  1  0.88899627  0.38298546  0.75000000  1
  Zr  Zr260  1  0.61701454  0.50601081  0.75000000  1
  Zr  Zr261  1  0.49398919  0.11100373  0.75000000  1
  Zr  Zr262  1  0.89099929  0.32757431  0.25000000  1
  Zr  Zr263  1  0.67242569  0.56342498  0.25000000  1
  Zr  Zr264  1  0.43657502  0.10900071  0.25000000  1
  Zr  Zr265  1  0.10900071  0.67242569  0.75000000  1
  Zr  Zr266  1  0.32757431  0.43657502  0.75000000  1
  Zr  Zr267  1  0.56342498  0.89099929  0.75000000  1
  Zr  Zr268  1  0.42506386  0.18246746  0.42869911  1
  Zr  Zr269  1  0.81753254  0.24259640  0.42869911  1
  Zr  Zr270  1  0.75740360  0.57493614  0.42869911  1
  Zr  Zr271  1  0.57493614  0.81753254  0.92869911  1
  Zr  Zr272  1  0.18246746  0.75740360  0.92869911  1
  Zr  Zr273  1  0.24259640  0.42506386  0.92869911  1
  Zr  Zr274  1  0.57493614  0.81753254  0.57130089  1
  Zr  Zr275  1  0.18246746  0.75740360  0.57130089  1
  Zr  Zr276  1  0.24259640  0.42506386  0.57130089  1
  Zr  Zr277  1  0.42506386  0.18246746  0.07130089  1
  Zr  Zr278  1  0.81753254  0.24259640  0.07130089  1
  Zr  Zr279  1  0.75740360  0.57493614  0.07130089  1
  Zr  Zr280  1  0.80468826  0.85672526  0.63324492  1
  Zr  Zr281  1  0.14327474  0.94796300  0.63324492  1
  Zr  Zr282  1  0.05203700  0.19531174  0.63324492  1
  Zr  Zr283  1  0.19531174  0.14327474  0.13324492  1
  Zr  Zr284  1  0.85672526  0.05203700  0.13324492  1
  Zr  Zr285  1  0.94796300  0.80468826  0.13324492  1
  Zr  Zr286  1  0.19531174  0.14327474  0.36675508  1
  Zr  Zr287  1  0.85672526  0.05203700  0.36675508  1
  Zr  Zr288  1  0.94796300  0.80468826  0.36675508  1
  Zr  Zr289  1  0.80468826  0.85672526  0.86675508  1
  Zr  Zr290  1  0.14327474  0.94796300  0.86675508  1
  Zr  Zr291  1  0.05203700  0.19531174  0.86675508  1
  Zr  Zr292  1  0.00000000  0.00000000  0.25000000  1
  Zr  Zr293  1  0.00000000  0.00000000  0.75000000  1
  Zr  Zr294  1  0.32895752  0.17921460  0.25000000  1
  Zr  Zr295  1  0.82078540  0.14974292  0.25000000  1
  Zr  Zr296  1  0.85025708  0.67104248  0.25000000  1
  Zr  Zr297  1  0.67104248  0.82078540  0.75000000  1
  Zr  Zr298  1  0.17921460  0.85025708  0.75000000  1
  Zr  Zr299  1  0.14974292  0.32895752  0.75000000  1
  Zr  Zr300  1  0.33333333  0.66666667  0.65652229  1
  Zr  Zr301  1  0.66666667  0.33333333  0.15652229  1
  Zr  Zr302  1  0.66666667  0.33333333  0.34347771  1
  Zr  Zr303  1  0.33333333  0.66666667  0.84347771  1
