# generated using pymatgen
data_LiY2Sb2(Te2P)2
_symmetry_space_group_name_H-M   'P 1'
_cell_length_a   5.06173834
_cell_length_b   5.04837270
_cell_length_c   6.99308668
_cell_angle_alpha   94.66047938
_cell_angle_beta   100.14955518
_cell_angle_gamma   108.71929338
_symmetry_Int_Tables_number   1
_chemical_formula_structural   LiY2Sb2(Te2P)2
_chemical_formula_sum   'Li1 Y2 Sb2 Te4 P2'
_cell_volume   164.76684626
_cell_formula_units_Z   1
loop_
 _symmetry_equiv_pos_site_id
 _symmetry_equiv_pos_as_xyz
  1  'x, y, z'
loop_
 _atom_site_type_symbol
 _atom_site_label
 _atom_site_symmetry_multiplicity
 _atom_site_fract_x
 _atom_site_fract_y
 _atom_site_fract_z
 _atom_site_occupancy
  Te  Te0  1  0.12500000  0.00000000  0.25000000  1
  Te  Te1  1  0.00000000  0.00000000  0.00000000  1
  Te  Te2  1  0.37500000  0.00000000  0.25000000  1
  Te  Te3  1  0.25000000  0.25000000  0.25000000  1
  Y  Y4  1  0.00000000  0.25000000  0.12500000  1
  Y  Y5  1  0.34929679  0.24277310  0.97946250  1
  P  P6  1  0.80041698  0.67407094  0.88663526  1
  P  P7  1  0.96720469  0.65913225  0.55583340  1
  Li  Li8  1  0.35529825  0.43672556  0.46263866  1
  Sb  Sb9  1  0.89156296  0.60386678  0.14862521  1
  Sb  Sb10  1  0.65591671  0.09470206  0.48898511  1
