# generated using pymatgen
data_LiF
_symmetry_space_group_name_H-M   'P 1'
_cell_length_a   8.87141317
_cell_length_b   7.63151894
_cell_length_c   7.36661852
_cell_angle_alpha   90.00000000
_cell_angle_beta   90.00000000
_cell_angle_gamma   90.00000000
_symmetry_Int_Tables_number   1
_chemical_formula_structural   LiF
_chemical_formula_sum   'Li14 F14'
_cell_volume   498.73744200
_cell_formula_units_Z   14
loop_
 _symmetry_equiv_pos_site_id
 _symmetry_equiv_pos_as_xyz
  1  'x, y, z'
loop_
 _atom_site_type_symbol
 _atom_site_label
 _atom_site_symmetry_multiplicity
 _atom_site_fract_x
 _atom_site_fract_y
 _atom_site_fract_z
 _atom_site_occupancy
  F  F0  1  0.27804553  0.37564551  0.50000000  1
  F  F1  1  0.72195447  0.62435449  0.50000000  1
  F  F2  1  0.22195447  0.87564551  0.50000000  1
  F  F3  1  0.77804553  0.12435449  0.50000000  1
  F  F4  1  0.08058282  0.60417334  0.94276162  1
  F  F5  1  0.91941718  0.39582666  0.94276162  1
  F  F6  1  0.41941718  0.10417334  0.05723838  1
  F  F7  1  0.58058282  0.89582666  0.05723838  1
  F  F8  1  0.91941718  0.39582666  0.05723838  1
  F  F9  1  0.08058282  0.60417334  0.05723838  1
  F  F10  1  0.58058282  0.89582666  0.94276162  1
  F  F11  1  0.41941718  0.10417334  0.94276162  1
  F  F12  1  0.00000000  0.00000000  0.50000000  1
  F  F13  1  0.50000000  0.50000000  0.50000000  1
  Li  Li14  1  0.36315049  0.93563868  0.17885792  1
  Li  Li15  1  -0.36315049  -0.93563868  0.17885792  1
  Li  Li16  1  0.13684951  1.43563868  -0.17885792  1
  Li  Li17  1  0.86315049  -0.43563868  -0.17885792  1
  Li  Li18  1  -0.36315049  -0.93563868  -0.17885792  1
  Li  Li19  1  0.36315049  0.93563868  -0.17885792  1
  Li  Li20  1  0.86315049  -0.43563868  0.17885792  1
  Li  Li21  1  0.13684951  1.43563868  0.17885792  1
  Li  Li22  1  0.00000000  0.50000000  0.84195104  1
  Li  Li23  1  0.50000000  -0.00000000  0.15804896  1
  Li  Li24  1  0.00000000  0.50000000  0.15804896  1
  Li  Li25  1  0.50000000  -0.00000000  0.84195104  1
  Li  Li26  1  0.00000000  0.50000000  0.50000000  1
  Li  Li27  1  0.50000000  -0.00000000  0.50000000  1
