# generated using pymatgen
data_Li4B2Br3O3F
_symmetry_space_group_name_H-M   'P 1'
_cell_length_a   12.00389811
_cell_length_b   12.00389811
_cell_length_c   31.65422203
_cell_angle_alpha   90.00000000
_cell_angle_beta   90.00000000
_cell_angle_gamma   120.00000000
_symmetry_Int_Tables_number   1
_chemical_formula_structural   Li4B2Br3O3F
_chemical_formula_sum   'Li96 B48 Br72 O72 F24'
_cell_volume   3950.08896300
_cell_formula_units_Z   24
loop_
 _symmetry_equiv_pos_site_id
 _symmetry_equiv_pos_as_xyz
  1  'x, y, z'
loop_
 _atom_site_type_symbol
 _atom_site_label
 _atom_site_symmetry_multiplicity
 _atom_site_fract_x
 _atom_site_fract_y
 _atom_site_fract_z
 _atom_site_occupancy
  B  B0  1  0.14333367  0.63349970  0.96747314  1
  B  B1  1  -0.63349970  -0.49016602  0.96747314  1
  B  B2  1  0.49016602  -0.14333367  0.96747314  1
  B  B3  1  0.63349970  0.14333367  -0.46747314  1
  B  B4  1  -0.49016602  -0.63349970  -0.46747314  1
  B  B5  1  -0.14333367  0.49016602  -0.46747314  1
  B  B6  1  -0.14333367  -0.63349970  -0.96747314  1
  B  B7  1  0.63349970  0.49016602  -0.96747314  1
  B  B8  1  -0.49016602  0.14333367  -0.96747314  1
  B  B9  1  -0.63349970  -0.14333367  1.46747314  1
  B  B10  1  0.49016602  0.63349970  1.46747314  1
  B  B11  1  0.14333367  -0.49016602  1.46747314  1
  B  B12  1  0.81000034  0.96683303  1.30080647  1
  B  B13  1  0.03316697  -0.15683269  1.30080647  1
  B  B14  1  1.15683269  0.18999966  1.30080647  1
  B  B15  1  1.30016636  0.47666701  -0.13413981  1
  B  B16  1  0.17650064  -0.30016636  -0.13413981  1
  B  B17  1  0.52333299  0.82349936  -0.13413981  1
  B  B18  1  0.52333299  -0.30016636  -0.63413981  1
  B  B19  1  1.30016636  0.82349936  -0.63413981  1
  B  B20  1  0.17650064  0.47666701  -0.63413981  1
  B  B21  1  0.03316697  0.18999966  1.80080647  1
  B  B22  1  1.15683269  0.96683303  1.80080647  1
  B  B23  1  0.81000034  -0.15683269  1.80080647  1
  B  B24  1  0.47666701  1.30016636  1.63413981  1
  B  B25  1  -0.30016636  0.17650064  1.63413981  1
  B  B26  1  0.82349936  0.52333299  1.63413981  1
  B  B27  1  0.96683303  0.81000034  0.19919353  1
  B  B28  1  -0.15683269  0.03316697  0.19919353  1
  B  B29  1  0.18999966  1.15683269  0.19919353  1
  B  B30  1  0.18999966  0.03316697  -0.30080647  1
  B  B31  1  0.96683303  1.15683269  -0.30080647  1
  B  B32  1  -0.15683269  0.81000034  -0.30080647  1
  B  B33  1  -0.30016636  0.52333299  2.13413981  1
  B  B34  1  0.82349936  1.30016636  2.13413981  1
  B  B35  1  0.47666701  0.17650064  2.13413981  1
  B  B36  1  0.00000000  0.00000000  0.15135988  1
  B  B37  1  0.00000000  0.00000000  0.34864012  1
  B  B38  1  0.00000000  0.00000000  0.84864012  1
  B  B39  1  0.00000000  0.00000000  0.65135988  1
  B  B40  1  0.66666667  0.33333333  0.48469321  1
  B  B41  1  0.66666667  0.33333333  0.68197345  1
  B  B42  1  0.66666667  0.33333333  0.18197345  1
  B  B43  1  0.66666667  0.33333333  0.98469321  1
  B  B44  1  0.33333333  0.66666667  0.81802655  1
  B  B45  1  0.33333333  0.66666667  0.01530679  1
  B  B46  1  0.33333333  0.66666667  0.51530679  1
  B  B47  1  0.33333333  0.66666667  0.31802655  1
  Br  Br48  1  0.74523729  0.78076960  0.11429579  1
  Br  Br49  1  0.21923040  0.96446769  0.11429579  1
  Br  Br50  1  0.03553231  0.25476271  0.11429579  1
  Br  Br51  1  0.78076960  0.74523729  0.38570421  1
  Br  Br52  1  0.96446769  0.21923040  0.38570421  1
  Br  Br53  1  0.25476271  0.03553231  0.38570421  1
  Br  Br54  1  0.25476271  0.21923040  0.88570421  1
  Br  Br55  1  0.78076960  0.03553231  0.88570421  1
  Br  Br56  1  0.96446769  0.74523729  0.88570421  1
  Br  Br57  1  0.21923040  0.25476271  0.61429579  1
  Br  Br58  1  0.03553231  0.78076960  0.61429579  1
  Br  Br59  1  0.74523729  0.96446769  0.61429579  1
  Br  Br60  1  0.41190395  0.11410293  0.44762912  1
  Br  Br61  1  0.88589707  0.29780102  0.44762912  1
  Br  Br62  1  0.70219898  0.58809605  0.44762912  1
  Br  Br63  1  0.44743626  0.07857062  0.71903755  1
  Br  Br64  1  0.63113436  0.55256374  0.71903755  1
  Br  Br65  1  0.92142938  0.36886564  0.71903755  1
  Br  Br66  1  0.92142938  0.55256374  0.21903755  1
  Br  Br67  1  0.44743626  0.36886564  0.21903755  1
  Br  Br68  1  0.63113436  0.07857062  0.21903755  1
  Br  Br69  1  0.88589707  0.58809605  0.94762912  1
  Br  Br70  1  0.70219898  0.11410293  0.94762912  1
  Br  Br71  1  0.41190395  0.29780102  0.94762912  1
  Br  Br72  1  0.07857062  0.44743626  0.78096245  1
  Br  Br73  1  0.55256374  0.63113436  0.78096245  1
  Br  Br74  1  0.36886564  0.92142938  0.78096245  1
  Br  Br75  1  0.11410293  0.41190395  0.05237088  1
  Br  Br76  1  0.29780102  0.88589707  0.05237088  1
  Br  Br77  1  0.58809605  0.70219898  0.05237088  1
  Br  Br78  1  0.58809605  0.88589707  0.55237088  1
  Br  Br79  1  0.11410293  0.70219898  0.55237088  1
  Br  Br80  1  0.29780102  0.41190395  0.55237088  1
  Br  Br81  1  0.55256374  0.92142938  0.28096245  1
  Br  Br82  1  0.36886564  0.44743626  0.28096245  1
  Br  Br83  1  0.07857062  0.63113436  0.28096245  1
  Br  Br84  1  0.04792821  0.65020353  0.77211789  1
  Br  Br85  1  0.34979647  0.39772468  0.77211789  1
  Br  Br86  1  0.60227532  0.95207179  0.77211789  1
  Br  Br87  1  0.65020353  0.04792821  0.72788211  1
  Br  Br88  1  0.39772468  0.34979647  0.72788211  1
  Br  Br89  1  0.95207179  0.60227532  0.72788211  1
  Br  Br90  1  0.95207179  0.34979647  0.22788211  1
  Br  Br91  1  0.65020353  0.60227532  0.22788211  1
  Br  Br92  1  0.39772468  0.04792821  0.22788211  1
  Br  Br93  1  0.34979647  0.95207179  0.27211789  1
  Br  Br94  1  0.60227532  0.65020353  0.27211789  1
  Br  Br95  1  0.04792821  0.39772468  0.27211789  1
  Br  Br96  1  0.71459487  0.98353686  0.10545122  1
  Br  Br97  1  0.01646314  0.73105801  0.10545122  1
  Br  Br98  1  0.26894199  0.28540513  0.10545122  1
  Br  Br99  1  0.31687020  0.38126154  0.06121545  1
  Br  Br100  1  0.06439134  0.68312980  0.06121545  1
  Br  Br101  1  0.61873846  0.93560866  0.06121545  1
  Br  Br102  1  0.61873846  0.68312980  0.56121545  1
  Br  Br103  1  0.31687020  0.93560866  0.56121545  1
  Br  Br104  1  0.06439134  0.38126154  0.56121545  1
  Br  Br105  1  0.01646314  0.28540513  0.60545122  1
  Br  Br106  1  0.26894199  0.98353686  0.60545122  1
  Br  Br107  1  0.71459487  0.73105801  0.60545122  1
  Br  Br108  1  0.38126154  0.31687020  0.43878455  1
  Br  Br109  1  0.68312980  0.06439134  0.43878455  1
  Br  Br110  1  0.93560866  0.61873846  0.43878455  1
  Br  Br111  1  0.98353686  0.71459487  0.39454878  1
  Br  Br112  1  0.73105801  0.01646314  0.39454878  1
  Br  Br113  1  0.28540513  0.26894199  0.39454878  1
  Br  Br114  1  0.28540513  0.01646314  0.89454878  1
  Br  Br115  1  0.98353686  0.26894199  0.89454878  1
  Br  Br116  1  0.73105801  0.71459487  0.89454878  1
  Br  Br117  1  0.68312980  0.61873846  0.93878455  1
  Br  Br118  1  0.93560866  0.31687020  0.93878455  1
  Br  Br119  1  0.38126154  0.06439134  0.93878455  1
  F  F120  1  0.50000000  0.00000000  -0.00000000  1
  F  F121  1  0.00000000  0.50000000  0.00000000  1
  F  F122  1  0.50000000  0.50000000  0.00000000  1
  F  F123  1  0.00000000  0.50000000  0.50000000  1
  F  F124  1  0.50000000  0.00000000  0.50000000  1
  F  F125  1  0.50000000  0.50000000  0.50000000  1
  F  F126  1  0.16666667  0.33333333  0.33333333  1
  F  F127  1  0.66666667  0.83333333  0.33333333  1
  F  F128  1  0.16666667  0.83333333  0.33333333  1
  F  F129  1  0.66666667  0.83333333  0.83333333  1
  F  F130  1  0.16666667  0.33333333  0.83333333  1
  F  F131  1  0.16666667  0.83333333  0.83333333  1
  F  F132  1  0.83333333  0.66666667  0.66666667  1
  F  F133  1  0.33333333  0.16666667  0.66666667  1
  F  F134  1  0.83333333  0.16666667  0.66666667  1
  F  F135  1  0.33333333  0.16666667  0.16666667  1
  F  F136  1  0.83333333  0.66666667  0.16666667  1
  F  F137  1  0.83333333  0.16666667  0.16666667  1
  F  F138  1  0.00000000  0.00000000  0.25000000  1
  F  F139  1  0.00000000  0.00000000  0.75000000  1
  F  F140  1  0.66666667  0.33333333  0.58333333  1
  F  F141  1  0.66666667  0.33333333  0.08333333  1
  F  F142  1  0.33333333  0.66666667  0.91666667  1
  F  F143  1  0.33333333  0.66666667  0.41666667  1
  Li  Li144  1  0.75052118  0.77059293  0.97765024  1
  Li  Li145  1  0.22940707  0.97992825  0.97765024  1
  Li  Li146  1  0.02007175  0.24947882  0.97765024  1
  Li  Li147  1  0.77059293  0.75052118  0.52234976  1
  Li  Li148  1  0.97992825  0.22940707  0.52234976  1
  Li  Li149  1  0.24947882  0.02007175  0.52234976  1
  Li  Li150  1  0.24947882  0.22940707  0.02234976  1
  Li  Li151  1  0.77059293  0.02007175  0.02234976  1
  Li  Li152  1  0.97992825  0.75052118  0.02234976  1
  Li  Li153  1  0.22940707  0.24947882  0.47765024  1
  Li  Li154  1  0.02007175  0.77059293  0.47765024  1
  Li  Li155  1  0.75052118  0.97992825  0.47765024  1
  Li  Li156  1  0.41718785  0.10392627  0.31098358  1
  Li  Li157  1  0.89607373  0.31326158  0.31098358  1
  Li  Li158  1  0.68673842  0.58281215  0.31098358  1
  Li  Li159  1  0.43725960  0.08385452  0.85568309  1
  Li  Li160  1  0.64659492  0.56274040  0.85568309  1
  Li  Li161  1  0.91614548  0.35340508  0.85568309  1
  Li  Li162  1  0.91614548  0.56274040  0.35568309  1
  Li  Li163  1  0.43725960  0.35340508  0.35568309  1
  Li  Li164  1  0.64659492  0.08385452  0.35568309  1
  Li  Li165  1  0.89607373  0.58281215  0.81098358  1
  Li  Li166  1  0.68673842  0.10392627  0.81098358  1
  Li  Li167  1  0.41718785  0.31326158  0.81098358  1
  Li  Li168  1  0.08385452  0.43725960  0.64431691  1
  Li  Li169  1  0.56274040  0.64659492  0.64431691  1
  Li  Li170  1  0.35340508  0.91614548  0.64431691  1
  Li  Li171  1  0.10392627  0.41718785  0.18901642  1
  Li  Li172  1  0.31326158  0.89607373  0.18901642  1
  Li  Li173  1  0.58281215  0.68673842  0.18901642  1
  Li  Li174  1  0.58281215  0.89607373  0.68901642  1
  Li  Li175  1  0.10392627  0.68673842  0.68901642  1
  Li  Li176  1  0.31326158  0.41718785  0.68901642  1
  Li  Li177  1  0.56274040  0.91614548  0.14431691  1
  Li  Li178  1  0.35340508  0.43725960  0.14431691  1
  Li  Li179  1  0.08385452  0.64659492  0.14431691  1
  Li  Li180  1  0.92166907  0.10034535  0.92545471  1
  Li  Li181  1  0.89965465  0.82132371  0.92545471  1
  Li  Li182  1  0.17867629  0.07833093  0.92545471  1
  Li  Li183  1  0.10034535  0.92166907  0.57454529  1
  Li  Li184  1  0.82132371  0.89965465  0.57454529  1
  Li  Li185  1  0.07833093  0.17867629  0.57454529  1
  Li  Li186  1  0.07833093  0.89965465  0.07454529  1
  Li  Li187  1  0.10034535  0.17867629  0.07454529  1
  Li  Li188  1  0.82132371  0.92166907  0.07454529  1
  Li  Li189  1  0.89965465  0.07833093  0.42545471  1
  Li  Li190  1  0.17867629  0.10034535  0.42545471  1
  Li  Li191  1  0.92166907  0.82132371  0.42545471  1
  Li  Li192  1  0.58833573  0.43367869  0.25878804  1
  Li  Li193  1  0.56632131  0.15465705  0.25878804  1
  Li  Li194  1  0.84534295  0.41166427  0.25878804  1
  Li  Li195  1  0.76701202  0.25500240  0.90787862  1
  Li  Li196  1  0.48799038  0.23298798  0.90787862  1
  Li  Li197  1  0.74499760  0.51200962  0.90787862  1
  Li  Li198  1  0.74499760  0.23298798  0.40787862  1
  Li  Li199  1  0.76701202  0.51200962  0.40787862  1
  Li  Li200  1  0.48799038  0.25500240  0.40787862  1
  Li  Li201  1  0.56632131  0.41166427  0.75878804  1
  Li  Li202  1  0.84534295  0.43367869  0.75878804  1
  Li  Li203  1  0.58833573  0.15465705  0.75878804  1
  Li  Li204  1  0.25500240  0.76701202  0.59212138  1
  Li  Li205  1  0.23298798  0.48799038  0.59212138  1
  Li  Li206  1  0.51200962  0.74499760  0.59212138  1
  Li  Li207  1  0.43367869  0.58833573  0.24121196  1
  Li  Li208  1  0.15465705  0.56632131  0.24121196  1
  Li  Li209  1  0.41166427  0.84534295  0.24121196  1
  Li  Li210  1  0.41166427  0.56632131  0.74121196  1
  Li  Li211  1  0.43367869  0.84534295  0.74121196  1
  Li  Li212  1  0.15465705  0.58833573  0.74121196  1
  Li  Li213  1  0.23298798  0.74499760  0.09212138  1
  Li  Li214  1  0.51200962  0.76701202  0.09212138  1
  Li  Li215  1  0.25500240  0.48799038  0.09212138  1
  Li  Li216  1  0.68160248  0.00000000  0.25000000  1
  Li  Li217  1  0.00000000  0.68160248  0.25000000  1
  Li  Li218  1  0.31839752  0.31839752  0.25000000  1
  Li  Li219  1  0.31839752  0.00000000  0.75000000  1
  Li  Li220  1  0.00000000  0.31839752  0.75000000  1
  Li  Li221  1  0.68160248  0.68160248  0.75000000  1
  Li  Li222  1  0.34826915  0.33333333  0.58333333  1
  Li  Li223  1  0.66666667  0.01493581  0.58333333  1
  Li  Li224  1  0.98506419  0.65173085  0.58333333  1
  Li  Li225  1  0.98506419  0.33333333  0.08333333  1
  Li  Li226  1  0.66666667  0.65173085  0.08333333  1
  Li  Li227  1  0.34826915  0.01493581  0.08333333  1
  Li  Li228  1  0.01493581  0.66666667  0.91666667  1
  Li  Li229  1  0.33333333  0.34826915  0.91666667  1
  Li  Li230  1  0.65173085  0.98506419  0.91666667  1
  Li  Li231  1  0.65173085  0.66666667  0.41666667  1
  Li  Li232  1  0.33333333  0.98506419  0.41666667  1
  Li  Li233  1  0.01493581  0.34826915  0.41666667  1
  Li  Li234  1  0.00000000  0.00000000  0.00000000  1
  Li  Li235  1  0.00000000  0.00000000  0.50000000  1
  Li  Li236  1  0.66666667  0.33333333  0.33333333  1
  Li  Li237  1  0.66666667  0.33333333  0.83333333  1
  Li  Li238  1  0.33333333  0.66666667  0.66666667  1
  Li  Li239  1  0.33333333  0.66666667  0.16666667  1
  O  O240  1  0.31591780  0.43601985  0.34150569  1
  O  O241  1  0.56398015  0.87989795  0.34150569  1
  O  O242  1  0.12010205  0.68408220  0.34150569  1
  O  O243  1  0.43601985  0.31591780  0.15849431  1
  O  O244  1  0.87989795  0.56398015  0.15849431  1
  O  O245  1  0.68408220  0.12010205  0.15849431  1
  O  O246  1  0.68408220  0.56398015  0.65849431  1
  O  O247  1  0.43601985  0.12010205  0.65849431  1
  O  O248  1  0.87989795  0.31591780  0.65849431  1
  O  O249  1  0.56398015  0.68408220  0.84150569  1
  O  O250  1  0.12010205  0.43601985  0.84150569  1
  O  O251  1  0.31591780  0.87989795  0.84150569  1
  O  O252  1  0.98258447  0.76935318  0.67483903  1
  O  O253  1  0.23064682  0.21323128  0.67483903  1
  O  O254  1  0.78676872  0.01741553  0.67483903  1
  O  O255  1  0.10268652  0.64925113  0.49182764  1
  O  O256  1  0.54656462  0.89731348  0.49182764  1
  O  O257  1  0.35074887  0.45343538  0.49182764  1
  O  O258  1  0.35074887  0.89731348  0.99182764  1
  O  O259  1  0.10268652  0.45343538  0.99182764  1
  O  O260  1  0.54656462  0.64925113  0.99182764  1
  O  O261  1  0.23064682  0.01741553  0.17483903  1
  O  O262  1  0.78676872  0.76935318  0.17483903  1
  O  O263  1  0.98258447  0.21323128  0.17483903  1
  O  O264  1  0.64925113  0.10268652  0.00817236  1
  O  O265  1  0.89731348  0.54656462  0.00817236  1
  O  O266  1  0.45343538  0.35074887  0.00817236  1
  O  O267  1  0.76935318  0.98258447  0.82516097  1
  O  O268  1  0.21323128  0.23064682  0.82516097  1
  O  O269  1  0.01741553  0.78676872  0.82516097  1
  O  O270  1  0.01741553  0.23064682  0.32516097  1
  O  O271  1  0.76935318  0.78676872  0.32516097  1
  O  O272  1  0.21323128  0.98258447  0.32516097  1
  O  O273  1  0.89731348  0.35074887  0.50817236  1
  O  O274  1  0.45343538  0.10268652  0.50817236  1
  O  O275  1  0.64925113  0.54656462  0.50817236  1
  O  O276  1  0.72615581  0.03363696  0.17993258  1
  O  O277  1  0.96636304  0.69251885  0.17993258  1
  O  O278  1  0.30748115  0.27384419  0.17993258  1
  O  O279  1  0.03363696  0.72615581  0.32006742  1
  O  O280  1  0.69251885  0.96636304  0.32006742  1
  O  O281  1  0.27384419  0.30748115  0.32006742  1
  O  O282  1  0.27384419  0.96636304  0.82006742  1
  O  O283  1  0.03363696  0.30748115  0.82006742  1
  O  O284  1  0.69251885  0.72615581  0.82006742  1
  O  O285  1  0.96636304  0.27384419  0.67993258  1
  O  O286  1  0.30748115  0.03363696  0.67993258  1
  O  O287  1  0.72615581  0.69251885  0.67993258  1
  O  O288  1  0.39282248  0.36697030  0.51326591  1
  O  O289  1  0.63302970  0.02585218  0.51326591  1
  O  O290  1  0.97414782  0.60717752  0.51326591  1
  O  O291  1  0.70030363  0.05948914  0.65340075  1
  O  O292  1  0.35918551  0.29969637  0.65340075  1
  O  O293  1  0.94051086  0.64081449  0.65340075  1
  O  O294  1  0.94051086  0.29969637  0.15340075  1
  O  O295  1  0.70030363  0.64081449  0.15340075  1
  O  O296  1  0.35918551  0.05948914  0.15340075  1
  O  O297  1  0.63302970  0.60717752  0.01326591  1
  O  O298  1  0.97414782  0.36697030  0.01326591  1
  O  O299  1  0.39282248  0.02585218  0.01326591  1
  O  O300  1  0.05948914  0.70030363  0.84659925  1
  O  O301  1  0.29969637  0.35918551  0.84659925  1
  O  O302  1  0.64081449  0.94051086  0.84659925  1
  O  O303  1  0.36697030  0.39282248  0.98673409  1
  O  O304  1  0.02585218  0.63302970  0.98673409  1
  O  O305  1  0.60717752  0.97414782  0.98673409  1
  O  O306  1  0.60717752  0.63302970  0.48673409  1
  O  O307  1  0.36697030  0.97414782  0.48673409  1
  O  O308  1  0.02585218  0.39282248  0.48673409  1
  O  O309  1  0.29969637  0.94051086  0.34659925  1
  O  O310  1  0.64081449  0.70030363  0.34659925  1
  O  O311  1  0.05948914  0.35918551  0.34659925  1
