# generated using pymatgen
data_Li4TeF2
_symmetry_space_group_name_H-M   'P 1'
_cell_length_a   19.63986981
_cell_length_b   19.63986981
_cell_length_c   7.71437709
_cell_angle_alpha   90.00000000
_cell_angle_beta   90.00000000
_cell_angle_gamma   90.00000000
_symmetry_Int_Tables_number   1
_chemical_formula_structural   Li4TeF2
_chemical_formula_sum   'Li96 Te24 F48'
_cell_volume   2975.62413950
_cell_formula_units_Z   24
loop_
 _symmetry_equiv_pos_site_id
 _symmetry_equiv_pos_as_xyz
  1  'x, y, z'
loop_
 _atom_site_type_symbol
 _atom_site_label
 _atom_site_symmetry_multiplicity
 _atom_site_fract_x
 _atom_site_fract_y
 _atom_site_fract_z
 _atom_site_occupancy
  F  F0  1  0.00000000  0.50000000  0.27936347  1
  F  F1  1  0.50000000  0.00000000  0.27936347  1
  F  F2  1  0.00000000  0.50000000  0.72063653  1
  F  F3  1  0.50000000  0.00000000  0.72063653  1
  F  F4  1  0.20874764  0.20874764  0.50000000  1
  F  F5  1  0.79125236  0.79125236  0.50000000  1
  F  F6  1  0.79125236  0.20874764  0.50000000  1
  F  F7  1  0.20874764  0.79125236  0.50000000  1
  F  F8  1  0.37897846  0.26696952  0.41022749  1
  F  F9  1  -0.37897846  -0.26696952  0.41022749  1
  F  F10  1  -0.26696952  0.37897846  0.41022749  1
  F  F11  1  0.26696952  -0.37897846  0.41022749  1
  F  F12  1  -0.37897846  0.26696952  -0.41022749  1
  F  F13  1  0.37897846  -0.26696952  -0.41022749  1
  F  F14  1  0.26696952  0.37897846  -0.41022749  1
  F  F15  1  -0.26696952  -0.37897846  -0.41022749  1
  F  F16  1  -0.37897846  -0.26696952  -0.41022749  1
  F  F17  1  0.37897846  0.26696952  -0.41022749  1
  F  F18  1  0.26696952  -0.37897846  -0.41022749  1
  F  F19  1  -0.26696952  0.37897846  -0.41022749  1
  F  F20  1  0.37897846  -0.26696952  0.41022749  1
  F  F21  1  -0.37897846  0.26696952  0.41022749  1
  F  F22  1  -0.26696952  -0.37897846  0.41022749  1
  F  F23  1  0.26696952  0.37897846  0.41022749  1
  F  F24  1  0.00000000  0.50000000  0.50000000  1
  F  F25  1  0.50000000  0.00000000  0.50000000  1
  F  F26  1  0.66586425  0.00000000  0.87861466  1
  F  F27  1  0.33413575  -0.00000000  0.87861466  1
  F  F28  1  0.00000000  0.66586425  0.87861466  1
  F  F29  1  0.00000000  0.33413575  0.87861466  1
  F  F30  1  0.33413575  -0.00000000  0.12138534  1
  F  F31  1  0.66586425  0.00000000  0.12138534  1
  F  F32  1  0.00000000  0.66586425  0.12138534  1
  F  F33  1  0.00000000  0.33413575  0.12138534  1
  F  F34  1  0.69015677  0.00000000  0.06607769  1
  F  F35  1  0.30984323  0.00000000  0.06607769  1
  F  F36  1  0.00000000  0.69015677  0.06607769  1
  F  F37  1  0.00000000  0.30984323  0.06607769  1
  F  F38  1  0.30984323  0.00000000  0.93392231  1
  F  F39  1  0.69015677  0.00000000  0.93392231  1
  F  F40  1  0.00000000  0.69015677  0.93392231  1
  F  F41  1  0.00000000  0.30984323  0.93392231  1
  F  F42  1  0.07705097  0.07705097  -0.00000000  1
  F  F43  1  0.92294903  0.92294903  -0.00000000  1
  F  F44  1  0.92294903  0.07705097  -0.00000000  1
  F  F45  1  0.07705097  0.92294903  -0.00000000  1
  F  F46  1  0.00000000  0.00000000  0.05901274  1
  F  F47  1  0.00000000  0.00000000  0.94098726  1
  Li  Li48  1  0.79270095  0.12246506  0.73700014  1
  Li  Li49  1  0.20729905  0.87753494  0.73700014  1
  Li  Li50  1  0.87753494  0.79270095  0.73700014  1
  Li  Li51  1  0.12246506  0.20729905  0.73700014  1
  Li  Li52  1  0.20729905  0.12246506  0.26299986  1
  Li  Li53  1  0.79270095  0.87753494  0.26299986  1
  Li  Li54  1  0.12246506  0.79270095  0.26299986  1
  Li  Li55  1  0.87753494  0.20729905  0.26299986  1
  Li  Li56  1  0.20729905  0.87753494  0.26299986  1
  Li  Li57  1  0.79270095  0.12246506  0.26299986  1
  Li  Li58  1  0.12246506  0.20729905  0.26299986  1
  Li  Li59  1  0.87753494  0.79270095  0.26299986  1
  Li  Li60  1  0.79270095  0.87753494  0.73700014  1
  Li  Li61  1  0.20729905  0.12246506  0.73700014  1
  Li  Li62  1  0.87753494  0.20729905  0.73700014  1
  Li  Li63  1  0.12246506  0.79270095  0.73700014  1
  Li  Li64  1  0.21175633  0.35395283  0.63033248  1
  Li  Li65  1  0.78824367  0.64604717  0.63033248  1
  Li  Li66  1  0.64604717  0.21175633  0.63033248  1
  Li  Li67  1  0.35395283  0.78824367  0.63033248  1
  Li  Li68  1  0.78824367  0.35395283  0.36966752  1
  Li  Li69  1  0.21175633  0.64604717  0.36966752  1
  Li  Li70  1  0.35395283  0.21175633  0.36966752  1
  Li  Li71  1  0.64604717  0.78824367  0.36966752  1
  Li  Li72  1  0.78824367  0.64604717  0.36966752  1
  Li  Li73  1  0.21175633  0.35395283  0.36966752  1
  Li  Li74  1  0.35395283  0.78824367  0.36966752  1
  Li  Li75  1  0.64604717  0.21175633  0.36966752  1
  Li  Li76  1  0.21175633  0.64604717  0.63033248  1
  Li  Li77  1  0.78824367  0.35395283  0.63033248  1
  Li  Li78  1  0.64604717  0.78824367  0.63033248  1
  Li  Li79  1  0.35395283  0.21175633  0.63033248  1
  Li  Li80  1  0.39173990  0.14792778  0.50000000  1
  Li  Li81  1  0.60826010  0.85207222  0.50000000  1
  Li  Li82  1  0.85207222  0.39173990  0.50000000  1
  Li  Li83  1  0.14792778  0.60826010  0.50000000  1
  Li  Li84  1  0.60826010  0.14792778  0.50000000  1
  Li  Li85  1  0.39173990  0.85207222  0.50000000  1
  Li  Li86  1  0.14792778  0.39173990  0.50000000  1
  Li  Li87  1  0.85207222  0.60826010  0.50000000  1
  Li  Li88  1  0.42787142  0.50000000  0.50000000  1
  Li  Li89  1  0.57212858  0.50000000  0.50000000  1
  Li  Li90  1  0.50000000  0.42787142  0.50000000  1
  Li  Li91  1  0.50000000  0.57212858  0.50000000  1
  Li  Li92  1  0.38653090  0.00000000  0.74815791  1
  Li  Li93  1  0.61346910  0.00000000  0.74815791  1
  Li  Li94  1  0.00000000  0.38653090  0.74815791  1
  Li  Li95  1  0.00000000  0.61346910  0.74815791  1
  Li  Li96  1  0.61346910  0.00000000  0.25184209  1
  Li  Li97  1  0.38653090  0.00000000  0.25184209  1
  Li  Li98  1  0.00000000  0.38653090  0.25184209  1
  Li  Li99  1  0.00000000  0.61346910  0.25184209  1
  Li  Li100  1  0.92218400  0.50000000  -0.00000000  1
  Li  Li101  1  0.07781600  0.50000000  -0.00000000  1
  Li  Li102  1  0.50000000  0.92218400  -0.00000000  1
  Li  Li103  1  0.50000000  0.07781600  -0.00000000  1
  Li  Li104  1  0.10461003  0.10461003  0.50000000  1
  Li  Li105  1  0.89538997  0.89538997  0.50000000  1
  Li  Li106  1  0.89538997  0.10461003  0.50000000  1
  Li  Li107  1  0.10461003  0.89538997  0.50000000  1
  Li  Li108  1  0.63907666  0.53463783  0.13251073  1
  Li  Li109  1  0.36092334  0.46536217  0.13251073  1
  Li  Li110  1  0.46536217  0.63907666  0.13251073  1
  Li  Li111  1  0.53463783  0.36092334  0.13251073  1
  Li  Li112  1  0.36092334  0.53463783  0.86748927  1
  Li  Li113  1  0.63907666  0.46536217  0.86748927  1
  Li  Li114  1  0.53463783  0.63907666  0.86748927  1
  Li  Li115  1  0.46536217  0.36092334  0.86748927  1
  Li  Li116  1  0.36092334  0.46536217  0.86748927  1
  Li  Li117  1  0.63907666  0.53463783  0.86748927  1
  Li  Li118  1  0.53463783  0.36092334  0.86748927  1
  Li  Li119  1  0.46536217  0.63907666  0.86748927  1
  Li  Li120  1  0.63907666  0.46536217  0.13251073  1
  Li  Li121  1  0.36092334  0.53463783  0.13251073  1
  Li  Li122  1  0.46536217  0.36092334  0.13251073  1
  Li  Li123  1  0.53463783  0.63907666  0.13251073  1
  Li  Li124  1  0.62424690  0.94311350  0.36507288  1
  Li  Li125  1  0.37575310  0.05688650  0.36507288  1
  Li  Li126  1  0.05688650  0.62424690  0.36507288  1
  Li  Li127  1  0.94311350  0.37575310  0.36507288  1
  Li  Li128  1  0.37575310  0.94311350  0.63492712  1
  Li  Li129  1  0.62424690  0.05688650  0.63492712  1
  Li  Li130  1  0.94311350  0.62424690  0.63492712  1
  Li  Li131  1  0.05688650  0.37575310  0.63492712  1
  Li  Li132  1  0.37575310  0.05688650  0.63492712  1
  Li  Li133  1  0.62424690  0.94311350  0.63492712  1
  Li  Li134  1  0.94311350  0.37575310  0.63492712  1
  Li  Li135  1  0.05688650  0.62424690  0.63492712  1
  Li  Li136  1  0.62424690  0.05688650  0.36507288  1
  Li  Li137  1  0.37575310  0.94311350  0.36507288  1
  Li  Li138  1  0.05688650  0.37575310  0.36507288  1
  Li  Li139  1  0.94311350  0.62424690  0.36507288  1
  Li  Li140  1  0.14414216  0.14414216  -0.00000000  1
  Li  Li141  1  0.85585784  0.85585784  0.00000000  1
  Li  Li142  1  0.85585784  0.14414216  0.00000000  1
  Li  Li143  1  0.14414216  0.85585784  0.00000000  1
  Te  Te144  1  0.27336008  0.27336008  0.11824287  1
  Te  Te145  1  0.72663992  0.72663992  0.11824287  1
  Te  Te146  1  0.72663992  0.27336008  0.11824287  1
  Te  Te147  1  0.27336008  0.72663992  0.11824287  1
  Te  Te148  1  0.72663992  0.27336008  0.88175713  1
  Te  Te149  1  0.27336008  0.72663992  0.88175713  1
  Te  Te150  1  0.27336008  0.27336008  0.88175713  1
  Te  Te151  1  0.72663992  0.72663992  0.88175713  1
  Te  Te152  1  0.65573553  0.65573553  0.00000000  1
  Te  Te153  1  0.34426447  0.34426447  0.00000000  1
  Te  Te154  1  0.34426447  0.65573553  0.00000000  1
  Te  Te155  1  0.65573553  0.34426447  0.00000000  1
  Te  Te156  1  0.93673548  0.73726093  0.00000000  1
  Te  Te157  1  0.06326452  0.26273907  -0.00000000  1
  Te  Te158  1  0.26273907  0.93673548  0.00000000  1
  Te  Te159  1  0.73726093  0.06326452  0.00000000  1
  Te  Te160  1  0.06326452  0.73726093  0.00000000  1
  Te  Te161  1  0.93673548  0.26273907  0.00000000  1
  Te  Te162  1  0.73726093  0.93673548  0.00000000  1
  Te  Te163  1  0.26273907  0.06326452  -0.00000000  1
  Te  Te164  1  0.00000000  0.00000000  0.50000000  1
  Te  Te165  1  0.00000000  0.00000000  0.69703600  1
  Te  Te166  1  0.00000000  0.00000000  0.30296400  1
  Te  Te167  1  0.50000000  0.50000000  0.50000000  1
