# generated using pymatgen
data_LiF
_symmetry_space_group_name_H-M   'P 1'
_cell_length_a   14.45827986
_cell_length_b   14.45827986
_cell_length_c   4.29016940
_cell_angle_alpha   90.00000000
_cell_angle_beta   90.00000000
_cell_angle_gamma   120.00000000
_symmetry_Int_Tables_number   1
_chemical_formula_structural   LiF
_chemical_formula_sum   'Li36 F36'
_cell_volume   776.67321291
_cell_formula_units_Z   36
loop_
 _symmetry_equiv_pos_site_id
 _symmetry_equiv_pos_as_xyz
  1  'x, y, z'
loop_
 _atom_site_type_symbol
 _atom_site_label
 _atom_site_symmetry_multiplicity
 _atom_site_fract_x
 _atom_site_fract_y
 _atom_site_fract_z
 _atom_site_occupancy
  F  F0  1  0.33333333  0.66666667  0.25000000  1
  F  F1  1  0.66666667  0.33333333  0.75000000  1
  F  F2  1  0.50000000  0.00000000  0.00000000  1
  F  F3  1  0.00000000  0.50000000  -0.00000000  1
  F  F4  1  0.50000000  0.50000000  0.00000000  1
  F  F5  1  0.50000000  0.00000000  0.50000000  1
  F  F6  1  0.00000000  0.50000000  0.50000000  1
  F  F7  1  0.50000000  0.50000000  0.50000000  1
  F  F8  1  0.98267547  0.09107580  0.11375862  1
  F  F9  1  -0.09107580  0.89159967  0.11375862  1
  F  F10  1  -0.89159967  -0.98267547  0.11375862  1
  F  F11  1  -0.98267547  -0.09107580  0.61375862  1
  F  F12  1  0.09107580  -0.89159967  0.61375862  1
  F  F13  1  0.89159967  0.98267547  0.61375862  1
  F  F14  1  -0.98267547  -0.09107580  -0.11375862  1
  F  F15  1  0.09107580  -0.89159967  -0.11375862  1
  F  F16  1  0.89159967  0.98267547  -0.11375862  1
  F  F17  1  0.98267547  0.09107580  0.38624138  1
  F  F18  1  -0.09107580  0.89159967  0.38624138  1
  F  F19  1  -0.89159967  -0.98267547  0.38624138  1
  F  F20  1  0.96141786  0.33603658  0.25000000  1
  F  F21  1  0.66396342  0.62538129  0.25000000  1
  F  F22  1  0.37461871  0.03858214  0.25000000  1
  F  F23  1  0.03858214  0.66396342  0.75000000  1
  F  F24  1  0.33603658  0.37461871  0.75000000  1
  F  F25  1  0.62538129  0.96141786  0.75000000  1
  F  F26  1  0.60062653  0.79826631  0.25000000  1
  F  F27  1  0.20173369  0.80236022  0.25000000  1
  F  F28  1  0.19763978  0.39937347  0.25000000  1
  F  F29  1  0.39937347  0.20173369  0.75000000  1
  F  F30  1  0.79826631  0.19763978  0.75000000  1
  F  F31  1  0.80236022  0.60062653  0.75000000  1
  F  F32  1  0.00000000  0.00000000  0.82417584  1
  F  F33  1  0.00000000  0.00000000  0.32417584  1
  F  F34  1  0.00000000  0.00000000  0.17582416  1
  F  F35  1  0.00000000  0.00000000  0.67582416  1
  Li  Li36  1  0.02932357  0.95967947  0.25000000  1
  Li  Li37  1  0.04032053  0.06964410  0.25000000  1
  Li  Li38  1  0.93035590  0.97067643  0.25000000  1
  Li  Li39  1  0.97067643  0.04032053  0.75000000  1
  Li  Li40  1  0.95967947  0.93035590  0.75000000  1
  Li  Li41  1  0.06964410  0.02932357  0.75000000  1
  Li  Li42  1  0.41012259  0.88021975  0.25000000  1
  Li  Li43  1  0.11978025  0.52990284  0.25000000  1
  Li  Li44  1  0.47009716  0.58987741  0.25000000  1
  Li  Li45  1  0.58987741  0.11978025  0.75000000  1
  Li  Li46  1  0.88021975  0.47009716  0.75000000  1
  Li  Li47  1  0.52990284  0.41012259  0.75000000  1
  Li  Li48  1  0.75164860  0.50775319  0.58357842  1
  Li  Li49  1  0.49224681  0.24389541  0.58357842  1
  Li  Li50  1  0.75610459  0.24835140  0.58357842  1
  Li  Li51  1  0.24835140  0.49224681  0.08357842  1
  Li  Li52  1  0.50775319  0.75610459  0.08357842  1
  Li  Li53  1  0.24389541  0.75164860  0.08357842  1
  Li  Li54  1  0.24835140  0.49224681  0.41642158  1
  Li  Li55  1  0.50775319  0.75610459  0.41642158  1
  Li  Li56  1  0.24389541  0.75164860  0.41642158  1
  Li  Li57  1  0.75164860  0.50775319  0.91642158  1
  Li  Li58  1  0.49224681  0.24389541  0.91642158  1
  Li  Li59  1  0.75610459  0.24835140  0.91642158  1
  Li  Li60  1  0.45390688  0.82532813  0.41134694  1
  Li  Li61  1  0.17467187  0.62857876  0.41134694  1
  Li  Li62  1  0.37142124  0.54609312  0.41134694  1
  Li  Li63  1  0.54609312  0.17467187  0.91134694  1
  Li  Li64  1  0.82532813  0.37142124  0.91134694  1
  Li  Li65  1  0.62857876  0.45390688  0.91134694  1
  Li  Li66  1  0.54609312  0.17467187  0.58865306  1
  Li  Li67  1  0.82532813  0.37142124  0.58865306  1
  Li  Li68  1  0.62857876  0.45390688  0.58865306  1
  Li  Li69  1  0.45390688  0.82532813  0.08865306  1
  Li  Li70  1  0.17467187  0.62857876  0.08865306  1
  Li  Li71  1  0.37142124  0.54609312  0.08865306  1
