# generated using pymatgen
data_Li2TiS
_symmetry_space_group_name_H-M   'P 1'
_cell_length_a   3.69646349
_cell_length_b   3.71495730
_cell_length_c   5.95325337
_cell_angle_alpha   111.83586339
_cell_angle_beta   106.12681472
_cell_angle_gamma   111.62448780
_symmetry_Int_Tables_number   1
_chemical_formula_structural   Li2TiS
_chemical_formula_sum   'Li2 Ti1 S1'
_cell_volume   61.85853718
_cell_formula_units_Z   1
loop_
 _symmetry_equiv_pos_site_id
 _symmetry_equiv_pos_as_xyz
  1  'x, y, z'
loop_
 _atom_site_type_symbol
 _atom_site_label
 _atom_site_symmetry_multiplicity
 _atom_site_fract_x
 _atom_site_fract_y
 _atom_site_fract_z
 _atom_site_occupancy
  Li  Li0  1  0.00000000  0.00000000  0.00000000  1
  Li  Li1  1  0.50000000  0.50000000  0.50000000  1
  S  S2  1  0.50000000  0.50000000  0.00000000  1
  Ti  Ti3  1  0.50000000  0.00000000  0.50000000  1
