# generated using pymatgen
data_Li2CaSeF2
_symmetry_space_group_name_H-M   'P 1'
_cell_length_a   8.37381975
_cell_length_b   5.32388865
_cell_length_c   9.91825559
_cell_angle_alpha   90.00000000
_cell_angle_beta   90.00000000
_cell_angle_gamma   90.00000000
_symmetry_Int_Tables_number   1
_chemical_formula_structural   Li2CaSeF2
_chemical_formula_sum   'Li8 Ca4 Se4 F8'
_cell_volume   442.16856876
_cell_formula_units_Z   4
loop_
 _symmetry_equiv_pos_site_id
 _symmetry_equiv_pos_as_xyz
  1  'x, y, z'
loop_
 _atom_site_type_symbol
 _atom_site_label
 _atom_site_symmetry_multiplicity
 _atom_site_fract_x
 _atom_site_fract_y
 _atom_site_fract_z
 _atom_site_occupancy
  Ca  Ca0  1  0.00000000  0.00000000  0.00000000  1
  Ca  Ca1  1  0.50000000  0.00000000  0.50000000  1
  Ca  Ca2  1  0.00000000  0.50000000  0.00000000  1
  Ca  Ca3  1  0.50000000  0.50000000  0.50000000  1
  F  F4  1  0.21131575  0.90448609  0.47549102  1
  F  F5  1  0.28868425  -0.90448609  0.97549102  1
  F  F6  1  -0.21131575  1.40448609  -0.47549102  1
  F  F7  1  0.71131575  -0.40448609  0.02450898  1
  F  F8  1  -0.21131575  -0.90448609  -0.47549102  1
  F  F9  1  0.71131575  0.90448609  0.02450898  1
  F  F10  1  0.21131575  -0.40448609  0.47549102  1
  F  F11  1  0.28868425  1.40448609  0.97549102  1
  Li  Li12  1  0.50198135  0.97151975  0.25879088  1
  Li  Li13  1  0.99801865  0.02848025  0.75879088  1
  Li  Li14  1  0.49801865  0.47151975  0.74120912  1
  Li  Li15  1  0.00198135  0.52848025  0.24120912  1
  Li  Li16  1  0.49801865  0.02848025  0.74120912  1
  Li  Li17  1  0.00198135  0.97151975  0.24120912  1
  Li  Li18  1  0.50198135  0.52848025  0.25879088  1
  Li  Li19  1  0.99801865  0.47151975  0.75879088  1
  Se  Se20  1  0.00000000  0.00000000  0.50000000  1
  Se  Se21  1  0.50000000  0.00000000  0.00000000  1
  Se  Se22  1  0.00000000  0.50000000  0.50000000  1
  Se  Se23  1  0.50000000  0.50000000  0.00000000  1
