# generated using pymatgen
data_Li2Y2Cu3P3Se
_symmetry_space_group_name_H-M   'P 1'
_cell_length_a   4.67241165
_cell_length_b   5.01549436
_cell_length_c   6.54357876
_cell_angle_alpha   95.22054768
_cell_angle_beta   99.37765306
_cell_angle_gamma   106.17479695
_symmetry_Int_Tables_number   1
_chemical_formula_structural   Li2Y2Cu3P3Se
_chemical_formula_sum   'Li2 Y2 Cu3 P3 Se1'
_cell_volume   143.79417522
_cell_formula_units_Z   1
loop_
 _symmetry_equiv_pos_site_id
 _symmetry_equiv_pos_as_xyz
  1  'x, y, z'
loop_
 _atom_site_type_symbol
 _atom_site_label
 _atom_site_symmetry_multiplicity
 _atom_site_fract_x
 _atom_site_fract_y
 _atom_site_fract_z
 _atom_site_occupancy
  Se  Se0  1  0.00000000  0.00000000  0.00000000  1
  Cu  Cu1  1  0.50000000  0.50000000  0.50000000  1
  Cu  Cu2  1  0.50000000  0.50000000  0.00000000  1
  Cu  Cu3  1  0.50000000  0.00000000  0.50000000  1
  Y  Y4  1  0.00000000  0.50000000  0.50000000  1
  Y  Y5  1  0.28169840  0.89572694  0.38696122  1
  P  P6  1  0.84175613  0.57174079  0.38512275  1
  P  P7  1  0.78419071  0.57285878  0.87354076  1
  P  P8  1  0.00914890  0.95805193  0.60229739  1
  Li  Li9  1  0.07223818  0.29441262  0.81591563  1
  Li  Li10  1  0.08121431  0.23746516  0.12083493  1
