# generated using pymatgen
data_LiF
_symmetry_space_group_name_H-M   'P 1'
_cell_length_a   10.97895258
_cell_length_b   10.97895258
_cell_length_c   8.07884523
_cell_angle_alpha   90.00000000
_cell_angle_beta   90.00000000
_cell_angle_gamma   120.00000000
_symmetry_Int_Tables_number   1
_chemical_formula_structural   LiF
_chemical_formula_sum   'Li36 F36'
_cell_volume   843.33813323
_cell_formula_units_Z   36
loop_
 _symmetry_equiv_pos_site_id
 _symmetry_equiv_pos_as_xyz
  1  'x, y, z'
loop_
 _atom_site_type_symbol
 _atom_site_label
 _atom_site_symmetry_multiplicity
 _atom_site_fract_x
 _atom_site_fract_y
 _atom_site_fract_z
 _atom_site_occupancy
  F  F0  1  0.23525385  0.46689967  0.63543600  1
  F  F1  1  -0.46689967  -0.23164582  0.63543600  1
  F  F2  1  0.23164582  -0.23525385  0.63543600  1
  F  F3  1  -0.23525385  -0.46689967  1.13543600  1
  F  F4  1  0.46689967  0.23164582  1.13543600  1
  F  F5  1  -0.23164582  0.23525385  1.13543600  1
  F  F6  1  -0.23525385  -0.46689967  -0.63543600  1
  F  F7  1  0.46689967  0.23164582  -0.63543600  1
  F  F8  1  -0.23164582  0.23525385  -0.63543600  1
  F  F9  1  0.23525385  0.46689967  -0.13543600  1
  F  F10  1  -0.46689967  -0.23164582  -0.13543600  1
  F  F11  1  0.23164582  -0.23525385  -0.13543600  1
  F  F12  1  0.80081419  0.99494447  0.40564193  1
  F  F13  1  0.00505553  0.80586972  0.40564193  1
  F  F14  1  0.19413028  0.19918581  0.40564193  1
  F  F15  1  0.19918581  0.00505553  0.90564193  1
  F  F16  1  0.99494447  0.19413028  0.90564193  1
  F  F17  1  0.80586972  0.80081419  0.90564193  1
  F  F18  1  0.19918581  0.00505553  0.59435807  1
  F  F19  1  0.99494447  0.19413028  0.59435807  1
  F  F20  1  0.80586972  0.80081419  0.59435807  1
  F  F21  1  0.80081419  0.99494447  0.09435807  1
  F  F22  1  0.00505553  0.80586972  0.09435807  1
  F  F23  1  0.19413028  0.19918581  0.09435807  1
  F  F24  1  0.86391735  0.09087681  0.42025572  1
  F  F25  1  0.90912319  0.77304054  0.42025572  1
  F  F26  1  0.22695946  0.13608265  0.42025572  1
  F  F27  1  0.13608265  0.90912319  0.92025572  1
  F  F28  1  0.09087681  0.22695946  0.92025572  1
  F  F29  1  0.77304054  0.86391735  0.92025572  1
  F  F30  1  0.13608265  0.90912319  0.57974428  1
  F  F31  1  0.09087681  0.22695946  0.57974428  1
  F  F32  1  0.77304054  0.86391735  0.57974428  1
  F  F33  1  0.86391735  0.09087681  0.07974428  1
  F  F34  1  0.90912319  0.77304054  0.07974428  1
  F  F35  1  0.22695946  0.13608265  0.07974428  1
  Li  Li36  1  0.44449995  0.91014506  0.25000000  1
  Li  Li37  1  0.08985494  0.53435490  0.25000000  1
  Li  Li38  1  0.46564510  0.55550005  0.25000000  1
  Li  Li39  1  0.55550005  0.08985494  0.75000000  1
  Li  Li40  1  0.91014506  0.46564510  0.75000000  1
  Li  Li41  1  0.53435490  0.44449995  0.75000000  1
  Li  Li42  1  0.58014105  0.90007324  0.89809370  1
  Li  Li43  1  0.09992676  0.68006781  0.89809370  1
  Li  Li44  1  0.31993219  0.41985895  0.89809370  1
  Li  Li45  1  0.41985895  0.09992676  0.39809370  1
  Li  Li46  1  0.90007324  0.31993219  0.39809370  1
  Li  Li47  1  0.68006781  0.58014105  0.39809370  1
  Li  Li48  1  0.41985895  0.09992676  0.10190630  1
  Li  Li49  1  0.90007324  0.31993219  0.10190630  1
  Li  Li50  1  0.68006781  0.58014105  0.10190630  1
  Li  Li51  1  0.58014105  0.90007324  0.60190630  1
  Li  Li52  1  0.09992676  0.68006781  0.60190630  1
  Li  Li53  1  0.31993219  0.41985895  0.60190630  1
  Li  Li54  1  0.66666667  0.33333333  0.25000000  1
  Li  Li55  1  0.33333333  0.66666667  0.75000000  1
  Li  Li56  1  0.55290762  0.48057924  0.43833536  1
  Li  Li57  1  0.51942076  0.07232838  0.43833536  1
  Li  Li58  1  0.92767162  0.44709238  0.43833536  1
  Li  Li59  1  0.44709238  0.51942076  0.93833536  1
  Li  Li60  1  0.48057924  0.92767162  0.93833536  1
  Li  Li61  1  0.07232838  0.55290762  0.93833536  1
  Li  Li62  1  0.44709238  0.51942076  0.56166464  1
  Li  Li63  1  0.48057924  0.92767162  0.56166464  1
  Li  Li64  1  0.07232838  0.55290762  0.56166464  1
  Li  Li65  1  0.55290762  0.48057924  0.06166464  1
  Li  Li66  1  0.51942076  0.07232838  0.06166464  1
  Li  Li67  1  0.92767162  0.44709238  0.06166464  1
  Li  Li68  1  0.33333333  0.66666667  0.25000000  1
  Li  Li69  1  0.66666667  0.33333333  0.75000000  1
  Li  Li70  1  0.00000000  0.00000000  0.25000000  1
  Li  Li71  1  0.00000000  0.00000000  0.75000000  1
