# generated using pymatgen
data_Li2YSb2P2Se
_symmetry_space_group_name_H-M   'P 1'
_cell_length_a   5.17294274
_cell_length_b   5.32372616
_cell_length_c   6.72480722
_cell_angle_alpha   94.20783923
_cell_angle_beta   97.39326835
_cell_angle_gamma   104.12455709
_symmetry_Int_Tables_number   1
_chemical_formula_structural   Li2YSb2P2Se
_chemical_formula_sum   'Li2 Y1 Sb2 P2 Se1'
_cell_volume   177.04442294
_cell_formula_units_Z   1
loop_
 _symmetry_equiv_pos_site_id
 _symmetry_equiv_pos_as_xyz
  1  'x, y, z'
loop_
 _atom_site_type_symbol
 _atom_site_label
 _atom_site_symmetry_multiplicity
 _atom_site_fract_x
 _atom_site_fract_y
 _atom_site_fract_z
 _atom_site_occupancy
  Se  Se0  1  0.00000000  0.00000000  0.00000000  1
  P  P1  1  0.50000000  0.50000000  0.50000000  1
  P  P2  1  0.50000000  0.50000000  0.00000000  1
  Li  Li3  1  0.50000000  0.00000000  0.50000000  1
  Li  Li4  1  0.00000000  0.50000000  0.50000000  1
  Y  Y5  1  0.29397474  0.43215324  0.31274046  1
  Sb  Sb6  1  0.85712879  0.40779970  0.79699192  1
  Sb  Sb7  1  0.27498614  0.73012966  0.84485808  1
