# generated using pymatgen
data_LiF
_symmetry_space_group_name_H-M   'P 1'
_cell_length_a   5.53880206
_cell_length_b   10.29403458
_cell_length_c   9.49021574
_cell_angle_alpha   90.00000000
_cell_angle_beta   90.00000000
_cell_angle_gamma   90.00000000
_symmetry_Int_Tables_number   1
_chemical_formula_structural   LiF
_chemical_formula_sum   'Li24 F24'
_cell_volume   541.10002404
_cell_formula_units_Z   24
loop_
 _symmetry_equiv_pos_site_id
 _symmetry_equiv_pos_as_xyz
  1  'x, y, z'
loop_
 _atom_site_type_symbol
 _atom_site_label
 _atom_site_symmetry_multiplicity
 _atom_site_fract_x
 _atom_site_fract_y
 _atom_site_fract_z
 _atom_site_occupancy
  F  F0  1  0.44023400  0.45188505  0.76829968  1
  F  F1  1  0.05976600  0.54811495  0.26829968  1
  F  F2  1  0.55976600  0.95188505  0.23170032  1
  F  F3  1  0.94023400  0.04811495  0.73170032  1
  F  F4  1  0.55976600  0.54811495  0.23170032  1
  F  F5  1  0.94023400  0.45188505  0.73170032  1
  F  F6  1  0.44023400  0.04811495  0.76829968  1
  F  F7  1  0.05976600  0.95188505  0.26829968  1
  F  F8  1  0.33486497  0.28816255  0.82967845  1
  F  F9  1  0.16513503  0.71183745  0.32967845  1
  F  F10  1  0.66513503  0.78816255  0.17032155  1
  F  F11  1  0.83486497  0.21183745  0.67032155  1
  F  F12  1  0.66513503  0.71183745  0.17032155  1
  F  F13  1  0.83486497  0.28816255  0.67032155  1
  F  F14  1  0.33486497  0.21183745  0.82967845  1
  F  F15  1  0.16513503  0.78816255  0.32967845  1
  F  F16  1  0.05805049  0.44577421  0.70272803  1
  F  F17  1  0.44194951  0.55422579  0.20272803  1
  F  F18  1  0.94194951  0.94577421  0.29727197  1
  F  F19  1  0.55805049  0.05422579  0.79727197  1
  F  F20  1  0.94194951  0.55422579  0.29727197  1
  F  F21  1  0.55805049  0.44577421  0.79727197  1
  F  F22  1  0.05805049  0.05422579  0.70272803  1
  F  F23  1  0.44194951  0.94577421  0.20272803  1
  Li  Li24  1  0.18162656  0.25000000  0.24835252  1
  Li  Li25  1  0.31837344  0.75000000  0.74835252  1
  Li  Li26  1  0.81837344  0.75000000  0.75164748  1
  Li  Li27  1  0.68162656  0.25000000  0.25164748  1
  Li  Li28  1  0.23712329  0.42058848  0.36351561  1
  Li  Li29  1  0.26287671  -0.42058848  0.86351561  1
  Li  Li30  1  -0.23712329  0.92058848  -0.36351561  1
  Li  Li31  1  0.73712329  0.07941152  0.13648439  1
  Li  Li32  1  -0.23712329  -0.42058848  -0.36351561  1
  Li  Li33  1  0.73712329  0.42058848  0.13648439  1
  Li  Li34  1  0.23712329  0.07941152  0.36351561  1
  Li  Li35  1  0.26287671  0.92058848  0.86351561  1
  Li  Li36  1  0.00000000  0.00000000  0.00000000  1
  Li  Li37  1  0.50000000  -0.00000000  0.50000000  1
  Li  Li38  1  0.00000000  0.50000000  0.00000000  1
  Li  Li39  1  0.50000000  0.50000000  0.50000000  1
  Li  Li40  1  0.44629173  0.84117226  0.39315890  1
  Li  Li41  1  0.05370827  0.15882774  0.89315890  1
  Li  Li42  1  0.55370827  0.34117226  0.60684110  1
  Li  Li43  1  0.94629173  0.65882774  0.10684110  1
  Li  Li44  1  0.55370827  0.15882774  0.60684110  1
  Li  Li45  1  0.94629173  0.84117226  0.10684110  1
  Li  Li46  1  0.44629173  0.65882774  0.39315890  1
  Li  Li47  1  0.05370827  0.34117226  0.89315890  1
