# generated using pymatgen
data_LiF
_symmetry_space_group_name_H-M   'P 1'
_cell_length_a   10.88636933
_cell_length_b   10.88636933
_cell_length_c   8.80596184
_cell_angle_alpha   90.00000000
_cell_angle_beta   90.00000000
_cell_angle_gamma   120.00000000
_symmetry_Int_Tables_number   1
_chemical_formula_structural   LiF
_chemical_formula_sum   'Li31 F31'
_cell_volume   903.80254307
_cell_formula_units_Z   31
loop_
 _symmetry_equiv_pos_site_id
 _symmetry_equiv_pos_as_xyz
  1  'x, y, z'
loop_
 _atom_site_type_symbol
 _atom_site_label
 _atom_site_symmetry_multiplicity
 _atom_site_fract_x
 _atom_site_fract_y
 _atom_site_fract_z
 _atom_site_occupancy
  F  F0  1  0.75551500  0.78107159  0.90695622  1
  F  F1  1  0.21892841  0.97444341  0.90695622  1
  F  F2  1  0.02555659  0.24448500  0.90695622  1
  F  F3  1  0.21892841  0.24448500  0.09304378  1
  F  F4  1  0.02555659  0.78107159  0.09304378  1
  F  F5  1  0.75551500  0.97444341  0.09304378  1
  F  F6  1  0.87073826  0.58023408  0.45117606  1
  F  F7  1  0.41976592  0.29050418  0.45117606  1
  F  F8  1  0.70949582  0.12926174  0.45117606  1
  F  F9  1  0.41976592  0.12926174  0.54882394  1
  F  F10  1  0.70949582  0.58023408  0.54882394  1
  F  F11  1  0.87073826  0.29050418  0.54882394  1
  F  F12  1  0.36677618  0.46000795  0.28405092  1
  F  F13  1  0.53999205  0.90676823  0.28405092  1
  F  F14  1  0.09323177  0.63322382  0.28405092  1
  F  F15  1  0.53999205  0.63322382  0.71594908  1
  F  F16  1  0.09323177  0.46000795  0.71594908  1
  F  F17  1  0.36677618  0.90676823  0.71594908  1
  F  F18  1  0.71726189  0.81600430  0.78422346  1
  F  F19  1  0.18399570  0.90125759  0.78422346  1
  F  F20  1  0.09874241  0.28273811  0.78422346  1
  F  F21  1  0.18399570  0.28273811  0.21577654  1
  F  F22  1  0.09874241  0.81600430  0.21577654  1
  F  F23  1  0.71726189  0.90125759  0.21577654  1
  F  F24  1  0.27604743  0.89363438  0.78304815  1
  F  F25  1  0.10636562  0.38241305  0.78304815  1
  F  F26  1  0.61758695  0.72395257  0.78304815  1
  F  F27  1  0.10636562  0.72395257  0.21695185  1
  F  F28  1  0.61758695  0.89363438  0.21695185  1
  F  F29  1  0.27604743  0.38241305  0.21695185  1
  F  F30  1  0.33333333  0.66666667  0.50000000  1
  Li  Li31  1  0.05276129  0.94723871  -0.00000000  1
  Li  Li32  1  0.05276129  0.10552257  -0.00000000  1
  Li  Li33  1  0.89447743  0.94723871  0.00000000  1
  Li  Li34  1  0.66666667  0.33333333  0.00000000  1
  Li  Li35  1  0.52093098  0.78989832  0.35193889  1
  Li  Li36  1  -0.78989832  -0.26896733  0.35193889  1
  Li  Li37  1  0.26896733  -0.52093098  0.35193889  1
  Li  Li38  1  -0.78989832  -0.52093098  -0.35193889  1
  Li  Li39  1  0.26896733  0.78989832  -0.35193889  1
  Li  Li40  1  0.52093098  -0.26896733  -0.35193889  1
  Li  Li41  1  0.69104779  0.87938028  0.74582741  1
  Li  Li42  1  0.12061972  0.81166751  0.74582741  1
  Li  Li43  1  0.18833249  0.30895221  0.74582741  1
  Li  Li44  1  0.12061972  0.30895221  0.25417259  1
  Li  Li45  1  0.18833249  0.87938028  0.25417259  1
  Li  Li46  1  0.69104779  0.81166751  0.25417259  1
  Li  Li47  1  0.78767497  0.45510973  0.65755316  1
  Li  Li48  1  0.54489027  0.33256524  0.65755316  1
  Li  Li49  1  0.66743476  0.21232503  0.65755316  1
  Li  Li50  1  0.54489027  0.21232503  0.34244684  1
  Li  Li51  1  0.66743476  0.45510973  0.34244684  1
  Li  Li52  1  0.78767497  0.33256524  0.34244684  1
  Li  Li53  1  0.37024075  0.55471112  0.13018442  1
  Li  Li54  1  0.44528888  0.81552963  0.13018442  1
  Li  Li55  1  0.18447037  0.62975925  0.13018442  1
  Li  Li56  1  0.44528888  0.62975925  0.86981558  1
  Li  Li57  1  0.18447037  0.55471112  0.86981558  1
  Li  Li58  1  0.37024075  0.81552963  0.86981558  1
  Li  Li59  1  0.07986529  0.92013471  0.50000000  1
  Li  Li60  1  0.07986529  0.15973059  0.50000000  1
  Li  Li61  1  0.84026941  0.92013471  0.50000000  1
