# generated using pymatgen
data_LiF
_symmetry_space_group_name_H-M   'P 1'
_cell_length_a   11.65301967
_cell_length_b   11.65301967
_cell_length_c   10.51701751
_cell_angle_alpha   90.00000000
_cell_angle_beta   90.00000000
_cell_angle_gamma   120.00000000
_symmetry_Int_Tables_number   1
_chemical_formula_structural   LiF
_chemical_formula_sum   'Li36 F36'
_cell_volume   1236.80202553
_cell_formula_units_Z   36
loop_
 _symmetry_equiv_pos_site_id
 _symmetry_equiv_pos_as_xyz
  1  'x, y, z'
loop_
 _atom_site_type_symbol
 _atom_site_label
 _atom_site_symmetry_multiplicity
 _atom_site_fract_x
 _atom_site_fract_y
 _atom_site_fract_z
 _atom_site_occupancy
  F  F0  1  0.37335470  0.11505872  0.67445931  1
  F  F1  1  -0.11505872  0.25829598  0.67445931  1
  F  F2  1  -0.25829598  -0.37335470  0.67445931  1
  F  F3  1  0.11505872  0.37335470  -0.17445931  1
  F  F4  1  0.25829598  -0.11505872  -0.17445931  1
  F  F5  1  -0.37335470  -0.25829598  -0.17445931  1
  F  F6  1  -0.37335470  -0.11505872  -0.67445931  1
  F  F7  1  0.11505872  -0.25829598  -0.67445931  1
  F  F8  1  0.25829598  0.37335470  -0.67445931  1
  F  F9  1  -0.11505872  -0.37335470  1.17445931  1
  F  F10  1  -0.25829598  0.11505872  1.17445931  1
  F  F11  1  0.37335470  0.25829598  1.17445931  1
  F  F12  1  1.04002137  0.44839206  1.00779264  1
  F  F13  1  0.55160794  0.59162931  1.00779264  1
  F  F14  1  0.40837069  -0.04002137  1.00779264  1
  F  F15  1  0.78172539  0.70668803  0.15887403  1
  F  F16  1  0.92496264  0.21827461  0.15887403  1
  F  F17  1  0.29331197  0.07503736  0.15887403  1
  F  F18  1  0.29331197  0.21827461  -0.34112597  1
  F  F19  1  0.78172539  0.07503736  -0.34112597  1
  F  F20  1  0.92496264  0.70668803  -0.34112597  1
  F  F21  1  0.55160794  -0.04002137  1.50779264  1
  F  F22  1  0.40837069  0.44839206  1.50779264  1
  F  F23  1  1.04002137  0.59162931  1.50779264  1
  F  F24  1  0.70668803  0.78172539  1.34112597  1
  F  F25  1  0.21827461  0.92496264  1.34112597  1
  F  F26  1  0.07503736  0.29331197  1.34112597  1
  F  F27  1  0.44839206  1.04002137  0.49220736  1
  F  F28  1  0.59162931  0.55160794  0.49220736  1
  F  F29  1  -0.04002137  0.40837069  0.49220736  1
  F  F30  1  -0.04002137  0.55160794  -0.00779264  1
  F  F31  1  0.44839206  0.40837069  -0.00779264  1
  F  F32  1  0.59162931  1.04002137  -0.00779264  1
  F  F33  1  0.21827461  0.29331197  1.84112597  1
  F  F34  1  0.07503736  0.78172539  1.84112597  1
  F  F35  1  0.70668803  0.92496264  1.84112597  1
  Li  Li36  1  0.07141273  0.24383375  0.20584662  1
  Li  Li37  1  0.75616625  0.82757899  0.20584662  1
  Li  Li38  1  0.17242101  0.92858727  0.20584662  1
  Li  Li39  1  0.24383375  0.07141273  0.29415338  1
  Li  Li40  1  0.82757899  0.75616625  0.29415338  1
  Li  Li41  1  0.92858727  0.17242101  0.29415338  1
  Li  Li42  1  0.92858727  0.75616625  0.79415338  1
  Li  Li43  1  0.24383375  0.17242101  0.79415338  1
  Li  Li44  1  0.82757899  0.07141273  0.79415338  1
  Li  Li45  1  0.75616625  0.92858727  0.70584662  1
  Li  Li46  1  0.17242101  0.24383375  0.70584662  1
  Li  Li47  1  0.07141273  0.82757899  0.70584662  1
  Li  Li48  1  0.73807940  0.57716708  0.53917995  1
  Li  Li49  1  0.42283292  0.16091232  0.53917995  1
  Li  Li50  1  0.83908768  0.26192060  0.53917995  1
  Li  Li51  1  0.91050042  0.40474607  0.62748671  1
  Li  Li52  1  0.49424565  0.08949958  0.62748671  1
  Li  Li53  1  0.59525393  0.50575435  0.62748671  1
  Li  Li54  1  0.59525393  0.08949958  0.12748671  1
  Li  Li55  1  0.91050042  0.50575435  0.12748671  1
  Li  Li56  1  0.49424565  0.40474607  0.12748671  1
  Li  Li57  1  0.42283292  0.26192060  0.03917995  1
  Li  Li58  1  0.83908768  0.57716708  0.03917995  1
  Li  Li59  1  0.73807940  0.16091232  0.03917995  1
  Li  Li60  1  0.40474607  0.91050042  0.87251329  1
  Li  Li61  1  0.08949958  0.49424565  0.87251329  1
  Li  Li62  1  0.50575435  0.59525393  0.87251329  1
  Li  Li63  1  0.57716708  0.73807940  0.96082005  1
  Li  Li64  1  0.16091232  0.42283292  0.96082005  1
  Li  Li65  1  0.26192060  0.83908768  0.96082005  1
  Li  Li66  1  0.26192060  0.42283292  0.46082005  1
  Li  Li67  1  0.57716708  0.83908768  0.46082005  1
  Li  Li68  1  0.16091232  0.73807940  0.46082005  1
  Li  Li69  1  0.08949958  0.59525393  0.37251329  1
  Li  Li70  1  0.50575435  0.91050042  0.37251329  1
  Li  Li71  1  0.40474607  0.49424565  0.37251329  1
