# generated using pymatgen
data_LiF
_symmetry_space_group_name_H-M   'P 1'
_cell_length_a   10.61232714
_cell_length_b   10.61232714
_cell_length_c   9.36599456
_cell_angle_alpha   90.00000000
_cell_angle_beta   90.00000000
_cell_angle_gamma   120.00000000
_symmetry_Int_Tables_number   1
_chemical_formula_structural   LiF
_chemical_formula_sum   'Li36 F36'
_cell_volume   913.49419411
_cell_formula_units_Z   36
loop_
 _symmetry_equiv_pos_site_id
 _symmetry_equiv_pos_as_xyz
  1  'x, y, z'
loop_
 _atom_site_type_symbol
 _atom_site_label
 _atom_site_symmetry_multiplicity
 _atom_site_fract_x
 _atom_site_fract_y
 _atom_site_fract_z
 _atom_site_occupancy
  F  F0  1  0.09805229  0.22789615  0.54753582  1
  F  F1  1  -0.22789615  -0.12984386  0.54753582  1
  F  F2  1  0.12984386  -0.09805229  0.54753582  1
  F  F3  1  0.22789615  0.09805229  -0.04753582  1
  F  F4  1  -0.12984386  -0.22789615  -0.04753582  1
  F  F5  1  -0.09805229  0.12984386  -0.04753582  1
  F  F6  1  -0.09805229  -0.22789615  -0.54753582  1
  F  F7  1  0.22789615  0.12984386  -0.54753582  1
  F  F8  1  -0.12984386  0.09805229  -0.54753582  1
  F  F9  1  -0.22789615  -0.09805229  1.04753582  1
  F  F10  1  0.12984386  0.22789615  1.04753582  1
  F  F11  1  0.09805229  -0.12984386  1.04753582  1
  F  F12  1  0.76471896  0.56122948  0.88086916  1
  F  F13  1  0.43877052  0.20348948  0.88086916  1
  F  F14  1  0.79651052  0.23528104  0.88086916  1
  F  F15  1  0.89456281  0.43138562  0.28579751  1
  F  F16  1  0.53682281  0.10543719  0.28579751  1
  F  F17  1  0.56861438  0.46317719  0.28579751  1
  F  F18  1  0.56861438  0.10543719  -0.21420249  1
  F  F19  1  0.89456281  0.46317719  -0.21420249  1
  F  F20  1  0.53682281  0.43138562  -0.21420249  1
  F  F21  1  0.43877052  0.23528104  1.38086916  1
  F  F22  1  0.79651052  0.56122948  1.38086916  1
  F  F23  1  0.76471896  0.20348948  1.38086916  1
  F  F24  1  0.43138562  0.89456281  1.21420249  1
  F  F25  1  0.10543719  0.53682281  1.21420249  1
  F  F26  1  0.46317719  0.56861438  1.21420249  1
  F  F27  1  0.56122948  0.76471896  0.61913084  1
  F  F28  1  0.20348948  0.43877052  0.61913084  1
  F  F29  1  0.23528104  0.79651052  0.61913084  1
  F  F30  1  0.23528104  0.43877052  0.11913084  1
  F  F31  1  0.56122948  0.79651052  0.11913084  1
  F  F32  1  0.20348948  0.76471896  0.11913084  1
  F  F33  1  0.10543719  0.56861438  1.71420249  1
  F  F34  1  0.46317719  0.89456281  1.71420249  1
  F  F35  1  0.43138562  0.53682281  1.71420249  1
  Li  Li36  1  0.23856970  0.00000000  0.25000000  1
  Li  Li37  1  0.00000000  0.23856970  0.25000000  1
  Li  Li38  1  0.76143030  0.76143030  0.25000000  1
  Li  Li39  1  0.76143030  0.00000000  0.75000000  1
  Li  Li40  1  0.00000000  0.76143030  0.75000000  1
  Li  Li41  1  0.23856970  0.23856970  0.75000000  1
  Li  Li42  1  0.90523637  0.33333333  0.58333333  1
  Li  Li43  1  0.66666667  0.57190304  0.58333333  1
  Li  Li44  1  0.42809696  0.09476363  0.58333333  1
  Li  Li45  1  0.42809696  0.33333333  0.08333333  1
  Li  Li46  1  0.66666667  0.09476363  0.08333333  1
  Li  Li47  1  0.90523637  0.57190304  0.08333333  1
  Li  Li48  1  0.57190304  0.66666667  0.91666667  1
  Li  Li49  1  0.33333333  0.90523637  0.91666667  1
  Li  Li50  1  0.09476363  0.42809696  0.91666667  1
  Li  Li51  1  0.09476363  0.66666667  0.41666667  1
  Li  Li52  1  0.33333333  0.42809696  0.41666667  1
  Li  Li53  1  0.57190304  0.90523637  0.41666667  1
  Li  Li54  1  0.56438902  0.00000000  0.25000000  1
  Li  Li55  1  0.00000000  0.56438902  0.25000000  1
  Li  Li56  1  0.43561098  0.43561098  0.25000000  1
  Li  Li57  1  0.43561098  0.00000000  0.75000000  1
  Li  Li58  1  0.00000000  0.43561098  0.75000000  1
  Li  Li59  1  0.56438902  0.56438902  0.75000000  1
  Li  Li60  1  0.23105569  0.33333333  0.58333333  1
  Li  Li61  1  0.66666667  0.89772236  0.58333333  1
  Li  Li62  1  0.10227764  0.76894431  0.58333333  1
  Li  Li63  1  0.10227764  0.33333333  0.08333333  1
  Li  Li64  1  0.66666667  0.76894431  0.08333333  1
  Li  Li65  1  0.23105569  0.89772236  0.08333333  1
  Li  Li66  1  0.89772236  0.66666667  0.91666667  1
  Li  Li67  1  0.33333333  0.23105569  0.91666667  1
  Li  Li68  1  0.76894431  0.10227764  0.91666667  1
  Li  Li69  1  0.76894431  0.66666667  0.41666667  1
  Li  Li70  1  0.33333333  0.10227764  0.41666667  1
  Li  Li71  1  0.89772236  0.23105569  0.41666667  1
