# generated using pymatgen
data_LiF
_symmetry_space_group_name_H-M   'P 1'
_cell_length_a   12.08976608
_cell_length_b   8.08230892
_cell_length_c   7.01641305
_cell_angle_alpha   90.00000000
_cell_angle_beta   90.00000000
_cell_angle_gamma   90.00000000
_symmetry_Int_Tables_number   1
_chemical_formula_structural   LiF
_chemical_formula_sum   'Li30 F30'
_cell_volume   685.59634143
_cell_formula_units_Z   30
loop_
 _symmetry_equiv_pos_site_id
 _symmetry_equiv_pos_as_xyz
  1  'x, y, z'
loop_
 _atom_site_type_symbol
 _atom_site_label
 _atom_site_symmetry_multiplicity
 _atom_site_fract_x
 _atom_site_fract_y
 _atom_site_fract_z
 _atom_site_occupancy
  F  F0  1  0.15435338  0.65744676  0.50000000  1
  F  F1  1  0.84564662  0.34255324  0.50000000  1
  F  F2  1  0.34564662  0.15744676  0.50000000  1
  F  F3  1  0.65435338  0.84255324  0.50000000  1
  F  F4  1  0.00298069  0.11937857  0.50000000  1
  F  F5  1  0.99701931  0.88062143  0.50000000  1
  F  F6  1  0.49701931  0.61937857  0.50000000  1
  F  F7  1  0.50298069  0.38062143  0.50000000  1
  F  F8  1  0.00000000  0.00000000  0.91076335  1
  F  F9  1  0.50000000  0.50000000  0.08923665  1
  F  F10  1  0.00000000  0.00000000  0.08923665  1
  F  F11  1  0.50000000  0.50000000  0.91076335  1
  F  F12  1  0.00000000  0.00000000  0.25148851  1
  F  F13  1  0.50000000  0.50000000  0.74851149  1
  F  F14  1  0.00000000  0.00000000  0.74851149  1
  F  F15  1  0.50000000  0.50000000  0.25148851  1
  F  F16  1  0.00000000  0.00000000  0.00000000  1
  F  F17  1  0.50000000  0.50000000  0.00000000  1
  F  F18  1  0.00000000  0.00000000  0.50000000  1
  F  F19  1  0.50000000  0.50000000  0.50000000  1
  F  F20  1  0.95396402  0.30954554  0.68866484  1
  F  F21  1  -0.95396402  -0.30954554  0.68866484  1
  F  F22  1  -0.45396402  0.80954554  -0.68866484  1
  F  F23  1  1.45396402  0.19045446  -0.68866484  1
  F  F24  1  -0.95396402  -0.30954554  -0.68866484  1
  F  F25  1  0.95396402  0.30954554  -0.68866484  1
  F  F26  1  1.45396402  0.19045446  0.68866484  1
  F  F27  1  -0.45396402  0.80954554  0.68866484  1
  F  F28  1  0.00000000  0.50000000  0.50000000  1
  F  F29  1  0.50000000  0.00000000  0.50000000  1
  Li  Li30  1  0.00000000  0.50000000  0.00000000  1
  Li  Li31  1  0.50000000  0.00000000  0.00000000  1
  Li  Li32  1  0.37938543  0.53768626  0.50000000  1
  Li  Li33  1  0.62061457  0.46231374  0.50000000  1
  Li  Li34  1  0.12061457  0.03768626  0.50000000  1
  Li  Li35  1  0.87938543  0.96231374  0.50000000  1
  Li  Li36  1  0.88365657  0.78857849  0.36653983  1
  Li  Li37  1  0.11634343  0.21142151  0.36653983  1
  Li  Li38  1  0.61634343  0.28857849  0.63346017  1
  Li  Li39  1  0.38365657  0.71142151  0.63346017  1
  Li  Li40  1  0.11634343  0.21142151  0.63346017  1
  Li  Li41  1  0.88365657  0.78857849  0.63346017  1
  Li  Li42  1  0.38365657  0.71142151  0.36653983  1
  Li  Li43  1  0.61634343  0.28857849  0.36653983  1
  Li  Li44  1  0.61224390  0.71867005  0.75995314  1
  Li  Li45  1  0.38775610  0.28132995  0.75995314  1
  Li  Li46  1  0.88775610  0.21867005  0.24004686  1
  Li  Li47  1  0.11224390  0.78132995  0.24004686  1
  Li  Li48  1  0.38775610  0.28132995  0.24004686  1
  Li  Li49  1  0.61224390  0.71867005  0.24004686  1
  Li  Li50  1  0.11224390  0.78132995  0.75995314  1
  Li  Li51  1  0.88775610  0.21867005  0.75995314  1
  Li  Li52  1  0.25592982  0.27498219  0.10911107  1
  Li  Li53  1  0.74407018  0.72501781  0.10911107  1
  Li  Li54  1  0.24407018  0.77498219  0.89088893  1
  Li  Li55  1  0.75592982  0.22501781  0.89088893  1
  Li  Li56  1  0.74407018  0.72501781  0.89088893  1
  Li  Li57  1  0.25592982  0.27498219  0.89088893  1
  Li  Li58  1  0.75592982  0.22501781  0.10911107  1
  Li  Li59  1  0.24407018  0.77498219  0.10911107  1
