# generated using pymatgen
data_LiY2Cu3P2
_symmetry_space_group_name_H-M   'P 1'
_cell_length_a   3.73994276
_cell_length_b   3.97809956
_cell_length_c   6.59558927
_cell_angle_alpha   96.92313773
_cell_angle_beta   104.87906221
_cell_angle_gamma   117.49683130
_symmetry_Int_Tables_number   1
_chemical_formula_structural   LiY2Cu3P2
_chemical_formula_sum   'Li1 Y2 Cu3 P2'
_cell_volume   80.78691838
_cell_formula_units_Z   1
loop_
 _symmetry_equiv_pos_site_id
 _symmetry_equiv_pos_as_xyz
  1  'x, y, z'
loop_
 _atom_site_type_symbol
 _atom_site_label
 _atom_site_symmetry_multiplicity
 _atom_site_fract_x
 _atom_site_fract_y
 _atom_site_fract_z
 _atom_site_occupancy
  P  P0  1  0.00000000  0.00000000  0.00000000  1
  P  P1  1  0.33300000  0.66700000  0.25000000  1
  Li  Li2  1  0.66700000  0.33300000  0.50000000  1
  Y  Y3  1  0.00000000  0.00000000  0.75000000  1
  Y  Y4  1  0.76459677  0.75357477  0.36880066  1
  Cu  Cu5  1  0.44396752  0.71967935  0.45562319  1
  Cu  Cu6  1  0.91677286  0.71043177  0.66675674  1
  Cu  Cu7  1  0.94301044  0.58617139  0.42725137  1
