# generated using pymatgen
data_LiF
_symmetry_space_group_name_H-M   'P 1'
_cell_length_a   11.09349649
_cell_length_b   7.57624221
_cell_length_c   9.28405529
_cell_angle_alpha   90.00000000
_cell_angle_beta   90.00000000
_cell_angle_gamma   90.00000000
_symmetry_Int_Tables_number   1
_chemical_formula_structural   LiF
_chemical_formula_sum   'Li32 F32'
_cell_volume   780.29714739
_cell_formula_units_Z   32
loop_
 _symmetry_equiv_pos_site_id
 _symmetry_equiv_pos_as_xyz
  1  'x, y, z'
loop_
 _atom_site_type_symbol
 _atom_site_label
 _atom_site_symmetry_multiplicity
 _atom_site_fract_x
 _atom_site_fract_y
 _atom_site_fract_z
 _atom_site_occupancy
  F  F0  1  0.00000000  0.50000000  0.00000000  1
  F  F1  1  0.50000000  0.00000000  0.00000000  1
  F  F2  1  0.00000000  0.50000000  0.30081638  1
  F  F3  1  0.50000000  0.00000000  0.69918362  1
  F  F4  1  0.00000000  0.50000000  0.69918362  1
  F  F5  1  0.50000000  0.00000000  0.30081638  1
  F  F6  1  0.88986650  0.36993232  0.94986004  1
  F  F7  1  0.11013350  0.63006768  0.94986004  1
  F  F8  1  0.61013350  0.86993232  0.05013996  1
  F  F9  1  0.38986650  0.13006768  0.05013996  1
  F  F10  1  0.11013350  0.63006768  0.05013996  1
  F  F11  1  0.88986650  0.36993232  0.05013996  1
  F  F12  1  0.38986650  0.13006768  0.94986004  1
  F  F13  1  0.61013350  0.86993232  0.94986004  1
  F  F14  1  0.97215732  0.50190947  0.50000000  1
  F  F15  1  0.02784268  0.49809053  0.50000000  1
  F  F16  1  0.52784268  0.00190947  0.50000000  1
  F  F17  1  0.47215732  0.99809053  0.50000000  1
  F  F18  1  0.31469833  0.10160104  0.87546254  1
  F  F19  1  0.68530167  0.89839896  0.87546254  1
  F  F20  1  0.18530167  0.60160104  0.12453746  1
  F  F21  1  0.81469833  0.39839896  0.12453746  1
  F  F22  1  0.68530167  0.89839896  0.12453746  1
  F  F23  1  0.31469833  0.10160104  0.12453746  1
  F  F24  1  0.81469833  0.39839896  0.87546254  1
  F  F25  1  0.18530167  0.60160104  0.87546254  1
  F  F26  1  0.00000000  0.50000000  0.80683268  1
  F  F27  1  0.50000000  0.00000000  0.19316732  1
  F  F28  1  0.00000000  0.50000000  0.19316732  1
  F  F29  1  0.50000000  0.00000000  0.80683268  1
  F  F30  1  0.00000000  0.00000000  0.50000000  1
  F  F31  1  0.50000000  0.50000000  0.50000000  1
  Li  Li32  1  0.55829475  0.57187594  0.00000000  1
  Li  Li33  1  0.44170525  0.42812406  0.00000000  1
  Li  Li34  1  0.94170525  0.07187594  0.00000000  1
  Li  Li35  1  0.05829475  0.92812406  -0.00000000  1
  Li  Li36  1  0.63474680  0.22298831  0.78503269  1
  Li  Li37  1  -0.63474680  -0.22298831  0.78503269  1
  Li  Li38  1  -0.13474680  0.72298831  -0.78503269  1
  Li  Li39  1  1.13474680  0.27701169  -0.78503269  1
  Li  Li40  1  -0.63474680  -0.22298831  -0.78503269  1
  Li  Li41  1  0.63474680  0.22298831  -0.78503269  1
  Li  Li42  1  1.13474680  0.27701169  0.78503269  1
  Li  Li43  1  -0.13474680  0.72298831  0.78503269  1
  Li  Li44  1  0.32125448  0.30361174  0.79212153  1
  Li  Li45  1  0.67874552  0.69638826  0.79212153  1
  Li  Li46  1  0.17874552  0.80361174  0.20787847  1
  Li  Li47  1  0.82125448  0.19638826  0.20787847  1
  Li  Li48  1  0.67874552  0.69638826  0.20787847  1
  Li  Li49  1  0.32125448  0.30361174  0.20787847  1
  Li  Li50  1  0.82125448  0.19638826  0.79212153  1
  Li  Li51  1  0.17874552  0.80361174  0.79212153  1
  Li  Li52  1  0.99255439  0.15579892  0.33400476  1
  Li  Li53  1  0.00744561  0.84420108  0.33400476  1
  Li  Li54  1  0.50744561  0.65579892  0.66599524  1
  Li  Li55  1  0.49255439  0.34420108  0.66599524  1
  Li  Li56  1  0.00744561  0.84420108  0.66599524  1
  Li  Li57  1  0.99255439  0.15579892  0.66599524  1
  Li  Li58  1  0.49255439  0.34420108  0.33400476  1
  Li  Li59  1  0.50744561  0.65579892  0.33400476  1
  Li  Li60  1  0.27756848  0.42146551  0.00000000  1
  Li  Li61  1  0.72243152  0.57853449  0.00000000  1
  Li  Li62  1  0.22243152  0.92146551  0.00000000  1
  Li  Li63  1  0.77756848  0.07853449  0.00000000  1
