# generated using pymatgen
data_Li4TeF2
_symmetry_space_group_name_H-M   'P 1'
_cell_length_a   13.94048900
_cell_length_b   13.94048900
_cell_length_c   13.94048900
_cell_angle_alpha   90.00000000
_cell_angle_beta   90.00000000
_cell_angle_gamma   90.00000000
_symmetry_Int_Tables_number   1
_chemical_formula_structural   Li4TeF2
_chemical_formula_sum   'Li96 Te24 F48'
_cell_volume   2709.15606909
_cell_formula_units_Z   24
loop_
 _symmetry_equiv_pos_site_id
 _symmetry_equiv_pos_as_xyz
  1  'x, y, z'
loop_
 _atom_site_type_symbol
 _atom_site_label
 _atom_site_symmetry_multiplicity
 _atom_site_fract_x
 _atom_site_fract_y
 _atom_site_fract_z
 _atom_site_occupancy
  F  F0  1  0.14367049  0.60664181  0.42500855  1
  F  F1  1  0.35632951  -0.60664181  0.92500855  1
  F  F2  1  -0.14367049  1.10664181  0.07499145  1
  F  F3  1  0.64367049  -0.10664181  -0.42500855  1
  F  F4  1  0.42500855  0.14367049  0.60664181  1
  F  F5  1  0.92500855  0.35632951  -0.60664181  1
  F  F6  1  0.07499145  -0.14367049  1.10664181  1
  F  F7  1  -0.42500855  0.64367049  -0.10664181  1
  F  F8  1  0.60664181  0.42500855  0.14367049  1
  F  F9  1  -0.60664181  0.92500855  0.35632951  1
  F  F10  1  1.10664181  0.07499145  -0.14367049  1
  F  F11  1  -0.10664181  -0.42500855  0.64367049  1
  F  F12  1  1.35664181  0.39367049  -0.17500855  1
  F  F13  1  0.14335819  0.60632951  0.32499145  1
  F  F14  1  0.85664181  0.10632951  1.17500855  1
  F  F15  1  -0.35664181  0.89367049  0.67500855  1
  F  F16  1  0.89367049  0.67500855  -0.35664181  1
  F  F17  1  0.10632951  1.17500855  0.85664181  1
  F  F18  1  0.60632951  0.32499145  0.14335819  1
  F  F19  1  0.39367049  -0.17500855  1.35664181  1
  F  F20  1  1.17500855  0.85664181  0.10632951  1
  F  F21  1  0.67500855  -0.35664181  0.89367049  1
  F  F22  1  -0.17500855  1.35664181  0.39367049  1
  F  F23  1  0.32499145  0.14335819  0.60632951  1
  F  F24  1  0.64367049  1.10664181  0.92500855  1
  F  F25  1  0.85632951  -0.10664181  1.42500855  1
  F  F26  1  0.35632951  1.60664181  0.57499145  1
  F  F27  1  1.14367049  0.39335819  0.07499145  1
  F  F28  1  0.92500855  0.64367049  1.10664181  1
  F  F29  1  1.42500855  0.85632951  -0.10664181  1
  F  F30  1  0.57499145  0.35632951  1.60664181  1
  F  F31  1  0.07499145  1.14367049  0.39335819  1
  F  F32  1  1.10664181  0.92500855  0.64367049  1
  F  F33  1  -0.10664181  1.42500855  0.85632951  1
  F  F34  1  1.60664181  0.57499145  0.35632951  1
  F  F35  1  0.39335819  0.07499145  1.14367049  1
  F  F36  1  1.85664181  0.89367049  0.32499145  1
  F  F37  1  0.64335819  1.10632951  0.82499145  1
  F  F38  1  1.35664181  0.60632951  1.67500855  1
  F  F39  1  0.14335819  1.39367049  1.17500855  1
  F  F40  1  1.39367049  1.17500855  0.14335819  1
  F  F41  1  0.60632951  1.67500855  1.35664181  1
  F  F42  1  1.10632951  0.82499145  0.64335819  1
  F  F43  1  0.89367049  0.32499145  1.85664181  1
  F  F44  1  1.67500855  1.35664181  0.60632951  1
  F  F45  1  1.17500855  0.14335819  1.39367049  1
  F  F46  1  0.32499145  1.85664181  0.89367049  1
  F  F47  1  0.82499145  0.64335819  1.10632951  1
  Li  Li48  1  0.19724718  0.06392297  0.76374771  1
  Li  Li49  1  0.30275282  0.93607703  0.26374771  1
  Li  Li50  1  0.80275282  0.56392297  0.73625229  1
  Li  Li51  1  0.69724718  0.43607703  0.23625229  1
  Li  Li52  1  0.76374771  0.19724718  0.06392297  1
  Li  Li53  1  0.26374771  0.30275282  0.93607703  1
  Li  Li54  1  0.73625229  0.80275282  0.56392297  1
  Li  Li55  1  0.23625229  0.69724718  0.43607703  1
  Li  Li56  1  0.06392297  0.76374771  0.19724718  1
  Li  Li57  1  0.93607703  0.26374771  0.30275282  1
  Li  Li58  1  0.56392297  0.73625229  0.80275282  1
  Li  Li59  1  0.43607703  0.23625229  0.69724718  1
  Li  Li60  1  0.81392297  0.44724718  0.48625229  1
  Li  Li61  1  0.68607703  0.55275282  0.98625229  1
  Li  Li62  1  0.31392297  0.05275282  0.51374771  1
  Li  Li63  1  0.18607703  0.94724718  0.01374771  1
  Li  Li64  1  0.94724718  0.01374771  0.18607703  1
  Li  Li65  1  0.05275282  0.51374771  0.31392297  1
  Li  Li66  1  0.55275282  0.98625229  0.68607703  1
  Li  Li67  1  0.44724718  0.48625229  0.81392297  1
  Li  Li68  1  0.51374771  0.31392297  0.05275282  1
  Li  Li69  1  0.01374771  0.18607703  0.94724718  1
  Li  Li70  1  0.48625229  0.81392297  0.44724718  1
  Li  Li71  1  0.98625229  0.68607703  0.55275282  1
  Li  Li72  1  0.69724718  0.56392297  0.26374771  1
  Li  Li73  1  0.80275282  0.43607703  0.76374771  1
  Li  Li74  1  0.30275282  0.06392297  0.23625229  1
  Li  Li75  1  0.19724718  0.93607703  0.73625229  1
  Li  Li76  1  0.26374771  0.69724718  0.56392297  1
  Li  Li77  1  0.76374771  0.80275282  0.43607703  1
  Li  Li78  1  0.23625229  0.30275282  0.06392297  1
  Li  Li79  1  0.73625229  0.19724718  0.93607703  1
  Li  Li80  1  0.56392297  0.26374771  0.69724718  1
  Li  Li81  1  0.43607703  0.76374771  0.80275282  1
  Li  Li82  1  0.06392297  0.23625229  0.30275282  1
  Li  Li83  1  0.93607703  0.73625229  0.19724718  1
  Li  Li84  1  0.31392297  0.94724718  0.98625229  1
  Li  Li85  1  0.18607703  0.05275282  0.48625229  1
  Li  Li86  1  0.81392297  0.55275282  0.01374771  1
  Li  Li87  1  0.68607703  0.44724718  0.51374771  1
  Li  Li88  1  0.44724718  0.51374771  0.68607703  1
  Li  Li89  1  0.55275282  0.01374771  0.81392297  1
  Li  Li90  1  0.05275282  0.48625229  0.18607703  1
  Li  Li91  1  0.94724718  0.98625229  0.31392297  1
  Li  Li92  1  0.01374771  0.81392297  0.55275282  1
  Li  Li93  1  0.51374771  0.68607703  0.44724718  1
  Li  Li94  1  0.98625229  0.31392297  0.94724718  1
  Li  Li95  1  0.48625229  0.18607703  0.05275282  1
  Li  Li96  1  0.12500000  0.04623828  0.29623828  1
  Li  Li97  1  0.37500000  0.95376172  0.79623828  1
  Li  Li98  1  0.87500000  0.54623828  0.20376172  1
  Li  Li99  1  0.62500000  0.45376172  0.70376172  1
  Li  Li100  1  0.29623828  0.12500000  0.04623828  1
  Li  Li101  1  0.79623828  0.37500000  0.95376172  1
  Li  Li102  1  0.20376172  0.87500000  0.54623828  1
  Li  Li103  1  0.70376172  0.62500000  0.45376172  1
  Li  Li104  1  0.04623828  0.29623828  0.12500000  1
  Li  Li105  1  0.95376172  0.79623828  0.37500000  1
  Li  Li106  1  0.54623828  0.20376172  0.87500000  1
  Li  Li107  1  0.45376172  0.70376172  0.62500000  1
  Li  Li108  1  0.62500000  0.54623828  0.79623828  1
  Li  Li109  1  0.87500000  0.45376172  0.29623828  1
  Li  Li110  1  0.37500000  0.04623828  0.70376172  1
  Li  Li111  1  0.12500000  0.95376172  0.20376172  1
  Li  Li112  1  0.79623828  0.62500000  0.54623828  1
  Li  Li113  1  0.29623828  0.87500000  0.45376172  1
  Li  Li114  1  0.70376172  0.37500000  0.04623828  1
  Li  Li115  1  0.20376172  0.12500000  0.95376172  1
  Li  Li116  1  0.54623828  0.79623828  0.62500000  1
  Li  Li117  1  0.45376172  0.29623828  0.87500000  1
  Li  Li118  1  0.04623828  0.70376172  0.37500000  1
  Li  Li119  1  0.95376172  0.20376172  0.12500000  1
  Li  Li120  1  0.12500000  0.69657820  0.94657820  1
  Li  Li121  1  0.37500000  0.30342180  0.44657820  1
  Li  Li122  1  0.87500000  0.19657820  0.55342180  1
  Li  Li123  1  0.62500000  0.80342180  0.05342180  1
  Li  Li124  1  0.94657820  0.12500000  0.69657820  1
  Li  Li125  1  0.44657820  0.37500000  0.30342180  1
  Li  Li126  1  0.55342180  0.87500000  0.19657820  1
  Li  Li127  1  0.05342180  0.62500000  0.80342180  1
  Li  Li128  1  0.69657820  0.94657820  0.12500000  1
  Li  Li129  1  0.30342180  0.44657820  0.37500000  1
  Li  Li130  1  0.19657820  0.55342180  0.87500000  1
  Li  Li131  1  0.80342180  0.05342180  0.62500000  1
  Li  Li132  1  0.62500000  0.19657820  0.44657820  1
  Li  Li133  1  0.87500000  0.80342180  0.94657820  1
  Li  Li134  1  0.37500000  0.69657820  0.05342180  1
  Li  Li135  1  0.12500000  0.30342180  0.55342180  1
  Li  Li136  1  0.44657820  0.62500000  0.19657820  1
  Li  Li137  1  0.94657820  0.87500000  0.80342180  1
  Li  Li138  1  0.05342180  0.37500000  0.69657820  1
  Li  Li139  1  0.55342180  0.12500000  0.30342180  1
  Li  Li140  1  0.19657820  0.44657820  0.62500000  1
  Li  Li141  1  0.80342180  0.94657820  0.87500000  1
  Li  Li142  1  0.69657820  0.05342180  0.37500000  1
  Li  Li143  1  0.30342180  0.55342180  0.12500000  1
  Te  Te144  1  0.45740490  0.00000000  0.25000000  1
  Te  Te145  1  0.04259510  0.00000000  0.75000000  1
  Te  Te146  1  0.25000000  0.45740490  -0.00000000  1
  Te  Te147  1  0.75000000  0.04259510  0.00000000  1
  Te  Te148  1  0.00000000  0.25000000  0.45740490  1
  Te  Te149  1  0.00000000  0.75000000  0.04259510  1
  Te  Te150  1  0.75000000  0.70740490  0.00000000  1
  Te  Te151  1  0.75000000  0.29259510  0.50000000  1
  Te  Te152  1  0.20740490  0.50000000  0.25000000  1
  Te  Te153  1  0.79259510  -0.00000000  0.25000000  1
  Te  Te154  1  0.00000000  0.25000000  0.79259510  1
  Te  Te155  1  0.50000000  0.25000000  0.20740490  1
  Te  Te156  1  0.95740490  0.50000000  0.75000000  1
  Te  Te157  1  0.54259510  0.50000000  0.25000000  1
  Te  Te158  1  0.75000000  0.95740490  0.50000000  1
  Te  Te159  1  0.25000000  0.54259510  0.50000000  1
  Te  Te160  1  0.50000000  0.75000000  0.95740490  1
  Te  Te161  1  0.50000000  0.25000000  0.54259510  1
  Te  Te162  1  0.25000000  0.20740490  0.50000000  1
  Te  Te163  1  0.25000000  0.79259510  0.00000000  1
  Te  Te164  1  0.70740490  0.00000000  0.75000000  1
  Te  Te165  1  0.29259510  0.50000000  0.75000000  1
  Te  Te166  1  0.50000000  0.75000000  0.29259510  1
  Te  Te167  1  0.00000000  0.75000000  0.70740490  1
