# generated using pymatgen
data_K2LiTeCl
_symmetry_space_group_name_H-M   'P 1'
_cell_length_a   20.30189615
_cell_length_b   20.30189615
_cell_length_c   20.30189615
_cell_angle_alpha   90.00000000
_cell_angle_beta   90.00000000
_cell_angle_gamma   90.00000000
_symmetry_Int_Tables_number   1
_chemical_formula_structural   K2LiTeCl
_chemical_formula_sum   'K96 Li48 Te48 Cl48'
_cell_volume   8367.77137525
_cell_formula_units_Z   48
loop_
 _symmetry_equiv_pos_site_id
 _symmetry_equiv_pos_as_xyz
  1  'x, y, z'
loop_
 _atom_site_type_symbol
 _atom_site_label
 _atom_site_symmetry_multiplicity
 _atom_site_fract_x
 _atom_site_fract_y
 _atom_site_fract_z
 _atom_site_occupancy
  Cl  Cl0  1  0.12500000  0.98010572  0.26989428  1
  Cl  Cl1  1  0.37500000  0.01989428  0.76989428  1
  Cl  Cl2  1  0.87500000  0.48010572  0.23010572  1
  Cl  Cl3  1  0.62500000  0.51989428  0.73010572  1
  Cl  Cl4  1  0.26989428  0.12500000  0.98010572  1
  Cl  Cl5  1  0.76989428  0.37500000  0.01989428  1
  Cl  Cl6  1  0.23010572  0.87500000  0.48010572  1
  Cl  Cl7  1  0.73010572  0.62500000  0.51989428  1
  Cl  Cl8  1  0.98010572  0.26989428  0.12500000  1
  Cl  Cl9  1  0.01989428  0.76989428  0.37500000  1
  Cl  Cl10  1  0.48010572  0.23010572  0.87500000  1
  Cl  Cl11  1  0.51989428  0.73010572  0.62500000  1
  Cl  Cl12  1  0.87500000  0.01989428  0.73010572  1
  Cl  Cl13  1  0.62500000  0.98010572  0.23010572  1
  Cl  Cl14  1  0.12500000  0.51989428  0.76989428  1
  Cl  Cl15  1  0.37500000  0.48010572  0.26989428  1
  Cl  Cl16  1  0.73010572  0.87500000  0.01989428  1
  Cl  Cl17  1  0.23010572  0.62500000  0.98010572  1
  Cl  Cl18  1  0.76989428  0.12500000  0.51989428  1
  Cl  Cl19  1  0.26989428  0.37500000  0.48010572  1
  Cl  Cl20  1  0.01989428  0.73010572  0.87500000  1
  Cl  Cl21  1  0.98010572  0.23010572  0.62500000  1
  Cl  Cl22  1  0.51989428  0.76989428  0.12500000  1
  Cl  Cl23  1  0.48010572  0.26989428  0.37500000  1
  Cl  Cl24  1  0.62500000  0.48010572  0.76989428  1
  Cl  Cl25  1  0.87500000  0.51989428  0.26989428  1
  Cl  Cl26  1  0.37500000  0.98010572  0.73010572  1
  Cl  Cl27  1  0.12500000  0.01989428  0.23010572  1
  Cl  Cl28  1  0.76989428  0.62500000  0.48010572  1
  Cl  Cl29  1  0.26989428  0.87500000  0.51989428  1
  Cl  Cl30  1  0.73010572  0.37500000  0.98010572  1
  Cl  Cl31  1  0.23010572  0.12500000  0.01989428  1
  Cl  Cl32  1  0.48010572  0.76989428  0.62500000  1
  Cl  Cl33  1  0.51989428  0.26989428  0.87500000  1
  Cl  Cl34  1  0.98010572  0.73010572  0.37500000  1
  Cl  Cl35  1  0.01989428  0.23010572  0.12500000  1
  Cl  Cl36  1  0.37500000  0.51989428  0.23010572  1
  Cl  Cl37  1  0.12500000  0.48010572  0.73010572  1
  Cl  Cl38  1  0.62500000  0.01989428  0.26989428  1
  Cl  Cl39  1  0.87500000  0.98010572  0.76989428  1
  Cl  Cl40  1  0.23010572  0.37500000  0.51989428  1
  Cl  Cl41  1  0.73010572  0.12500000  0.48010572  1
  Cl  Cl42  1  0.26989428  0.62500000  0.01989428  1
  Cl  Cl43  1  0.76989428  0.87500000  0.98010572  1
  Cl  Cl44  1  0.51989428  0.23010572  0.37500000  1
  Cl  Cl45  1  0.48010572  0.73010572  0.12500000  1
  Cl  Cl46  1  0.01989428  0.26989428  0.62500000  1
  Cl  Cl47  1  0.98010572  0.76989428  0.87500000  1
  K  K48  1  0.62384616  0.28404023  0.28951939  1
  K  K49  1  -0.12384616  -0.28404023  0.78951939  1
  K  K50  1  -0.62384616  0.78404023  0.21048061  1
  K  K51  1  1.12384616  0.21595977  -0.28951939  1
  K  K52  1  0.28951939  0.62384616  0.28404023  1
  K  K53  1  0.78951939  -0.12384616  -0.28404023  1
  K  K54  1  0.21048061  -0.62384616  0.78404023  1
  K  K55  1  -0.28951939  1.12384616  0.21595977  1
  K  K56  1  0.28404023  0.28951939  0.62384616  1
  K  K57  1  -0.28404023  0.78951939  -0.12384616  1
  K  K58  1  0.78404023  0.21048061  -0.62384616  1
  K  K59  1  0.21595977  -0.28951939  1.12384616  1
  K  K60  1  1.03404023  0.87384616  -0.03951939  1
  K  K61  1  0.46595977  0.12615384  0.46048061  1
  K  K62  1  0.53404023  -0.37384616  1.03951939  1
  K  K63  1  -0.03404023  1.37384616  0.53951939  1
  K  K64  1  1.37384616  0.53951939  -0.03404023  1
  K  K65  1  -0.37384616  1.03951939  0.53404023  1
  K  K66  1  0.12615384  0.46048061  0.46595977  1
  K  K67  1  0.87384616  -0.03951939  1.03404023  1
  K  K68  1  1.03951939  0.53404023  -0.37384616  1
  K  K69  1  0.53951939  -0.03404023  1.37384616  1
  K  K70  1  -0.03951939  1.03404023  0.87384616  1
  K  K71  1  0.46048061  0.46595977  0.12615384  1
  K  K72  1  -0.62384616  -0.28404023  -0.28951939  1
  K  K73  1  1.12384616  0.28404023  0.21048061  1
  K  K74  1  0.62384616  0.21595977  0.78951939  1
  K  K75  1  -0.12384616  0.78404023  0.28951939  1
  K  K76  1  -0.28951939  -0.62384616  -0.28404023  1
  K  K77  1  0.21048061  1.12384616  0.28404023  1
  K  K78  1  0.78951939  0.62384616  0.21595977  1
  K  K79  1  0.28951939  -0.12384616  0.78404023  1
  K  K80  1  -0.28404023  -0.28951939  -0.62384616  1
  K  K81  1  0.28404023  0.21048061  1.12384616  1
  K  K82  1  0.21595977  0.78951939  0.62384616  1
  K  K83  1  0.78404023  0.28951939  -0.12384616  1
  K  K84  1  -0.03404023  0.12615384  1.03951939  1
  K  K85  1  0.53404023  0.87384616  0.53951939  1
  K  K86  1  0.46595977  1.37384616  -0.03951939  1
  K  K87  1  1.03404023  -0.37384616  0.46048061  1
  K  K88  1  -0.37384616  0.46048061  1.03404023  1
  K  K89  1  1.37384616  -0.03951939  0.46595977  1
  K  K90  1  0.87384616  0.53951939  0.53404023  1
  K  K91  1  0.12615384  1.03951939  -0.03404023  1
  K  K92  1  -0.03951939  0.46595977  1.37384616  1
  K  K93  1  0.46048061  1.03404023  -0.37384616  1
  K  K94  1  1.03951939  -0.03404023  0.12615384  1
  K  K95  1  0.53951939  0.53404023  0.87384616  1
  K  K96  1  1.12384616  0.78404023  0.78951939  1
  K  K97  1  0.37615384  0.21595977  1.28951939  1
  K  K98  1  -0.12384616  1.28404023  0.71048061  1
  K  K99  1  1.62384616  0.71595977  0.21048061  1
  K  K100  1  0.78951939  1.12384616  0.78404023  1
  K  K101  1  1.28951939  0.37615384  0.21595977  1
  K  K102  1  0.71048061  -0.12384616  1.28404023  1
  K  K103  1  0.21048061  1.62384616  0.71595977  1
  K  K104  1  0.78404023  0.78951939  1.12384616  1
  K  K105  1  0.21595977  1.28951939  0.37615384  1
  K  K106  1  1.28404023  0.71048061  -0.12384616  1
  K  K107  1  0.71595977  0.21048061  1.62384616  1
  K  K108  1  1.53404023  1.37384616  0.46048061  1
  K  K109  1  0.96595977  0.62615384  0.96048061  1
  K  K110  1  1.03404023  0.12615384  1.53951939  1
  K  K111  1  0.46595977  1.87384616  1.03951939  1
  K  K112  1  1.87384616  1.03951939  0.46595977  1
  K  K113  1  0.12615384  1.53951939  1.03404023  1
  K  K114  1  0.62615384  0.96048061  0.96595977  1
  K  K115  1  1.37384616  0.46048061  1.53404023  1
  K  K116  1  1.53951939  1.03404023  0.12615384  1
  K  K117  1  1.03951939  0.46595977  1.87384616  1
  K  K118  1  0.46048061  1.53404023  1.37384616  1
  K  K119  1  0.96048061  0.96595977  0.62615384  1
  K  K120  1  -0.12384616  0.21595977  0.21048061  1
  K  K121  1  1.62384616  0.78404023  0.71048061  1
  K  K122  1  1.12384616  0.71595977  1.28951939  1
  K  K123  1  0.37615384  1.28404023  0.78951939  1
  K  K124  1  0.21048061  -0.12384616  0.21595977  1
  K  K125  1  0.71048061  1.62384616  0.78404023  1
  K  K126  1  1.28951939  1.12384616  0.71595977  1
  K  K127  1  0.78951939  0.37615384  1.28404023  1
  K  K128  1  0.21595977  0.21048061  -0.12384616  1
  K  K129  1  0.78404023  0.71048061  1.62384616  1
  K  K130  1  0.71595977  1.28951939  1.12384616  1
  K  K131  1  1.28404023  0.78951939  0.37615384  1
  K  K132  1  0.46595977  0.62615384  1.53951939  1
  K  K133  1  1.03404023  1.37384616  1.03951939  1
  K  K134  1  0.96595977  1.87384616  0.46048061  1
  K  K135  1  1.53404023  0.12615384  0.96048061  1
  K  K136  1  0.12615384  0.96048061  1.53404023  1
  K  K137  1  1.87384616  0.46048061  0.96595977  1
  K  K138  1  1.37384616  1.03951939  1.03404023  1
  K  K139  1  0.62615384  1.53951939  0.46595977  1
  K  K140  1  0.46048061  0.96595977  1.87384616  1
  K  K141  1  0.96048061  1.53404023  0.12615384  1
  K  K142  1  1.53951939  0.46595977  0.62615384  1
  K  K143  1  1.03951939  1.03404023  1.37384616  1
  Li  Li144  1  0.79317092  0.00000000  0.25000000  1
  Li  Li145  1  0.70682908  0.00000000  0.75000000  1
  Li  Li146  1  0.25000000  0.79317092  0.00000000  1
  Li  Li147  1  0.75000000  0.70682908  -0.00000000  1
  Li  Li148  1  0.00000000  0.25000000  0.79317092  1
  Li  Li149  1  0.00000000  0.75000000  0.70682908  1
  Li  Li150  1  0.75000000  0.04317092  0.00000000  1
  Li  Li151  1  0.75000000  0.95682908  0.50000000  1
  Li  Li152  1  0.54317092  0.50000000  0.25000000  1
  Li  Li153  1  0.45682908  -0.00000000  0.25000000  1
  Li  Li154  1  0.00000000  0.25000000  0.45682908  1
  Li  Li155  1  0.50000000  0.25000000  0.54317092  1
  Li  Li156  1  0.20682908  -0.00000000  0.75000000  1
  Li  Li157  1  0.29317092  0.00000000  0.25000000  1
  Li  Li158  1  0.75000000  0.20682908  0.00000000  1
  Li  Li159  1  0.25000000  0.29317092  0.00000000  1
  Li  Li160  1  0.00000000  0.75000000  0.20682908  1
  Li  Li161  1  0.00000000  0.25000000  0.29317092  1
  Li  Li162  1  0.25000000  0.95682908  0.00000000  1
  Li  Li163  1  0.25000000  0.04317092  0.50000000  1
  Li  Li164  1  0.45682908  0.50000000  0.75000000  1
  Li  Li165  1  0.54317092  0.00000000  0.75000000  1
  Li  Li166  1  0.00000000  0.75000000  0.54317092  1
  Li  Li167  1  0.50000000  0.75000000  0.45682908  1
  Li  Li168  1  0.29317092  0.50000000  0.75000000  1
  Li  Li169  1  0.20682908  0.50000000  0.25000000  1
  Li  Li170  1  0.75000000  0.29317092  0.50000000  1
  Li  Li171  1  0.25000000  0.20682908  0.50000000  1
  Li  Li172  1  0.50000000  0.75000000  0.29317092  1
  Li  Li173  1  0.50000000  0.25000000  0.20682908  1
  Li  Li174  1  0.25000000  0.54317092  0.50000000  1
  Li  Li175  1  0.25000000  0.45682908  0.00000000  1
  Li  Li176  1  0.04317092  0.00000000  0.75000000  1
  Li  Li177  1  0.95682908  0.50000000  0.75000000  1
  Li  Li178  1  0.50000000  0.75000000  0.95682908  1
  Li  Li179  1  0.00000000  0.75000000  0.04317092  1
  Li  Li180  1  0.70682908  0.50000000  0.25000000  1
  Li  Li181  1  0.79317092  0.50000000  0.75000000  1
  Li  Li182  1  0.25000000  0.70682908  0.50000000  1
  Li  Li183  1  0.75000000  0.79317092  0.50000000  1
  Li  Li184  1  0.50000000  0.25000000  0.70682908  1
  Li  Li185  1  0.50000000  0.75000000  0.79317092  1
  Li  Li186  1  0.75000000  0.45682908  0.50000000  1
  Li  Li187  1  0.75000000  0.54317092  0.00000000  1
  Li  Li188  1  0.95682908  0.00000000  0.25000000  1
  Li  Li189  1  0.04317092  0.50000000  0.25000000  1
  Li  Li190  1  0.50000000  0.25000000  0.04317092  1
  Li  Li191  1  0.00000000  0.25000000  0.95682908  1
  Te  Te192  1  0.12500000  0.12500000  0.12500000  1
  Te  Te193  1  0.37500000  0.87500000  0.62500000  1
  Te  Te194  1  0.87500000  0.62500000  0.37500000  1
  Te  Te195  1  0.62500000  0.37500000  0.87500000  1
  Te  Te196  1  0.87500000  0.87500000  0.87500000  1
  Te  Te197  1  0.62500000  0.12500000  0.37500000  1
  Te  Te198  1  0.12500000  0.37500000  0.62500000  1
  Te  Te199  1  0.37500000  0.62500000  0.12500000  1
  Te  Te200  1  0.62500000  0.62500000  0.62500000  1
  Te  Te201  1  0.87500000  0.37500000  0.12500000  1
  Te  Te202  1  0.37500000  0.12500000  0.87500000  1
  Te  Te203  1  0.12500000  0.87500000  0.37500000  1
  Te  Te204  1  0.37500000  0.37500000  0.37500000  1
  Te  Te205  1  0.12500000  0.62500000  0.87500000  1
  Te  Te206  1  0.62500000  0.87500000  0.12500000  1
  Te  Te207  1  0.87500000  0.12500000  0.62500000  1
  Te  Te208  1  0.27500620  0.27500620  0.27500620  1
  Te  Te209  1  0.22499380  0.72499380  0.77500620  1
  Te  Te210  1  0.72499380  0.77500620  0.22499380  1
  Te  Te211  1  0.77500620  0.22499380  0.72499380  1
  Te  Te212  1  0.02500620  0.52500620  0.97499380  1
  Te  Te213  1  0.47499380  0.47499380  0.47499380  1
  Te  Te214  1  0.52500620  0.97499380  0.02500620  1
  Te  Te215  1  0.97499380  0.02500620  0.52500620  1
  Te  Te216  1  0.72499380  0.72499380  0.72499380  1
  Te  Te217  1  0.77500620  0.27500620  0.22499380  1
  Te  Te218  1  0.27500620  0.22499380  0.77500620  1
  Te  Te219  1  0.22499380  0.77500620  0.27500620  1
  Te  Te220  1  0.97499380  0.47499380  0.02500620  1
  Te  Te221  1  0.52500620  0.52500620  0.52500620  1
  Te  Te222  1  0.47499380  0.02500620  0.97499380  1
  Te  Te223  1  0.02500620  0.97499380  0.47499380  1
  Te  Te224  1  0.77500620  0.77500620  0.77500620  1
  Te  Te225  1  0.72499380  0.22499380  0.27500620  1
  Te  Te226  1  0.22499380  0.27500620  0.72499380  1
  Te  Te227  1  0.27500620  0.72499380  0.22499380  1
  Te  Te228  1  0.52500620  0.02500620  0.47499380  1
  Te  Te229  1  0.97499380  0.97499380  0.97499380  1
  Te  Te230  1  0.02500620  0.47499380  0.52500620  1
  Te  Te231  1  0.47499380  0.52500620  0.02500620  1
  Te  Te232  1  0.22499380  0.22499380  0.22499380  1
  Te  Te233  1  0.27500620  0.77500620  0.72499380  1
  Te  Te234  1  0.77500620  0.72499380  0.27500620  1
  Te  Te235  1  0.72499380  0.27500620  0.77500620  1
  Te  Te236  1  0.47499380  0.97499380  0.52500620  1
  Te  Te237  1  0.02500620  0.02500620  0.02500620  1
  Te  Te238  1  0.97499380  0.52500620  0.47499380  1
  Te  Te239  1  0.52500620  0.47499380  0.97499380  1
