# generated using pymatgen
data_Li2Cr2Se2(OF)3
_symmetry_space_group_name_H-M   'P 1'
_cell_length_a   8.06398594
_cell_length_b   7.53678296
_cell_length_c   7.54003721
_cell_angle_alpha   90.00000000
_cell_angle_beta   90.00000000
_cell_angle_gamma   90.00000000
_symmetry_Int_Tables_number   1
_chemical_formula_structural   Li2Cr2Se2(OF)3
_chemical_formula_sum   'Li2 Cr2 Se2 O3 F3'
_cell_volume   458.25716129
_cell_formula_units_Z   1
loop_
 _symmetry_equiv_pos_site_id
 _symmetry_equiv_pos_as_xyz
  1  'x, y, z'
loop_
 _atom_site_type_symbol
 _atom_site_label
 _atom_site_symmetry_multiplicity
 _atom_site_fract_x
 _atom_site_fract_y
 _atom_site_fract_z
 _atom_site_occupancy
  Se  Se0  1  0.00000000  0.00000000  0.00000000  1
  Se  Se1  1  0.50000000  0.50000000  0.50000000  1
  F  F2  1  0.50000000  0.50000000  0.00000000  1
  F  F3  1  0.50000000  0.00000000  0.50000000  1
  F  F4  1  0.00000000  0.50000000  0.50000000  1
  O  O5  1  0.32604793  0.02917763  0.84768856  1
  O  O6  1  0.94942185  0.63166378  0.93650518  1
  O  O7  1  0.38873758  0.87205668  0.86260211  1
  Cr  Cr8  1  0.92914765  0.22895421  0.85172602  1
  Cr  Cr9  1  0.06438348  0.49584664  0.13562105  1
  Li  Li10  1  0.21401899  0.51095155  0.43461153  1
  Li  Li11  1  0.02774928  0.93785025  0.24370001  1
