# generated using pymatgen
data_LiAl3(AsP2)2
_symmetry_space_group_name_H-M   'P 1'
_cell_length_a   5.26453991
_cell_length_b   4.90395529
_cell_length_c   7.57641488
_cell_angle_alpha   94.55950928
_cell_angle_beta   99.92966330
_cell_angle_gamma   108.31373661
_symmetry_Int_Tables_number   1
_chemical_formula_structural   LiAl3(AsP2)2
_chemical_formula_sum   'Li1 Al3 As2 P4'
_cell_volume   181.03344717
_cell_formula_units_Z   1
loop_
 _symmetry_equiv_pos_site_id
 _symmetry_equiv_pos_as_xyz
  1  'x, y, z'
loop_
 _atom_site_type_symbol
 _atom_site_label
 _atom_site_symmetry_multiplicity
 _atom_site_fract_x
 _atom_site_fract_y
 _atom_site_fract_z
 _atom_site_occupancy
  Al  Al0  1  0.00000000  0.00000000  0.00000000  1
  Al  Al1  1  0.50000000  0.50000000  0.50000000  1
  Al  Al2  1  0.50000000  0.50000000  0.00000000  1
  P  P3  1  0.50000000  0.00000000  0.50000000  1
  P  P4  1  0.00000000  0.50000000  0.50000000  1
  P  P5  1  0.53658976  0.91003704  0.68914226  1
  P  P6  1  0.31035306  0.01617142  0.58961698  1
  As  As7  1  0.63513103  0.81130350  0.99611765  1
  As  As8  1  0.57363001  0.55570982  0.61710147  1
  Li  Li9  1  0.45456190  0.56403988  0.57918468  1
