# generated using pymatgen
data_LiF
_symmetry_space_group_name_H-M   'P 1'
_cell_length_a   10.19293750
_cell_length_b   10.19293750
_cell_length_c   16.04411951
_cell_angle_alpha   90.00000000
_cell_angle_beta   90.00000000
_cell_angle_gamma   90.00000000
_symmetry_Int_Tables_number   1
_chemical_formula_structural   LiF
_chemical_formula_sum   'Li64 F64'
_cell_volume   1666.91943868
_cell_formula_units_Z   64
loop_
 _symmetry_equiv_pos_site_id
 _symmetry_equiv_pos_as_xyz
  1  'x, y, z'
loop_
 _atom_site_type_symbol
 _atom_site_label
 _atom_site_symmetry_multiplicity
 _atom_site_fract_x
 _atom_site_fract_y
 _atom_site_fract_z
 _atom_site_occupancy
  F  F0  1  0.54518627  0.79518627  0.12500000  1
  F  F1  1  0.95481373  0.20481373  0.62500000  1
  F  F2  1  0.45481373  0.29518627  0.37500000  1
  F  F3  1  0.04518627  0.70481373  0.87500000  1
  F  F4  1  0.45481373  0.20481373  0.87500000  1
  F  F5  1  0.04518627  0.79518627  0.37500000  1
  F  F6  1  0.54518627  0.70481373  0.62500000  1
  F  F7  1  0.95481373  0.29518627  0.12500000  1
  F  F8  1  0.04518627  0.29518627  0.62500000  1
  F  F9  1  0.45481373  0.70481373  0.12500000  1
  F  F10  1  0.95481373  0.79518627  0.87500000  1
  F  F11  1  0.54518627  0.20481373  0.37500000  1
  F  F12  1  0.95481373  0.70481373  0.37500000  1
  F  F13  1  0.54518627  0.29518627  0.87500000  1
  F  F14  1  0.04518627  0.20481373  0.12500000  1
  F  F15  1  0.45481373  0.79518627  0.62500000  1
  F  F16  1  0.90122585  0.43360525  0.05547009  1
  F  F17  1  0.59877415  0.56639475  0.55547009  1
  F  F18  1  0.81639475  0.65122585  0.30547009  1
  F  F19  1  0.68360525  0.34877415  0.80547009  1
  F  F20  1  0.59877415  0.43360525  0.94452991  1
  F  F21  1  0.90122585  0.56639475  0.44452991  1
  F  F22  1  0.68360525  0.65122585  0.69452991  1
  F  F23  1  0.81639475  0.34877415  0.19452991  1
  F  F24  1  0.09877415  0.56639475  0.94452991  1
  F  F25  1  0.40122585  0.43360525  0.44452991  1
  F  F26  1  0.18360525  0.34877415  0.69452991  1
  F  F27  1  0.31639475  0.65122585  0.19452991  1
  F  F28  1  0.40122585  0.56639475  0.05547009  1
  F  F29  1  0.09877415  0.43360525  0.55547009  1
  F  F30  1  0.31639475  0.34877415  0.30547009  1
  F  F31  1  0.18360525  0.65122585  0.80547009  1
  F  F32  1  0.40122585  0.93360525  0.55547009  1
  F  F33  1  0.09877415  0.06639475  0.05547009  1
  F  F34  1  0.31639475  0.15122585  0.80547009  1
  F  F35  1  0.18360525  0.84877415  0.30547009  1
  F  F36  1  0.09877415  0.93360525  0.44452991  1
  F  F37  1  0.40122585  0.06639475  0.94452991  1
  F  F38  1  0.18360525  0.15122585  0.19452991  1
  F  F39  1  0.31639475  0.84877415  0.69452991  1
  F  F40  1  0.59877415  0.06639475  0.44452991  1
  F  F41  1  0.90122585  0.93360525  0.94452991  1
  F  F42  1  0.68360525  0.84877415  0.19452991  1
  F  F43  1  0.81639475  0.15122585  0.69452991  1
  F  F44  1  0.90122585  0.06639475  0.55547009  1
  F  F45  1  0.59877415  0.93360525  0.05547009  1
  F  F46  1  0.81639475  0.84877415  0.80547009  1
  F  F47  1  0.68360525  0.15122585  0.30547009  1
  F  F48  1  0.00000000  0.25000000  0.12500000  1
  F  F49  1  0.00000000  0.75000000  0.37500000  1
  F  F50  1  0.00000000  0.75000000  0.87500000  1
  F  F51  1  0.00000000  0.25000000  0.62500000  1
  F  F52  1  0.50000000  0.75000000  0.62500000  1
  F  F53  1  0.50000000  0.25000000  0.87500000  1
  F  F54  1  0.50000000  0.25000000  0.37500000  1
  F  F55  1  0.50000000  0.75000000  0.12500000  1
  F  F56  1  0.00000000  0.25000000  0.37500000  1
  F  F57  1  0.00000000  0.75000000  0.62500000  1
  F  F58  1  0.50000000  0.25000000  0.62500000  1
  F  F59  1  0.50000000  0.75000000  0.37500000  1
  F  F60  1  0.50000000  0.75000000  0.87500000  1
  F  F61  1  0.50000000  0.25000000  0.12500000  1
  F  F62  1  0.00000000  0.75000000  0.12500000  1
  F  F63  1  0.00000000  0.25000000  0.87500000  1
  Li  Li64  1  0.68211643  0.93211643  0.12500000  1
  Li  Li65  1  0.81788357  0.06788357  0.62500000  1
  Li  Li66  1  0.31788357  0.43211643  0.37500000  1
  Li  Li67  1  0.18211643  0.56788357  0.87500000  1
  Li  Li68  1  0.31788357  0.06788357  0.87500000  1
  Li  Li69  1  0.18211643  0.93211643  0.37500000  1
  Li  Li70  1  0.68211643  0.56788357  0.62500000  1
  Li  Li71  1  0.81788357  0.43211643  0.12500000  1
  Li  Li72  1  0.18211643  0.43211643  0.62500000  1
  Li  Li73  1  0.31788357  0.56788357  0.12500000  1
  Li  Li74  1  0.81788357  0.93211643  0.87500000  1
  Li  Li75  1  0.68211643  0.06788357  0.37500000  1
  Li  Li76  1  0.81788357  0.56788357  0.37500000  1
  Li  Li77  1  0.68211643  0.43211643  0.87500000  1
  Li  Li78  1  0.18211643  0.06788357  0.12500000  1
  Li  Li79  1  0.31788357  0.93211643  0.62500000  1
  Li  Li80  1  0.54553052  0.58725167  0.60816956  1
  Li  Li81  1  -0.04553052  -0.58725167  1.10816956  1
  Li  Li82  1  -0.33725167  1.29553052  0.85816956  1
  Li  Li83  1  0.83725167  -0.29553052  1.35816956  1
  Li  Li84  1  -0.04553052  0.58725167  -0.60816956  1
  Li  Li85  1  0.54553052  -0.58725167  -0.10816956  1
  Li  Li86  1  0.83725167  1.29553052  0.14183044  1
  Li  Li87  1  -0.33725167  -0.29553052  -0.35816956  1
  Li  Li88  1  -0.54553052  -0.58725167  -0.60816956  1
  Li  Li89  1  1.04553052  0.58725167  -0.10816956  1
  Li  Li90  1  1.33725167  -0.29553052  0.14183044  1
  Li  Li91  1  0.16274833  1.29553052  -0.35816956  1
  Li  Li92  1  1.04553052  -0.58725167  0.60816956  1
  Li  Li93  1  -0.54553052  0.58725167  1.10816956  1
  Li  Li94  1  0.16274833  -0.29553052  0.85816956  1
  Li  Li95  1  1.33725167  1.29553052  1.35816956  1
  Li  Li96  1  1.04553052  1.08725167  1.10816956  1
  Li  Li97  1  0.45446948  -0.08725167  1.60816956  1
  Li  Li98  1  0.16274833  1.79553052  1.35816956  1
  Li  Li99  1  1.33725167  0.20446948  1.85816956  1
  Li  Li100  1  0.45446948  1.08725167  -0.10816956  1
  Li  Li101  1  1.04553052  -0.08725167  0.39183044  1
  Li  Li102  1  1.33725167  1.79553052  0.64183044  1
  Li  Li103  1  0.16274833  0.20446948  0.14183044  1
  Li  Li104  1  -0.04553052  -0.08725167  -0.10816956  1
  Li  Li105  1  1.54553052  1.08725167  0.39183044  1
  Li  Li106  1  1.83725167  0.20446948  0.64183044  1
  Li  Li107  1  0.66274833  1.79553052  0.14183044  1
  Li  Li108  1  1.54553052  -0.08725167  1.10816956  1
  Li  Li109  1  -0.04553052  1.08725167  1.60816956  1
  Li  Li110  1  0.66274833  0.20446948  1.35816956  1
  Li  Li111  1  1.83725167  1.79553052  1.85816956  1
  Li  Li112  1  0.00000000  0.00000000  0.00000000  1
  Li  Li113  1  0.50000000  0.00000000  0.50000000  1
  Li  Li114  1  0.25000000  0.75000000  0.25000000  1
  Li  Li115  1  0.25000000  0.25000000  0.75000000  1
  Li  Li116  1  0.50000000  0.00000000  -0.00000000  1
  Li  Li117  1  0.00000000  0.00000000  0.50000000  1
  Li  Li118  1  0.25000000  0.75000000  0.75000000  1
  Li  Li119  1  0.25000000  0.25000000  0.25000000  1
  Li  Li120  1  0.50000000  0.50000000  0.50000000  1
  Li  Li121  1  0.00000000  0.50000000  -0.00000000  1
  Li  Li122  1  0.75000000  0.25000000  0.75000000  1
  Li  Li123  1  0.75000000  0.75000000  0.25000000  1
  Li  Li124  1  0.00000000  0.50000000  0.50000000  1
  Li  Li125  1  0.50000000  0.50000000  -0.00000000  1
  Li  Li126  1  0.75000000  0.25000000  0.25000000  1
  Li  Li127  1  0.75000000  0.75000000  0.75000000  1
