# generated using pymatgen
data_LiF
_symmetry_space_group_name_H-M   'P 1'
_cell_length_a   6.24592877
_cell_length_b   7.57135992
_cell_length_c   9.14929048
_cell_angle_alpha   90.00000000
_cell_angle_beta   90.00000000
_cell_angle_gamma   90.00000000
_symmetry_Int_Tables_number   1
_chemical_formula_structural   LiF
_chemical_formula_sum   'Li16 F16'
_cell_volume   432.67154557
_cell_formula_units_Z   16
loop_
 _symmetry_equiv_pos_site_id
 _symmetry_equiv_pos_as_xyz
  1  'x, y, z'
loop_
 _atom_site_type_symbol
 _atom_site_label
 _atom_site_symmetry_multiplicity
 _atom_site_fract_x
 _atom_site_fract_y
 _atom_site_fract_z
 _atom_site_occupancy
  F  F0  1  0.79443016  0.68081737  0.06613074  1
  F  F1  1  -0.79443016  -0.68081737  0.06613074  1
  F  F2  1  -0.29443016  1.18081737  -0.06613074  1
  F  F3  1  1.29443016  -0.18081737  -0.06613074  1
  F  F4  1  -0.79443016  -0.68081737  -0.06613074  1
  F  F5  1  0.79443016  0.68081737  -0.06613074  1
  F  F6  1  1.29443016  -0.18081737  0.06613074  1
  F  F7  1  -0.29443016  1.18081737  0.06613074  1
  F  F8  1  0.00000000  0.50000000  0.44667357  1
  F  F9  1  0.50000000  0.00000000  0.55332643  1
  F  F10  1  0.00000000  0.50000000  0.55332643  1
  F  F11  1  0.50000000  0.00000000  0.44667357  1
  F  F12  1  0.00000000  0.00000000  0.00000000  1
  F  F13  1  0.50000000  0.50000000  0.00000000  1
  F  F14  1  0.00000000  0.50000000  0.00000000  1
  F  F15  1  0.50000000  0.00000000  0.00000000  1
  Li  Li16  1  0.78918831  0.01670295  0.07782739  1
  Li  Li17  1  0.21081169  0.98329705  0.07782739  1
  Li  Li18  1  0.71081169  0.51670295  0.92217261  1
  Li  Li19  1  0.28918831  0.48329705  0.92217261  1
  Li  Li20  1  0.21081169  0.98329705  0.92217261  1
  Li  Li21  1  0.78918831  0.01670295  0.92217261  1
  Li  Li22  1  0.28918831  0.48329705  0.07782739  1
  Li  Li23  1  0.71081169  0.51670295  0.07782739  1
  Li  Li24  1  0.98822673  0.31393470  0.73698041  1
  Li  Li25  1  0.01177327  0.68606530  0.73698041  1
  Li  Li26  1  0.51177327  0.81393470  0.26301959  1
  Li  Li27  1  0.48822673  0.18606530  0.26301959  1
  Li  Li28  1  0.01177327  0.68606530  0.26301959  1
  Li  Li29  1  0.98822673  0.31393470  0.26301959  1
  Li  Li30  1  0.48822673  0.18606530  0.73698041  1
  Li  Li31  1  0.51177327  0.81393470  0.73698041  1
