# generated using pymatgen
data_LiF
_symmetry_space_group_name_H-M   'P 1'
_cell_length_a   5.91750198
_cell_length_b   10.61676950
_cell_length_c   4.34492985
_cell_angle_alpha   90.00000000
_cell_angle_beta   90.00000000
_cell_angle_gamma   90.00000000
_symmetry_Int_Tables_number   1
_chemical_formula_structural   LiF
_chemical_formula_sum   'Li10 F10'
_cell_volume   272.96915106
_cell_formula_units_Z   10
loop_
 _symmetry_equiv_pos_site_id
 _symmetry_equiv_pos_as_xyz
  1  'x, y, z'
loop_
 _atom_site_type_symbol
 _atom_site_label
 _atom_site_symmetry_multiplicity
 _atom_site_fract_x
 _atom_site_fract_y
 _atom_site_fract_z
 _atom_site_occupancy
  F  F0  1  0.06991772  0.54932579  0.00000000  1
  F  F1  1  0.93008228  0.45067421  -0.00000000  1
  F  F2  1  0.43008228  0.04932579  -0.00000000  1
  F  F3  1  0.56991772  0.95067421  -0.00000000  1
  F  F4  1  0.00000000  0.50000000  0.50000000  1
  F  F5  1  0.50000000  0.00000000  0.50000000  1
  F  F6  1  0.16465489  0.94382908  0.50000000  1
  F  F7  1  0.83534511  0.05617092  0.50000000  1
  F  F8  1  0.33534511  0.44382908  0.50000000  1
  F  F9  1  0.66465489  0.55617092  0.50000000  1
  Li  Li10  1  0.00000000  0.00000000  0.50000000  1
  Li  Li11  1  0.50000000  0.50000000  0.50000000  1
  Li  Li12  1  0.41094423  0.87443668  0.19039736  1
  Li  Li13  1  -0.41094423  -0.87443668  0.19039736  1
  Li  Li14  1  0.08905577  1.37443668  -0.19039736  1
  Li  Li15  1  0.91094423  -0.37443668  -0.19039736  1
  Li  Li16  1  -0.41094423  -0.87443668  -0.19039736  1
  Li  Li17  1  0.41094423  0.87443668  -0.19039736  1
  Li  Li18  1  0.91094423  -0.37443668  0.19039736  1
  Li  Li19  1  0.08905577  1.37443668  0.19039736  1
