# generated using pymatgen
data_LiF
_symmetry_space_group_name_H-M   'P 1'
_cell_length_a   7.42493342
_cell_length_b   7.32847412
_cell_length_c   10.57181389
_cell_angle_alpha   90.00000000
_cell_angle_beta   90.00000000
_cell_angle_gamma   90.00000000
_symmetry_Int_Tables_number   1
_chemical_formula_structural   LiF
_chemical_formula_sum   'Li24 F24'
_cell_volume   575.24868003
_cell_formula_units_Z   24
loop_
 _symmetry_equiv_pos_site_id
 _symmetry_equiv_pos_as_xyz
  1  'x, y, z'
loop_
 _atom_site_type_symbol
 _atom_site_label
 _atom_site_symmetry_multiplicity
 _atom_site_fract_x
 _atom_site_fract_y
 _atom_site_fract_z
 _atom_site_occupancy
  F  F0  1  0.33415829  0.52503019  0.94548870  1
  F  F1  1  0.16584171  0.47496981  0.44548870  1
  F  F2  1  0.66584171  0.02503019  0.05451130  1
  F  F3  1  0.83415829  0.97496981  0.55451130  1
  F  F4  1  0.66584171  0.47496981  0.05451130  1
  F  F5  1  0.83415829  0.52503019  0.55451130  1
  F  F6  1  0.33415829  0.97496981  0.94548870  1
  F  F7  1  0.16584171  0.02503019  0.44548870  1
  F  F8  1  0.85752873  0.31284472  0.96216825  1
  F  F9  1  0.64247127  0.68715528  0.46216825  1
  F  F10  1  0.14247127  0.81284472  0.03783175  1
  F  F11  1  0.35752873  0.18715528  0.53783175  1
  F  F12  1  0.14247127  0.68715528  0.03783175  1
  F  F13  1  0.35752873  0.31284472  0.53783175  1
  F  F14  1  0.85752873  0.18715528  0.96216825  1
  F  F15  1  0.64247127  0.81284472  0.46216825  1
  F  F16  1  0.95286603  0.65244540  0.97866467  1
  F  F17  1  0.54713397  0.34755460  0.47866467  1
  F  F18  1  0.04713397  0.15244540  0.02133533  1
  F  F19  1  0.45286603  0.84755460  0.52133533  1
  F  F20  1  0.04713397  0.34755460  0.02133533  1
  F  F21  1  0.45286603  0.65244540  0.52133533  1
  F  F22  1  0.95286603  0.84755460  0.97866467  1
  F  F23  1  0.54713397  0.15244540  0.47866467  1
  Li  Li24  1  0.55442546  0.25000000  0.15554076  1
  Li  Li25  1  0.94557454  0.75000000  0.65554076  1
  Li  Li26  1  0.44557454  0.75000000  0.84445924  1
  Li  Li27  1  0.05442546  0.25000000  0.34445924  1
  Li  Li28  1  0.84717391  0.25000000  0.43552508  1
  Li  Li29  1  0.65282609  0.75000000  0.93552508  1
  Li  Li30  1  0.15282609  0.75000000  0.56447492  1
  Li  Li31  1  0.34717391  0.25000000  0.06447492  1
  Li  Li32  1  0.00000000  0.00000000  0.00000000  1
  Li  Li33  1  0.50000000  0.00000000  0.50000000  1
  Li  Li34  1  0.00000000  0.50000000  0.00000000  1
  Li  Li35  1  0.50000000  0.50000000  0.50000000  1
  Li  Li36  1  0.00000000  0.00000000  0.50000000  1
  Li  Li37  1  0.50000000  0.00000000  -0.00000000  1
  Li  Li38  1  0.00000000  0.50000000  0.50000000  1
  Li  Li39  1  0.50000000  0.50000000  0.00000000  1
  Li  Li40  1  0.40763444  0.04920900  0.17834417  1
  Li  Li41  1  0.09236556  -0.04920900  0.67834417  1
  Li  Li42  1  -0.40763444  0.54920900  -0.17834417  1
  Li  Li43  1  0.90763444  0.45079100  0.32165583  1
  Li  Li44  1  -0.40763444  -0.04920900  -0.17834417  1
  Li  Li45  1  0.90763444  0.04920900  0.32165583  1
  Li  Li46  1  0.40763444  0.45079100  0.17834417  1
  Li  Li47  1  0.09236556  0.54920900  0.67834417  1
