# generated using pymatgen
data_Li2Y2As4P2Se
_symmetry_space_group_name_H-M   'P 1'
_cell_length_a   5.38866880
_cell_length_b   5.50685657
_cell_length_c   6.73226381
_cell_angle_alpha   93.74055135
_cell_angle_beta   96.65346757
_cell_angle_gamma   102.68339770
_symmetry_Int_Tables_number   1
_chemical_formula_structural   Li2Y2As4P2Se
_chemical_formula_sum   'Li2 Y2 As4 P2 Se1'
_cell_volume   192.74037911
_cell_formula_units_Z   1
loop_
 _symmetry_equiv_pos_site_id
 _symmetry_equiv_pos_as_xyz
  1  'x, y, z'
loop_
 _atom_site_type_symbol
 _atom_site_label
 _atom_site_symmetry_multiplicity
 _atom_site_fract_x
 _atom_site_fract_y
 _atom_site_fract_z
 _atom_site_occupancy
  Se  Se0  1  0.12500000  0.00000000  0.25000000  1
  Y  Y1  1  0.00000000  0.00000000  0.00000000  1
  Y  Y2  1  0.37500000  0.00000000  0.25000000  1
  P  P3  1  0.25000000  0.25000000  0.25000000  1
  P  P4  1  0.00000000  0.25000000  0.12500000  1
  As  As5  1  0.44953728  0.05001502  0.28364243  1
  As  As6  1  0.46678417  0.97896440  0.93402421  1
  As  As7  1  0.19761058  0.61409413  0.18322979  1
  As  As8  1  0.88850964  0.09584528  0.41024479  1
  Li  Li9  1  0.30649001  0.12898858  0.42181219  1
  Li  Li10  1  0.35191096  0.18698645  0.91987446  1
