# generated using pymatgen
data_Li4TeF2
_symmetry_space_group_name_H-M   'P 1'
_cell_length_a   10.36515278
_cell_length_b   10.36515278
_cell_length_c   27.26599242
_cell_angle_alpha   90.00000000
_cell_angle_beta   90.00000000
_cell_angle_gamma   120.00000000
_symmetry_Int_Tables_number   1
_chemical_formula_structural   Li4TeF2
_chemical_formula_sum   'Li96 Te24 F48'
_cell_volume   2536.90005213
_cell_formula_units_Z   24
loop_
 _symmetry_equiv_pos_site_id
 _symmetry_equiv_pos_as_xyz
  1  'x, y, z'
loop_
 _atom_site_type_symbol
 _atom_site_label
 _atom_site_symmetry_multiplicity
 _atom_site_fract_x
 _atom_site_fract_y
 _atom_site_fract_z
 _atom_site_occupancy
  F  F0  1  0.77793512  -0.00000000  0.11070599  1
  F  F1  1  0.00000000  0.77793512  0.11070599  1
  F  F2  1  0.22206488  0.22206488  0.11070599  1
  F  F3  1  0.77793512  -0.00000000  0.88929401  1
  F  F4  1  0.00000000  0.77793512  0.88929401  1
  F  F5  1  0.22206488  0.22206488  0.88929401  1
  F  F6  1  0.33333333  0.66666667  0.50000000  1
  F  F7  1  0.66666667  0.33333333  0.50000000  1
  F  F8  1  0.05337142  0.45780739  0.19905927  1
  F  F9  1  -0.45780739  -0.40443597  0.19905927  1
  F  F10  1  0.40443597  -0.05337142  0.19905927  1
  F  F11  1  0.05337142  0.45780739  -0.19905927  1
  F  F12  1  -0.45780739  -0.40443597  -0.19905927  1
  F  F13  1  0.40443597  -0.05337142  -0.19905927  1
  F  F14  1  0.45780739  0.05337142  -0.19905927  1
  F  F15  1  -0.40443597  -0.45780739  -0.19905927  1
  F  F16  1  -0.05337142  0.40443597  -0.19905927  1
  F  F17  1  0.45780739  0.05337142  0.19905927  1
  F  F18  1  -0.40443597  -0.45780739  0.19905927  1
  F  F19  1  -0.05337142  0.40443597  0.19905927  1
  F  F20  1  0.37889297  0.89487113  0.31496383  1
  F  F21  1  0.10512887  0.48402184  0.31496383  1
  F  F22  1  0.51597816  0.62110703  0.31496383  1
  F  F23  1  0.37889297  0.89487113  0.68503617  1
  F  F24  1  0.10512887  0.48402184  0.68503617  1
  F  F25  1  0.51597816  0.62110703  0.68503617  1
  F  F26  1  0.89487113  0.37889297  0.68503617  1
  F  F27  1  0.48402184  0.10512887  0.68503617  1
  F  F28  1  0.62110703  0.51597816  0.68503617  1
  F  F29  1  0.89487113  0.37889297  0.31496383  1
  F  F30  1  0.48402184  0.10512887  0.31496383  1
  F  F31  1  0.62110703  0.51597816  0.31496383  1
  F  F32  1  0.00000000  0.00000000  0.79584981  1
  F  F33  1  0.00000000  0.00000000  0.20415019  1
  F  F34  1  0.88428839  0.82685892  0.50000000  1
  F  F35  1  0.17314108  0.05742947  0.50000000  1
  F  F36  1  0.94257053  0.11571161  0.50000000  1
  F  F37  1  0.82685892  0.88428839  0.50000000  1
  F  F38  1  0.05742947  0.17314108  0.50000000  1
  F  F39  1  0.11571161  0.94257053  0.50000000  1
  F  F40  1  0.46048569  0.95361640  0.00000000  1
  F  F41  1  0.04638360  0.50686929  -0.00000000  1
  F  F42  1  0.49313071  0.53951431  0.00000000  1
  F  F43  1  0.95361640  0.46048569  0.00000000  1
  F  F44  1  0.50686929  0.04638360  0.00000000  1
  F  F45  1  0.53951431  0.49313071  -0.00000000  1
  F  F46  1  0.33333333  0.66666667  0.00000000  1
  F  F47  1  0.66666667  0.33333333  0.00000000  1
  Li  Li48  1  0.34392406  0.15746737  0.88330220  1
  Li  Li49  1  0.84253263  0.18645669  0.88330220  1
  Li  Li50  1  0.81354331  0.65607594  0.88330220  1
  Li  Li51  1  0.34392406  0.15746737  0.11669780  1
  Li  Li52  1  0.84253263  0.18645669  0.11669780  1
  Li  Li53  1  0.81354331  0.65607594  0.11669780  1
  Li  Li54  1  0.15746737  0.34392406  0.11669780  1
  Li  Li55  1  0.18645669  0.84253263  0.11669780  1
  Li  Li56  1  0.65607594  0.81354331  0.11669780  1
  Li  Li57  1  0.15746737  0.34392406  0.88330220  1
  Li  Li58  1  0.18645669  0.84253263  0.88330220  1
  Li  Li59  1  0.65607594  0.81354331  0.88330220  1
  Li  Li60  1  0.85451846  -0.00000000  0.57109587  1
  Li  Li61  1  0.00000000  0.85451846  0.57109587  1
  Li  Li62  1  0.14548154  0.14548154  0.57109587  1
  Li  Li63  1  0.85451846  -0.00000000  0.42890413  1
  Li  Li64  1  0.00000000  0.85451846  0.42890413  1
  Li  Li65  1  0.14548154  0.14548154  0.42890413  1
  Li  Li66  1  0.64782216  0.00000000  0.58371241  1
  Li  Li67  1  0.00000000  0.64782216  0.58371241  1
  Li  Li68  1  0.35217784  0.35217784  0.58371241  1
  Li  Li69  1  0.64782216  0.00000000  0.41628759  1
  Li  Li70  1  0.00000000  0.64782216  0.41628759  1
  Li  Li71  1  0.35217784  0.35217784  0.41628759  1
  Li  Li72  1  0.64967511  0.81246471  0.78628500  1
  Li  Li73  1  0.18753529  0.83721040  0.78628500  1
  Li  Li74  1  0.16278960  0.35032489  0.78628500  1
  Li  Li75  1  0.64967511  0.81246471  0.21371500  1
  Li  Li76  1  0.18753529  0.83721040  0.21371500  1
  Li  Li77  1  0.16278960  0.35032489  0.21371500  1
  Li  Li78  1  0.81246471  0.64967511  0.21371500  1
  Li  Li79  1  0.83721040  0.18753529  0.21371500  1
  Li  Li80  1  0.35032489  0.16278960  0.21371500  1
  Li  Li81  1  0.81246471  0.64967511  0.78628500  1
  Li  Li82  1  0.83721040  0.18753529  0.78628500  1
  Li  Li83  1  0.35032489  0.16278960  0.78628500  1
  Li  Li84  1  0.65655611  0.23737023  0.84793671  1
  Li  Li85  1  0.76262977  0.41918588  0.84793671  1
  Li  Li86  1  0.58081412  0.34344389  0.84793671  1
  Li  Li87  1  0.65655611  0.23737023  0.15206329  1
  Li  Li88  1  0.76262977  0.41918588  0.15206329  1
  Li  Li89  1  0.58081412  0.34344389  0.15206329  1
  Li  Li90  1  0.23737023  0.65655611  0.15206329  1
  Li  Li91  1  0.41918588  0.76262977  0.15206329  1
  Li  Li92  1  0.34344389  0.58081412  0.15206329  1
  Li  Li93  1  0.23737023  0.65655611  0.84793671  1
  Li  Li94  1  0.41918588  0.76262977  0.84793671  1
  Li  Li95  1  0.34344389  0.58081412  0.84793671  1
  Li  Li96  1  0.45046507  -0.00000000  0.45944672  1
  Li  Li97  1  0.00000000  0.45046507  0.45944672  1
  Li  Li98  1  0.54953493  0.54953493  0.45944672  1
  Li  Li99  1  0.45046507  -0.00000000  0.54055328  1
  Li  Li100  1  0.00000000  0.45046507  0.54055328  1
  Li  Li101  1  0.54953493  0.54953493  0.54055328  1
  Li  Li102  1  0.84679603  0.52997686  0.42929563  1
  Li  Li103  1  0.47002314  0.31681917  0.42929563  1
  Li  Li104  1  0.68318083  0.15320397  0.42929563  1
  Li  Li105  1  0.84679603  0.52997686  0.57070437  1
  Li  Li106  1  0.47002314  0.31681917  0.57070437  1
  Li  Li107  1  0.68318083  0.15320397  0.57070437  1
  Li  Li108  1  0.52997686  0.84679603  0.57070437  1
  Li  Li109  1  0.31681917  0.47002314  0.57070437  1
  Li  Li110  1  0.15320397  0.68318083  0.57070437  1
  Li  Li111  1  0.52997686  0.84679603  0.42929563  1
  Li  Li112  1  0.31681917  0.47002314  0.42929563  1
  Li  Li113  1  0.15320397  0.68318083  0.42929563  1
  Li  Li114  1  0.88825084  0.67886583  0.55092248  1
  Li  Li115  1  0.32113417  0.20938500  0.55092248  1
  Li  Li116  1  0.79061500  0.11174916  0.55092248  1
  Li  Li117  1  0.88825084  0.67886583  0.44907752  1
  Li  Li118  1  0.32113417  0.20938500  0.44907752  1
  Li  Li119  1  0.79061500  0.11174916  0.44907752  1
  Li  Li120  1  0.67886583  0.88825084  0.44907752  1
  Li  Li121  1  0.20938500  0.32113417  0.44907752  1
  Li  Li122  1  0.11174916  0.79061500  0.44907752  1
  Li  Li123  1  0.67886583  0.88825084  0.55092248  1
  Li  Li124  1  0.20938500  0.32113417  0.55092248  1
  Li  Li125  1  0.11174916  0.79061500  0.55092248  1
  Li  Li126  1  0.42529435  0.50414385  0.30346318  1
  Li  Li127  1  0.49585615  0.92115050  0.30346318  1
  Li  Li128  1  0.07884950  0.57470565  0.30346318  1
  Li  Li129  1  0.42529435  0.50414385  0.69653682  1
  Li  Li130  1  0.49585615  0.92115050  0.69653682  1
  Li  Li131  1  0.07884950  0.57470565  0.69653682  1
  Li  Li132  1  0.50414385  0.42529435  0.69653682  1
  Li  Li133  1  0.92115050  0.49585615  0.69653682  1
  Li  Li134  1  0.57470565  0.07884950  0.69653682  1
  Li  Li135  1  0.50414385  0.42529435  0.30346318  1
  Li  Li136  1  0.92115050  0.49585615  0.30346318  1
  Li  Li137  1  0.57470565  0.07884950  0.30346318  1
  Li  Li138  1  0.16616885  0.47716970  0.00000000  1
  Li  Li139  1  0.52283030  0.68899915  0.00000000  1
  Li  Li140  1  0.31100085  0.83383115  0.00000000  1
  Li  Li141  1  0.47716970  0.16616885  0.00000000  1
  Li  Li142  1  0.68899915  0.52283030  0.00000000  1
  Li  Li143  1  0.83383115  0.31100085  0.00000000  1
  Te  Te144  1  0.41388147  -0.00000000  0.10220040  1
  Te  Te145  1  0.00000000  0.41388147  0.10220040  1
  Te  Te146  1  0.58611853  0.58611853  0.10220040  1
  Te  Te147  1  0.41388147  -0.00000000  0.89779960  1
  Te  Te148  1  0.00000000  0.41388147  0.89779960  1
  Te  Te149  1  0.58611853  0.58611853  0.89779960  1
  Te  Te150  1  0.75889940  0.00000000  0.25554273  1
  Te  Te151  1  0.00000000  0.75889940  0.25554273  1
  Te  Te152  1  0.24110060  0.24110060  0.25554273  1
  Te  Te153  1  0.75889940  0.00000000  0.74445727  1
  Te  Te154  1  0.00000000  0.75889940  0.74445727  1
  Te  Te155  1  0.24110060  0.24110060  0.74445727  1
  Te  Te156  1  0.33333333  0.66666667  0.37530309  1
  Te  Te157  1  0.33333333  0.66666667  0.62469691  1
  Te  Te158  1  0.66666667  0.33333333  0.62469691  1
  Te  Te159  1  0.66666667  0.33333333  0.37530309  1
  Te  Te160  1  0.00000000  0.00000000  0.95391708  1
  Te  Te161  1  0.00000000  0.00000000  0.04608292  1
  Te  Te162  1  0.09070754  0.62100796  0.50000000  1
  Te  Te163  1  0.37899204  0.46969957  0.50000000  1
  Te  Te164  1  0.53030043  0.90929246  0.50000000  1
  Te  Te165  1  0.62100796  0.09070754  0.50000000  1
  Te  Te166  1  0.46969957  0.37899204  0.50000000  1
  Te  Te167  1  0.90929246  0.53030043  0.50000000  1
