# generated using pymatgen
data_LiF
_symmetry_space_group_name_H-M   'P 1'
_cell_length_a   26.68423044
_cell_length_b   26.68423044
_cell_length_c   3.19482283
_cell_angle_alpha   90.00000000
_cell_angle_beta   90.00000000
_cell_angle_gamma   90.00000000
_symmetry_Int_Tables_number   1
_chemical_formula_structural   LiF
_chemical_formula_sum   'Li64 F64'
_cell_volume   2274.86770137
_cell_formula_units_Z   64
loop_
 _symmetry_equiv_pos_site_id
 _symmetry_equiv_pos_as_xyz
  1  'x, y, z'
loop_
 _atom_site_type_symbol
 _atom_site_label
 _atom_site_symmetry_multiplicity
 _atom_site_fract_x
 _atom_site_fract_y
 _atom_site_fract_z
 _atom_site_occupancy
  F  F0  1  0.00000000  0.25000000  0.73290485  1
  F  F1  1  0.00000000  0.75000000  0.98290485  1
  F  F2  1  0.50000000  0.25000000  0.26709515  1
  F  F3  1  0.50000000  0.75000000  0.01709515  1
  F  F4  1  0.00000000  0.75000000  0.26709515  1
  F  F5  1  0.00000000  0.25000000  0.01709515  1
  F  F6  1  0.50000000  0.75000000  0.73290485  1
  F  F7  1  0.50000000  0.25000000  0.98290485  1
  F  F8  1  0.50000000  0.75000000  0.23290485  1
  F  F9  1  0.50000000  0.25000000  0.48290485  1
  F  F10  1  0.00000000  0.75000000  0.76709515  1
  F  F11  1  0.00000000  0.25000000  0.51709515  1
  F  F12  1  0.50000000  0.25000000  0.76709515  1
  F  F13  1  0.50000000  0.75000000  0.51709515  1
  F  F14  1  0.00000000  0.25000000  0.23290485  1
  F  F15  1  0.00000000  0.75000000  0.48290485  1
  F  F16  1  0.09260930  0.66935134  0.25962702  1
  F  F17  1  0.40739070  -0.66935134  0.75962702  1
  F  F18  1  -0.41935134  0.84260930  0.50962702  1
  F  F19  1  0.91935134  0.15739070  1.00962702  1
  F  F20  1  0.40739070  0.66935134  -0.25962702  1
  F  F21  1  0.09260930  -0.66935134  0.24037298  1
  F  F22  1  0.91935134  0.84260930  0.49037298  1
  F  F23  1  -0.41935134  0.15739070  -0.00962702  1
  F  F24  1  -0.09260930  -0.66935134  -0.25962702  1
  F  F25  1  0.59260930  0.66935134  0.24037298  1
  F  F26  1  1.41935134  0.15739070  0.49037298  1
  F  F27  1  0.08064866  0.84260930  -0.00962702  1
  F  F28  1  0.59260930  -0.66935134  0.25962702  1
  F  F29  1  -0.09260930  0.66935134  0.75962702  1
  F  F30  1  0.08064866  0.15739070  0.50962702  1
  F  F31  1  1.41935134  0.84260930  1.00962702  1
  F  F32  1  0.59260930  1.16935134  0.75962702  1
  F  F33  1  0.90739070  -0.16935134  1.25962702  1
  F  F34  1  0.08064866  1.34260930  1.00962702  1
  F  F35  1  1.41935134  0.65739070  1.50962702  1
  F  F36  1  0.90739070  1.16935134  0.24037298  1
  F  F37  1  0.59260930  -0.16935134  0.74037298  1
  F  F38  1  1.41935134  1.34260930  0.99037298  1
  F  F39  1  0.08064866  0.65739070  0.49037298  1
  F  F40  1  0.40739070  -0.16935134  0.24037298  1
  F  F41  1  1.09260930  1.16935134  0.74037298  1
  F  F42  1  1.91935134  0.65739070  0.99037298  1
  F  F43  1  0.58064866  1.34260930  0.49037298  1
  F  F44  1  1.09260930  -0.16935134  0.75962702  1
  F  F45  1  0.40739070  1.16935134  1.25962702  1
  F  F46  1  0.58064866  0.65739070  1.00962702  1
  F  F47  1  1.91935134  1.34260930  1.50962702  1
  F  F48  1  0.36565955  0.61565955  0.12500000  1
  F  F49  1  0.13434045  0.38434045  0.62500000  1
  F  F50  1  0.63434045  0.11565955  0.37500000  1
  F  F51  1  0.86565955  0.88434045  0.87500000  1
  F  F52  1  0.63434045  0.38434045  0.87500000  1
  F  F53  1  0.86565955  0.61565955  0.37500000  1
  F  F54  1  0.36565955  0.88434045  0.62500000  1
  F  F55  1  0.13434045  0.11565955  0.12500000  1
  F  F56  1  0.86565955  0.11565955  0.62500000  1
  F  F57  1  0.63434045  0.88434045  0.12500000  1
  F  F58  1  0.13434045  0.61565955  0.87500000  1
  F  F59  1  0.36565955  0.38434045  0.37500000  1
  F  F60  1  0.13434045  0.88434045  0.37500000  1
  F  F61  1  0.36565955  0.11565955  0.87500000  1
  F  F62  1  0.86565955  0.38434045  0.12500000  1
  F  F63  1  0.63434045  0.61565955  0.62500000  1
  Li  Li64  1  0.59586482  0.53239326  0.03366639  1
  Li  Li65  1  0.90413518  0.46760674  0.53366639  1
  Li  Li66  1  0.71760674  0.34586482  0.28366639  1
  Li  Li67  1  0.78239326  0.65413518  0.78366639  1
  Li  Li68  1  0.90413518  0.53239326  0.96633361  1
  Li  Li69  1  0.59586482  0.46760674  0.46633361  1
  Li  Li70  1  0.78239326  0.34586482  0.71633361  1
  Li  Li71  1  0.71760674  0.65413518  0.21633361  1
  Li  Li72  1  0.40413518  0.46760674  0.96633361  1
  Li  Li73  1  0.09586482  0.53239326  0.46633361  1
  Li  Li74  1  0.28239326  0.65413518  0.71633361  1
  Li  Li75  1  0.21760674  0.34586482  0.21633361  1
  Li  Li76  1  0.09586482  0.46760674  0.03366639  1
  Li  Li77  1  0.40413518  0.53239326  0.53366639  1
  Li  Li78  1  0.21760674  0.65413518  0.28366639  1
  Li  Li79  1  0.28239326  0.34586482  0.78366639  1
  Li  Li80  1  0.09586482  0.03239326  0.53366639  1
  Li  Li81  1  0.40413518  0.96760674  0.03366639  1
  Li  Li82  1  0.21760674  0.84586482  0.78366639  1
  Li  Li83  1  0.28239326  0.15413518  0.28366639  1
  Li  Li84  1  0.40413518  0.03239326  0.46633361  1
  Li  Li85  1  0.09586482  0.96760674  0.96633361  1
  Li  Li86  1  0.28239326  0.84586482  0.21633361  1
  Li  Li87  1  0.21760674  0.15413518  0.71633361  1
  Li  Li88  1  0.90413518  0.96760674  0.46633361  1
  Li  Li89  1  0.59586482  0.03239326  0.96633361  1
  Li  Li90  1  0.78239326  0.15413518  0.21633361  1
  Li  Li91  1  0.71760674  0.84586482  0.71633361  1
  Li  Li92  1  0.59586482  0.96760674  0.53366639  1
  Li  Li93  1  0.90413518  0.03239326  0.03366639  1
  Li  Li94  1  0.71760674  0.15413518  0.78366639  1
  Li  Li95  1  0.78239326  0.84586482  0.28366639  1
  Li  Li96  1  0.66534677  0.00000000  0.25000000  1
  Li  Li97  1  0.83465323  -0.00000000  0.75000000  1
  Li  Li98  1  0.25000000  0.41534677  0.50000000  1
  Li  Li99  1  0.25000000  0.58465323  -0.00000000  1
  Li  Li100  1  0.33465323  0.00000000  0.75000000  1
  Li  Li101  1  0.16534677  0.00000000  0.25000000  1
  Li  Li102  1  0.75000000  0.58465323  0.50000000  1
  Li  Li103  1  0.75000000  0.41534677  0.00000000  1
  Li  Li104  1  0.16534677  0.50000000  0.75000000  1
  Li  Li105  1  0.33465323  0.50000000  0.25000000  1
  Li  Li106  1  0.75000000  0.91534677  -0.00000000  1
  Li  Li107  1  0.75000000  0.08465323  0.50000000  1
  Li  Li108  1  0.83465323  0.50000000  0.25000000  1
  Li  Li109  1  0.66534677  0.50000000  0.75000000  1
  Li  Li110  1  0.25000000  0.08465323  0.00000000  1
  Li  Li111  1  0.25000000  0.91534677  0.50000000  1
  Li  Li112  1  0.00000000  0.00000000  0.00000000  1
  Li  Li113  1  0.50000000  -0.00000000  0.50000000  1
  Li  Li114  1  0.25000000  0.75000000  0.25000000  1
  Li  Li115  1  0.25000000  0.25000000  0.75000000  1
  Li  Li116  1  0.50000000  -0.00000000  0.00000000  1
  Li  Li117  1  0.00000000  0.00000000  0.50000000  1
  Li  Li118  1  0.25000000  0.75000000  0.75000000  1
  Li  Li119  1  0.25000000  0.25000000  0.25000000  1
  Li  Li120  1  0.50000000  0.50000000  0.50000000  1
  Li  Li121  1  0.00000000  0.50000000  0.00000000  1
  Li  Li122  1  0.75000000  0.25000000  0.75000000  1
  Li  Li123  1  0.75000000  0.75000000  0.25000000  1
  Li  Li124  1  0.00000000  0.50000000  0.50000000  1
  Li  Li125  1  0.50000000  0.50000000  0.00000000  1
  Li  Li126  1  0.75000000  0.25000000  0.25000000  1
  Li  Li127  1  0.75000000  0.75000000  0.75000000  1
