# generated using pymatgen
data_LiF
_symmetry_space_group_name_H-M   'P 1'
_cell_length_a   13.88980919
_cell_length_b   14.52474137
_cell_length_c   6.58405072
_cell_angle_alpha   90.00000000
_cell_angle_beta   90.00000000
_cell_angle_gamma   90.00000000
_symmetry_Int_Tables_number   1
_chemical_formula_structural   LiF
_chemical_formula_sum   'Li48 F48'
_cell_volume   1328.30514678
_cell_formula_units_Z   48
loop_
 _symmetry_equiv_pos_site_id
 _symmetry_equiv_pos_as_xyz
  1  'x, y, z'
loop_
 _atom_site_type_symbol
 _atom_site_label
 _atom_site_symmetry_multiplicity
 _atom_site_fract_x
 _atom_site_fract_y
 _atom_site_fract_z
 _atom_site_occupancy
  F  F0  1  0.78144265  0.25000000  0.25865677  1
  F  F1  1  0.71855735  0.75000000  0.75865677  1
  F  F2  1  0.21855735  0.75000000  0.74134323  1
  F  F3  1  0.28144265  0.25000000  0.24134323  1
  F  F4  1  0.26456306  0.05374766  0.93572588  1
  F  F5  1  0.23543694  0.94625234  0.43572588  1
  F  F6  1  0.73543694  0.55374766  0.06427412  1
  F  F7  1  0.76456306  0.44625234  0.56427412  1
  F  F8  1  0.73543694  0.94625234  0.06427412  1
  F  F9  1  0.76456306  0.05374766  0.56427412  1
  F  F10  1  0.26456306  0.44625234  0.93572588  1
  F  F11  1  0.23543694  0.55374766  0.43572588  1
  F  F12  1  0.55310380  0.13977426  0.75111568  1
  F  F13  1  0.94689620  0.86022574  0.25111568  1
  F  F14  1  0.44689620  0.63977426  0.24888432  1
  F  F15  1  0.05310380  0.36022574  0.74888432  1
  F  F16  1  0.44689620  0.86022574  0.24888432  1
  F  F17  1  0.05310380  0.13977426  0.74888432  1
  F  F18  1  0.55310380  0.36022574  0.75111568  1
  F  F19  1  0.94689620  0.63977426  0.25111568  1
  F  F20  1  0.81649597  0.87272043  0.07099345  1
  F  F21  1  0.68350403  0.12727957  0.57099345  1
  F  F22  1  0.18350403  0.37272043  0.92900655  1
  F  F23  1  0.31649597  0.62727957  0.42900655  1
  F  F24  1  0.18350403  0.12727957  0.92900655  1
  F  F25  1  0.31649597  0.87272043  0.42900655  1
  F  F26  1  0.81649597  0.62727957  0.07099345  1
  F  F27  1  0.68350403  0.37272043  0.57099345  1
  F  F28  1  0.64852585  0.30986325  0.49747571  1
  F  F29  1  0.85147415  0.69013675  0.99747571  1
  F  F30  1  0.35147415  0.80986325  0.50252429  1
  F  F31  1  0.14852585  0.19013675  0.00252429  1
  F  F32  1  0.35147415  0.69013675  0.50252429  1
  F  F33  1  0.14852585  0.30986325  0.00252429  1
  F  F34  1  0.64852585  0.19013675  0.49747571  1
  F  F35  1  0.85147415  0.80986325  0.99747571  1
  F  F36  1  0.60718045  0.25000000  0.23065007  1
  F  F37  1  0.89281955  0.75000000  0.73065007  1
  F  F38  1  0.39281955  0.75000000  0.76934993  1
  F  F39  1  0.10718045  0.25000000  0.26934993  1
  F  F40  1  0.91583075  0.65270051  0.92556426  1
  F  F41  1  0.58416925  0.34729949  0.42556426  1
  F  F42  1  0.08416925  0.15270051  0.07443574  1
  F  F43  1  0.41583075  0.84729949  0.57443574  1
  F  F44  1  0.08416925  0.34729949  0.07443574  1
  F  F45  1  0.41583075  0.65270051  0.57443574  1
  F  F46  1  0.91583075  0.84729949  0.92556426  1
  F  F47  1  0.58416925  0.15270051  0.42556426  1
  Li  Li48  1  0.15793785  0.25000000  0.90020873  1
  Li  Li49  1  0.34206215  0.75000000  0.40020873  1
  Li  Li50  1  0.84206215  0.75000000  0.09979127  1
  Li  Li51  1  0.65793785  0.25000000  0.59979127  1
  Li  Li52  1  0.90750057  0.38057321  0.99728155  1
  Li  Li53  1  -0.40750057  -0.38057321  1.49728155  1
  Li  Li54  1  -0.90750057  0.88057321  -0.99728155  1
  Li  Li55  1  1.40750057  0.11942679  -0.49728155  1
  Li  Li56  1  -0.90750057  -0.38057321  -0.99728155  1
  Li  Li57  1  1.40750057  0.38057321  -0.49728155  1
  Li  Li58  1  0.90750057  0.11942679  0.99728155  1
  Li  Li59  1  -0.40750057  0.88057321  1.49728155  1
  Li  Li60  1  0.97854770  0.25000000  0.68824763  1
  Li  Li61  1  0.52145230  0.75000000  0.18824763  1
  Li  Li62  1  0.02145230  0.75000000  0.31175237  1
  Li  Li63  1  0.47854770  0.25000000  0.81175237  1
  Li  Li64  1  0.00000000  0.00000000  0.00000000  1
  Li  Li65  1  0.50000000  0.00000000  0.50000000  1
  Li  Li66  1  0.00000000  0.50000000  -0.00000000  1
  Li  Li67  1  0.50000000  0.50000000  0.50000000  1
  Li  Li68  1  0.90025115  0.05037690  0.66664379  1
  Li  Li69  1  0.59974885  0.94962310  0.16664379  1
  Li  Li70  1  0.09974885  0.55037690  0.33335621  1
  Li  Li71  1  0.40025115  0.44962310  0.83335621  1
  Li  Li72  1  0.09974885  0.94962310  0.33335621  1
  Li  Li73  1  0.40025115  0.05037690  0.83335621  1
  Li  Li74  1  0.90025115  0.44962310  0.66664379  1
  Li  Li75  1  0.59974885  0.55037690  0.16664379  1
  Li  Li76  1  0.00000000  0.00000000  0.50000000  1
  Li  Li77  1  0.50000000  0.00000000  0.00000000  1
  Li  Li78  1  0.00000000  0.50000000  0.50000000  1
  Li  Li79  1  0.50000000  0.50000000  0.00000000  1
  Li  Li80  1  0.80927392  0.25000000  0.02222755  1
  Li  Li81  1  0.69072608  0.75000000  0.52222755  1
  Li  Li82  1  0.19072608  0.75000000  0.97777245  1
  Li  Li83  1  0.30927392  0.25000000  0.47777245  1
  Li  Li84  1  0.06462200  0.25000000  0.90656789  1
  Li  Li85  1  0.43537800  0.75000000  0.40656789  1
  Li  Li86  1  0.93537800  0.75000000  0.09343211  1
  Li  Li87  1  0.56462200  0.25000000  0.59343211  1
  Li  Li88  1  0.88799397  0.12185695  0.50009084  1
  Li  Li89  1  0.61200603  0.87814305  0.00009084  1
  Li  Li90  1  0.11200603  0.62185695  0.49990916  1
  Li  Li91  1  0.38799397  0.37814305  0.99990916  1
  Li  Li92  1  0.11200603  0.87814305  0.49990916  1
  Li  Li93  1  0.38799397  0.12185695  0.99990916  1
  Li  Li94  1  0.88799397  0.37814305  0.50009084  1
  Li  Li95  1  0.61200603  0.62185695  0.00009084  1
