# generated using pymatgen
data_Li2Y2As4P3
_symmetry_space_group_name_H-M   'P 1'
_cell_length_a   3.87203552
_cell_length_b   4.10100291
_cell_length_c   6.68944400
_cell_angle_alpha   96.73341630
_cell_angle_beta   104.66398086
_cell_angle_gamma   117.04545714
_symmetry_Int_Tables_number   1
_chemical_formula_structural   Li2Y2As4P3
_chemical_formula_sum   'Li2 Y2 As4 P3'
_cell_volume   88.13490116
_cell_formula_units_Z   1
loop_
 _symmetry_equiv_pos_site_id
 _symmetry_equiv_pos_as_xyz
  1  'x, y, z'
loop_
 _atom_site_type_symbol
 _atom_site_label
 _atom_site_symmetry_multiplicity
 _atom_site_fract_x
 _atom_site_fract_y
 _atom_site_fract_z
 _atom_site_occupancy
  P  P0  1  0.00000000  0.00000000  0.00000000  1
  P  P1  1  0.33300000  0.66700000  0.25000000  1
  P  P2  1  0.66700000  0.33300000  0.50000000  1
  As  As3  1  0.00000000  0.00000000  0.75000000  1
  As  As4  1  0.43228594  0.54073225  0.15469932  1
  As  As5  1  0.64171293  0.70239758  0.05518681  1
  As  As6  1  0.34044961  0.80534099  0.55002771  1
  Li  Li7  1  0.76249591  0.73228203  0.47558096  1
  Li  Li8  1  0.59749787  0.95891444  0.50425942  1
  Y  Y9  1  0.21364263  0.00975418  0.37251185  1
  Y  Y10  1  0.02223819  0.40933018  0.49951298  1
