# generated using pymatgen
data_LiF
_symmetry_space_group_name_H-M   'P 1'
_cell_length_a   10.27425645
_cell_length_b   10.27425645
_cell_length_c   15.61041390
_cell_angle_alpha   90.00000000
_cell_angle_beta   90.00000000
_cell_angle_gamma   90.00000000
_symmetry_Int_Tables_number   1
_chemical_formula_structural   LiF
_chemical_formula_sum   'Li64 F64'
_cell_volume   1647.84068542
_cell_formula_units_Z   64
loop_
 _symmetry_equiv_pos_site_id
 _symmetry_equiv_pos_as_xyz
  1  'x, y, z'
loop_
 _atom_site_type_symbol
 _atom_site_label
 _atom_site_symmetry_multiplicity
 _atom_site_fract_x
 _atom_site_fract_y
 _atom_site_fract_z
 _atom_site_occupancy
  F  F0  1  0.22374631  0.22435586  0.36639904  1
  F  F1  1  0.27625369  0.77564414  0.86639904  1
  F  F2  1  0.02564414  0.97374631  0.61639904  1
  F  F3  1  0.47435586  0.02625369  0.11639904  1
  F  F4  1  0.27625369  0.22435586  0.63360096  1
  F  F5  1  0.22374631  0.77564414  0.13360096  1
  F  F6  1  0.47435586  0.97374631  0.38360096  1
  F  F7  1  0.02564414  0.02625369  0.88360096  1
  F  F8  1  0.77625369  0.77564414  0.63360096  1
  F  F9  1  0.72374631  0.22435586  0.13360096  1
  F  F10  1  0.97435586  0.02625369  0.38360096  1
  F  F11  1  0.52564414  0.97374631  0.88360096  1
  F  F12  1  0.72374631  0.77564414  0.36639904  1
  F  F13  1  0.77625369  0.22435586  0.86639904  1
  F  F14  1  0.52564414  0.02625369  0.61639904  1
  F  F15  1  0.97435586  0.97374631  0.11639904  1
  F  F16  1  0.72374631  0.72435586  0.86639904  1
  F  F17  1  0.77625369  0.27564414  0.36639904  1
  F  F18  1  0.52564414  0.47374631  0.11639904  1
  F  F19  1  0.97435586  0.52625369  0.61639904  1
  F  F20  1  0.77625369  0.72435586  0.13360096  1
  F  F21  1  0.72374631  0.27564414  0.63360096  1
  F  F22  1  0.97435586  0.47374631  0.88360096  1
  F  F23  1  0.52564414  0.52625369  0.38360096  1
  F  F24  1  0.27625369  0.27564414  0.13360096  1
  F  F25  1  0.22374631  0.72435586  0.63360096  1
  F  F26  1  0.47435586  0.52625369  0.88360096  1
  F  F27  1  0.02564414  0.47374631  0.38360096  1
  F  F28  1  0.22374631  0.27564414  0.86639904  1
  F  F29  1  0.27625369  0.72435586  0.36639904  1
  F  F30  1  0.02564414  0.52625369  0.11639904  1
  F  F31  1  0.47435586  0.47374631  0.61639904  1
  F  F32  1  0.66774036  0.00419587  0.63225277  1
  F  F33  1  0.83225964  0.99580413  0.13225277  1
  F  F34  1  0.24580413  0.41774036  0.88225277  1
  F  F35  1  0.25419587  0.58225964  0.38225277  1
  F  F36  1  0.83225964  0.00419587  0.36774723  1
  F  F37  1  0.66774036  0.99580413  0.86774723  1
  F  F38  1  0.25419587  0.41774036  0.11774723  1
  F  F39  1  0.24580413  0.58225964  0.61774723  1
  F  F40  1  0.33225964  0.99580413  0.36774723  1
  F  F41  1  0.16774036  0.00419587  0.86774723  1
  F  F42  1  0.75419587  0.58225964  0.11774723  1
  F  F43  1  0.74580413  0.41774036  0.61774723  1
  F  F44  1  0.16774036  0.99580413  0.63225277  1
  F  F45  1  0.33225964  0.00419587  0.13225277  1
  F  F46  1  0.74580413  0.58225964  0.88225277  1
  F  F47  1  0.75419587  0.41774036  0.38225277  1
  F  F48  1  0.16774036  0.50419587  0.13225277  1
  F  F49  1  0.33225964  0.49580413  0.63225277  1
  F  F50  1  0.74580413  0.91774036  0.38225277  1
  F  F51  1  0.75419587  0.08225964  0.88225277  1
  F  F52  1  0.33225964  0.50419587  0.86774723  1
  F  F53  1  0.16774036  0.49580413  0.36774723  1
  F  F54  1  0.75419587  0.91774036  0.61774723  1
  F  F55  1  0.74580413  0.08225964  0.11774723  1
  F  F56  1  0.83225964  0.49580413  0.86774723  1
  F  F57  1  0.66774036  0.50419587  0.36774723  1
  F  F58  1  0.25419587  0.08225964  0.61774723  1
  F  F59  1  0.24580413  0.91774036  0.11774723  1
  F  F60  1  0.66774036  0.49580413  0.13225277  1
  F  F61  1  0.83225964  0.50419587  0.63225277  1
  F  F62  1  0.24580413  0.08225964  0.38225277  1
  F  F63  1  0.25419587  0.91774036  0.88225277  1
  Li  Li64  1  0.99658810  0.66101947  0.91306580  1
  Li  Li65  1  -0.49658810  -0.66101947  1.41306580  1
  Li  Li66  1  -0.41101947  1.74658810  1.16306580  1
  Li  Li67  1  0.91101947  -0.74658810  1.66306580  1
  Li  Li68  1  -0.49658810  0.66101947  -0.91306580  1
  Li  Li69  1  0.99658810  -0.66101947  -0.41306580  1
  Li  Li70  1  0.91101947  1.74658810  -0.16306580  1
  Li  Li71  1  -0.41101947  -0.74658810  -0.66306580  1
  Li  Li72  1  -0.99658810  -0.66101947  -0.91306580  1
  Li  Li73  1  1.49658810  0.66101947  -0.41306580  1
  Li  Li74  1  1.41101947  -0.74658810  -0.16306580  1
  Li  Li75  1  0.08898053  1.74658810  -0.66306580  1
  Li  Li76  1  1.49658810  -0.66101947  0.91306580  1
  Li  Li77  1  -0.99658810  0.66101947  1.41306580  1
  Li  Li78  1  0.08898053  -0.74658810  1.16306580  1
  Li  Li79  1  1.41101947  1.74658810  1.66306580  1
  Li  Li80  1  1.49658810  1.16101947  1.41306580  1
  Li  Li81  1  0.00341190  -0.16101947  1.91306580  1
  Li  Li82  1  0.08898053  2.24658810  1.66306580  1
  Li  Li83  1  1.41101947  -0.24658810  2.16306580  1
  Li  Li84  1  0.00341190  1.16101947  -0.41306580  1
  Li  Li85  1  1.49658810  -0.16101947  0.08693420  1
  Li  Li86  1  1.41101947  2.24658810  0.33693420  1
  Li  Li87  1  0.08898053  -0.24658810  -0.16306580  1
  Li  Li88  1  -0.49658810  -0.16101947  -0.41306580  1
  Li  Li89  1  1.99658810  1.16101947  0.08693420  1
  Li  Li90  1  1.91101947  -0.24658810  0.33693420  1
  Li  Li91  1  0.58898053  2.24658810  -0.16306580  1
  Li  Li92  1  1.99658810  -0.16101947  1.41306580  1
  Li  Li93  1  -0.49658810  1.16101947  1.91306580  1
  Li  Li94  1  0.58898053  -0.24658810  1.66306580  1
  Li  Li95  1  1.91101947  2.24658810  2.16306580  1
  Li  Li96  1  0.66306379  0.91306379  0.12500000  1
  Li  Li97  1  0.83693621  0.08693621  0.62500000  1
  Li  Li98  1  0.33693621  0.41306379  0.37500000  1
  Li  Li99  1  0.16306379  0.58693621  0.87500000  1
  Li  Li100  1  0.33693621  0.08693621  0.87500000  1
  Li  Li101  1  0.16306379  0.91306379  0.37500000  1
  Li  Li102  1  0.66306379  0.58693621  0.62500000  1
  Li  Li103  1  0.83693621  0.41306379  0.12500000  1
  Li  Li104  1  0.16306379  0.41306379  0.62500000  1
  Li  Li105  1  0.33693621  0.58693621  0.12500000  1
  Li  Li106  1  0.83693621  0.91306379  0.87500000  1
  Li  Li107  1  0.66306379  0.08693621  0.37500000  1
  Li  Li108  1  0.83693621  0.58693621  0.37500000  1
  Li  Li109  1  0.66306379  0.41306379  0.87500000  1
  Li  Li110  1  0.16306379  0.08693621  0.12500000  1
  Li  Li111  1  0.33693621  0.91306379  0.62500000  1
  Li  Li112  1  0.00000000  0.25000000  0.95594693  1
  Li  Li113  1  0.00000000  0.75000000  0.20594693  1
  Li  Li114  1  0.50000000  0.25000000  0.04405307  1
  Li  Li115  1  0.50000000  0.75000000  0.79405307  1
  Li  Li116  1  0.00000000  0.75000000  0.04405307  1
  Li  Li117  1  0.00000000  0.25000000  0.79405307  1
  Li  Li118  1  0.50000000  0.75000000  0.95594693  1
  Li  Li119  1  0.50000000  0.25000000  0.20594693  1
  Li  Li120  1  0.50000000  0.75000000  0.45594693  1
  Li  Li121  1  0.50000000  0.25000000  0.70594693  1
  Li  Li122  1  0.00000000  0.75000000  0.54405307  1
  Li  Li123  1  0.00000000  0.25000000  0.29405307  1
  Li  Li124  1  0.50000000  0.25000000  0.54405307  1
  Li  Li125  1  0.50000000  0.75000000  0.29405307  1
  Li  Li126  1  0.00000000  0.25000000  0.45594693  1
  Li  Li127  1  0.00000000  0.75000000  0.70594693  1
