# generated using pymatgen
data_Li4TiSe4
_symmetry_space_group_name_H-M   'P 1'
_cell_length_a   11.31496236
_cell_length_b   11.31496236
_cell_length_c   5.27052012
_cell_angle_alpha   90.00000000
_cell_angle_beta   90.00000000
_cell_angle_gamma   120.00000000
_symmetry_Int_Tables_number   1
_chemical_formula_structural   Li4TiSe4
_chemical_formula_sum   'Li12 Ti3 Se12'
_cell_volume   584.37325918
_cell_formula_units_Z   3
loop_
 _symmetry_equiv_pos_site_id
 _symmetry_equiv_pos_as_xyz
  1  'x, y, z'
loop_
 _atom_site_type_symbol
 _atom_site_label
 _atom_site_symmetry_multiplicity
 _atom_site_fract_x
 _atom_site_fract_y
 _atom_site_fract_z
 _atom_site_occupancy
  Li  Li0  1  0.23529097  -0.00000000  0.00000000  1
  Li  Li1  1  0.00000000  0.23529097  0.00000000  1
  Li  Li2  1  0.76470903  0.76470903  -0.00000000  1
  Li  Li3  1  0.84664064  0.00000000  0.00000000  1
  Li  Li4  1  0.00000000  0.84664064  0.00000000  1
  Li  Li5  1  0.15335936  0.15335936  0.00000000  1
  Li  Li6  1  0.88951350  0.14205735  0.50000000  1
  Li  Li7  1  -0.14205735  0.74745615  0.50000000  1
  Li  Li8  1  -0.74745615  -0.88951350  0.50000000  1
  Li  Li9  1  0.14205735  0.88951350  0.50000000  1
  Li  Li10  1  0.74745615  -0.14205735  0.50000000  1
  Li  Li11  1  -0.88951350  -0.74745615  0.50000000  1
  Se  Se12  1  0.33333333  0.66666667  -0.00000000  1
  Se  Se13  1  0.66666667  0.33333333  -0.00000000  1
  Se  Se14  1  0.40235722  0.00000000  0.50000000  1
  Se  Se15  1  0.00000000  0.40235722  0.50000000  1
  Se  Se16  1  0.59764278  0.59764278  0.50000000  1
  Se  Se17  1  0.76455111  -0.00000000  0.50000000  1
  Se  Se18  1  0.00000000  0.76455111  0.50000000  1
  Se  Se19  1  0.23544889  0.23544889  0.50000000  1
  Se  Se20  1  0.00000000  0.00000000  0.00000000  1
  Se  Se21  1  0.52044145  0.00000000  0.00000000  1
  Se  Se22  1  0.00000000  0.52044145  0.00000000  1
  Se  Se23  1  0.47955855  0.47955855  0.00000000  1
  Ti  Ti24  1  0.33333333  0.66666667  0.50000000  1
  Ti  Ti25  1  0.66666667  0.33333333  0.50000000  1
  Ti  Ti26  1  0.00000000  0.00000000  0.50000000  1
