# generated using pymatgen
data_Li2Y2Cu3P2Se
_symmetry_space_group_name_H-M   'P 1'
_cell_length_a   5.05585885
_cell_length_b   5.33346298
_cell_length_c   6.63878238
_cell_angle_alpha   93.73787024
_cell_angle_beta   97.21908515
_cell_angle_gamma   103.45411137
_symmetry_Int_Tables_number   1
_chemical_formula_structural   Li2Y2Cu3P2Se
_chemical_formula_sum   'Li2 Y2 Cu3 P2 Se1'
_cell_volume   171.89416683
_cell_formula_units_Z   1
loop_
 _symmetry_equiv_pos_site_id
 _symmetry_equiv_pos_as_xyz
  1  'x, y, z'
loop_
 _atom_site_type_symbol
 _atom_site_label
 _atom_site_symmetry_multiplicity
 _atom_site_fract_x
 _atom_site_fract_y
 _atom_site_fract_z
 _atom_site_occupancy
  Se  Se0  1  0.00000000  0.00000000  0.00000000  1
  Cu  Cu1  1  0.50000000  0.50000000  0.50000000  1
  Cu  Cu2  1  0.25000000  0.25000000  0.25000000  1
  Cu  Cu3  1  0.75000000  0.25000000  0.00000000  1
  Y  Y4  1  0.25000000  0.75000000  0.50000000  1
  Y  Y5  1  0.86850585  0.61104053  0.37943773  1
  P  P6  1  0.51459788  0.93282852  0.24621945  1
  P  P7  1  0.51067015  0.16765484  0.12827865  1
  Li  Li8  1  0.28708758  0.72212024  0.67909473  1
  Li  Li9  1  0.54638288  0.05329968  0.40587657  1
