# generated using pymatgen
data_LiF
_symmetry_space_group_name_H-M   'P 1'
_cell_length_a   14.86533140
_cell_length_b   5.85399072
_cell_length_c   10.75450550
_cell_angle_alpha   90.00000000
_cell_angle_beta   90.00000000
_cell_angle_gamma   90.00000000
_symmetry_Int_Tables_number   1
_chemical_formula_structural   LiF
_chemical_formula_sum   'Li24 F24'
_cell_volume   935.87332975
_cell_formula_units_Z   24
loop_
 _symmetry_equiv_pos_site_id
 _symmetry_equiv_pos_as_xyz
  1  'x, y, z'
loop_
 _atom_site_type_symbol
 _atom_site_label
 _atom_site_symmetry_multiplicity
 _atom_site_fract_x
 _atom_site_fract_y
 _atom_site_fract_z
 _atom_site_occupancy
  F  F0  1  0.00000000  0.00000000  0.50000000  1
  F  F1  1  0.50000000  0.00000000  0.00000000  1
  F  F2  1  0.00000000  0.50000000  0.50000000  1
  F  F3  1  0.50000000  0.50000000  0.00000000  1
  F  F4  1  0.98142291  0.25000000  0.64386748  1
  F  F5  1  0.51857709  0.75000000  0.14386748  1
  F  F6  1  0.01857709  0.75000000  0.35613252  1
  F  F7  1  0.48142291  0.25000000  0.85613252  1
  F  F8  1  0.89958875  0.25000000  0.08288511  1
  F  F9  1  0.60041125  0.75000000  0.58288511  1
  F  F10  1  0.10041125  0.75000000  0.91711489  1
  F  F11  1  0.39958875  0.25000000  0.41711489  1
  F  F12  1  0.06172856  0.25000000  0.14480019  1
  F  F13  1  0.43827144  0.75000000  0.64480019  1
  F  F14  1  0.93827144  0.75000000  0.85519981  1
  F  F15  1  0.56172856  0.25000000  0.35519981  1
  F  F16  1  0.69910258  0.98465772  0.53447179  1
  F  F17  1  0.80089742  0.01534228  0.03447179  1
  F  F18  1  0.30089742  0.48465772  0.46552821  1
  F  F19  1  0.19910258  0.51534228  0.96552821  1
  F  F20  1  0.30089742  0.01534228  0.46552821  1
  F  F21  1  0.19910258  0.98465772  0.96552821  1
  F  F22  1  0.69910258  0.51534228  0.53447179  1
  F  F23  1  0.80089742  0.48465772  0.03447179  1
  Li  Li24  1  0.34468184  0.25000000  0.27703233  1
  Li  Li25  1  0.15531816  0.75000000  0.77703233  1
  Li  Li26  1  0.65531816  0.75000000  0.72296767  1
  Li  Li27  1  0.84468184  0.25000000  0.22296767  1
  Li  Li28  1  0.00000000  0.00000000  0.00000000  1
  Li  Li29  1  0.50000000  0.00000000  0.50000000  1
  Li  Li30  1  0.00000000  0.50000000  0.00000000  1
  Li  Li31  1  0.50000000  0.50000000  0.50000000  1
  Li  Li32  1  0.61712210  0.25000000  0.89463470  1
  Li  Li33  1  0.88287790  0.75000000  0.39463470  1
  Li  Li34  1  0.38287790  0.75000000  0.10536530  1
  Li  Li35  1  0.11712210  0.25000000  0.60536530  1
  Li  Li36  1  0.80149640  0.25000000  0.77771782  1
  Li  Li37  1  0.69850360  0.75000000  0.27771782  1
  Li  Li38  1  0.19850360  0.75000000  0.22228218  1
  Li  Li39  1  0.30149640  0.25000000  0.72228218  1
  Li  Li40  1  0.08988368  0.10866517  0.29502278  1
  Li  Li41  1  0.41011632  -0.10866517  0.79502278  1
  Li  Li42  1  -0.08988368  0.60866517  -0.29502278  1
  Li  Li43  1  0.58988368  0.39133483  0.20497722  1
  Li  Li44  1  -0.08988368  -0.10866517  -0.29502278  1
  Li  Li45  1  0.58988368  0.10866517  0.20497722  1
  Li  Li46  1  0.08988368  0.39133483  0.29502278  1
  Li  Li47  1  0.41011632  0.60866517  0.79502278  1
