# generated using pymatgen
data_LiYAs2P
_symmetry_space_group_name_H-M   'P 1'
_cell_length_a   5.11891218
_cell_length_b   5.14244761
_cell_length_c   6.83413317
_cell_angle_alpha   94.41225960
_cell_angle_beta   99.31133025
_cell_angle_gamma   107.25549315
_symmetry_Int_Tables_number   1
_chemical_formula_structural   LiYAs2P
_chemical_formula_sum   'Li2 Y2 As4 P2'
_cell_volume   168.04295889
_cell_formula_units_Z   2
loop_
 _symmetry_equiv_pos_site_id
 _symmetry_equiv_pos_as_xyz
  1  'x, y, z'
loop_
 _atom_site_type_symbol
 _atom_site_label
 _atom_site_symmetry_multiplicity
 _atom_site_fract_x
 _atom_site_fract_y
 _atom_site_fract_z
 _atom_site_occupancy
  P  P0  1  0.00000000  0.00000000  0.00000000  1
  P  P1  1  0.50000000  0.50000000  0.50000000  1
  As  As2  1  0.25000000  0.25000000  0.25000000  1
  As  As3  1  0.75000000  0.25000000  0.00000000  1
  As  As4  1  0.25000000  0.75000000  0.50000000  1
  As  As5  1  0.44818449  0.95998292  0.79168100  1
  Li  Li6  1  0.12042683  0.24296454  0.02014491  1
  Li  Li7  1  0.77275319  0.62061961  0.45693172  1
  Y  Y8  1  0.39008752  0.90068076  0.03770469  1
  Y  Y9  1  0.06892088  0.94592364  0.88120614  1
