# generated using pymatgen
data_Li2Y2Mo(As2P)2
_symmetry_space_group_name_H-M   'P 1'
_cell_length_a   4.95639905
_cell_length_b   5.15005793
_cell_length_c   6.90449551
_cell_angle_alpha   94.70698042
_cell_angle_beta   99.81090127
_cell_angle_gamma   108.21615308
_symmetry_Int_Tables_number   1
_chemical_formula_structural   Li2Y2Mo(As2P)2
_chemical_formula_sum   'Li2 Y2 Mo1 As4 P2'
_cell_volume   163.22826724
_cell_formula_units_Z   1
loop_
 _symmetry_equiv_pos_site_id
 _symmetry_equiv_pos_as_xyz
  1  'x, y, z'
loop_
 _atom_site_type_symbol
 _atom_site_label
 _atom_site_symmetry_multiplicity
 _atom_site_fract_x
 _atom_site_fract_y
 _atom_site_fract_z
 _atom_site_occupancy
  Y  Y0  1  0.00000000  0.00000000  0.00000000  1
  Y  Y1  1  0.50000000  0.50000000  0.50000000  1
  P  P2  1  0.25000000  0.25000000  0.25000000  1
  P  P3  1  0.75000000  0.25000000  0.00000000  1
  Mo  Mo4  1  0.25000000  0.75000000  0.50000000  1
  As  As5  1  0.01999705  0.20584937  0.13432220  1
  As  As6  1  0.65818624  0.82349794  0.75321168  1
  As  As7  1  0.63415616  0.83307039  0.39275581  1
  As  As8  1  0.38996161  0.28508364  0.55555918  1
  Li  Li9  1  0.34575934  0.52922504  0.32259294  1
  Li  Li10  1  0.15262229  0.52483367  0.35259304  1
