# generated using pymatgen
data_Li3SCl
_symmetry_space_group_name_H-M   'P 1'
_cell_length_a   9.37449361
_cell_length_b   9.37449361
_cell_length_c   29.40662133
_cell_angle_alpha   90.00000000
_cell_angle_beta   90.00000000
_cell_angle_gamma   90.00000000
_symmetry_Int_Tables_number   1
_chemical_formula_structural   Li3SCl
_chemical_formula_sum   'Li96 S32 Cl32'
_cell_volume   2584.28712421
_cell_formula_units_Z   32
loop_
 _symmetry_equiv_pos_site_id
 _symmetry_equiv_pos_as_xyz
  1  'x, y, z'
loop_
 _atom_site_type_symbol
 _atom_site_label
 _atom_site_symmetry_multiplicity
 _atom_site_fract_x
 _atom_site_fract_y
 _atom_site_fract_z
 _atom_site_occupancy
  Cl  Cl0  1  0.41433827  0.01403361  0.07726056  1
  Cl  Cl1  1  0.08566173  -0.01403361  0.57726056  1
  Cl  Cl2  1  0.23596639  1.16433827  0.32726056  1
  Cl  Cl3  1  0.26403361  -0.16433827  0.82726056  1
  Cl  Cl4  1  0.08566173  0.01403361  -0.07726056  1
  Cl  Cl5  1  0.41433827  -0.01403361  0.42273944  1
  Cl  Cl6  1  0.26403361  1.16433827  0.67273944  1
  Cl  Cl7  1  0.23596639  -0.16433827  0.17273944  1
  Cl  Cl8  1  -0.41433827  -0.01403361  -0.07726056  1
  Cl  Cl9  1  0.91433827  0.01403361  0.42273944  1
  Cl  Cl10  1  0.76403361  -0.16433827  0.67273944  1
  Cl  Cl11  1  0.73596639  1.16433827  0.17273944  1
  Cl  Cl12  1  0.91433827  -0.01403361  0.07726056  1
  Cl  Cl13  1  -0.41433827  0.01403361  0.57726056  1
  Cl  Cl14  1  0.73596639  -0.16433827  0.32726056  1
  Cl  Cl15  1  0.76403361  1.16433827  0.82726056  1
  Cl  Cl16  1  0.91433827  0.51403361  0.57726056  1
  Cl  Cl17  1  0.58566173  0.48596639  1.07726056  1
  Cl  Cl18  1  0.73596639  1.66433827  0.82726056  1
  Cl  Cl19  1  0.76403361  0.33566173  1.32726056  1
  Cl  Cl20  1  0.58566173  0.51403361  0.42273944  1
  Cl  Cl21  1  0.91433827  0.48596639  0.92273944  1
  Cl  Cl22  1  0.76403361  1.66433827  1.17273944  1
  Cl  Cl23  1  0.73596639  0.33566173  0.67273944  1
  Cl  Cl24  1  0.08566173  0.48596639  0.42273944  1
  Cl  Cl25  1  1.41433827  0.51403361  0.92273944  1
  Cl  Cl26  1  1.26403361  0.33566173  1.17273944  1
  Cl  Cl27  1  1.23596639  1.66433827  0.67273944  1
  Cl  Cl28  1  1.41433827  0.48596639  0.57726056  1
  Cl  Cl29  1  0.08566173  0.51403361  1.07726056  1
  Cl  Cl30  1  1.23596639  0.33566173  0.82726056  1
  Cl  Cl31  1  1.26403361  1.66433827  1.32726056  1
  Li  Li32  1  0.00000000  0.25000000  0.12500000  1
  Li  Li33  1  0.00000000  0.75000000  0.37500000  1
  Li  Li34  1  0.00000000  0.75000000  0.87500000  1
  Li  Li35  1  0.00000000  0.25000000  0.62500000  1
  Li  Li36  1  0.50000000  0.75000000  0.62500000  1
  Li  Li37  1  0.50000000  0.25000000  0.87500000  1
  Li  Li38  1  0.50000000  0.25000000  0.37500000  1
  Li  Li39  1  0.50000000  0.75000000  0.12500000  1
  Li  Li40  1  0.00000000  0.25000000  0.37500000  1
  Li  Li41  1  0.00000000  0.75000000  0.62500000  1
  Li  Li42  1  0.50000000  0.25000000  0.62500000  1
  Li  Li43  1  0.50000000  0.75000000  0.37500000  1
  Li  Li44  1  0.50000000  0.75000000  0.87500000  1
  Li  Li45  1  0.50000000  0.25000000  0.12500000  1
  Li  Li46  1  0.00000000  0.75000000  0.12500000  1
  Li  Li47  1  0.00000000  0.25000000  0.87500000  1
  Li  Li48  1  0.00000000  0.25000000  0.28292616  1
  Li  Li49  1  0.00000000  0.75000000  0.53292616  1
  Li  Li50  1  0.50000000  0.25000000  0.71707384  1
  Li  Li51  1  0.50000000  0.75000000  0.46707384  1
  Li  Li52  1  0.00000000  0.75000000  0.71707384  1
  Li  Li53  1  0.00000000  0.25000000  0.46707384  1
  Li  Li54  1  0.50000000  0.75000000  0.28292616  1
  Li  Li55  1  0.50000000  0.25000000  0.53292616  1
  Li  Li56  1  0.50000000  0.75000000  0.78292616  1
  Li  Li57  1  0.50000000  0.25000000  0.03292616  1
  Li  Li58  1  0.00000000  0.75000000  0.21707384  1
  Li  Li59  1  0.00000000  0.25000000  0.96707384  1
  Li  Li60  1  0.50000000  0.25000000  0.21707384  1
  Li  Li61  1  0.50000000  0.75000000  0.96707384  1
  Li  Li62  1  0.00000000  0.25000000  0.78292616  1
  Li  Li63  1  0.00000000  0.75000000  0.03292616  1
  Li  Li64  1  0.70712094  0.95712094  0.12500000  1
  Li  Li65  1  0.79287906  0.04287906  0.62500000  1
  Li  Li66  1  0.29287906  0.45712094  0.37500000  1
  Li  Li67  1  0.20712094  0.54287906  0.87500000  1
  Li  Li68  1  0.29287906  0.04287906  0.87500000  1
  Li  Li69  1  0.20712094  0.95712094  0.37500000  1
  Li  Li70  1  0.70712094  0.54287906  0.62500000  1
  Li  Li71  1  0.79287906  0.45712094  0.12500000  1
  Li  Li72  1  0.20712094  0.45712094  0.62500000  1
  Li  Li73  1  0.29287906  0.54287906  0.12500000  1
  Li  Li74  1  0.79287906  0.95712094  0.87500000  1
  Li  Li75  1  0.70712094  0.04287906  0.37500000  1
  Li  Li76  1  0.79287906  0.54287906  0.37500000  1
  Li  Li77  1  0.70712094  0.45712094  0.87500000  1
  Li  Li78  1  0.20712094  0.04287906  0.12500000  1
  Li  Li79  1  0.29287906  0.95712094  0.62500000  1
  Li  Li80  1  0.69553342  0.61240045  0.42408947  1
  Li  Li81  1  0.80446658  0.38759955  0.92408947  1
  Li  Li82  1  0.63759955  0.44553342  0.67408947  1
  Li  Li83  1  0.86240045  0.55446658  0.17408947  1
  Li  Li84  1  0.80446658  0.61240045  0.57591053  1
  Li  Li85  1  0.69553342  0.38759955  0.07591053  1
  Li  Li86  1  0.86240045  0.44553342  0.32591053  1
  Li  Li87  1  0.63759955  0.55446658  0.82591053  1
  Li  Li88  1  0.30446658  0.38759955  0.57591053  1
  Li  Li89  1  0.19553342  0.61240045  0.07591053  1
  Li  Li90  1  0.36240045  0.55446658  0.32591053  1
  Li  Li91  1  0.13759955  0.44553342  0.82591053  1
  Li  Li92  1  0.19553342  0.38759955  0.42408947  1
  Li  Li93  1  0.30446658  0.61240045  0.92408947  1
  Li  Li94  1  0.13759955  0.55446658  0.67408947  1
  Li  Li95  1  0.36240045  0.44553342  0.17408947  1
  Li  Li96  1  0.19553342  0.11240045  0.92408947  1
  Li  Li97  1  0.30446658  0.88759955  0.42408947  1
  Li  Li98  1  0.13759955  0.94553342  0.17408947  1
  Li  Li99  1  0.36240045  0.05446658  0.67408947  1
  Li  Li100  1  0.30446658  0.11240045  0.07591053  1
  Li  Li101  1  0.19553342  0.88759955  0.57591053  1
  Li  Li102  1  0.36240045  0.94553342  0.82591053  1
  Li  Li103  1  0.13759955  0.05446658  0.32591053  1
  Li  Li104  1  0.80446658  0.88759955  0.07591053  1
  Li  Li105  1  0.69553342  0.11240045  0.57591053  1
  Li  Li106  1  0.86240045  0.05446658  0.82591053  1
  Li  Li107  1  0.63759955  0.94553342  0.32591053  1
  Li  Li108  1  0.69553342  0.88759955  0.92408947  1
  Li  Li109  1  0.80446658  0.11240045  0.42408947  1
  Li  Li110  1  0.63759955  0.05446658  0.17408947  1
  Li  Li111  1  0.86240045  0.94553342  0.67408947  1
  Li  Li112  1  0.00000000  0.00000000  0.00000000  1
  Li  Li113  1  0.50000000  0.00000000  0.50000000  1
  Li  Li114  1  0.25000000  0.75000000  0.25000000  1
  Li  Li115  1  0.25000000  0.25000000  0.75000000  1
  Li  Li116  1  0.50000000  0.00000000  0.00000000  1
  Li  Li117  1  0.00000000  0.00000000  0.50000000  1
  Li  Li118  1  0.25000000  0.75000000  0.75000000  1
  Li  Li119  1  0.25000000  0.25000000  0.25000000  1
  Li  Li120  1  0.50000000  0.50000000  0.50000000  1
  Li  Li121  1  0.00000000  0.50000000  0.00000000  1
  Li  Li122  1  0.75000000  0.25000000  0.75000000  1
  Li  Li123  1  0.75000000  0.75000000  0.25000000  1
  Li  Li124  1  0.00000000  0.50000000  0.50000000  1
  Li  Li125  1  0.50000000  0.50000000  0.00000000  1
  Li  Li126  1  0.75000000  0.25000000  0.25000000  1
  Li  Li127  1  0.75000000  0.75000000  0.75000000  1
  S  S128  1  0.54937661  0.47066211  0.60333934  1
  S  S129  1  0.95062339  0.52933789  0.10333934  1
  S  S130  1  0.77933789  0.29937661  0.85333934  1
  S  S131  1  0.72066211  0.70062339  0.35333934  1
  S  S132  1  0.95062339  0.47066211  0.39666066  1
  S  S133  1  0.54937661  0.52933789  0.89666066  1
  S  S134  1  0.72066211  0.29937661  0.14666066  1
  S  S135  1  0.77933789  0.70062339  0.64666066  1
  S  S136  1  0.45062339  0.52933789  0.39666066  1
  S  S137  1  0.04937661  0.47066211  0.89666066  1
  S  S138  1  0.22066211  0.70062339  0.14666066  1
  S  S139  1  0.27933789  0.29937661  0.64666066  1
  S  S140  1  0.04937661  0.52933789  0.60333934  1
  S  S141  1  0.45062339  0.47066211  0.10333934  1
  S  S142  1  0.27933789  0.70062339  0.85333934  1
  S  S143  1  0.22066211  0.29937661  0.35333934  1
  S  S144  1  0.04937661  0.97066211  0.10333934  1
  S  S145  1  0.45062339  0.02933789  0.60333934  1
  S  S146  1  0.27933789  0.79937661  0.35333934  1
  S  S147  1  0.22066211  0.20062339  0.85333934  1
  S  S148  1  0.45062339  0.97066211  0.89666066  1
  S  S149  1  0.04937661  0.02933789  0.39666066  1
  S  S150  1  0.22066211  0.79937661  0.64666066  1
  S  S151  1  0.27933789  0.20062339  0.14666066  1
  S  S152  1  0.95062339  0.02933789  0.89666066  1
  S  S153  1  0.54937661  0.97066211  0.39666066  1
  S  S154  1  0.72066211  0.20062339  0.64666066  1
  S  S155  1  0.77933789  0.79937661  0.14666066  1
  S  S156  1  0.54937661  0.02933789  0.10333934  1
  S  S157  1  0.95062339  0.97066211  0.60333934  1
  S  S158  1  0.77933789  0.20062339  0.35333934  1
  S  S159  1  0.72066211  0.79937661  0.85333934  1
