# generated using pymatgen
data_LiF
_symmetry_space_group_name_H-M   'P 1'
_cell_length_a   5.49401593
_cell_length_b   10.91311551
_cell_length_c   13.31313307
_cell_angle_alpha   90.00000000
_cell_angle_beta   90.00000000
_cell_angle_gamma   90.00000000
_symmetry_Int_Tables_number   1
_chemical_formula_structural   LiF
_chemical_formula_sum   'Li24 F24'
_cell_volume   798.21326212
_cell_formula_units_Z   24
loop_
 _symmetry_equiv_pos_site_id
 _symmetry_equiv_pos_as_xyz
  1  'x, y, z'
loop_
 _atom_site_type_symbol
 _atom_site_label
 _atom_site_symmetry_multiplicity
 _atom_site_fract_x
 _atom_site_fract_y
 _atom_site_fract_z
 _atom_site_occupancy
  F  F0  1  0.33502287  0.25000000  0.94960742  1
  F  F1  1  0.16497713  0.75000000  0.44960742  1
  F  F2  1  0.66497713  0.75000000  0.05039258  1
  F  F3  1  0.83502287  0.25000000  0.55039258  1
  F  F4  1  0.64608761  0.38404752  0.17803966  1
  F  F5  1  0.85391239  0.61595248  0.67803966  1
  F  F6  1  0.35391239  0.88404752  0.82196034  1
  F  F7  1  0.14608761  0.11595248  0.32196034  1
  F  F8  1  0.35391239  0.61595248  0.82196034  1
  F  F9  1  0.14608761  0.38404752  0.32196034  1
  F  F10  1  0.64608761  0.11595248  0.17803966  1
  F  F11  1  0.85391239  0.88404752  0.67803966  1
  F  F12  1  0.54537399  0.25000000  0.24725950  1
  F  F13  1  0.95462601  0.75000000  0.74725950  1
  F  F14  1  0.45462601  0.75000000  0.75274050  1
  F  F15  1  0.04537399  0.25000000  0.25274050  1
  F  F16  1  0.66233736  0.25000000  0.81034935  1
  F  F17  1  0.83766264  0.75000000  0.31034935  1
  F  F18  1  0.33766264  0.75000000  0.18965065  1
  F  F19  1  0.16233736  0.25000000  0.68965065  1
  F  F20  1  0.94262572  0.25000000  0.55449922  1
  F  F21  1  0.55737428  0.75000000  0.05449922  1
  F  F22  1  0.05737428  0.75000000  0.44550078  1
  F  F23  1  0.44262572  0.25000000  0.94550078  1
  Li  Li24  1  0.40392891  0.25000000  0.14842113  1
  Li  Li25  1  0.09607109  0.75000000  0.64842113  1
  Li  Li26  1  0.59607109  0.75000000  0.85157887  1
  Li  Li27  1  0.90392891  0.25000000  0.35157887  1
  Li  Li28  1  0.95579314  0.59649378  0.43194280  1
  Li  Li29  1  -0.45579314  -0.59649378  0.93194280  1
  Li  Li30  1  -0.95579314  1.09649378  -0.43194280  1
  Li  Li31  1  1.45579314  -0.09649378  0.06805720  1
  Li  Li32  1  -0.95579314  -0.59649378  -0.43194280  1
  Li  Li33  1  1.45579314  0.59649378  0.06805720  1
  Li  Li34  1  0.95579314  -0.09649378  0.43194280  1
  Li  Li35  1  -0.45579314  1.09649378  0.93194280  1
  Li  Li36  1  0.00000000  0.00000000  0.50000000  1
  Li  Li37  1  0.50000000  0.00000000  0.00000000  1
  Li  Li38  1  0.00000000  0.50000000  0.50000000  1
  Li  Li39  1  0.50000000  0.50000000  0.00000000  1
  Li  Li40  1  0.95844429  0.93913020  0.31860838  1
  Li  Li41  1  0.54155571  0.06086980  0.81860838  1
  Li  Li42  1  0.04155571  0.43913020  0.68139162  1
  Li  Li43  1  0.45844429  0.56086980  0.18139162  1
  Li  Li44  1  0.04155571  0.06086980  0.68139162  1
  Li  Li45  1  0.45844429  0.93913020  0.18139162  1
  Li  Li46  1  0.95844429  0.56086980  0.31860838  1
  Li  Li47  1  0.54155571  0.43913020  0.81860838  1
