# generated using pymatgen
data_LiF
_symmetry_space_group_name_H-M   'P 1'
_cell_length_a   18.32131881
_cell_length_b   10.32440988
_cell_length_c   5.25439316
_cell_angle_alpha   90.00000000
_cell_angle_beta   90.00000000
_cell_angle_gamma   90.00000000
_symmetry_Int_Tables_number   1
_chemical_formula_structural   LiF
_chemical_formula_sum   'Li36 F36'
_cell_volume   993.90422118
_cell_formula_units_Z   36
loop_
 _symmetry_equiv_pos_site_id
 _symmetry_equiv_pos_as_xyz
  1  'x, y, z'
loop_
 _atom_site_type_symbol
 _atom_site_label
 _atom_site_symmetry_multiplicity
 _atom_site_fract_x
 _atom_site_fract_y
 _atom_site_fract_z
 _atom_site_occupancy
  F  F0  1  0.40727071  0.36814644  0.34884022  1
  F  F1  1  -0.40727071  -0.36814644  0.34884022  1
  F  F2  1  0.09272929  0.86814644  -0.34884022  1
  F  F3  1  0.90727071  0.13185356  -0.34884022  1
  F  F4  1  -0.40727071  -0.36814644  -0.34884022  1
  F  F5  1  0.40727071  0.36814644  -0.34884022  1
  F  F6  1  0.90727071  0.13185356  0.34884022  1
  F  F7  1  0.09272929  0.86814644  0.34884022  1
  F  F8  1  0.45143392  0.11498669  0.50000000  1
  F  F9  1  0.54856608  0.88501331  0.50000000  1
  F  F10  1  0.04856608  0.61498669  0.50000000  1
  F  F11  1  0.95143392  0.38501331  0.50000000  1
  F  F12  1  0.94980231  0.93781776  0.09713099  1
  F  F13  1  0.05019769  0.06218224  0.09713099  1
  F  F14  1  0.55019769  0.43781776  0.90286901  1
  F  F15  1  0.44980231  0.56218224  0.90286901  1
  F  F16  1  0.05019769  0.06218224  0.90286901  1
  F  F17  1  0.94980231  0.93781776  0.90286901  1
  F  F18  1  0.44980231  0.56218224  0.09713099  1
  F  F19  1  0.55019769  0.43781776  0.09713099  1
  F  F20  1  0.83059177  0.06359626  0.50000000  1
  F  F21  1  0.16940823  0.93640374  0.50000000  1
  F  F22  1  0.66940823  0.56359626  0.50000000  1
  F  F23  1  0.33059177  0.43640374  0.50000000  1
  F  F24  1  0.77675945  0.32289962  0.00000000  1
  F  F25  1  0.22324055  0.67710038  0.00000000  1
  F  F26  1  0.72324055  0.82289962  0.00000000  1
  F  F27  1  0.27675945  0.17710038  0.00000000  1
  F  F28  1  0.07249183  0.08324068  0.83853400  1
  F  F29  1  0.92750817  0.91675932  0.83853400  1
  F  F30  1  0.42750817  0.58324068  0.16146600  1
  F  F31  1  0.57249183  0.41675932  0.16146600  1
  F  F32  1  0.92750817  0.91675932  0.16146600  1
  F  F33  1  0.07249183  0.08324068  0.16146600  1
  F  F34  1  0.57249183  0.41675932  0.83853400  1
  F  F35  1  0.42750817  0.58324068  0.83853400  1
  Li  Li36  1  0.00000000  0.50000000  0.00000000  1
  Li  Li37  1  0.50000000  0.00000000  0.00000000  1
  Li  Li38  1  0.72040913  0.37805226  0.00000000  1
  Li  Li39  1  0.27959087  0.62194774  0.00000000  1
  Li  Li40  1  0.77959087  0.87805226  0.00000000  1
  Li  Li41  1  0.22040913  0.12194774  0.00000000  1
  Li  Li42  1  0.36184446  0.01040548  0.50000000  1
  Li  Li43  1  0.63815554  0.98959452  0.50000000  1
  Li  Li44  1  0.13815554  0.51040548  0.50000000  1
  Li  Li45  1  0.86184446  0.48959452  0.50000000  1
  Li  Li46  1  0.21357759  0.40528450  0.79361147  1
  Li  Li47  1  0.78642241  0.59471550  0.79361147  1
  Li  Li48  1  0.28642241  0.90528450  0.20638853  1
  Li  Li49  1  0.71357759  0.09471550  0.20638853  1
  Li  Li50  1  0.78642241  0.59471550  0.20638853  1
  Li  Li51  1  0.21357759  0.40528450  0.20638853  1
  Li  Li52  1  0.71357759  0.09471550  0.79361147  1
  Li  Li53  1  0.28642241  0.90528450  0.79361147  1
  Li  Li54  1  0.00000000  0.50000000  0.29418283  1
  Li  Li55  1  0.50000000  0.00000000  0.70581717  1
  Li  Li56  1  0.00000000  0.50000000  0.70581717  1
  Li  Li57  1  0.50000000  0.00000000  0.29418283  1
  Li  Li58  1  0.00000000  0.00000000  0.00000000  1
  Li  Li59  1  0.50000000  0.50000000  0.00000000  1
  Li  Li60  1  0.99812818  0.91065238  0.50000000  1
  Li  Li61  1  0.00187182  0.08934762  0.50000000  1
  Li  Li62  1  0.50187182  0.41065238  0.50000000  1
  Li  Li63  1  0.49812818  0.58934762  0.50000000  1
  Li  Li64  1  0.69292547  0.14017755  0.50000000  1
  Li  Li65  1  0.30707453  0.85982245  0.50000000  1
  Li  Li66  1  0.80707453  0.64017755  0.50000000  1
  Li  Li67  1  0.19292547  0.35982245  0.50000000  1
  Li  Li68  1  0.88501165  0.92968090  0.50000000  1
  Li  Li69  1  0.11498835  0.07031910  0.50000000  1
  Li  Li70  1  0.61498835  0.42968090  0.50000000  1
  Li  Li71  1  0.38501165  0.57031910  0.50000000  1
