# generated using pymatgen
data_Li2YAs(P2Pb)2
_symmetry_space_group_name_H-M   'P 1'
_cell_length_a   5.54808338
_cell_length_b   5.47310754
_cell_length_c   7.56262047
_cell_angle_alpha   94.74508895
_cell_angle_beta   99.78917278
_cell_angle_gamma   106.41234079
_symmetry_Int_Tables_number   1
_chemical_formula_structural   Li2YAs(P2Pb)2
_chemical_formula_sum   'Li2 Y1 As1 P4 Pb2'
_cell_volume   214.98948077
_cell_formula_units_Z   1
loop_
 _symmetry_equiv_pos_site_id
 _symmetry_equiv_pos_as_xyz
  1  'x, y, z'
loop_
 _atom_site_type_symbol
 _atom_site_label
 _atom_site_symmetry_multiplicity
 _atom_site_fract_x
 _atom_site_fract_y
 _atom_site_fract_z
 _atom_site_occupancy
  Pb  Pb0  1  0.00000000  0.00000000  0.00000000  1
  Pb  Pb1  1  0.50000000  0.50000000  0.50000000  1
  Y  Y2  1  0.50000000  0.50000000  0.00000000  1
  P  P3  1  0.50000000  0.00000000  0.50000000  1
  P  P4  1  0.00000000  0.50000000  0.50000000  1
  P  P5  1  0.10446576  0.02958112  0.32048261  1
  P  P6  1  0.57317085  0.46201181  0.07812295  1
  As  As7  1  0.31481680  0.91586162  0.53784869  1
  Li  Li8  1  0.10455509  0.22246361  0.09621324  1
  Li  Li9  1  0.20703440  0.06691041  0.30123021  1
