# generated using pymatgen
data_Li4TeF2
_symmetry_space_group_name_H-M   'P 1'
_cell_length_a   13.28010734
_cell_length_b   13.28010734
_cell_length_c   15.83972408
_cell_angle_alpha   90.00000000
_cell_angle_beta   90.00000000
_cell_angle_gamma   90.00000000
_symmetry_Int_Tables_number   1
_chemical_formula_structural   Li4TeF2
_chemical_formula_sum   'Li96 Te24 F48'
_cell_volume   2793.51355600
_cell_formula_units_Z   24
loop_
 _symmetry_equiv_pos_site_id
 _symmetry_equiv_pos_as_xyz
  1  'x, y, z'
loop_
 _atom_site_type_symbol
 _atom_site_label
 _atom_site_symmetry_multiplicity
 _atom_site_fract_x
 _atom_site_fract_y
 _atom_site_fract_z
 _atom_site_occupancy
  F  F0  1  0.16404596  0.16404596  0.50000000  1
  F  F1  1  0.83595404  0.83595404  0.50000000  1
  F  F2  1  0.83595404  0.16404596  0.50000000  1
  F  F3  1  0.16404596  0.83595404  0.50000000  1
  F  F4  1  0.27399884  0.50000000  -0.00000000  1
  F  F5  1  0.72600116  0.50000000  0.00000000  1
  F  F6  1  0.50000000  0.27399884  -0.00000000  1
  F  F7  1  0.50000000  0.72600116  0.00000000  1
  F  F8  1  0.73681550  0.73681550  0.00000000  1
  F  F9  1  0.26318450  0.26318450  0.00000000  1
  F  F10  1  0.26318450  0.73681550  0.00000000  1
  F  F11  1  0.73681550  0.26318450  0.00000000  1
  F  F12  1  0.14802527  -0.00000000  0.18455447  1
  F  F13  1  0.85197473  0.00000000  0.18455447  1
  F  F14  1  0.00000000  0.14802527  0.18455447  1
  F  F15  1  0.00000000  0.85197473  0.18455447  1
  F  F16  1  0.85197473  0.00000000  0.81544553  1
  F  F17  1  0.14802527  -0.00000000  0.81544553  1
  F  F18  1  0.00000000  0.14802527  0.81544553  1
  F  F19  1  0.00000000  0.85197473  0.81544553  1
  F  F20  1  0.85593701  0.34167065  0.50000000  1
  F  F21  1  0.14406299  0.65832935  0.50000000  1
  F  F22  1  0.65832935  0.85593701  0.50000000  1
  F  F23  1  0.34167065  0.14406299  0.50000000  1
  F  F24  1  0.14406299  0.34167065  0.50000000  1
  F  F25  1  0.85593701  0.65832935  0.50000000  1
  F  F26  1  0.34167065  0.85593701  0.50000000  1
  F  F27  1  0.65832935  0.14406299  0.50000000  1
  F  F28  1  0.41296711  0.73125708  0.28406587  1
  F  F29  1  -0.41296711  -0.73125708  0.28406587  1
  F  F30  1  -0.73125708  0.41296711  0.28406587  1
  F  F31  1  0.73125708  -0.41296711  0.28406587  1
  F  F32  1  -0.41296711  0.73125708  -0.28406587  1
  F  F33  1  0.41296711  -0.73125708  -0.28406587  1
  F  F34  1  0.73125708  0.41296711  -0.28406587  1
  F  F35  1  -0.73125708  -0.41296711  -0.28406587  1
  F  F36  1  -0.41296711  -0.73125708  -0.28406587  1
  F  F37  1  0.41296711  0.73125708  -0.28406587  1
  F  F38  1  0.73125708  -0.41296711  -0.28406587  1
  F  F39  1  -0.73125708  0.41296711  -0.28406587  1
  F  F40  1  0.41296711  -0.73125708  0.28406587  1
  F  F41  1  -0.41296711  0.73125708  0.28406587  1
  F  F42  1  -0.73125708  -0.41296711  0.28406587  1
  F  F43  1  0.73125708  0.41296711  0.28406587  1
  F  F44  1  0.95931628  0.00000000  0.00000000  1
  F  F45  1  0.04068372  0.00000000  0.00000000  1
  F  F46  1  0.00000000  0.95931628  -0.00000000  1
  F  F47  1  0.00000000  0.04068372  0.00000000  1
  Li  Li48  1  0.00000000  0.50000000  0.36045376  1
  Li  Li49  1  0.50000000  0.00000000  0.36045376  1
  Li  Li50  1  0.00000000  0.50000000  0.63954624  1
  Li  Li51  1  0.50000000  0.00000000  0.63954624  1
  Li  Li52  1  0.33274261  0.33274261  0.68729034  1
  Li  Li53  1  0.66725739  0.66725739  0.68729034  1
  Li  Li54  1  0.66725739  0.33274261  0.68729034  1
  Li  Li55  1  0.33274261  0.66725739  0.68729034  1
  Li  Li56  1  0.66725739  0.33274261  0.31270966  1
  Li  Li57  1  0.33274261  0.66725739  0.31270966  1
  Li  Li58  1  0.33274261  0.33274261  0.31270966  1
  Li  Li59  1  0.66725739  0.66725739  0.31270966  1
  Li  Li60  1  0.57266129  0.35129571  0.59351443  1
  Li  Li61  1  0.42733871  0.64870429  0.59351443  1
  Li  Li62  1  0.64870429  0.57266129  0.59351443  1
  Li  Li63  1  0.35129571  0.42733871  0.59351443  1
  Li  Li64  1  0.42733871  0.35129571  0.40648557  1
  Li  Li65  1  0.57266129  0.64870429  0.40648557  1
  Li  Li66  1  0.35129571  0.57266129  0.40648557  1
  Li  Li67  1  0.64870429  0.42733871  0.40648557  1
  Li  Li68  1  0.42733871  0.64870429  0.40648557  1
  Li  Li69  1  0.57266129  0.35129571  0.40648557  1
  Li  Li70  1  0.35129571  0.42733871  0.40648557  1
  Li  Li71  1  0.64870429  0.57266129  0.40648557  1
  Li  Li72  1  0.57266129  0.64870429  0.59351443  1
  Li  Li73  1  0.42733871  0.35129571  0.59351443  1
  Li  Li74  1  0.64870429  0.42733871  0.59351443  1
  Li  Li75  1  0.35129571  0.57266129  0.59351443  1
  Li  Li76  1  0.17250709  0.40335005  0.26795894  1
  Li  Li77  1  0.82749291  0.59664995  0.26795894  1
  Li  Li78  1  0.59664995  0.17250709  0.26795894  1
  Li  Li79  1  0.40335005  0.82749291  0.26795894  1
  Li  Li80  1  0.82749291  0.40335005  0.73204106  1
  Li  Li81  1  0.17250709  0.59664995  0.73204106  1
  Li  Li82  1  0.40335005  0.17250709  0.73204106  1
  Li  Li83  1  0.59664995  0.82749291  0.73204106  1
  Li  Li84  1  0.82749291  0.59664995  0.73204106  1
  Li  Li85  1  0.17250709  0.40335005  0.73204106  1
  Li  Li86  1  0.40335005  0.82749291  0.73204106  1
  Li  Li87  1  0.59664995  0.17250709  0.73204106  1
  Li  Li88  1  0.17250709  0.59664995  0.26795894  1
  Li  Li89  1  0.82749291  0.40335005  0.26795894  1
  Li  Li90  1  0.59664995  0.82749291  0.26795894  1
  Li  Li91  1  0.40335005  0.17250709  0.26795894  1
  Li  Li92  1  0.87212929  0.50000000  0.18288848  1
  Li  Li93  1  0.12787071  0.50000000  0.18288848  1
  Li  Li94  1  0.50000000  0.87212929  0.18288848  1
  Li  Li95  1  0.50000000  0.12787071  0.18288848  1
  Li  Li96  1  0.12787071  0.50000000  0.81711152  1
  Li  Li97  1  0.87212929  0.50000000  0.81711152  1
  Li  Li98  1  0.50000000  0.87212929  0.81711152  1
  Li  Li99  1  0.50000000  0.12787071  0.81711152  1
  Li  Li100  1  0.32653648  0.23577454  0.21968441  1
  Li  Li101  1  0.67346352  0.76422546  0.21968441  1
  Li  Li102  1  0.76422546  0.32653648  0.21968441  1
  Li  Li103  1  0.23577454  0.67346352  0.21968441  1
  Li  Li104  1  0.67346352  0.23577454  0.78031559  1
  Li  Li105  1  0.32653648  0.76422546  0.78031559  1
  Li  Li106  1  0.23577454  0.32653648  0.78031559  1
  Li  Li107  1  0.76422546  0.67346352  0.78031559  1
  Li  Li108  1  0.67346352  0.76422546  0.78031559  1
  Li  Li109  1  0.32653648  0.23577454  0.78031559  1
  Li  Li110  1  0.23577454  0.67346352  0.78031559  1
  Li  Li111  1  0.76422546  0.32653648  0.78031559  1
  Li  Li112  1  0.32653648  0.76422546  0.21968441  1
  Li  Li113  1  0.67346352  0.23577454  0.21968441  1
  Li  Li114  1  0.76422546  0.67346352  0.21968441  1
  Li  Li115  1  0.23577454  0.32653648  0.21968441  1
  Li  Li116  1  0.79103116  0.00000000  0.39820805  1
  Li  Li117  1  0.20896884  0.00000000  0.39820805  1
  Li  Li118  1  0.00000000  0.79103116  0.39820805  1
  Li  Li119  1  0.00000000  0.20896884  0.39820805  1
  Li  Li120  1  0.20896884  0.00000000  0.60179195  1
  Li  Li121  1  0.79103116  0.00000000  0.60179195  1
  Li  Li122  1  0.00000000  0.79103116  0.60179195  1
  Li  Li123  1  0.00000000  0.20896884  0.60179195  1
  Li  Li124  1  0.56758324  0.00000000  0.50000000  1
  Li  Li125  1  0.43241676  0.00000000  0.50000000  1
  Li  Li126  1  0.00000000  0.56758324  0.50000000  1
  Li  Li127  1  0.00000000  0.43241676  0.50000000  1
  Li  Li128  1  0.41889003  0.06244575  0.75009503  1
  Li  Li129  1  0.58110997  0.93755425  0.75009503  1
  Li  Li130  1  0.93755425  0.41889003  0.75009503  1
  Li  Li131  1  0.06244575  0.58110997  0.75009503  1
  Li  Li132  1  0.58110997  0.06244575  0.24990497  1
  Li  Li133  1  0.41889003  0.93755425  0.24990497  1
  Li  Li134  1  0.06244575  0.41889003  0.24990497  1
  Li  Li135  1  0.93755425  0.58110997  0.24990497  1
  Li  Li136  1  0.58110997  0.93755425  0.24990497  1
  Li  Li137  1  0.41889003  0.06244575  0.24990497  1
  Li  Li138  1  0.06244575  0.58110997  0.24990497  1
  Li  Li139  1  0.93755425  0.41889003  0.24990497  1
  Li  Li140  1  0.41889003  0.93755425  0.75009503  1
  Li  Li141  1  0.58110997  0.06244575  0.75009503  1
  Li  Li142  1  0.93755425  0.58110997  0.75009503  1
  Li  Li143  1  0.06244575  0.41889003  0.75009503  1
  Te  Te144  1  0.67967520  0.67967520  0.93979592  1
  Te  Te145  1  0.32032480  0.32032480  0.93979592  1
  Te  Te146  1  0.32032480  0.67967520  0.93979592  1
  Te  Te147  1  0.67967520  0.32032480  0.93979592  1
  Te  Te148  1  0.32032480  0.67967520  0.06020408  1
  Te  Te149  1  0.67967520  0.32032480  0.06020408  1
  Te  Te150  1  0.67967520  0.67967520  0.06020408  1
  Te  Te151  1  0.32032480  0.32032480  0.06020408  1
  Te  Te152  1  0.06193553  0.56419324  0.04776983  1
  Te  Te153  1  0.93806447  0.43580676  0.04776983  1
  Te  Te154  1  0.43580676  0.06193553  0.04776983  1
  Te  Te155  1  0.56419324  0.93806447  0.04776983  1
  Te  Te156  1  0.93806447  0.56419324  0.95223017  1
  Te  Te157  1  0.06193553  0.43580676  0.95223017  1
  Te  Te158  1  0.56419324  0.06193553  0.95223017  1
  Te  Te159  1  0.43580676  0.93806447  0.95223017  1
  Te  Te160  1  0.93806447  0.43580676  0.95223017  1
  Te  Te161  1  0.06193553  0.56419324  0.95223017  1
  Te  Te162  1  0.56419324  0.93806447  0.95223017  1
  Te  Te163  1  0.43580676  0.06193553  0.95223017  1
  Te  Te164  1  0.06193553  0.43580676  0.04776983  1
  Te  Te165  1  0.93806447  0.56419324  0.04776983  1
  Te  Te166  1  0.43580676  0.93806447  0.04776983  1
  Te  Te167  1  0.56419324  0.06193553  0.04776983  1
