# generated using pymatgen
data_Li2Y2As4P2Se
_symmetry_space_group_name_H-M   'P 1'
_cell_length_a   4.71287022
_cell_length_b   4.81719903
_cell_length_c   6.74689618
_cell_angle_alpha   95.12178395
_cell_angle_beta   100.75984952
_cell_angle_gamma   109.95375495
_symmetry_Int_Tables_number   1
_chemical_formula_structural   Li2Y2As4P2Se
_chemical_formula_sum   'Li2 Y2 As4 P2 Se1'
_cell_volume   139.49245991
_cell_formula_units_Z   1
loop_
 _symmetry_equiv_pos_site_id
 _symmetry_equiv_pos_as_xyz
  1  'x, y, z'
loop_
 _atom_site_type_symbol
 _atom_site_label
 _atom_site_symmetry_multiplicity
 _atom_site_fract_x
 _atom_site_fract_y
 _atom_site_fract_z
 _atom_site_occupancy
  Se  Se0  1  0.12500000  0.00000000  0.25000000  1
  P  P1  1  0.00000000  0.00000000  0.00000000  1
  P  P2  1  0.37500000  0.00000000  0.25000000  1
  As  As3  1  0.25000000  0.25000000  0.25000000  1
  As  As4  1  0.00000000  0.25000000  0.12500000  1
  As  As5  1  0.88481124  0.04024126  0.04592922  1
  As  As6  1  0.77454480  0.69110461  0.83327381  1
  Li  Li7  1  0.82249763  0.88983410  0.26899973  1
  Li  Li8  1  0.49117288  0.89503271  0.05110484  1
  Y  Y9  1  0.68631915  0.92127698  0.56870930  1
  Y  Y10  1  0.75197351  0.77469050  0.90719587  1
