# generated using pymatgen
data_LiYAsP2
_symmetry_space_group_name_H-M   'P 1'
_cell_length_a   4.56104893
_cell_length_b   4.74057184
_cell_length_c   7.06737377
_cell_angle_alpha   95.55691819
_cell_angle_beta   102.10181255
_cell_angle_gamma   112.31993180
_symmetry_Int_Tables_number   1
_chemical_formula_structural   LiYAsP2
_chemical_formula_sum   'Li2 Y2 As2 P4'
_cell_volume   135.56453562
_cell_formula_units_Z   2
loop_
 _symmetry_equiv_pos_site_id
 _symmetry_equiv_pos_as_xyz
  1  'x, y, z'
loop_
 _atom_site_type_symbol
 _atom_site_label
 _atom_site_symmetry_multiplicity
 _atom_site_fract_x
 _atom_site_fract_y
 _atom_site_fract_z
 _atom_site_occupancy
  P  P0  1  0.00000000  0.00000000  0.00000000  1
  P  P1  1  0.50000000  0.50000000  0.50000000  1
  P  P2  1  0.25000000  0.25000000  0.25000000  1
  P  P3  1  0.75000000  0.25000000  0.00000000  1
  As  As4  1  0.25000000  0.75000000  0.50000000  1
  As  As5  1  0.55791444  0.62007573  0.53528580  1
  Li  Li6  1  0.67031887  0.75303408  0.88714497  1
  Li  Li7  1  0.84872339  0.34290544  0.54324482  1
  Y  Y8  1  0.03507159  0.78145922  0.06705817  1
  Y  Y9  1  0.78847355  0.57356030  0.58689461  1
