# generated using pymatgen
data_LiF
_symmetry_space_group_name_H-M   'P 1'
_cell_length_a   5.71376134
_cell_length_b   17.52228182
_cell_length_c   5.74093823
_cell_angle_alpha   90.00000000
_cell_angle_beta   90.00000000
_cell_angle_gamma   90.00000000
_symmetry_Int_Tables_number   1
_chemical_formula_structural   LiF
_chemical_formula_sum   'Li24 F24'
_cell_volume   574.77203630
_cell_formula_units_Z   24
loop_
 _symmetry_equiv_pos_site_id
 _symmetry_equiv_pos_as_xyz
  1  'x, y, z'
loop_
 _atom_site_type_symbol
 _atom_site_label
 _atom_site_symmetry_multiplicity
 _atom_site_fract_x
 _atom_site_fract_y
 _atom_site_fract_z
 _atom_site_occupancy
  F  F0  1  0.06167476  0.48564831  0.74986137  1
  F  F1  1  0.43832524  0.51435169  0.24986137  1
  F  F2  1  0.93832524  0.98564831  0.25013863  1
  F  F3  1  0.56167476  0.01435169  0.75013863  1
  F  F4  1  0.93832524  0.51435169  0.25013863  1
  F  F5  1  0.56167476  0.48564831  0.75013863  1
  F  F6  1  0.06167476  0.01435169  0.74986137  1
  F  F7  1  0.43832524  0.98564831  0.24986137  1
  F  F8  1  0.58161453  0.25000000  0.53244252  1
  F  F9  1  0.91838547  0.75000000  0.03244252  1
  F  F10  1  0.41838547  0.75000000  0.46755748  1
  F  F11  1  0.08161453  0.25000000  0.96755748  1
  F  F12  1  0.70524391  0.53541462  0.66855487  1
  F  F13  1  0.79475609  0.46458538  0.16855487  1
  F  F14  1  0.29475609  0.03541462  0.33144513  1
  F  F15  1  0.20524391  0.96458538  0.83144513  1
  F  F16  1  0.29475609  0.46458538  0.33144513  1
  F  F17  1  0.20524391  0.53541462  0.83144513  1
  F  F18  1  0.70524391  0.96458538  0.66855487  1
  F  F19  1  0.79475609  0.03541462  0.16855487  1
  F  F20  1  0.00000000  0.00000000  0.00000000  1
  F  F21  1  0.50000000  0.00000000  0.50000000  1
  F  F22  1  0.00000000  0.50000000  0.00000000  1
  F  F23  1  0.50000000  0.50000000  0.50000000  1
  Li  Li24  1  0.82705966  0.98088774  0.79056099  1
  Li  Li25  1  -0.32705966  -0.98088774  1.29056099  1
  Li  Li26  1  -0.82705966  1.48088774  -0.79056099  1
  Li  Li27  1  1.32705966  -0.48088774  -0.29056099  1
  Li  Li28  1  -0.82705966  -0.98088774  -0.79056099  1
  Li  Li29  1  1.32705966  0.98088774  -0.29056099  1
  Li  Li30  1  0.82705966  -0.48088774  0.79056099  1
  Li  Li31  1  -0.32705966  1.48088774  1.29056099  1
  Li  Li32  1  0.23296107  0.25000000  0.62225460  1
  Li  Li33  1  0.26703893  0.75000000  0.12225460  1
  Li  Li34  1  0.76703893  0.75000000  0.37774540  1
  Li  Li35  1  0.73296107  0.25000000  0.87774540  1
  Li  Li36  1  0.72168954  0.25000000  0.41909623  1
  Li  Li37  1  0.77831046  0.75000000  0.91909623  1
  Li  Li38  1  0.27831046  0.75000000  0.58090377  1
  Li  Li39  1  0.22168954  0.25000000  0.08090377  1
  Li  Li40  1  0.00000000  0.00000000  0.50000000  1
  Li  Li41  1  0.50000000  0.00000000  0.00000000  1
  Li  Li42  1  0.00000000  0.50000000  0.50000000  1
  Li  Li43  1  0.50000000  0.50000000  0.00000000  1
  Li  Li44  1  0.98842231  0.25000000  0.48181611  1
  Li  Li45  1  0.51157769  0.75000000  0.98181611  1
  Li  Li46  1  0.01157769  0.75000000  0.51818389  1
  Li  Li47  1  0.48842231  0.25000000  0.01818389  1
