# generated using pymatgen
data_LiCaF3
_symmetry_space_group_name_H-M   'P 1'
_cell_length_a   12.66139248
_cell_length_b   12.66139248
_cell_length_c   11.86865595
_cell_angle_alpha   90.00000000
_cell_angle_beta   90.00000000
_cell_angle_gamma   120.00000000
_symmetry_Int_Tables_number   1
_chemical_formula_structural   LiCaF3
_chemical_formula_sum   'Li18 Ca18 F54'
_cell_volume   1647.76439662
_cell_formula_units_Z   18
loop_
 _symmetry_equiv_pos_site_id
 _symmetry_equiv_pos_as_xyz
  1  'x, y, z'
loop_
 _atom_site_type_symbol
 _atom_site_label
 _atom_site_symmetry_multiplicity
 _atom_site_fract_x
 _atom_site_fract_y
 _atom_site_fract_z
 _atom_site_occupancy
  Ca  Ca0  1  0.61752770  0.00000000  0.25000000  1
  Ca  Ca1  1  0.00000000  0.61752770  0.25000000  1
  Ca  Ca2  1  0.38247230  0.38247230  0.25000000  1
  Ca  Ca3  1  0.38247230  0.00000000  0.75000000  1
  Ca  Ca4  1  0.00000000  0.38247230  0.75000000  1
  Ca  Ca5  1  0.61752770  0.61752770  0.75000000  1
  Ca  Ca6  1  0.28419436  0.33333333  0.58333333  1
  Ca  Ca7  1  0.66666667  0.95086103  0.58333333  1
  Ca  Ca8  1  0.04913897  0.71580564  0.58333333  1
  Ca  Ca9  1  0.04913897  0.33333333  0.08333333  1
  Ca  Ca10  1  0.66666667  0.71580564  0.08333333  1
  Ca  Ca11  1  0.28419436  0.95086103  0.08333333  1
  Ca  Ca12  1  0.95086103  0.66666667  0.91666667  1
  Ca  Ca13  1  0.33333333  0.28419436  0.91666667  1
  Ca  Ca14  1  0.71580564  0.04913897  0.91666667  1
  Ca  Ca15  1  0.71580564  0.66666667  0.41666667  1
  Ca  Ca16  1  0.33333333  0.04913897  0.41666667  1
  Ca  Ca17  1  0.95086103  0.28419436  0.41666667  1
  F  F18  1  0.27744224  0.02912269  0.80830593  1
  F  F19  1  -0.02912269  0.24831955  0.80830593  1
  F  F20  1  -0.24831955  -0.27744224  0.80830593  1
  F  F21  1  0.02912269  0.27744224  -0.30830593  1
  F  F22  1  0.24831955  -0.02912269  -0.30830593  1
  F  F23  1  -0.27744224  -0.24831955  -0.30830593  1
  F  F24  1  -0.27744224  -0.02912269  -0.80830593  1
  F  F25  1  0.02912269  -0.24831955  -0.80830593  1
  F  F26  1  0.24831955  0.27744224  -0.80830593  1
  F  F27  1  -0.02912269  -0.27744224  1.30830593  1
  F  F28  1  -0.24831955  0.02912269  1.30830593  1
  F  F29  1  0.27744224  0.24831955  1.30830593  1
  F  F30  1  0.94410891  0.36245603  1.14163926  1
  F  F31  1  0.63754397  0.58165288  1.14163926  1
  F  F32  1  0.41834712  0.05589109  1.14163926  1
  F  F33  1  0.69578936  0.61077558  0.02502740  1
  F  F34  1  0.91498621  0.30421064  0.02502740  1
  F  F35  1  0.38922442  0.08501379  0.02502740  1
  F  F36  1  0.38922442  0.30421064  -0.47497260  1
  F  F37  1  0.69578936  0.08501379  -0.47497260  1
  F  F38  1  0.91498621  0.61077558  -0.47497260  1
  F  F39  1  0.63754397  0.05589109  1.64163926  1
  F  F40  1  0.41834712  0.36245603  1.64163926  1
  F  F41  1  0.94410891  0.58165288  1.64163926  1
  F  F42  1  0.61077558  0.69578936  1.47497260  1
  F  F43  1  0.30421064  0.91498621  1.47497260  1
  F  F44  1  0.08501379  0.38922442  1.47497260  1
  F  F45  1  0.36245603  0.94410891  0.35836074  1
  F  F46  1  0.58165288  0.63754397  0.35836074  1
  F  F47  1  0.05589109  0.41834712  0.35836074  1
  F  F48  1  0.05589109  0.63754397  -0.14163926  1
  F  F49  1  0.36245603  0.41834712  -0.14163926  1
  F  F50  1  0.58165288  0.94410891  -0.14163926  1
  F  F51  1  0.30421064  0.38922442  1.97497260  1
  F  F52  1  0.08501379  0.69578936  1.97497260  1
  F  F53  1  0.61077558  0.91498621  1.97497260  1
  F  F54  1  0.25710489  0.00000000  0.25000000  1
  F  F55  1  0.00000000  0.25710489  0.25000000  1
  F  F56  1  0.74289511  0.74289511  0.25000000  1
  F  F57  1  0.74289511  0.00000000  0.75000000  1
  F  F58  1  0.00000000  0.74289511  0.75000000  1
  F  F59  1  0.25710489  0.25710489  0.75000000  1
  F  F60  1  0.92377156  0.33333333  0.58333333  1
  F  F61  1  0.66666667  0.59043822  0.58333333  1
  F  F62  1  0.40956178  0.07622844  0.58333333  1
  F  F63  1  0.40956178  0.33333333  0.08333333  1
  F  F64  1  0.66666667  0.07622844  0.08333333  1
  F  F65  1  0.92377156  0.59043822  0.08333333  1
  F  F66  1  0.59043822  0.66666667  0.91666667  1
  F  F67  1  0.33333333  0.92377156  0.91666667  1
  F  F68  1  0.07622844  0.40956178  0.91666667  1
  F  F69  1  0.07622844  0.66666667  0.41666667  1
  F  F70  1  0.33333333  0.40956178  0.41666667  1
  F  F71  1  0.59043822  0.92377156  0.41666667  1
  Li  Li72  1  0.00000000  0.00000000  0.00000000  1
  Li  Li73  1  0.00000000  0.00000000  0.50000000  1
  Li  Li74  1  0.66666667  0.33333333  0.33333333  1
  Li  Li75  1  0.66666667  0.33333333  0.83333333  1
  Li  Li76  1  0.33333333  0.66666667  0.66666667  1
  Li  Li77  1  0.33333333  0.66666667  0.16666667  1
  Li  Li78  1  0.00000000  0.00000000  0.66808731  1
  Li  Li79  1  0.00000000  0.00000000  0.83191269  1
  Li  Li80  1  0.00000000  0.00000000  0.33191269  1
  Li  Li81  1  0.00000000  0.00000000  0.16808731  1
  Li  Li82  1  0.66666667  0.33333333  0.00142065  1
  Li  Li83  1  0.66666667  0.33333333  0.16524602  1
  Li  Li84  1  0.66666667  0.33333333  0.66524602  1
  Li  Li85  1  0.66666667  0.33333333  0.50142065  1
  Li  Li86  1  0.33333333  0.66666667  0.33475398  1
  Li  Li87  1  0.33333333  0.66666667  0.49857935  1
  Li  Li88  1  0.33333333  0.66666667  0.99857935  1
  Li  Li89  1  0.33333333  0.66666667  0.83475398  1
