# generated using pymatgen
data_Li2Y2As4P2Se
_symmetry_space_group_name_H-M   'P 1'
_cell_length_a   5.08633339
_cell_length_b   5.28639401
_cell_length_c   6.70301023
_cell_angle_alpha   93.77317675
_cell_angle_beta   97.70595081
_cell_angle_gamma   104.23488931
_symmetry_Int_Tables_number   1
_chemical_formula_structural   Li2Y2As4P2Se
_chemical_formula_sum   'Li2 Y2 As4 P2 Se1'
_cell_volume   172.20355402
_cell_formula_units_Z   1
loop_
 _symmetry_equiv_pos_site_id
 _symmetry_equiv_pos_as_xyz
  1  'x, y, z'
loop_
 _atom_site_type_symbol
 _atom_site_label
 _atom_site_symmetry_multiplicity
 _atom_site_fract_x
 _atom_site_fract_y
 _atom_site_fract_z
 _atom_site_occupancy
  Se  Se0  1  0.00000000  0.00000000  0.00000000  1
  Y  Y1  1  0.50000000  0.50000000  0.50000000  1
  Y  Y2  1  0.50000000  0.50000000  0.00000000  1
  P  P3  1  0.50000000  0.00000000  0.50000000  1
  P  P4  1  0.00000000  0.50000000  0.50000000  1
  As  As5  1  0.47609689  0.00333003  0.61118128  1
  As  As6  1  0.09980125  0.76766974  0.99129028  1
  As  As7  1  0.78589058  0.23214234  0.81105386  1
  As  As8  1  0.60298635  0.69314504  0.37298700  1
  Li  Li9  1  0.88577043  0.32979522  0.36224715  1
  Li  Li10  1  0.28870321  0.37565740  0.78594850  1
