# generated using pymatgen
data_LiF
_symmetry_space_group_name_H-M   'P 1'
_cell_length_a   7.07214154
_cell_length_b   3.59863634
_cell_length_c   6.27300601
_cell_angle_alpha   90.00000000
_cell_angle_beta   90.00000000
_cell_angle_gamma   90.00000000
_symmetry_Int_Tables_number   1
_chemical_formula_structural   LiF
_chemical_formula_sum   'Li6 F6'
_cell_volume   159.64841415
_cell_formula_units_Z   6
loop_
 _symmetry_equiv_pos_site_id
 _symmetry_equiv_pos_as_xyz
  1  'x, y, z'
loop_
 _atom_site_type_symbol
 _atom_site_label
 _atom_site_symmetry_multiplicity
 _atom_site_fract_x
 _atom_site_fract_y
 _atom_site_fract_z
 _atom_site_occupancy
  F  F0  1  0.00000000  0.50000000  0.63445010  1
  F  F1  1  0.50000000  0.00000000  -0.13445010  1
  F  F2  1  0.00000000  0.50000000  -0.63445010  1
  F  F3  1  0.50000000  0.00000000  1.13445010  1
  F  F4  1  0.00000000  0.50000000  0.50000000  1
  F  F5  1  0.50000000  0.00000000  0.00000000  1
  Li  Li6  1  0.86864650  0.24885302  -0.00000000  1
  Li  Li7  1  0.13135350  0.75114698  -0.00000000  1
  Li  Li8  1  0.63135350  0.74885302  0.50000000  1
  Li  Li9  1  0.36864650  0.25114698  0.50000000  1
  Li  Li10  1  0.00000000  0.00000000  0.00000000  1
  Li  Li11  1  0.50000000  0.50000000  0.50000000  1
