# generated using pymatgen
data_LiF
_symmetry_space_group_name_H-M   'P 1'
_cell_length_a   20.04339025
_cell_length_b   20.04339025
_cell_length_c   4.94413555
_cell_angle_alpha   90.00000000
_cell_angle_beta   90.00000000
_cell_angle_gamma   90.00000000
_symmetry_Int_Tables_number   1
_chemical_formula_structural   LiF
_chemical_formula_sum   'Li64 F64'
_cell_volume   1986.24462186
_cell_formula_units_Z   64
loop_
 _symmetry_equiv_pos_site_id
 _symmetry_equiv_pos_as_xyz
  1  'x, y, z'
loop_
 _atom_site_type_symbol
 _atom_site_label
 _atom_site_symmetry_multiplicity
 _atom_site_fract_x
 _atom_site_fract_y
 _atom_site_fract_z
 _atom_site_occupancy
  F  F0  1  0.84631593  0.91415257  0.04325019  1
  F  F1  1  -0.34631593  -0.91415257  0.54325019  1
  F  F2  1  -0.66415257  1.59631593  0.29325019  1
  F  F3  1  1.16415257  -0.59631593  0.79325019  1
  F  F4  1  -0.34631593  0.91415257  -0.04325019  1
  F  F5  1  0.84631593  -0.91415257  0.45674981  1
  F  F6  1  1.16415257  1.59631593  0.70674981  1
  F  F7  1  -0.66415257  -0.59631593  0.20674981  1
  F  F8  1  -0.84631593  -0.91415257  -0.04325019  1
  F  F9  1  1.34631593  0.91415257  0.45674981  1
  F  F10  1  1.66415257  -0.59631593  0.70674981  1
  F  F11  1  -0.16415257  1.59631593  0.20674981  1
  F  F12  1  1.34631593  -0.91415257  0.04325019  1
  F  F13  1  -0.84631593  0.91415257  0.54325019  1
  F  F14  1  -0.16415257  -0.59631593  0.29325019  1
  F  F15  1  1.66415257  1.59631593  0.79325019  1
  F  F16  1  1.34631593  1.41415257  0.54325019  1
  F  F17  1  0.15368407  -0.41415257  1.04325019  1
  F  F18  1  -0.16415257  2.09631593  0.79325019  1
  F  F19  1  1.66415257  -0.09631593  1.29325019  1
  F  F20  1  0.15368407  1.41415257  0.45674981  1
  F  F21  1  1.34631593  -0.41415257  0.95674981  1
  F  F22  1  1.66415257  2.09631593  1.20674981  1
  F  F23  1  -0.16415257  -0.09631593  0.70674981  1
  F  F24  1  -0.34631593  -0.41415257  0.45674981  1
  F  F25  1  1.84631593  1.41415257  0.95674981  1
  F  F26  1  2.16415257  -0.09631593  1.20674981  1
  F  F27  1  0.33584743  2.09631593  0.70674981  1
  F  F28  1  1.84631593  -0.41415257  0.54325019  1
  F  F29  1  -0.34631593  1.41415257  1.04325019  1
  F  F30  1  0.33584743  -0.09631593  0.79325019  1
  F  F31  1  2.16415257  2.09631593  1.29325019  1
  F  F32  1  0.00000000  0.00000000  0.00000000  1
  F  F33  1  0.50000000  0.00000000  0.50000000  1
  F  F34  1  0.25000000  0.75000000  0.25000000  1
  F  F35  1  0.25000000  0.25000000  0.75000000  1
  F  F36  1  0.50000000  0.00000000  0.00000000  1
  F  F37  1  0.00000000  0.00000000  0.50000000  1
  F  F38  1  0.25000000  0.75000000  0.75000000  1
  F  F39  1  0.25000000  0.25000000  0.25000000  1
  F  F40  1  0.50000000  0.50000000  0.50000000  1
  F  F41  1  0.00000000  0.50000000  0.00000000  1
  F  F42  1  0.75000000  0.25000000  0.75000000  1
  F  F43  1  0.75000000  0.75000000  0.25000000  1
  F  F44  1  0.00000000  0.50000000  0.50000000  1
  F  F45  1  0.50000000  0.50000000  0.00000000  1
  F  F46  1  0.75000000  0.25000000  0.25000000  1
  F  F47  1  0.75000000  0.75000000  0.75000000  1
  F  F48  1  0.00000000  0.25000000  0.37500000  1
  F  F49  1  0.00000000  0.75000000  0.62500000  1
  F  F50  1  0.50000000  0.25000000  0.62500000  1
  F  F51  1  0.50000000  0.75000000  0.37500000  1
  F  F52  1  0.50000000  0.75000000  0.87500000  1
  F  F53  1  0.50000000  0.25000000  0.12500000  1
  F  F54  1  0.00000000  0.75000000  0.12500000  1
  F  F55  1  0.00000000  0.25000000  0.87500000  1
  F  F56  1  0.00000000  0.25000000  0.12500000  1
  F  F57  1  0.00000000  0.75000000  0.37500000  1
  F  F58  1  0.00000000  0.75000000  0.87500000  1
  F  F59  1  0.00000000  0.25000000  0.62500000  1
  F  F60  1  0.50000000  0.75000000  0.62500000  1
  F  F61  1  0.50000000  0.25000000  0.87500000  1
  F  F62  1  0.50000000  0.25000000  0.37500000  1
  F  F63  1  0.50000000  0.75000000  0.12500000  1
  Li  Li64  1  0.41133168  0.10626576  0.05317010  1
  Li  Li65  1  0.08866832  0.89373424  0.55317010  1
  Li  Li66  1  0.14373424  0.16133168  0.30317010  1
  Li  Li67  1  0.35626576  0.83866832  0.80317010  1
  Li  Li68  1  0.08866832  0.10626576  0.94682990  1
  Li  Li69  1  0.41133168  0.89373424  0.44682990  1
  Li  Li70  1  0.35626576  0.16133168  0.69682990  1
  Li  Li71  1  0.14373424  0.83866832  0.19682990  1
  Li  Li72  1  0.58866832  0.89373424  0.94682990  1
  Li  Li73  1  0.91133168  0.10626576  0.44682990  1
  Li  Li74  1  0.85626576  0.83866832  0.69682990  1
  Li  Li75  1  0.64373424  0.16133168  0.19682990  1
  Li  Li76  1  0.91133168  0.89373424  0.05317010  1
  Li  Li77  1  0.58866832  0.10626576  0.55317010  1
  Li  Li78  1  0.64373424  0.83866832  0.30317010  1
  Li  Li79  1  0.85626576  0.16133168  0.80317010  1
  Li  Li80  1  0.91133168  0.60626576  0.55317010  1
  Li  Li81  1  0.58866832  0.39373424  0.05317010  1
  Li  Li82  1  0.64373424  0.66133168  0.80317010  1
  Li  Li83  1  0.85626576  0.33866832  0.30317010  1
  Li  Li84  1  0.58866832  0.60626576  0.44682990  1
  Li  Li85  1  0.91133168  0.39373424  0.94682990  1
  Li  Li86  1  0.85626576  0.66133168  0.19682990  1
  Li  Li87  1  0.64373424  0.33866832  0.69682990  1
  Li  Li88  1  0.08866832  0.39373424  0.44682990  1
  Li  Li89  1  0.41133168  0.60626576  0.94682990  1
  Li  Li90  1  0.35626576  0.33866832  0.19682990  1
  Li  Li91  1  0.14373424  0.66133168  0.69682990  1
  Li  Li92  1  0.41133168  0.39373424  0.55317010  1
  Li  Li93  1  0.08866832  0.60626576  0.05317010  1
  Li  Li94  1  0.14373424  0.33866832  0.80317010  1
  Li  Li95  1  0.35626576  0.66133168  0.30317010  1
  Li  Li96  1  0.78136465  0.68468894  0.27542113  1
  Li  Li97  1  0.71863535  0.31531106  0.77542113  1
  Li  Li98  1  0.56531106  0.53136465  0.52542113  1
  Li  Li99  1  0.93468894  0.46863535  0.02542113  1
  Li  Li100  1  0.71863535  0.68468894  0.72457887  1
  Li  Li101  1  0.78136465  0.31531106  0.22457887  1
  Li  Li102  1  0.93468894  0.53136465  0.47457887  1
  Li  Li103  1  0.56531106  0.46863535  0.97457887  1
  Li  Li104  1  0.21863535  0.31531106  0.72457887  1
  Li  Li105  1  0.28136465  0.68468894  0.22457887  1
  Li  Li106  1  0.43468894  0.46863535  0.47457887  1
  Li  Li107  1  0.06531106  0.53136465  0.97457887  1
  Li  Li108  1  0.28136465  0.31531106  0.27542113  1
  Li  Li109  1  0.21863535  0.68468894  0.77542113  1
  Li  Li110  1  0.06531106  0.46863535  0.52542113  1
  Li  Li111  1  0.43468894  0.53136465  0.02542113  1
  Li  Li112  1  0.28136465  0.18468894  0.77542113  1
  Li  Li113  1  0.21863535  0.81531106  0.27542113  1
  Li  Li114  1  0.06531106  0.03136465  0.02542113  1
  Li  Li115  1  0.43468894  0.96863535  0.52542113  1
  Li  Li116  1  0.21863535  0.18468894  0.22457887  1
  Li  Li117  1  0.28136465  0.81531106  0.72457887  1
  Li  Li118  1  0.43468894  0.03136465  0.97457887  1
  Li  Li119  1  0.06531106  0.96863535  0.47457887  1
  Li  Li120  1  0.71863535  0.81531106  0.22457887  1
  Li  Li121  1  0.78136465  0.18468894  0.72457887  1
  Li  Li122  1  0.93468894  0.96863535  0.97457887  1
  Li  Li123  1  0.56531106  0.03136465  0.47457887  1
  Li  Li124  1  0.78136465  0.81531106  0.77542113  1
  Li  Li125  1  0.71863535  0.18468894  0.27542113  1
  Li  Li126  1  0.56531106  0.96863535  0.02542113  1
  Li  Li127  1  0.93468894  0.03136465  0.52542113  1
