# generated using pymatgen
data_LiF
_symmetry_space_group_name_H-M   'P 1'
_cell_length_a   6.47888357
_cell_length_b   6.89894035
_cell_length_c   9.41964306
_cell_angle_alpha   90.00000000
_cell_angle_beta   90.00000000
_cell_angle_gamma   90.00000000
_symmetry_Int_Tables_number   1
_chemical_formula_structural   LiF
_chemical_formula_sum   'Li12 F12'
_cell_volume   421.03384842
_cell_formula_units_Z   12
loop_
 _symmetry_equiv_pos_site_id
 _symmetry_equiv_pos_as_xyz
  1  'x, y, z'
loop_
 _atom_site_type_symbol
 _atom_site_label
 _atom_site_symmetry_multiplicity
 _atom_site_fract_x
 _atom_site_fract_y
 _atom_site_fract_z
 _atom_site_occupancy
  F  F0  1  0.00000000  0.00000000  0.56609985  1
  F  F1  1  0.50000000  0.50000000  0.43390015  1
  F  F2  1  0.00000000  0.00000000  0.43390015  1
  F  F3  1  0.50000000  0.50000000  0.56609985  1
  F  F4  1  0.30253648  0.57332960  0.75909165  1
  F  F5  1  -0.30253648  -0.57332960  0.75909165  1
  F  F6  1  0.19746352  1.07332960  -0.75909165  1
  F  F7  1  0.80253648  -0.07332960  -0.75909165  1
  F  F8  1  -0.30253648  -0.57332960  -0.75909165  1
  F  F9  1  0.30253648  0.57332960  -0.75909165  1
  F  F10  1  0.80253648  -0.07332960  0.75909165  1
  F  F11  1  0.19746352  1.07332960  0.75909165  1
  Li  Li12  1  0.14463345  0.11161831  0.42915521  1
  Li  Li13  1  0.85536655  0.88838169  0.42915521  1
  Li  Li14  1  0.35536655  0.61161831  0.57084479  1
  Li  Li15  1  0.64463345  0.38838169  0.57084479  1
  Li  Li16  1  0.85536655  0.88838169  0.57084479  1
  Li  Li17  1  0.14463345  0.11161831  0.57084479  1
  Li  Li18  1  0.64463345  0.38838169  0.42915521  1
  Li  Li19  1  0.35536655  0.61161831  0.42915521  1
  Li  Li20  1  0.68602809  0.72814696  0.00000000  1
  Li  Li21  1  0.31397191  0.27185304  0.00000000  1
  Li  Li22  1  0.81397191  0.22814696  0.00000000  1
  Li  Li23  1  0.18602809  0.77185304  0.00000000  1
