# generated using pymatgen
data_LiF
_symmetry_space_group_name_H-M   'P 1'
_cell_length_a   4.47212294
_cell_length_b   4.47212294
_cell_length_c   24.93436870
_cell_angle_alpha   90.00000000
_cell_angle_beta   90.00000000
_cell_angle_gamma   120.00000000
_symmetry_Int_Tables_number   1
_chemical_formula_structural   LiF
_chemical_formula_sum   'Li26 F26'
_cell_volume   431.87342037
_cell_formula_units_Z   26
loop_
 _symmetry_equiv_pos_site_id
 _symmetry_equiv_pos_as_xyz
  1  'x, y, z'
loop_
 _atom_site_type_symbol
 _atom_site_label
 _atom_site_symmetry_multiplicity
 _atom_site_fract_x
 _atom_site_fract_y
 _atom_site_fract_z
 _atom_site_occupancy
  F  F0  1  0.85875935  0.88329977  0.98943025  1
  F  F1  1  -0.88329977  -0.02454043  0.98943025  1
  F  F2  1  0.02454043  -0.85875935  0.98943025  1
  F  F3  1  -0.85875935  -0.88329977  1.48943025  1
  F  F4  1  0.88329977  0.02454043  1.48943025  1
  F  F5  1  -0.02454043  0.85875935  1.48943025  1
  F  F6  1  -0.85875935  -0.88329977  -0.98943025  1
  F  F7  1  0.88329977  0.02454043  -0.98943025  1
  F  F8  1  -0.02454043  0.85875935  -0.98943025  1
  F  F9  1  0.85875935  0.88329977  -0.48943025  1
  F  F10  1  -0.88329977  -0.02454043  -0.48943025  1
  F  F11  1  0.02454043  -0.85875935  -0.48943025  1
  F  F12  1  0.33333333  0.66666667  0.25000000  1
  F  F13  1  0.66666667  0.33333333  0.75000000  1
  F  F14  1  0.00981376  0.73061419  0.25000000  1
  F  F15  1  0.26938581  0.27919957  0.25000000  1
  F  F16  1  0.72080043  0.99018624  0.25000000  1
  F  F17  1  0.99018624  0.26938581  0.75000000  1
  F  F18  1  0.73061419  0.72080043  0.75000000  1
  F  F19  1  0.27919957  0.00981376  0.75000000  1
  F  F20  1  0.50000000  -0.00000000  0.00000000  1
  F  F21  1  0.00000000  0.50000000  0.00000000  1
  F  F22  1  0.50000000  0.50000000  0.00000000  1
  F  F23  1  0.50000000  -0.00000000  0.50000000  1
  F  F24  1  0.00000000  0.50000000  0.50000000  1
  F  F25  1  0.50000000  0.50000000  0.50000000  1
  Li  Li26  1  0.00000000  0.00000000  0.95205882  1
  Li  Li27  1  0.00000000  0.00000000  0.45205882  1
  Li  Li28  1  0.00000000  0.00000000  0.04794118  1
  Li  Li29  1  0.00000000  0.00000000  0.54794118  1
  Li  Li30  1  0.33333333  0.66666667  0.02117745  1
  Li  Li31  1  0.66666667  0.33333333  0.52117745  1
  Li  Li32  1  0.66666667  0.33333333  0.97882255  1
  Li  Li33  1  0.33333333  0.66666667  0.47882255  1
  Li  Li34  1  0.33333333  0.66666667  0.81853694  1
  Li  Li35  1  0.66666667  0.33333333  0.31853694  1
  Li  Li36  1  0.66666667  0.33333333  0.18146306  1
  Li  Li37  1  0.33333333  0.66666667  0.68146306  1
  Li  Li38  1  0.66666667  0.33333333  0.25000000  1
  Li  Li39  1  0.33333333  0.66666667  0.75000000  1
  Li  Li40  1  0.09329423  0.54657234  0.93446152  1
  Li  Li41  1  0.45342766  0.54672189  0.93446152  1
  Li  Li42  1  0.45327811  0.90670577  0.93446152  1
  Li  Li43  1  0.90670577  0.45342766  0.43446152  1
  Li  Li44  1  0.54657234  0.45327811  0.43446152  1
  Li  Li45  1  0.54672189  0.09329423  0.43446152  1
  Li  Li46  1  0.90670577  0.45342766  0.06553848  1
  Li  Li47  1  0.54657234  0.45327811  0.06553848  1
  Li  Li48  1  0.54672189  0.09329423  0.06553848  1
  Li  Li49  1  0.09329423  0.54657234  0.56553848  1
  Li  Li50  1  0.45342766  0.54672189  0.56553848  1
  Li  Li51  1  0.45327811  0.90670577  0.56553848  1
