# generated using pymatgen
data_LiF
_symmetry_space_group_name_H-M   'P 1'
_cell_length_a   5.11365832
_cell_length_b   5.11365832
_cell_length_c   26.74832481
_cell_angle_alpha   90.00000000
_cell_angle_beta   90.00000000
_cell_angle_gamma   120.00000000
_symmetry_Int_Tables_number   1
_chemical_formula_structural   LiF
_chemical_formula_sum   'Li19 F19'
_cell_volume   605.74610742
_cell_formula_units_Z   19
loop_
 _symmetry_equiv_pos_site_id
 _symmetry_equiv_pos_as_xyz
  1  'x, y, z'
loop_
 _atom_site_type_symbol
 _atom_site_label
 _atom_site_symmetry_multiplicity
 _atom_site_fract_x
 _atom_site_fract_y
 _atom_site_fract_z
 _atom_site_occupancy
  F  F0  1  0.33333333  0.66666667  0.30750150  1
  F  F1  1  0.33333333  0.66666667  0.69249850  1
  F  F2  1  0.66666667  0.33333333  0.69249850  1
  F  F3  1  0.66666667  0.33333333  0.30750150  1
  F  F4  1  0.00000000  0.00000000  0.18148130  1
  F  F5  1  0.00000000  0.00000000  0.81851870  1
  F  F6  1  0.35613306  0.00000000  -0.00000000  1
  F  F7  1  0.00000000  0.35613306  -0.00000000  1
  F  F8  1  0.64386694  0.64386694  0.00000000  1
  F  F9  1  0.00000000  0.00000000  0.71340230  1
  F  F10  1  0.00000000  0.00000000  0.28659770  1
  F  F11  1  0.74007552  0.00000000  0.30460575  1
  F  F12  1  0.00000000  0.74007552  0.30460575  1
  F  F13  1  0.25992448  0.25992448  0.30460575  1
  F  F14  1  0.74007552  0.00000000  0.69539425  1
  F  F15  1  0.00000000  0.74007552  0.69539425  1
  F  F16  1  0.25992448  0.25992448  0.69539425  1
  F  F17  1  0.33333333  0.66666667  0.00000000  1
  F  F18  1  0.66666667  0.33333333  0.00000000  1
  Li  Li19  1  0.48015072  -0.00000000  0.50000000  1
  Li  Li20  1  0.00000000  0.48015072  0.50000000  1
  Li  Li21  1  0.51984928  0.51984928  0.50000000  1
  Li  Li22  1  0.16346450  0.00000000  0.00000000  1
  Li  Li23  1  0.00000000  0.16346450  0.00000000  1
  Li  Li24  1  0.83653550  0.83653550  0.00000000  1
  Li  Li25  1  0.81737394  0.00000000  0.54332273  1
  Li  Li26  1  0.00000000  0.81737394  0.54332273  1
  Li  Li27  1  -0.81737394  -0.81737394  0.54332273  1
  Li  Li28  1  0.81737394  0.00000000  -0.54332273  1
  Li  Li29  1  0.00000000  0.81737394  -0.54332273  1
  Li  Li30  1  -0.81737394  -0.81737394  -0.54332273  1
  Li  Li31  1  0.00000000  0.00000000  0.36993875  1
  Li  Li32  1  0.00000000  0.00000000  0.63006125  1
  Li  Li33  1  0.33333333  0.66666667  0.74364951  1
  Li  Li34  1  0.33333333  0.66666667  0.25635049  1
  Li  Li35  1  0.66666667  0.33333333  0.25635049  1
  Li  Li36  1  0.66666667  0.33333333  0.74364951  1
  Li  Li37  1  0.00000000  0.00000000  0.50000000  1
