# generated using pymatgen
data_LiF
_symmetry_space_group_name_H-M   'P 1'
_cell_length_a   16.73016675
_cell_length_b   16.73016675
_cell_length_c   8.10766253
_cell_angle_alpha   90.00000000
_cell_angle_beta   90.00000000
_cell_angle_gamma   120.00000000
_symmetry_Int_Tables_number   1
_chemical_formula_structural   LiF
_chemical_formula_sum   'Li74 F74'
_cell_volume   1965.29085832
_cell_formula_units_Z   74
loop_
 _symmetry_equiv_pos_site_id
 _symmetry_equiv_pos_as_xyz
  1  'x, y, z'
loop_
 _atom_site_type_symbol
 _atom_site_label
 _atom_site_symmetry_multiplicity
 _atom_site_fract_x
 _atom_site_fract_y
 _atom_site_fract_z
 _atom_site_occupancy
  F  F0  1  0.32829038  0.00804727  0.20360979  1
  F  F1  1  0.99195273  0.32024312  0.20360979  1
  F  F2  1  0.67975688  0.67170962  0.20360979  1
  F  F3  1  0.99195273  0.67170962  0.79639021  1
  F  F4  1  0.67975688  0.00804727  0.79639021  1
  F  F5  1  0.32829038  0.32024312  0.79639021  1
  F  F6  1  0.79247740  0.78739587  0.87837968  1
  F  F7  1  0.21260413  0.00508154  0.87837968  1
  F  F8  1  0.99491846  0.20752260  0.87837968  1
  F  F9  1  0.21260413  0.20752260  0.12162032  1
  F  F10  1  0.99491846  0.78739587  0.12162032  1
  F  F11  1  0.79247740  0.00508154  0.12162032  1
  F  F12  1  0.02991755  0.26744986  0.40146231  1
  F  F13  1  0.73255014  0.76246769  0.40146231  1
  F  F14  1  0.23753231  0.97008245  0.40146231  1
  F  F15  1  0.73255014  0.97008245  0.59853769  1
  F  F16  1  0.23753231  0.26744986  0.59853769  1
  F  F17  1  0.02991755  0.76246769  0.59853769  1
  F  F18  1  0.42523949  0.52005130  0.05499760  1
  F  F19  1  0.47994870  0.90518818  0.05499760  1
  F  F20  1  0.09481182  0.57476051  0.05499760  1
  F  F21  1  0.47994870  0.57476051  0.94500240  1
  F  F22  1  0.09481182  0.52005130  0.94500240  1
  F  F23  1  0.42523949  0.90518818  0.94500240  1
  F  F24  1  0.33333333  0.66666667  0.35123625  1
  F  F25  1  0.33333333  0.66666667  0.64876375  1
  F  F26  1  0.55052930  0.70598037  0.34862958  1
  F  F27  1  0.29401963  0.84454893  0.34862958  1
  F  F28  1  0.15545107  0.44947070  0.34862958  1
  F  F29  1  0.29401963  0.44947070  0.65137042  1
  F  F30  1  0.15545107  0.70598037  0.65137042  1
  F  F31  1  0.55052930  0.84454893  0.65137042  1
  F  F32  1  0.19209824  0.26189266  0.24031147  1
  F  F33  1  0.73810734  0.93020558  0.24031147  1
  F  F34  1  0.06979442  0.80790176  0.24031147  1
  F  F35  1  0.73810734  0.80790176  0.75968853  1
  F  F36  1  0.06979442  0.26189266  0.75968853  1
  F  F37  1  0.19209824  0.93020558  0.75968853  1
  F  F38  1  0.17511604  0.66203847  0.51504625  1
  F  F39  1  0.33796153  0.51307757  0.51504625  1
  F  F40  1  0.48692243  0.82488396  0.51504625  1
  F  F41  1  0.33796153  0.82488396  0.48495375  1
  F  F42  1  0.48692243  0.66203847  0.48495375  1
  F  F43  1  0.17511604  0.51307757  0.48495375  1
  F  F44  1  0.03393003  0.27536746  0.05776097  1
  F  F45  1  0.72463254  0.75856257  0.05776097  1
  F  F46  1  0.24143743  0.96606997  0.05776097  1
  F  F47  1  0.72463254  0.96606997  0.94223903  1
  F  F48  1  0.24143743  0.27536746  0.94223903  1
  F  F49  1  0.03393003  0.75856257  0.94223903  1
  F  F50  1  0.32623328  0.95709776  0.68527793  1
  F  F51  1  0.04290224  0.36913553  0.68527793  1
  F  F52  1  0.63086447  0.67376672  0.68527793  1
  F  F53  1  0.04290224  0.67376672  0.31472207  1
  F  F54  1  0.63086447  0.95709776  0.31472207  1
  F  F55  1  0.32623328  0.36913553  0.31472207  1
  F  F56  1  0.16001148  0.25008939  0.42329606  1
  F  F57  1  0.74991061  0.90992208  0.42329606  1
  F  F58  1  0.09007792  0.83998852  0.42329606  1
  F  F59  1  0.74991061  0.83998852  0.57670394  1
  F  F60  1  0.09007792  0.25008939  0.57670394  1
  F  F61  1  0.16001148  0.90992208  0.57670394  1
  F  F62  1  0.33333333  0.66666667  0.50000000  1
  F  F63  1  0.42519962  0.72134286  0.07146933  1
  F  F64  1  0.27865714  0.70385676  0.07146933  1
  F  F65  1  0.29614324  0.57480038  0.07146933  1
  F  F66  1  0.27865714  0.57480038  0.92853067  1
  F  F67  1  0.29614324  0.72134286  0.92853067  1
  F  F68  1  0.42519962  0.70385676  0.92853067  1
  F  F69  1  0.54482290  0.45517710  0.00000000  1
  F  F70  1  0.54482290  0.08964580  0.00000000  1
  F  F71  1  0.91035420  0.45517710  0.00000000  1
  F  F72  1  0.00000000  0.00000000  0.28208729  1
  F  F73  1  0.00000000  0.00000000  0.71791271  1
  Li  Li74  1  0.49726276  0.50273724  0.50000000  1
  Li  Li75  1  0.49726276  0.99452551  0.50000000  1
  Li  Li76  1  0.00547449  0.50273724  0.50000000  1
  Li  Li77  1  0.33333333  0.66666667  0.00000000  1
  Li  Li78  1  0.93086821  0.58664946  0.67539606  1
  Li  Li79  1  -0.58664946  0.34421875  0.67539606  1
  Li  Li80  1  -0.34421875  -0.93086821  0.67539606  1
  Li  Li81  1  -0.58664946  -0.93086821  -0.67539606  1
  Li  Li82  1  -0.34421875  0.58664946  -0.67539606  1
  Li  Li83  1  0.93086821  0.34421875  -0.67539606  1
  Li  Li84  1  0.00000000  0.00000000  0.00000000  1
  Li  Li85  1  0.99945438  0.56321197  0.07338816  1
  Li  Li86  1  0.43678803  0.43624241  0.07338816  1
  Li  Li87  1  0.56375759  0.00054562  0.07338816  1
  Li  Li88  1  0.43678803  0.00054562  0.92661184  1
  Li  Li89  1  0.56375759  0.56321197  0.92661184  1
  Li  Li90  1  0.99945438  0.43624241  0.92661184  1
  Li  Li91  1  0.42164531  0.57835469  0.00000000  1
  Li  Li92  1  0.42164531  0.84329062  0.00000000  1
  Li  Li93  1  0.15670938  0.57835469  0.00000000  1
  Li  Li94  1  0.00000000  0.00000000  0.40481317  1
  Li  Li95  1  0.00000000  0.00000000  0.59518683  1
  Li  Li96  1  0.77491859  0.37523516  0.90187477  1
  Li  Li97  1  0.62476484  0.39968343  0.90187477  1
  Li  Li98  1  0.60031657  0.22508141  0.90187477  1
  Li  Li99  1  0.62476484  0.22508141  0.09812523  1
  Li  Li100  1  0.60031657  0.37523516  0.09812523  1
  Li  Li101  1  0.77491859  0.39968343  0.09812523  1
  Li  Li102  1  0.94528998  0.54491564  0.84907700  1
  Li  Li103  1  0.45508436  0.40037435  0.84907700  1
  Li  Li104  1  0.59962565  0.05471002  0.84907700  1
  Li  Li105  1  0.45508436  0.05471002  0.15092300  1
  Li  Li106  1  0.59962565  0.54491564  0.15092300  1
  Li  Li107  1  0.94528998  0.40037435  0.15092300  1
  Li  Li108  1  0.66666667  0.33333333  0.76415439  1
  Li  Li109  1  0.66666667  0.33333333  0.23584561  1
  Li  Li110  1  0.60111993  0.94111381  0.03518417  1
  Li  Li111  1  0.05888619  0.66000612  0.03518417  1
  Li  Li112  1  0.33999388  0.39888007  0.03518417  1
  Li  Li113  1  0.05888619  0.39888007  0.96481583  1
  Li  Li114  1  0.33999388  0.94111381  0.96481583  1
  Li  Li115  1  0.60111993  0.66000612  0.96481583  1
  Li  Li116  1  0.66666667  0.33333333  0.00000000  1
  Li  Li117  1  0.78444222  0.35596344  0.61753807  1
  Li  Li118  1  0.64403656  0.42847878  0.61753807  1
  Li  Li119  1  0.57152122  0.21555778  0.61753807  1
  Li  Li120  1  0.64403656  0.21555778  0.38246193  1
  Li  Li121  1  0.57152122  0.35596344  0.38246193  1
  Li  Li122  1  0.78444222  0.42847878  0.38246193  1
  Li  Li123  1  0.90669568  0.23365005  0.04468367  1
  Li  Li124  1  0.76634995  0.67304562  0.04468367  1
  Li  Li125  1  0.32695438  0.09330432  0.04468367  1
  Li  Li126  1  0.76634995  0.09330432  0.95531633  1
  Li  Li127  1  0.32695438  0.23365005  0.95531633  1
  Li  Li128  1  0.90669568  0.67304562  0.95531633  1
  Li  Li129  1  0.97657360  0.18414976  0.22283961  1
  Li  Li130  1  0.81585024  0.79242385  0.22283961  1
  Li  Li131  1  0.20757615  0.02342640  0.22283961  1
  Li  Li132  1  0.81585024  0.02342640  0.77716039  1
  Li  Li133  1  0.20757615  0.18414976  0.77716039  1
  Li  Li134  1  0.97657360  0.79242385  0.77716039  1
  Li  Li135  1  0.59315840  0.67097130  0.22214214  1
  Li  Li136  1  0.32902870  0.92218710  0.22214214  1
  Li  Li137  1  0.07781290  0.40684160  0.22214214  1
  Li  Li138  1  0.32902870  0.40684160  0.77785786  1
  Li  Li139  1  0.07781290  0.67097130  0.77785786  1
  Li  Li140  1  0.59315840  0.92218710  0.77785786  1
  Li  Li141  1  0.89998613  0.90834659  0.01970955  1
  Li  Li142  1  0.09165341  0.99163954  0.01970955  1
  Li  Li143  1  0.00836046  0.10001387  0.01970955  1
  Li  Li144  1  0.09165341  0.10001387  0.98029045  1
  Li  Li145  1  0.00836046  0.90834659  0.98029045  1
  Li  Li146  1  0.89998613  0.99163954  0.98029045  1
  Li  Li147  1  0.66666667  0.33333333  0.50000000  1
