# generated using pymatgen
data_Li4TeF2
_symmetry_space_group_name_H-M   'P 1'
_cell_length_a   17.19389264
_cell_length_b   17.19389264
_cell_length_c   6.73115854
_cell_angle_alpha   90.00000000
_cell_angle_beta   90.00000000
_cell_angle_gamma   90.00000000
_symmetry_Int_Tables_number   1
_chemical_formula_structural   Li4TeF2
_chemical_formula_sum   'Li96 Te24 F48'
_cell_volume   1989.93202240
_cell_formula_units_Z   24
loop_
 _symmetry_equiv_pos_site_id
 _symmetry_equiv_pos_as_xyz
  1  'x, y, z'
loop_
 _atom_site_type_symbol
 _atom_site_label
 _atom_site_symmetry_multiplicity
 _atom_site_fract_x
 _atom_site_fract_y
 _atom_site_fract_z
 _atom_site_occupancy
  F  F0  1  0.97290661  0.17664256  0.01660806  1
  F  F1  1  -0.47290661  -0.17664256  0.51660806  1
  F  F2  1  0.07335744  1.72290661  0.26660806  1
  F  F3  1  0.42664256  -0.72290661  0.76660806  1
  F  F4  1  -0.47290661  0.17664256  -0.01660806  1
  F  F5  1  0.97290661  -0.17664256  0.48339194  1
  F  F6  1  0.42664256  1.72290661  0.73339194  1
  F  F7  1  0.07335744  -0.72290661  0.23339194  1
  F  F8  1  -0.97290661  -0.17664256  -0.01660806  1
  F  F9  1  1.47290661  0.17664256  0.48339194  1
  F  F10  1  0.92664256  -0.72290661  0.73339194  1
  F  F11  1  0.57335744  1.72290661  0.23339194  1
  F  F12  1  1.47290661  -0.17664256  0.01660806  1
  F  F13  1  -0.97290661  0.17664256  0.51660806  1
  F  F14  1  0.57335744  -0.72290661  0.26660806  1
  F  F15  1  0.92664256  1.72290661  0.76660806  1
  F  F16  1  1.47290661  0.67664256  0.51660806  1
  F  F17  1  0.02709339  0.32335744  1.01660806  1
  F  F18  1  0.57335744  2.22290661  0.76660806  1
  F  F19  1  0.92664256  -0.22290661  1.26660806  1
  F  F20  1  0.02709339  0.67664256  0.48339194  1
  F  F21  1  1.47290661  0.32335744  0.98339194  1
  F  F22  1  0.92664256  2.22290661  1.23339194  1
  F  F23  1  0.57335744  -0.22290661  0.73339194  1
  F  F24  1  -0.47290661  0.32335744  0.48339194  1
  F  F25  1  1.97290661  0.67664256  0.98339194  1
  F  F26  1  1.42664256  -0.22290661  1.23339194  1
  F  F27  1  1.07335744  2.22290661  0.73339194  1
  F  F28  1  1.97290661  0.32335744  0.51660806  1
  F  F29  1  -0.47290661  0.67664256  1.01660806  1
  F  F30  1  1.07335744  -0.22290661  0.76660806  1
  F  F31  1  1.42664256  2.22290661  1.26660806  1
  F  F32  1  0.00000000  0.25000000  0.58055766  1
  F  F33  1  0.00000000  0.75000000  0.83055766  1
  F  F34  1  0.50000000  0.25000000  0.41944234  1
  F  F35  1  0.50000000  0.75000000  0.16944234  1
  F  F36  1  0.00000000  0.75000000  0.41944234  1
  F  F37  1  0.00000000  0.25000000  0.16944234  1
  F  F38  1  0.50000000  0.75000000  0.58055766  1
  F  F39  1  0.50000000  0.25000000  0.83055766  1
  F  F40  1  0.50000000  0.75000000  0.08055766  1
  F  F41  1  0.50000000  0.25000000  0.33055766  1
  F  F42  1  0.00000000  0.75000000  0.91944234  1
  F  F43  1  0.00000000  0.25000000  0.66944234  1
  F  F44  1  0.50000000  0.25000000  0.91944234  1
  F  F45  1  0.50000000  0.75000000  0.66944234  1
  F  F46  1  0.00000000  0.25000000  0.08055766  1
  F  F47  1  0.00000000  0.75000000  0.33055766  1
  Li  Li48  1  0.62672198  0.87796148  0.27286569  1
  Li  Li49  1  0.87327802  0.12203852  0.77286569  1
  Li  Li50  1  0.37203852  0.37672198  0.52286569  1
  Li  Li51  1  0.12796148  0.62327802  0.02286569  1
  Li  Li52  1  0.87327802  0.87796148  0.72713431  1
  Li  Li53  1  0.62672198  0.12203852  0.22713431  1
  Li  Li54  1  0.12796148  0.37672198  0.47713431  1
  Li  Li55  1  0.37203852  0.62327802  0.97713431  1
  Li  Li56  1  0.37327802  0.12203852  0.72713431  1
  Li  Li57  1  0.12672198  0.87796148  0.22713431  1
  Li  Li58  1  0.62796148  0.62327802  0.47713431  1
  Li  Li59  1  0.87203852  0.37672198  0.97713431  1
  Li  Li60  1  0.12672198  0.12203852  0.27286569  1
  Li  Li61  1  0.37327802  0.87796148  0.77286569  1
  Li  Li62  1  0.87203852  0.62327802  0.52286569  1
  Li  Li63  1  0.62796148  0.37672198  0.02286569  1
  Li  Li64  1  0.12672198  0.37796148  0.77286569  1
  Li  Li65  1  0.37327802  0.62203852  0.27286569  1
  Li  Li66  1  0.87203852  0.87672198  0.02286569  1
  Li  Li67  1  0.62796148  0.12327802  0.52286569  1
  Li  Li68  1  0.37327802  0.37796148  0.22713431  1
  Li  Li69  1  0.12672198  0.62203852  0.72713431  1
  Li  Li70  1  0.62796148  0.87672198  0.97713431  1
  Li  Li71  1  0.87203852  0.12327802  0.47713431  1
  Li  Li72  1  0.87327802  0.62203852  0.22713431  1
  Li  Li73  1  0.62672198  0.37796148  0.72713431  1
  Li  Li74  1  0.12796148  0.12327802  0.97713431  1
  Li  Li75  1  0.37203852  0.87672198  0.47713431  1
  Li  Li76  1  0.62672198  0.62203852  0.77286569  1
  Li  Li77  1  0.87327802  0.37796148  0.27286569  1
  Li  Li78  1  0.37203852  0.12327802  0.02286569  1
  Li  Li79  1  0.12796148  0.87672198  0.52286569  1
  Li  Li80  1  0.71148770  0.87493446  0.66581107  1
  Li  Li81  1  0.78851230  0.12506554  0.16581107  1
  Li  Li82  1  0.37506554  0.46148770  0.91581107  1
  Li  Li83  1  0.12493446  0.53851230  0.41581107  1
  Li  Li84  1  0.78851230  0.87493446  0.33418893  1
  Li  Li85  1  0.71148770  0.12506554  0.83418893  1
  Li  Li86  1  0.12493446  0.46148770  0.08418893  1
  Li  Li87  1  0.37506554  0.53851230  0.58418893  1
  Li  Li88  1  0.28851230  0.12506554  0.33418893  1
  Li  Li89  1  0.21148770  0.87493446  0.83418893  1
  Li  Li90  1  0.62493446  0.53851230  0.08418893  1
  Li  Li91  1  0.87506554  0.46148770  0.58418893  1
  Li  Li92  1  0.21148770  0.12506554  0.66581107  1
  Li  Li93  1  0.28851230  0.87493446  0.16581107  1
  Li  Li94  1  0.87506554  0.53851230  0.91581107  1
  Li  Li95  1  0.62493446  0.46148770  0.41581107  1
  Li  Li96  1  0.21148770  0.37493446  0.16581107  1
  Li  Li97  1  0.28851230  0.62506554  0.66581107  1
  Li  Li98  1  0.87506554  0.96148770  0.41581107  1
  Li  Li99  1  0.62493446  0.03851230  0.91581107  1
  Li  Li100  1  0.28851230  0.37493446  0.83418893  1
  Li  Li101  1  0.21148770  0.62506554  0.33418893  1
  Li  Li102  1  0.62493446  0.96148770  0.58418893  1
  Li  Li103  1  0.87506554  0.03851230  0.08418893  1
  Li  Li104  1  0.78851230  0.62506554  0.83418893  1
  Li  Li105  1  0.71148770  0.37493446  0.33418893  1
  Li  Li106  1  0.12493446  0.03851230  0.58418893  1
  Li  Li107  1  0.37506554  0.96148770  0.08418893  1
  Li  Li108  1  0.71148770  0.62506554  0.16581107  1
  Li  Li109  1  0.78851230  0.37493446  0.66581107  1
  Li  Li110  1  0.37506554  0.03851230  0.41581107  1
  Li  Li111  1  0.12493446  0.96148770  0.91581107  1
  Li  Li112  1  0.83192045  0.14859854  0.31314666  1
  Li  Li113  1  0.66807955  0.85140146  0.81314666  1
  Li  Li114  1  0.10140146  0.58192045  0.56314666  1
  Li  Li115  1  0.39859854  0.41807955  0.06314666  1
  Li  Li116  1  0.66807955  0.14859854  0.68685334  1
  Li  Li117  1  0.83192045  0.85140146  0.18685334  1
  Li  Li118  1  0.39859854  0.58192045  0.43685334  1
  Li  Li119  1  0.10140146  0.41807955  0.93685334  1
  Li  Li120  1  0.16807955  0.85140146  0.68685334  1
  Li  Li121  1  0.33192045  0.14859854  0.18685334  1
  Li  Li122  1  0.89859854  0.41807955  0.43685334  1
  Li  Li123  1  0.60140146  0.58192045  0.93685334  1
  Li  Li124  1  0.33192045  0.85140146  0.31314666  1
  Li  Li125  1  0.16807955  0.14859854  0.81314666  1
  Li  Li126  1  0.60140146  0.41807955  0.56314666  1
  Li  Li127  1  0.89859854  0.58192045  0.06314666  1
  Li  Li128  1  0.33192045  0.64859854  0.81314666  1
  Li  Li129  1  0.16807955  0.35140146  0.31314666  1
  Li  Li130  1  0.60140146  0.08192045  0.06314666  1
  Li  Li131  1  0.89859854  0.91807955  0.56314666  1
  Li  Li132  1  0.16807955  0.64859854  0.18685334  1
  Li  Li133  1  0.33192045  0.35140146  0.68685334  1
  Li  Li134  1  0.89859854  0.08192045  0.93685334  1
  Li  Li135  1  0.60140146  0.91807955  0.43685334  1
  Li  Li136  1  0.66807955  0.35140146  0.18685334  1
  Li  Li137  1  0.83192045  0.64859854  0.68685334  1
  Li  Li138  1  0.39859854  0.91807955  0.93685334  1
  Li  Li139  1  0.10140146  0.08192045  0.43685334  1
  Li  Li140  1  0.83192045  0.35140146  0.81314666  1
  Li  Li141  1  0.66807955  0.64859854  0.31314666  1
  Li  Li142  1  0.10140146  0.91807955  0.06314666  1
  Li  Li143  1  0.39859854  0.08192045  0.56314666  1
  Te  Te144  1  0.81514074  -0.00000000  0.25000000  1
  Te  Te145  1  0.68485926  0.00000000  0.75000000  1
  Te  Te146  1  0.25000000  0.56514074  0.50000000  1
  Te  Te147  1  0.25000000  0.43485926  -0.00000000  1
  Te  Te148  1  0.18485926  -0.00000000  0.75000000  1
  Te  Te149  1  0.31514074  -0.00000000  0.25000000  1
  Te  Te150  1  0.75000000  0.43485926  0.50000000  1
  Te  Te151  1  0.75000000  0.56514074  -0.00000000  1
  Te  Te152  1  0.31514074  0.50000000  0.75000000  1
  Te  Te153  1  0.18485926  0.50000000  0.25000000  1
  Te  Te154  1  0.75000000  0.06514074  -0.00000000  1
  Te  Te155  1  0.75000000  0.93485926  0.50000000  1
  Te  Te156  1  0.68485926  0.50000000  0.25000000  1
  Te  Te157  1  0.81514074  0.50000000  0.75000000  1
  Te  Te158  1  0.25000000  0.93485926  -0.00000000  1
  Te  Te159  1  0.25000000  0.06514074  0.50000000  1
  Te  Te160  1  0.00000000  0.25000000  0.37500000  1
  Te  Te161  1  0.00000000  0.75000000  0.62500000  1
  Te  Te162  1  0.50000000  0.25000000  0.62500000  1
  Te  Te163  1  0.50000000  0.75000000  0.37500000  1
  Te  Te164  1  0.50000000  0.75000000  0.87500000  1
  Te  Te165  1  0.50000000  0.25000000  0.12500000  1
  Te  Te166  1  0.00000000  0.75000000  0.12500000  1
  Te  Te167  1  0.00000000  0.25000000  0.87500000  1
