# generated using pymatgen
data_Li2YAsP3Se2
_symmetry_space_group_name_H-M   'P 1'
_cell_length_a   4.86782474
_cell_length_b   5.08813318
_cell_length_c   7.15280527
_cell_angle_alpha   95.51160860
_cell_angle_beta   101.68132528
_cell_angle_gamma   110.57403721
_symmetry_Int_Tables_number   1
_chemical_formula_structural   Li2YAsP3Se2
_chemical_formula_sum   'Li2 Y1 As1 P3 Se2'
_cell_volume   159.70314064
_cell_formula_units_Z   1
loop_
 _symmetry_equiv_pos_site_id
 _symmetry_equiv_pos_as_xyz
  1  'x, y, z'
loop_
 _atom_site_type_symbol
 _atom_site_label
 _atom_site_symmetry_multiplicity
 _atom_site_fract_x
 _atom_site_fract_y
 _atom_site_fract_z
 _atom_site_occupancy
  Se  Se0  1  0.12500000  0.00000000  0.25000000  1
  Se  Se1  1  0.00000000  0.00000000  0.00000000  1
  P  P2  1  0.37500000  0.00000000  0.25000000  1
  P  P3  1  0.25000000  0.25000000  0.25000000  1
  P  P4  1  0.00000000  0.25000000  0.12500000  1
  As  As5  1  0.12919333  0.89821498  0.43539503  1
  Li  Li6  1  0.76168371  0.84332427  0.53143500  1
  Li  Li7  1  0.69728748  0.79567476  0.12667431  1
  Y  Y8  1  0.28259880  0.51315529  0.01820242  1
