# generated using pymatgen
data_Li2Y2Mo2P4Se
_symmetry_space_group_name_H-M   'P 1'
_cell_length_a   4.22147150
_cell_length_b   4.59801742
_cell_length_c   6.13545717
_cell_angle_alpha   93.40552318
_cell_angle_beta   98.92587928
_cell_angle_gamma   105.50109635
_symmetry_Int_Tables_number   1
_chemical_formula_structural   Li2Y2Mo2P4Se
_chemical_formula_sum   'Li2 Y2 Mo2 P4 Se1'
_cell_volume   112.73177260
_cell_formula_units_Z   1
loop_
 _symmetry_equiv_pos_site_id
 _symmetry_equiv_pos_as_xyz
  1  'x, y, z'
loop_
 _atom_site_type_symbol
 _atom_site_label
 _atom_site_symmetry_multiplicity
 _atom_site_fract_x
 _atom_site_fract_y
 _atom_site_fract_z
 _atom_site_occupancy
  P  P0  1  0.12500000  0.00000000  0.25000000  1
  P  P1  1  0.00000000  0.00000000  0.00000000  1
  P  P2  1  0.37500000  0.00000000  0.25000000  1
  P  P3  1  0.25000000  0.25000000  0.25000000  1
  Mo  Mo4  1  0.00000000  0.25000000  0.12500000  1
  Mo  Mo5  1  0.10935470  0.63282814  0.52974394  1
  Se  Se6  1  0.24142281  0.17963033  0.33969879  1
  Li  Li7  1  0.18332920  0.51661195  0.55638689  1
  Li  Li8  1  0.97073168  0.69567129  0.60461276  1
  Y  Y9  1  0.26268715  0.65092231  0.11066389  1
  Y  Y10  1  0.57397557  0.30457243  0.71293247  1
