# generated using pymatgen
data_LiF
_symmetry_space_group_name_H-M   'P 1'
_cell_length_a   7.14351765
_cell_length_b   7.14351765
_cell_length_c   10.18804897
_cell_angle_alpha   90.00000000
_cell_angle_beta   90.00000000
_cell_angle_gamma   120.00000000
_symmetry_Int_Tables_number   1
_chemical_formula_structural   LiF
_chemical_formula_sum   'Li23 F23'
_cell_volume   450.24189059
_cell_formula_units_Z   23
loop_
 _symmetry_equiv_pos_site_id
 _symmetry_equiv_pos_as_xyz
  1  'x, y, z'
loop_
 _atom_site_type_symbol
 _atom_site_label
 _atom_site_symmetry_multiplicity
 _atom_site_fract_x
 _atom_site_fract_y
 _atom_site_fract_z
 _atom_site_occupancy
  F  F0  1  0.49772424  0.30883741  0.25517799  1
  F  F1  1  -0.30883741  0.18888683  0.25517799  1
  F  F2  1  -0.18888683  -0.49772424  0.25517799  1
  F  F3  1  0.49772424  0.30883741  -0.25517799  1
  F  F4  1  -0.30883741  0.18888683  -0.25517799  1
  F  F5  1  -0.18888683  -0.49772424  -0.25517799  1
  F  F6  1  0.30883741  0.49772424  -0.25517799  1
  F  F7  1  0.18888683  -0.30883741  -0.25517799  1
  F  F8  1  -0.49772424  -0.18888683  -0.25517799  1
  F  F9  1  0.30883741  0.49772424  0.25517799  1
  F  F10  1  0.18888683  -0.30883741  0.25517799  1
  F  F11  1  -0.49772424  -0.18888683  0.25517799  1
  F  F12  1  0.00000000  0.00000000  0.67680721  1
  F  F13  1  0.00000000  0.00000000  0.32319279  1
  F  F14  1  0.21502841  0.00000000  0.82348287  1
  F  F15  1  0.00000000  0.21502841  0.82348287  1
  F  F16  1  0.78497159  0.78497159  0.82348287  1
  F  F17  1  0.21502841  0.00000000  0.17651713  1
  F  F18  1  0.00000000  0.21502841  0.17651713  1
  F  F19  1  0.78497159  0.78497159  0.17651713  1
  F  F20  1  0.37176092  -0.00000000  0.00000000  1
  F  F21  1  0.00000000  0.37176092  0.00000000  1
  F  F22  1  0.62823908  0.62823908  0.00000000  1
  Li  Li23  1  0.87783888  -0.00000000  0.62087275  1
  Li  Li24  1  0.00000000  0.87783888  0.62087275  1
  Li  Li25  1  0.12216112  0.12216112  0.62087275  1
  Li  Li26  1  0.87783888  -0.00000000  0.37912725  1
  Li  Li27  1  0.00000000  0.87783888  0.37912725  1
  Li  Li28  1  0.12216112  0.12216112  0.37912725  1
  Li  Li29  1  0.13030235  0.88809042  0.50000000  1
  Li  Li30  1  0.11190958  0.24221193  0.50000000  1
  Li  Li31  1  0.75778807  0.86969765  0.50000000  1
  Li  Li32  1  0.88809042  0.13030235  0.50000000  1
  Li  Li33  1  0.24221193  0.11190958  0.50000000  1
  Li  Li34  1  0.86969765  0.75778807  0.50000000  1
  Li  Li35  1  0.00000000  0.00000000  0.50000000  1
  Li  Li36  1  0.33333333  0.66666667  0.50000000  1
  Li  Li37  1  0.66666667  0.33333333  0.50000000  1
  Li  Li38  1  0.00000000  0.00000000  0.00000000  1
  Li  Li39  1  0.68337037  0.00000000  0.00000000  1
  Li  Li40  1  0.00000000  0.68337037  0.00000000  1
  Li  Li41  1  0.31662963  0.31662963  0.00000000  1
  Li  Li42  1  0.33333333  0.66666667  0.17447413  1
  Li  Li43  1  0.33333333  0.66666667  0.82552587  1
  Li  Li44  1  0.66666667  0.33333333  0.82552587  1
  Li  Li45  1  0.66666667  0.33333333  0.17447413  1
