# generated using pymatgen
data_Li6Ca(SiS3)4
_symmetry_space_group_name_H-M   'P 1'
_cell_length_a   26.43373188
_cell_length_b   26.43373188
_cell_length_c   8.09913432
_cell_angle_alpha   90.00000000
_cell_angle_beta   90.00000000
_cell_angle_gamma   120.00000000
_symmetry_Int_Tables_number   1
_chemical_formula_structural   Li6Ca(SiS3)4
_chemical_formula_sum   'Li48 Ca8 Si32 S96'
_cell_volume   4901.01683407
_cell_formula_units_Z   8
loop_
 _symmetry_equiv_pos_site_id
 _symmetry_equiv_pos_as_xyz
  1  'x, y, z'
loop_
 _atom_site_type_symbol
 _atom_site_label
 _atom_site_symmetry_multiplicity
 _atom_site_fract_x
 _atom_site_fract_y
 _atom_site_fract_z
 _atom_site_occupancy
  Ca  Ca0  1  0.33333333  0.66666667  0.50000000  1
  Ca  Ca1  1  0.66666667  0.33333333  0.50000000  1
  Ca  Ca2  1  0.33333333  0.66666667  0.00000000  1
  Ca  Ca3  1  0.66666667  0.33333333  0.00000000  1
  Ca  Ca4  1  0.00000000  0.00000000  0.50000000  1
  Ca  Ca5  1  0.27885890  -0.00000000  0.00000000  1
  Ca  Ca6  1  0.00000000  0.27885890  0.00000000  1
  Ca  Ca7  1  0.72114110  0.72114110  0.00000000  1
  Li  Li8  1  0.92535224  0.07166589  0.18013534  1
  Li  Li9  1  0.92833411  0.85368635  0.18013534  1
  Li  Li10  1  0.14631365  0.07464776  0.18013534  1
  Li  Li11  1  0.92535224  0.07166589  0.81986466  1
  Li  Li12  1  0.92833411  0.85368635  0.81986466  1
  Li  Li13  1  0.14631365  0.07464776  0.81986466  1
  Li  Li14  1  0.07166589  0.92535224  0.81986466  1
  Li  Li15  1  0.85368635  0.92833411  0.81986466  1
  Li  Li16  1  0.07464776  0.14631365  0.81986466  1
  Li  Li17  1  0.07166589  0.92535224  0.18013534  1
  Li  Li18  1  0.85368635  0.92833411  0.18013534  1
  Li  Li19  1  0.07464776  0.14631365  0.18013534  1
  Li  Li20  1  0.08274177  0.41688742  0.78600369  1
  Li  Li21  1  0.58311258  0.66585435  0.78600369  1
  Li  Li22  1  0.33414565  0.91725823  0.78600369  1
  Li  Li23  1  0.08274177  0.41688742  0.21399631  1
  Li  Li24  1  0.58311258  0.66585435  0.21399631  1
  Li  Li25  1  0.33414565  0.91725823  0.21399631  1
  Li  Li26  1  0.41688742  0.08274177  0.21399631  1
  Li  Li27  1  0.66585435  0.58311258  0.21399631  1
  Li  Li28  1  0.91725823  0.33414565  0.21399631  1
  Li  Li29  1  0.41688742  0.08274177  0.78600369  1
  Li  Li30  1  0.66585435  0.58311258  0.78600369  1
  Li  Li31  1  0.91725823  0.33414565  0.78600369  1
  Li  Li32  1  0.52782391  0.00000000  -0.00000000  1
  Li  Li33  1  0.00000000  0.52782391  0.00000000  1
  Li  Li34  1  0.47217609  0.47217609  0.00000000  1
  Li  Li35  1  0.16442858  0.22813870  0.62518622  1
  Li  Li36  1  0.77186130  0.93628988  0.62518622  1
  Li  Li37  1  0.06371012  0.83557142  0.62518622  1
  Li  Li38  1  0.16442858  0.22813870  0.37481378  1
  Li  Li39  1  0.77186130  0.93628988  0.37481378  1
  Li  Li40  1  0.06371012  0.83557142  0.37481378  1
  Li  Li41  1  0.22813870  0.16442858  0.37481378  1
  Li  Li42  1  0.93628988  0.77186130  0.37481378  1
  Li  Li43  1  0.83557142  0.06371012  0.37481378  1
  Li  Li44  1  0.22813870  0.16442858  0.62518622  1
  Li  Li45  1  0.93628988  0.77186130  0.62518622  1
  Li  Li46  1  0.83557142  0.06371012  0.62518622  1
  Li  Li47  1  0.87051704  0.83938334  0.00000000  1
  Li  Li48  1  0.16061666  0.03113370  0.00000000  1
  Li  Li49  1  0.96886630  0.12948296  0.00000000  1
  Li  Li50  1  0.83938334  0.87051704  0.00000000  1
  Li  Li51  1  0.03113370  0.16061666  0.00000000  1
  Li  Li52  1  0.12948296  0.96886630  0.00000000  1
  Li  Li53  1  0.73153343  0.00000000  0.50000000  1
  Li  Li54  1  0.00000000  0.73153343  0.50000000  1
  Li  Li55  1  0.26846657  0.26846657  0.50000000  1
  S  S56  1  0.19644624  0.46333324  0.29874128  1
  S  S57  1  0.53666676  0.73311300  0.29874128  1
  S  S58  1  0.26688700  0.80355376  0.29874128  1
  S  S59  1  0.19644624  0.46333324  0.70125872  1
  S  S60  1  0.53666676  0.73311300  0.70125872  1
  S  S61  1  0.26688700  0.80355376  0.70125872  1
  S  S62  1  0.46333324  0.19644624  0.70125872  1
  S  S63  1  0.73311300  0.53666676  0.70125872  1
  S  S64  1  0.80355376  0.26688700  0.70125872  1
  S  S65  1  0.46333324  0.19644624  0.29874128  1
  S  S66  1  0.73311300  0.53666676  0.29874128  1
  S  S67  1  0.80355376  0.26688700  0.29874128  1
  S  S68  1  0.33146514  0.40559322  0.40485080  1
  S  S69  1  0.59440678  0.92587192  0.40485080  1
  S  S70  1  0.07412808  0.66853486  0.40485080  1
  S  S71  1  0.33146514  0.40559322  0.59514920  1
  S  S72  1  0.59440678  0.92587192  0.59514920  1
  S  S73  1  0.07412808  0.66853486  0.59514920  1
  S  S74  1  0.40559322  0.33146514  0.59514920  1
  S  S75  1  0.92587192  0.59440678  0.59514920  1
  S  S76  1  0.66853486  0.07412808  0.59514920  1
  S  S77  1  0.40559322  0.33146514  0.40485080  1
  S  S78  1  0.92587192  0.59440678  0.40485080  1
  S  S79  1  0.66853486  0.07412808  0.40485080  1
  S  S80  1  0.68584212  0.14041181  0.00000000  1
  S  S81  1  0.85958819  0.54543031  0.00000000  1
  S  S82  1  0.45456969  0.31415788  0.00000000  1
  S  S83  1  0.14041181  0.68584212  0.00000000  1
  S  S84  1  0.54543031  0.85958819  0.00000000  1
  S  S85  1  0.31415788  0.45456969  0.00000000  1
  S  S86  1  0.55227444  0.17912675  0.58022357  1
  S  S87  1  0.82087325  0.37314769  0.58022357  1
  S  S88  1  0.62685231  0.44772556  0.58022357  1
  S  S89  1  0.55227444  0.17912675  0.41977643  1
  S  S90  1  0.82087325  0.37314769  0.41977643  1
  S  S91  1  0.62685231  0.44772556  0.41977643  1
  S  S92  1  0.17912675  0.55227444  0.41977643  1
  S  S93  1  0.37314769  0.82087325  0.41977643  1
  S  S94  1  0.44772556  0.62685231  0.41977643  1
  S  S95  1  0.17912675  0.55227444  0.58022357  1
  S  S96  1  0.37314769  0.82087325  0.58022357  1
  S  S97  1  0.44772556  0.62685231  0.58022357  1
  S  S98  1  0.41635088  0.24101088  0.74497856  1
  S  S99  1  0.75898912  0.17534001  0.74497856  1
  S  S100  1  0.82465999  0.58364912  0.74497856  1
  S  S101  1  0.41635088  0.24101088  0.25502144  1
  S  S102  1  0.75898912  0.17534001  0.25502144  1
  S  S103  1  0.82465999  0.58364912  0.25502144  1
  S  S104  1  0.24101088  0.41635088  0.25502144  1
  S  S105  1  0.17534001  0.75898912  0.25502144  1
  S  S106  1  0.58364912  0.82465999  0.25502144  1
  S  S107  1  0.24101088  0.41635088  0.74497856  1
  S  S108  1  0.17534001  0.75898912  0.74497856  1
  S  S109  1  0.58364912  0.82465999  0.74497856  1
  S  S110  1  0.62811995  0.42545751  0.14811451  1
  S  S111  1  0.57454249  0.20266243  0.14811451  1
  S  S112  1  0.79733757  0.37188005  0.14811451  1
  S  S113  1  0.62811995  0.42545751  0.85188549  1
  S  S114  1  0.57454249  0.20266243  0.85188549  1
  S  S115  1  0.79733757  0.37188005  0.85188549  1
  S  S116  1  0.42545751  0.62811995  0.85188549  1
  S  S117  1  0.20266243  0.57454249  0.85188549  1
  S  S118  1  0.37188005  0.79733757  0.85188549  1
  S  S119  1  0.42545751  0.62811995  0.14811451  1
  S  S120  1  0.20266243  0.57454249  0.14811451  1
  S  S121  1  0.37188005  0.79733757  0.14811451  1
  S  S122  1  0.27526075  0.10485717  0.00000000  1
  S  S123  1  0.89514283  0.17040358  0.00000000  1
  S  S124  1  0.82959642  0.72473925  0.00000000  1
  S  S125  1  0.10485717  0.27526075  0.00000000  1
  S  S126  1  0.17040358  0.89514283  0.00000000  1
  S  S127  1  0.72473925  0.82959642  0.00000000  1
  S  S128  1  0.69226608  0.22099822  0.24251187  1
  S  S129  1  0.77900178  0.47126785  0.24251187  1
  S  S130  1  0.52873215  0.30773392  0.24251187  1
  S  S131  1  0.69226608  0.22099822  0.75748813  1
  S  S132  1  0.77900178  0.47126785  0.75748813  1
  S  S133  1  0.52873215  0.30773392  0.75748813  1
  S  S134  1  0.22099822  0.69226608  0.75748813  1
  S  S135  1  0.47126785  0.77900178  0.75748813  1
  S  S136  1  0.30773392  0.52873215  0.75748813  1
  S  S137  1  0.22099822  0.69226608  0.24251187  1
  S  S138  1  0.47126785  0.77900178  0.24251187  1
  S  S139  1  0.30773392  0.52873215  0.24251187  1
  S  S140  1  0.07124739  0.93186982  0.00000000  1
  S  S141  1  0.06813018  0.13937757  0.00000000  1
  S  S142  1  0.86062243  0.92875261  0.00000000  1
  S  S143  1  0.93186982  0.07124739  0.00000000  1
  S  S144  1  0.13937757  0.06813018  0.00000000  1
  S  S145  1  0.92875261  0.86062243  0.00000000  1
  S  S146  1  0.48072936  -0.00000000  0.15462187  1
  S  S147  1  0.00000000  0.48072936  0.15462187  1
  S  S148  1  0.51927064  0.51927064  0.15462187  1
  S  S149  1  0.48072936  -0.00000000  0.84537813  1
  S  S150  1  0.00000000  0.48072936  0.84537813  1
  S  S151  1  0.51927064  0.51927064  0.84537813  1
  Si  Si152  1  0.33333333  0.66666667  0.19954466  1
  Si  Si153  1  0.33333333  0.66666667  0.80045534  1
  Si  Si154  1  0.66666667  0.33333333  0.80045534  1
  Si  Si155  1  0.66666667  0.33333333  0.19954466  1
  Si  Si156  1  0.35575405  0.85651594  0.00000000  1
  Si  Si157  1  0.14348406  0.49923811  0.00000000  1
  Si  Si158  1  0.50076189  0.64424595  0.00000000  1
  Si  Si159  1  0.85651594  0.35575405  0.00000000  1
  Si  Si160  1  0.49923811  0.14348406  0.00000000  1
  Si  Si161  1  0.64424595  0.50076189  0.00000000  1
  Si  Si162  1  0.79828072  0.28227291  0.14673534  1
  Si  Si163  1  -0.28227291  0.51600781  0.14673534  1
  Si  Si164  1  -0.51600781  -0.79828072  0.14673534  1
  Si  Si165  1  0.79828072  0.28227291  -0.14673534  1
  Si  Si166  1  -0.28227291  0.51600781  -0.14673534  1
  Si  Si167  1  -0.51600781  -0.79828072  -0.14673534  1
  Si  Si168  1  0.28227291  0.79828072  -0.14673534  1
  Si  Si169  1  0.51600781  -0.28227291  -0.14673534  1
  Si  Si170  1  -0.79828072  -0.51600781  -0.14673534  1
  Si  Si171  1  0.28227291  0.79828072  0.14673534  1
  Si  Si172  1  0.51600781  -0.28227291  0.14673534  1
  Si  Si173  1  -0.79828072  -0.51600781  0.14673534  1
  Si  Si174  1  0.00000000  0.00000000  0.06942035  1
  Si  Si175  1  0.00000000  0.00000000  0.93057965  1
  Si  Si176  1  0.93854093  -0.00000000  0.32520438  1
  Si  Si177  1  0.00000000  0.93854093  0.32520438  1
  Si  Si178  1  0.06145907  0.06145907  0.32520438  1
  Si  Si179  1  0.93854093  -0.00000000  0.67479562  1
  Si  Si180  1  0.00000000  0.93854093  0.67479562  1
  Si  Si181  1  0.06145907  0.06145907  0.67479562  1
  Si  Si182  1  0.00000000  0.00000000  0.25464201  1
  Si  Si183  1  0.00000000  0.00000000  0.74535799  1
