# generated using pymatgen
data_Li2YScF
_symmetry_space_group_name_H-M   'P 1'
_cell_length_a   3.16255992
_cell_length_b   3.06455688
_cell_length_c   5.65271875
_cell_angle_alpha   107.42225831
_cell_angle_beta   105.25964364
_cell_angle_gamma   108.93702088
_symmetry_Int_Tables_number   1
_chemical_formula_structural   Li2YScF
_chemical_formula_sum   'Li2 Y1 Sc1 F1'
_cell_volume   45.33014617
_cell_formula_units_Z   1
loop_
 _symmetry_equiv_pos_site_id
 _symmetry_equiv_pos_as_xyz
  1  'x, y, z'
loop_
 _atom_site_type_symbol
 _atom_site_label
 _atom_site_symmetry_multiplicity
 _atom_site_fract_x
 _atom_site_fract_y
 _atom_site_fract_z
 _atom_site_occupancy
  F  F0  1  0.12500000  0.12500000  0.12500000  1
  Li  Li1  1  0.50000000  0.50000000  0.50000000  1
  Li  Li2  1  0.25000000  0.25000000  0.25000000  1
  Sc  Sc3  1  0.75000000  0.75000000  0.75000000  1
  Y  Y4  1  0.40863246  0.67483461  0.58919385  1
