# generated using pymatgen
data_Li6TeS2
_symmetry_space_group_name_H-M   'P 1'
_cell_length_a   7.74414558
_cell_length_b   10.06302297
_cell_length_c   7.19254868
_cell_angle_alpha   90.00000000
_cell_angle_beta   90.00000000
_cell_angle_gamma   90.00000000
_symmetry_Int_Tables_number   1
_chemical_formula_structural   Li6TeS2
_chemical_formula_sum   'Li24 Te4 S8'
_cell_volume   560.51182880
_cell_formula_units_Z   4
loop_
 _symmetry_equiv_pos_site_id
 _symmetry_equiv_pos_as_xyz
  1  'x, y, z'
loop_
 _atom_site_type_symbol
 _atom_site_label
 _atom_site_symmetry_multiplicity
 _atom_site_fract_x
 _atom_site_fract_y
 _atom_site_fract_z
 _atom_site_occupancy
  Li  Li0  1  0.00000000  0.50000000  0.00000000  1
  Li  Li1  1  0.50000000  0.00000000  0.00000000  1
  Li  Li2  1  0.96119271  0.24053555  0.38990462  1
  Li  Li3  1  -0.96119271  -0.24053555  0.38990462  1
  Li  Li4  1  -0.46119271  0.74053555  -0.38990462  1
  Li  Li5  1  1.46119271  0.25946445  -0.38990462  1
  Li  Li6  1  -0.96119271  -0.24053555  -0.38990462  1
  Li  Li7  1  0.96119271  0.24053555  -0.38990462  1
  Li  Li8  1  1.46119271  0.25946445  0.38990462  1
  Li  Li9  1  -0.46119271  0.74053555  0.38990462  1
  Li  Li10  1  0.00000000  0.00000000  0.00000000  1
  Li  Li11  1  0.50000000  0.50000000  0.00000000  1
  Li  Li12  1  0.92355136  0.62247482  0.85021167  1
  Li  Li13  1  0.07644864  0.37752518  0.85021167  1
  Li  Li14  1  0.57644864  0.12247482  0.14978833  1
  Li  Li15  1  0.42355136  0.87752518  0.14978833  1
  Li  Li16  1  0.07644864  0.37752518  0.14978833  1
  Li  Li17  1  0.92355136  0.62247482  0.14978833  1
  Li  Li18  1  0.42355136  0.87752518  0.85021167  1
  Li  Li19  1  0.57644864  0.12247482  0.85021167  1
  Li  Li20  1  0.80750343  0.85324329  0.50000000  1
  Li  Li21  1  0.19249657  0.14675671  0.50000000  1
  Li  Li22  1  0.69249657  0.35324329  0.50000000  1
  Li  Li23  1  0.30750343  0.64675671  0.50000000  1
  S  S24  1  0.25672629  0.87151715  0.00000000  1
  S  S25  1  0.74327371  0.12848285  0.00000000  1
  S  S26  1  0.24327371  0.37151715  0.00000000  1
  S  S27  1  0.75672629  0.62848285  0.00000000  1
  S  S28  1  0.00000000  0.00000000  0.50000000  1
  S  S29  1  0.50000000  0.50000000  0.50000000  1
  S  S30  1  0.00000000  0.50000000  0.50000000  1
  S  S31  1  0.50000000  0.00000000  0.50000000  1
  Te  Te32  1  0.21153240  0.39251940  0.50000000  1
  Te  Te33  1  0.78846760  0.60748060  0.50000000  1
  Te  Te34  1  0.28846760  0.89251940  0.50000000  1
  Te  Te35  1  0.71153240  0.10748060  0.50000000  1
