# generated using pymatgen
data_LiY2Cu3Sb2P
_symmetry_space_group_name_H-M   'P 1'
_cell_length_a   4.22521023
_cell_length_b   4.37698709
_cell_length_c   6.13157957
_cell_angle_alpha   95.52404458
_cell_angle_beta   99.67907543
_cell_angle_gamma   108.50067360
_symmetry_Int_Tables_number   1
_chemical_formula_structural   LiY2Cu3Sb2P
_chemical_formula_sum   'Li1 Y2 Cu3 Sb2 P1'
_cell_volume   104.63804302
_cell_formula_units_Z   1
loop_
 _symmetry_equiv_pos_site_id
 _symmetry_equiv_pos_as_xyz
  1  'x, y, z'
loop_
 _atom_site_type_symbol
 _atom_site_label
 _atom_site_symmetry_multiplicity
 _atom_site_fract_x
 _atom_site_fract_y
 _atom_site_fract_z
 _atom_site_occupancy
  Cu  Cu0  1  0.00000000  0.00000000  0.00000000  1
  Cu  Cu1  1  0.50000000  0.50000000  0.50000000  1
  Cu  Cu2  1  0.50000000  0.50000000  0.00000000  1
  P  P3  1  0.50000000  0.00000000  0.50000000  1
  Li  Li4  1  0.00000000  0.50000000  0.50000000  1
  Y  Y5  1  0.90016102  0.50630623  0.35067940  1
  Y  Y6  1  0.07469298  0.86503126  0.44120674  1
  Sb  Sb7  1  0.95261202  0.05663785  0.81275440  1
  Sb  Sb8  1  0.86910522  0.48556897  0.29158981  1
