# generated using pymatgen
data_LiF
_symmetry_space_group_name_H-M   'P 1'
_cell_length_a   7.53331672
_cell_length_b   11.03967801
_cell_length_c   9.34584661
_cell_angle_alpha   90.00000000
_cell_angle_beta   90.00000000
_cell_angle_gamma   90.00000000
_symmetry_Int_Tables_number   1
_chemical_formula_structural   LiF
_chemical_formula_sum   'Li52 F52'
_cell_volume   777.25098739
_cell_formula_units_Z   52
loop_
 _symmetry_equiv_pos_site_id
 _symmetry_equiv_pos_as_xyz
  1  'x, y, z'
loop_
 _atom_site_type_symbol
 _atom_site_label
 _atom_site_symmetry_multiplicity
 _atom_site_fract_x
 _atom_site_fract_y
 _atom_site_fract_z
 _atom_site_occupancy
  F  F0  1  0.26805014  0.79878235  0.29402383  1
  F  F1  1  0.23194986  0.20121765  0.79402383  1
  F  F2  1  0.73194986  0.29878235  0.70597617  1
  F  F3  1  0.76805014  0.70121765  0.20597617  1
  F  F4  1  0.73194986  0.20121765  0.70597617  1
  F  F5  1  0.76805014  0.79878235  0.20597617  1
  F  F6  1  0.26805014  0.70121765  0.29402383  1
  F  F7  1  0.23194986  0.29878235  0.79402383  1
  F  F8  1  0.93494069  0.49444332  0.43069552  1
  F  F9  1  0.56505931  0.50555668  0.93069552  1
  F  F10  1  0.06505931  0.99444332  0.56930448  1
  F  F11  1  0.43494069  0.00555668  0.06930448  1
  F  F12  1  0.06505931  0.50555668  0.56930448  1
  F  F13  1  0.43494069  0.49444332  0.06930448  1
  F  F14  1  0.93494069  0.00555668  0.43069552  1
  F  F15  1  0.56505931  0.99444332  0.93069552  1
  F  F16  1  0.89610354  0.51845331  0.63197686  1
  F  F17  1  0.60389646  0.48154669  0.13197686  1
  F  F18  1  0.10389646  0.01845331  0.36802314  1
  F  F19  1  0.39610354  0.98154669  0.86802314  1
  F  F20  1  0.10389646  0.48154669  0.36802314  1
  F  F21  1  0.39610354  0.51845331  0.86802314  1
  F  F22  1  0.89610354  0.98154669  0.63197686  1
  F  F23  1  0.60389646  0.01845331  0.13197686  1
  F  F24  1  0.30616066  0.64903209  0.62206480  1
  F  F25  1  0.19383934  0.35096791  0.12206480  1
  F  F26  1  0.69383934  0.14903209  0.37793520  1
  F  F27  1  0.80616066  0.85096791  0.87793520  1
  F  F28  1  0.69383934  0.35096791  0.37793520  1
  F  F29  1  0.80616066  0.64903209  0.87793520  1
  F  F30  1  0.30616066  0.85096791  0.62206480  1
  F  F31  1  0.19383934  0.14903209  0.12206480  1
  F  F32  1  0.00000000  0.00000000  0.50000000  1
  F  F33  1  0.50000000  0.00000000  0.00000000  1
  F  F34  1  0.00000000  0.50000000  0.50000000  1
  F  F35  1  0.50000000  0.50000000  0.00000000  1
  F  F36  1  0.87219666  0.25000000  0.84596885  1
  F  F37  1  0.62780334  0.75000000  0.34596885  1
  F  F38  1  0.12780334  0.75000000  0.15403115  1
  F  F39  1  0.37219666  0.25000000  0.65403115  1
  F  F40  1  0.86254963  0.25000000  0.32507568  1
  F  F41  1  0.63745037  0.75000000  0.82507568  1
  F  F42  1  0.13745037  0.75000000  0.67492432  1
  F  F43  1  0.36254963  0.25000000  0.17492432  1
  F  F44  1  0.19243260  0.08598061  0.55892973  1
  F  F45  1  0.30756740  0.91401939  0.05892973  1
  F  F46  1  0.80756740  0.58598061  0.44107027  1
  F  F47  1  0.69243260  0.41401939  0.94107027  1
  F  F48  1  0.80756740  0.91401939  0.44107027  1
  F  F49  1  0.69243260  0.08598061  0.94107027  1
  F  F50  1  0.19243260  0.41401939  0.55892973  1
  F  F51  1  0.30756740  0.58598061  0.05892973  1
  Li  Li52  1  0.10601584  0.42160577  0.64953912  1
  Li  Li53  1  0.39398416  -0.42160577  1.14953912  1
  Li  Li54  1  -0.10601584  0.92160577  -0.64953912  1
  Li  Li55  1  0.60601584  0.07839423  -0.14953912  1
  Li  Li56  1  -0.10601584  -0.42160577  -0.64953912  1
  Li  Li57  1  0.60601584  0.42160577  -0.14953912  1
  Li  Li58  1  0.10601584  0.07839423  0.64953912  1
  Li  Li59  1  0.39398416  0.92160577  1.14953912  1
  Li  Li60  1  0.61951135  0.25000000  0.01339243  1
  Li  Li61  1  0.88048865  0.75000000  0.51339243  1
  Li  Li62  1  0.38048865  0.75000000  0.98660757  1
  Li  Li63  1  0.11951135  0.25000000  0.48660757  1
  Li  Li64  1  0.60020913  0.84940150  0.34630458  1
  Li  Li65  1  0.89979087  0.15059850  0.84630458  1
  Li  Li66  1  0.39979087  0.34940150  0.65369542  1
  Li  Li67  1  0.10020913  0.65059850  0.15369542  1
  Li  Li68  1  0.39979087  0.15059850  0.65369542  1
  Li  Li69  1  0.10020913  0.84940150  0.15369542  1
  Li  Li70  1  0.60020913  0.65059850  0.34630458  1
  Li  Li71  1  0.89979087  0.34940150  0.84630458  1
  Li  Li72  1  0.14544208  0.25000000  0.87630846  1
  Li  Li73  1  0.35455792  0.75000000  0.37630846  1
  Li  Li74  1  0.85455792  0.75000000  0.12369154  1
  Li  Li75  1  0.64544208  0.25000000  0.62369154  1
  Li  Li76  1  0.19325709  0.04852576  0.86331972  1
  Li  Li77  1  0.30674291  0.95147424  0.36331972  1
  Li  Li78  1  0.80674291  0.54852576  0.13668028  1
  Li  Li79  1  0.69325709  0.45147424  0.63668028  1
  Li  Li80  1  0.80674291  0.95147424  0.13668028  1
  Li  Li81  1  0.69325709  0.04852576  0.63668028  1
  Li  Li82  1  0.19325709  0.45147424  0.86331972  1
  Li  Li83  1  0.30674291  0.54852576  0.36331972  1
  Li  Li84  1  0.79835001  0.32631899  0.09384513  1
  Li  Li85  1  0.70164999  0.67368101  0.59384513  1
  Li  Li86  1  0.20164999  0.82631899  0.90615487  1
  Li  Li87  1  0.29835001  0.17368101  0.40615487  1
  Li  Li88  1  0.20164999  0.67368101  0.90615487  1
  Li  Li89  1  0.29835001  0.32631899  0.40615487  1
  Li  Li90  1  0.79835001  0.17368101  0.09384513  1
  Li  Li91  1  0.70164999  0.82631899  0.59384513  1
  Li  Li92  1  0.41906122  0.68511944  0.71051284  1
  Li  Li93  1  0.08093878  0.31488056  0.21051284  1
  Li  Li94  1  0.58093878  0.18511944  0.28948716  1
  Li  Li95  1  0.91906122  0.81488056  0.78948716  1
  Li  Li96  1  0.58093878  0.31488056  0.28948716  1
  Li  Li97  1  0.91906122  0.68511944  0.78948716  1
  Li  Li98  1  0.41906122  0.81488056  0.71051284  1
  Li  Li99  1  0.08093878  0.18511944  0.21051284  1
  Li  Li100  1  0.00000000  0.00000000  0.00000000  1
  Li  Li101  1  0.50000000  0.00000000  0.50000000  1
  Li  Li102  1  0.00000000  0.50000000  0.00000000  1
  Li  Li103  1  0.50000000  0.50000000  0.50000000  1
