# generated using pymatgen
data_LiY2MoP3Se2
_symmetry_space_group_name_H-M   'P 1'
_cell_length_a   5.29189939
_cell_length_b   5.57229582
_cell_length_c   7.28955284
_cell_angle_alpha   94.29137514
_cell_angle_beta   99.34572288
_cell_angle_gamma   107.23674834
_symmetry_Int_Tables_number   1
_chemical_formula_structural   LiY2MoP3Se2
_chemical_formula_sum   'Li1 Y2 Mo1 P3 Se2'
_cell_volume   200.84420312
_cell_formula_units_Z   1
loop_
 _symmetry_equiv_pos_site_id
 _symmetry_equiv_pos_as_xyz
  1  'x, y, z'
loop_
 _atom_site_type_symbol
 _atom_site_label
 _atom_site_symmetry_multiplicity
 _atom_site_fract_x
 _atom_site_fract_y
 _atom_site_fract_z
 _atom_site_occupancy
  Se  Se0  1  0.00000000  0.00000000  0.00000000  1
  Se  Se1  1  0.50000000  0.50000000  0.50000000  1
  P  P2  1  0.25000000  0.25000000  0.25000000  1
  P  P3  1  0.75000000  0.25000000  0.00000000  1
  P  P4  1  0.25000000  0.75000000  0.50000000  1
  Mo  Mo5  1  0.05929557  0.74350946  0.36005433  1
  Li  Li6  1  0.10238881  0.29553090  0.18829617  1
  Y  Y7  1  0.47011438  0.59213142  0.29748184  1
  Y  Y8  1  0.36897506  0.66109734  0.07755046  1
