# generated using pymatgen
data_LiF
_symmetry_space_group_name_H-M   'P 1'
_cell_length_a   10.45233519
_cell_length_b   10.45233519
_cell_length_c   7.76465949
_cell_angle_alpha   90.00000000
_cell_angle_beta   90.00000000
_cell_angle_gamma   90.00000000
_symmetry_Int_Tables_number   1
_chemical_formula_structural   LiF
_chemical_formula_sum   'Li39 F39'
_cell_volume   848.29922745
_cell_formula_units_Z   39
loop_
 _symmetry_equiv_pos_site_id
 _symmetry_equiv_pos_as_xyz
  1  'x, y, z'
loop_
 _atom_site_type_symbol
 _atom_site_label
 _atom_site_symmetry_multiplicity
 _atom_site_fract_x
 _atom_site_fract_y
 _atom_site_fract_z
 _atom_site_occupancy
  F  F0  1  0.00000000  0.00000000  0.33042738  1
  F  F1  1  0.00000000  0.00000000  0.66957262  1
  F  F2  1  0.94690801  0.30151889  0.72521453  1
  F  F3  1  -0.94690801  -0.30151889  0.72521453  1
  F  F4  1  -0.30151889  0.94690801  0.72521453  1
  F  F5  1  0.30151889  -0.94690801  0.72521453  1
  F  F6  1  -0.94690801  0.30151889  -0.72521453  1
  F  F7  1  0.94690801  -0.30151889  -0.72521453  1
  F  F8  1  0.30151889  0.94690801  -0.72521453  1
  F  F9  1  -0.30151889  -0.94690801  -0.72521453  1
  F  F10  1  -0.94690801  -0.30151889  -0.72521453  1
  F  F11  1  0.94690801  0.30151889  -0.72521453  1
  F  F12  1  0.30151889  -0.94690801  -0.72521453  1
  F  F13  1  -0.30151889  0.94690801  -0.72521453  1
  F  F14  1  0.94690801  -0.30151889  0.72521453  1
  F  F15  1  -0.94690801  0.30151889  0.72521453  1
  F  F16  1  -0.30151889  -0.94690801  0.72521453  1
  F  F17  1  0.30151889  0.94690801  0.72521453  1
  F  F18  1  0.14246485  0.00000000  0.00000000  1
  F  F19  1  0.85753515  0.00000000  0.00000000  1
  F  F20  1  0.00000000  0.14246485  0.00000000  1
  F  F21  1  0.00000000  0.85753515  0.00000000  1
  F  F22  1  0.73504925  0.50000000  0.84236151  1
  F  F23  1  0.26495075  0.50000000  0.84236151  1
  F  F24  1  0.50000000  0.73504925  0.84236151  1
  F  F25  1  0.50000000  0.26495075  0.84236151  1
  F  F26  1  0.26495075  0.50000000  0.15763849  1
  F  F27  1  0.73504925  0.50000000  0.15763849  1
  F  F28  1  0.50000000  0.73504925  0.15763849  1
  F  F29  1  0.50000000  0.26495075  0.15763849  1
  F  F30  1  0.31825484  0.56061950  0.50000000  1
  F  F31  1  0.68174516  0.43938050  0.50000000  1
  F  F32  1  0.43938050  0.31825484  0.50000000  1
  F  F33  1  0.56061950  0.68174516  0.50000000  1
  F  F34  1  0.68174516  0.56061950  0.50000000  1
  F  F35  1  0.31825484  0.43938050  0.50000000  1
  F  F36  1  0.56061950  0.31825484  0.50000000  1
  F  F37  1  0.43938050  0.68174516  0.50000000  1
  F  F38  1  0.50000000  0.50000000  0.00000000  1
  Li  Li39  1  0.82487871  0.82487871  0.00000000  1
  Li  Li40  1  0.17512129  0.17512129  -0.00000000  1
  Li  Li41  1  0.17512129  0.82487871  0.00000000  1
  Li  Li42  1  0.82487871  0.17512129  -0.00000000  1
  Li  Li43  1  0.77263205  0.00000000  0.25571022  1
  Li  Li44  1  0.22736795  0.00000000  0.25571022  1
  Li  Li45  1  0.00000000  0.77263205  0.25571022  1
  Li  Li46  1  0.00000000  0.22736795  0.25571022  1
  Li  Li47  1  0.22736795  0.00000000  0.74428978  1
  Li  Li48  1  0.77263205  0.00000000  0.74428978  1
  Li  Li49  1  0.00000000  0.77263205  0.74428978  1
  Li  Li50  1  0.00000000  0.22736795  0.74428978  1
  Li  Li51  1  0.65076692  0.65076692  0.00000000  1
  Li  Li52  1  0.34923308  0.34923308  -0.00000000  1
  Li  Li53  1  0.34923308  0.65076692  0.00000000  1
  Li  Li54  1  0.65076692  0.34923308  -0.00000000  1
  Li  Li55  1  0.20405248  0.50000000  0.50000000  1
  Li  Li56  1  0.79594752  0.50000000  0.50000000  1
  Li  Li57  1  0.50000000  0.20405248  0.50000000  1
  Li  Li58  1  0.50000000  0.79594752  0.50000000  1
  Li  Li59  1  0.34141023  0.00000000  0.91165970  1
  Li  Li60  1  0.65858977  -0.00000000  0.91165970  1
  Li  Li61  1  0.00000000  0.34141023  0.91165970  1
  Li  Li62  1  0.00000000  0.65858977  0.91165970  1
  Li  Li63  1  0.65858977  -0.00000000  0.08834030  1
  Li  Li64  1  0.34141023  0.00000000  0.08834030  1
  Li  Li65  1  0.00000000  0.34141023  0.08834030  1
  Li  Li66  1  0.00000000  0.65858977  0.08834030  1
  Li  Li67  1  0.50000000  0.50000000  0.50000000  1
  Li  Li68  1  0.85923136  0.85923136  0.83712239  1
  Li  Li69  1  0.14076864  0.14076864  0.83712239  1
  Li  Li70  1  0.14076864  0.85923136  0.83712239  1
  Li  Li71  1  0.85923136  0.14076864  0.83712239  1
  Li  Li72  1  0.14076864  0.85923136  0.16287761  1
  Li  Li73  1  0.85923136  0.14076864  0.16287761  1
  Li  Li74  1  0.85923136  0.85923136  0.16287761  1
  Li  Li75  1  0.14076864  0.14076864  0.16287761  1
  Li  Li76  1  0.00000000  0.50000000  0.50000000  1
  Li  Li77  1  0.50000000  0.00000000  0.50000000  1
