# generated using pymatgen
data_Na3Li2Se2F
_symmetry_space_group_name_H-M   'P 1'
_cell_length_a   6.78996668
_cell_length_b   10.23781373
_cell_length_c   8.94001053
_cell_angle_alpha   90.00000000
_cell_angle_beta   90.00000000
_cell_angle_gamma   90.00000000
_symmetry_Int_Tables_number   1
_chemical_formula_structural   Na3Li2Se2F
_chemical_formula_sum   'Na12 Li8 Se8 F4'
_cell_volume   621.45959386
_cell_formula_units_Z   4
loop_
 _symmetry_equiv_pos_site_id
 _symmetry_equiv_pos_as_xyz
  1  'x, y, z'
loop_
 _atom_site_type_symbol
 _atom_site_label
 _atom_site_symmetry_multiplicity
 _atom_site_fract_x
 _atom_site_fract_y
 _atom_site_fract_z
 _atom_site_occupancy
  F  F0  1  0.61357225  0.19917719  0.00000000  1
  F  F1  1  0.38642775  0.80082281  0.00000000  1
  F  F2  1  0.88642775  0.69917719  0.50000000  1
  F  F3  1  0.11357225  0.30082281  0.50000000  1
  Li  Li4  1  0.37034335  0.39512762  0.31964900  1
  Li  Li5  1  0.62965665  0.60487238  0.31964900  1
  Li  Li6  1  0.12965665  0.89512762  0.18035100  1
  Li  Li7  1  0.87034335  0.10487238  0.18035100  1
  Li  Li8  1  0.62965665  0.60487238  0.68035100  1
  Li  Li9  1  0.37034335  0.39512762  0.68035100  1
  Li  Li10  1  0.87034335  0.10487238  0.81964900  1
  Li  Li11  1  0.12965665  0.89512762  0.81964900  1
  Na  Na12  1  0.31654699  0.89920146  0.30669030  1
  Na  Na13  1  -0.31654699  -0.89920146  0.30669030  1
  Na  Na14  1  0.18345301  1.39920146  0.19330970  1
  Na  Na15  1  0.81654699  -0.39920146  0.19330970  1
  Na  Na16  1  -0.31654699  -0.89920146  -0.30669030  1
  Na  Na17  1  0.31654699  0.89920146  -0.30669030  1
  Na  Na18  1  0.81654699  -0.39920146  0.80669030  1
  Na  Na19  1  0.18345301  1.39920146  0.80669030  1
  Na  Na20  1  0.00000000  0.00000000  0.50000000  1
  Na  Na21  1  0.50000000  0.50000000  0.00000000  1
  Na  Na22  1  0.00000000  0.50000000  0.00000000  1
  Na  Na23  1  0.50000000  0.00000000  0.50000000  1
  Se  Se24  1  0.22108073  0.97232410  0.00000000  1
  Se  Se25  1  0.77891927  0.02767590  0.00000000  1
  Se  Se26  1  0.27891927  0.47232410  0.50000000  1
  Se  Se27  1  0.72108073  0.52767590  0.50000000  1
  Se  Se28  1  0.00000000  0.00000000  0.00000000  1
  Se  Se29  1  0.50000000  0.50000000  0.50000000  1
  Se  Se30  1  0.00000000  0.50000000  0.50000000  1
  Se  Se31  1  0.50000000  0.00000000  0.00000000  1
