# generated using pymatgen
data_Li2Y2Cu3P2Se
_symmetry_space_group_name_H-M   'P 1'
_cell_length_a   5.17728233
_cell_length_b   5.36018678
_cell_length_c   6.58035423
_cell_angle_alpha   93.62596227
_cell_angle_beta   96.38306406
_cell_angle_gamma   101.62427546
_symmetry_Int_Tables_number   1
_chemical_formula_structural   Li2Y2Cu3P2Se
_chemical_formula_sum   'Li2 Y2 Cu3 P2 Se1'
_cell_volume   177.06916136
_cell_formula_units_Z   1
loop_
 _symmetry_equiv_pos_site_id
 _symmetry_equiv_pos_as_xyz
  1  'x, y, z'
loop_
 _atom_site_type_symbol
 _atom_site_label
 _atom_site_symmetry_multiplicity
 _atom_site_fract_x
 _atom_site_fract_y
 _atom_site_fract_z
 _atom_site_occupancy
  Se  Se0  1  0.12500000  0.00000000  0.25000000  1
  Cu  Cu1  1  0.00000000  0.00000000  0.00000000  1
  Cu  Cu2  1  0.37500000  0.00000000  0.25000000  1
  Cu  Cu3  1  0.25000000  0.25000000  0.25000000  1
  Y  Y4  1  0.00000000  0.25000000  0.12500000  1
  Y  Y5  1  0.91186233  0.21580597  0.70524273  1
  P  P6  1  0.98392260  0.45736600  0.52681228  1
  P  P7  1  0.67953647  0.44635448  0.06150280  1
  Li  Li8  1  0.80193628  0.93375660  0.36874946  1
  Li  Li9  1  0.74787879  0.98558740  0.27698634  1
