# generated using pymatgen
data_Li2Y2As2P3Se
_symmetry_space_group_name_H-M   'P 1'
_cell_length_a   5.37439823
_cell_length_b   5.38835286
_cell_length_c   7.41731765
_cell_angle_alpha   94.18592670
_cell_angle_beta   99.11607812
_cell_angle_gamma   106.81320390
_symmetry_Int_Tables_number   1
_chemical_formula_structural   Li2Y2As2P3Se
_chemical_formula_sum   'Li2 Y2 As2 P3 Se1'
_cell_volume   201.40944213
_cell_formula_units_Z   1
loop_
 _symmetry_equiv_pos_site_id
 _symmetry_equiv_pos_as_xyz
  1  'x, y, z'
loop_
 _atom_site_type_symbol
 _atom_site_label
 _atom_site_symmetry_multiplicity
 _atom_site_fract_x
 _atom_site_fract_y
 _atom_site_fract_z
 _atom_site_occupancy
  Se  Se0  1  0.12500000  0.00000000  0.25000000  1
  Y  Y1  1  0.00000000  0.00000000  0.00000000  1
  Y  Y2  1  0.37500000  0.00000000  0.25000000  1
  P  P3  1  0.25000000  0.25000000  0.25000000  1
  P  P4  1  0.00000000  0.25000000  0.12500000  1
  P  P5  1  0.24399515  0.37364202  0.75219595  1
  As  As6  1  0.95926513  0.52000835  0.08591219  1
  As  As7  1  0.13506357  0.96251810  0.14384195  1
  Li  Li8  1  0.71228661  0.42159686  0.56152030  1
  Li  Li9  1  0.42099788  0.48101656  0.61711686  1
