# generated using pymatgen
data_LiF
_symmetry_space_group_name_H-M   'P 1'
_cell_length_a   5.06945208
_cell_length_b   5.06945208
_cell_length_c   21.96167265
_cell_angle_alpha   90.00000000
_cell_angle_beta   90.00000000
_cell_angle_gamma   120.00000000
_symmetry_Int_Tables_number   1
_chemical_formula_structural   LiF
_chemical_formula_sum   'Li14 F14'
_cell_volume   488.78524801
_cell_formula_units_Z   14
loop_
 _symmetry_equiv_pos_site_id
 _symmetry_equiv_pos_as_xyz
  1  'x, y, z'
loop_
 _atom_site_type_symbol
 _atom_site_label
 _atom_site_symmetry_multiplicity
 _atom_site_fract_x
 _atom_site_fract_y
 _atom_site_fract_z
 _atom_site_occupancy
  F  F0  1  0.30567912  0.51427332  0.19782162  1
  F  F1  1  0.48572668  0.79140580  0.19782162  1
  F  F2  1  0.20859420  0.69432088  0.19782162  1
  F  F3  1  0.48572668  0.69432088  0.80217838  1
  F  F4  1  0.20859420  0.51427332  0.80217838  1
  F  F5  1  0.30567912  0.79140580  0.80217838  1
  F  F6  1  0.85549351  0.09461694  0.83558210  1
  F  F7  1  0.90538306  0.76087656  0.83558210  1
  F  F8  1  0.23912344  0.14450649  0.83558210  1
  F  F9  1  0.90538306  0.14450649  0.16441790  1
  F  F10  1  0.23912344  0.09461694  0.16441790  1
  F  F11  1  0.85549351  0.76087656  0.16441790  1
  F  F12  1  0.33333333  0.66666667  0.10307206  1
  F  F13  1  0.33333333  0.66666667  0.89692794  1
  Li  Li14  1  0.00000000  0.00000000  0.79503879  1
  Li  Li15  1  0.00000000  0.00000000  0.20496121  1
  Li  Li16  1  0.33333333  0.66666667  0.50000000  1
  Li  Li17  1  0.04294932  0.39438933  0.76932382  1
  Li  Li18  1  -0.39438933  -0.35144001  0.76932382  1
  Li  Li19  1  0.35144001  -0.04294932  0.76932382  1
  Li  Li20  1  -0.39438933  -0.04294932  -0.76932382  1
  Li  Li21  1  0.35144001  0.39438933  -0.76932382  1
  Li  Li22  1  0.04294932  -0.35144001  -0.76932382  1
  Li  Li23  1  0.00000000  0.00000000  0.50000000  1
  Li  Li24  1  0.33333333  0.66666667  0.00000000  1
  Li  Li25  1  0.66666667  0.33333333  0.38963232  1
  Li  Li26  1  0.66666667  0.33333333  0.61036768  1
  Li  Li27  1  0.66666667  0.33333333  0.50000000  1
