# generated using pymatgen
data_LiF
_symmetry_space_group_name_H-M   'P 1'
_cell_length_a   9.53293214
_cell_length_b   11.13610129
_cell_length_c   4.88012755
_cell_angle_alpha   90.00000000
_cell_angle_beta   90.00000000
_cell_angle_gamma   90.00000000
_symmetry_Int_Tables_number   1
_chemical_formula_structural   LiF
_chemical_formula_sum   'Li24 F24'
_cell_volume   518.07286595
_cell_formula_units_Z   24
loop_
 _symmetry_equiv_pos_site_id
 _symmetry_equiv_pos_as_xyz
  1  'x, y, z'
loop_
 _atom_site_type_symbol
 _atom_site_label
 _atom_site_symmetry_multiplicity
 _atom_site_fract_x
 _atom_site_fract_y
 _atom_site_fract_z
 _atom_site_occupancy
  F  F0  1  0.51113824  0.85839506  0.70328464  1
  F  F1  1  0.98886176  0.14160494  0.20328464  1
  F  F2  1  0.48886176  0.35839506  0.29671536  1
  F  F3  1  0.01113824  0.64160494  0.79671536  1
  F  F4  1  0.48886176  0.14160494  0.29671536  1
  F  F5  1  0.01113824  0.85839506  0.79671536  1
  F  F6  1  0.51113824  0.64160494  0.70328464  1
  F  F7  1  0.98886176  0.35839506  0.20328464  1
  F  F8  1  0.78262535  0.25000000  0.94480519  1
  F  F9  1  0.71737465  0.75000000  0.44480519  1
  F  F10  1  0.21737465  0.75000000  0.05519481  1
  F  F11  1  0.28262535  0.25000000  0.55519481  1
  F  F12  1  0.62962099  0.42849378  0.29305774  1
  F  F13  1  0.87037901  0.57150622  0.79305774  1
  F  F14  1  0.37037901  0.92849378  0.70694226  1
  F  F15  1  0.12962099  0.07150622  0.20694226  1
  F  F16  1  0.37037901  0.57150622  0.70694226  1
  F  F17  1  0.12962099  0.42849378  0.20694226  1
  F  F18  1  0.62962099  0.07150622  0.29305774  1
  F  F19  1  0.87037901  0.92849378  0.79305774  1
  F  F20  1  0.00000000  0.00000000  0.00000000  1
  F  F21  1  0.50000000  0.00000000  0.50000000  1
  F  F22  1  0.00000000  0.50000000  0.00000000  1
  F  F23  1  0.50000000  0.50000000  0.50000000  1
  Li  Li24  1  0.21355545  0.90563639  0.10080978  1
  Li  Li25  1  0.28644455  -0.90563639  0.60080978  1
  Li  Li26  1  -0.21355545  1.40563639  -0.10080978  1
  Li  Li27  1  0.71355545  -0.40563639  0.39919022  1
  Li  Li28  1  -0.21355545  -0.90563639  -0.10080978  1
  Li  Li29  1  0.71355545  0.90563639  0.39919022  1
  Li  Li30  1  0.21355545  -0.40563639  0.10080978  1
  Li  Li31  1  0.28644455  1.40563639  0.60080978  1
  Li  Li32  1  0.00000000  0.00000000  0.50000000  1
  Li  Li33  1  0.50000000  0.00000000  -0.00000000  1
  Li  Li34  1  0.00000000  0.50000000  0.50000000  1
  Li  Li35  1  0.50000000  0.50000000  0.00000000  1
  Li  Li36  1  0.45666245  0.41430234  0.15651639  1
  Li  Li37  1  0.04333755  0.58569766  0.65651639  1
  Li  Li38  1  0.54333755  0.91430234  0.84348361  1
  Li  Li39  1  0.95666245  0.08569766  0.34348361  1
  Li  Li40  1  0.54333755  0.58569766  0.84348361  1
  Li  Li41  1  0.95666245  0.41430234  0.34348361  1
  Li  Li42  1  0.45666245  0.08569766  0.15651639  1
  Li  Li43  1  0.04333755  0.91430234  0.65651639  1
  Li  Li44  1  0.31204148  0.25000000  0.10214022  1
  Li  Li45  1  0.18795852  0.75000000  0.60214022  1
  Li  Li46  1  0.68795852  0.75000000  0.89785978  1
  Li  Li47  1  0.81204148  0.25000000  0.39785978  1
