# generated using pymatgen
data_Li2Y2Te4MoP2
_symmetry_space_group_name_H-M   'P 1'
_cell_length_a   4.92308970
_cell_length_b   5.14170966
_cell_length_c   6.95543329
_cell_angle_alpha   95.09510515
_cell_angle_beta   101.09607975
_cell_angle_gamma   110.46501236
_symmetry_Int_Tables_number   1
_chemical_formula_structural   Li2Y2Te4MoP2
_chemical_formula_sum   'Li2 Y2 Te4 Mo1 P2'
_cell_volume   159.51761432
_cell_formula_units_Z   1
loop_
 _symmetry_equiv_pos_site_id
 _symmetry_equiv_pos_as_xyz
  1  'x, y, z'
loop_
 _atom_site_type_symbol
 _atom_site_label
 _atom_site_symmetry_multiplicity
 _atom_site_fract_x
 _atom_site_fract_y
 _atom_site_fract_z
 _atom_site_occupancy
  Te  Te0  1  0.00000000  0.00000000  0.00000000  1
  Te  Te1  1  0.50000000  0.50000000  0.50000000  1
  Te  Te2  1  0.50000000  0.50000000  0.00000000  1
  Te  Te3  1  0.50000000  0.00000000  0.50000000  1
  P  P4  1  0.00000000  0.50000000  0.50000000  1
  P  P5  1  0.81741739  0.94938998  0.25404662  1
  Mo  Mo6  1  0.51429094  0.37240851  0.96719355  1
  Li  Li7  1  0.46950779  0.65886299  0.50235260  1
  Li  Li8  1  0.73082359  0.79154510  0.78454375  1
  Y  Y9  1  0.99076606  0.00695958  0.12038854  1
  Y  Y10  1  0.02808142  0.37961889  0.24432343  1
