# generated using pymatgen
data_LiF
_symmetry_space_group_name_H-M   'P 1'
_cell_length_a   9.22569943
_cell_length_b   9.22569943
_cell_length_c   6.81289771
_cell_angle_alpha   90.00000000
_cell_angle_beta   90.00000000
_cell_angle_gamma   120.00000000
_symmetry_Int_Tables_number   1
_chemical_formula_structural   LiF
_chemical_formula_sum   'Li17 F17'
_cell_volume   502.18195495
_cell_formula_units_Z   17
loop_
 _symmetry_equiv_pos_site_id
 _symmetry_equiv_pos_as_xyz
  1  'x, y, z'
loop_
 _atom_site_type_symbol
 _atom_site_label
 _atom_site_symmetry_multiplicity
 _atom_site_fract_x
 _atom_site_fract_y
 _atom_site_fract_z
 _atom_site_occupancy
  F  F0  1  0.66666667  0.33333333  0.50000000  1
  F  F1  1  0.16038125  0.47561844  0.90011417  1
  F  F2  1  0.52438156  0.68476281  0.90011417  1
  F  F3  1  0.31523719  0.83961875  0.90011417  1
  F  F4  1  0.52438156  0.83961875  0.09988583  1
  F  F5  1  0.31523719  0.47561844  0.09988583  1
  F  F6  1  0.16038125  0.68476281  0.09988583  1
  F  F7  1  0.66666667  0.33333333  0.67651901  1
  F  F8  1  0.66666667  0.33333333  0.32348099  1
  F  F9  1  0.65340488  0.22643663  0.82430886  1
  F  F10  1  0.77356337  0.42696825  0.82430886  1
  F  F11  1  0.57303175  0.34659512  0.82430886  1
  F  F12  1  0.77356337  0.34659512  0.17569114  1
  F  F13  1  0.57303175  0.22643663  0.17569114  1
  F  F14  1  0.65340488  0.42696825  0.17569114  1
  F  F15  1  0.00000000  0.00000000  0.43409865  1
  F  F16  1  0.00000000  0.00000000  0.56590135  1
  Li  Li17  1  0.80657197  0.01520760  0.28994693  1
  Li  Li18  1  -0.01520760  0.79136438  0.28994693  1
  Li  Li19  1  -0.79136438  -0.80657197  0.28994693  1
  Li  Li20  1  -0.01520760  -0.80657197  -0.28994693  1
  Li  Li21  1  -0.79136438  0.01520760  -0.28994693  1
  Li  Li22  1  0.80657197  0.79136438  -0.28994693  1
  Li  Li23  1  0.33333333  0.66666667  0.50000000  1
  Li  Li24  1  0.35134410  0.03970397  0.25595953  1
  Li  Li25  1  0.96029603  0.31164013  0.25595953  1
  Li  Li26  1  0.68835987  0.64865590  0.25595953  1
  Li  Li27  1  0.96029603  0.64865590  0.74404047  1
  Li  Li28  1  0.68835987  0.03970397  0.74404047  1
  Li  Li29  1  0.35134410  0.31164013  0.74404047  1
  Li  Li30  1  0.66666667  0.33333333  -0.00000000  1
  Li  Li31  1  0.45838172  0.54161828  0.00000000  1
  Li  Li32  1  0.45838172  0.91676343  0.00000000  1
  Li  Li33  1  0.08323657  0.54161828  0.00000000  1
