# generated using pymatgen
data_Li2S
_symmetry_space_group_name_H-M   'P 1'
_cell_length_a   9.09310871
_cell_length_b   9.09310871
_cell_length_c   13.25856004
_cell_angle_alpha   90.00000000
_cell_angle_beta   90.00000000
_cell_angle_gamma   120.00000000
_symmetry_Int_Tables_number   1
_chemical_formula_structural   Li2S
_chemical_formula_sum   'Li26 S13'
_cell_volume   949.40553156
_cell_formula_units_Z   13
loop_
 _symmetry_equiv_pos_site_id
 _symmetry_equiv_pos_as_xyz
  1  'x, y, z'
loop_
 _atom_site_type_symbol
 _atom_site_label
 _atom_site_symmetry_multiplicity
 _atom_site_fract_x
 _atom_site_fract_y
 _atom_site_fract_z
 _atom_site_occupancy
  Li  Li0  1  0.59849729  -0.00000000  0.00000000  1
  Li  Li1  1  0.00000000  0.59849729  0.00000000  1
  Li  Li2  1  0.40150271  0.40150271  0.00000000  1
  Li  Li3  1  0.09777015  0.30038420  0.50000000  1
  Li  Li4  1  0.69961580  0.79738595  0.50000000  1
  Li  Li5  1  0.20261405  0.90222985  0.50000000  1
  Li  Li6  1  0.30038420  0.09777015  0.50000000  1
  Li  Li7  1  0.79738595  0.69961580  0.50000000  1
  Li  Li8  1  0.90222985  0.20261405  0.50000000  1
  Li  Li9  1  0.00000000  0.00000000  0.23175235  1
  Li  Li10  1  0.00000000  0.00000000  0.76824765  1
  Li  Li11  1  0.37349400  0.00000000  0.30524820  1
  Li  Li12  1  0.00000000  0.37349400  0.30524820  1
  Li  Li13  1  0.62650600  0.62650600  0.30524820  1
  Li  Li14  1  0.37349400  0.00000000  0.69475180  1
  Li  Li15  1  0.00000000  0.37349400  0.69475180  1
  Li  Li16  1  0.62650600  0.62650600  0.69475180  1
  Li  Li17  1  0.58946854  0.89260874  0.50000000  1
  Li  Li18  1  0.10739126  0.69685980  0.50000000  1
  Li  Li19  1  0.30314020  0.41053146  0.50000000  1
  Li  Li20  1  0.89260874  0.58946854  0.50000000  1
  Li  Li21  1  0.69685980  0.10739126  0.50000000  1
  Li  Li22  1  0.41053146  0.30314020  0.50000000  1
  Li  Li23  1  0.33333333  0.66666667  0.00000000  1
  Li  Li24  1  0.66666667  0.33333333  0.00000000  1
  Li  Li25  1  0.00000000  0.00000000  0.00000000  1
  S  S26  1  0.00000000  0.00000000  0.11178817  1
  S  S27  1  0.00000000  0.00000000  0.88821183  1
  S  S28  1  0.45058659  -0.00000000  0.93244880  1
  S  S29  1  0.00000000  0.45058659  0.93244880  1
  S  S30  1  -0.45058659  -0.45058659  0.93244880  1
  S  S31  1  0.45058659  -0.00000000  -0.93244880  1
  S  S32  1  0.00000000  0.45058659  -0.93244880  1
  S  S33  1  -0.45058659  -0.45058659  -0.93244880  1
  S  S34  1  0.33333333  0.66666667  0.50000000  1
  S  S35  1  0.66666667  0.33333333  0.50000000  1
  S  S36  1  0.89241949  0.00000000  0.50000000  1
  S  S37  1  0.00000000  0.89241949  0.50000000  1
  S  S38  1  0.10758051  0.10758051  0.50000000  1
