# generated using pymatgen
data_LiF
_symmetry_space_group_name_H-M   'P 1'
_cell_length_a   8.55833117
_cell_length_b   8.55833117
_cell_length_c   9.84320482
_cell_angle_alpha   90.00000000
_cell_angle_beta   90.00000000
_cell_angle_gamma   120.00000000
_symmetry_Int_Tables_number   1
_chemical_formula_structural   LiF
_chemical_formula_sum   'Li20 F20'
_cell_volume   624.37474671
_cell_formula_units_Z   20
loop_
 _symmetry_equiv_pos_site_id
 _symmetry_equiv_pos_as_xyz
  1  'x, y, z'
loop_
 _atom_site_type_symbol
 _atom_site_label
 _atom_site_symmetry_multiplicity
 _atom_site_fract_x
 _atom_site_fract_y
 _atom_site_fract_z
 _atom_site_occupancy
  F  F0  1  0.33333333  0.66666667  -0.00000000  1
  F  F1  1  0.17853023  0.38415533  0.62156753  1
  F  F2  1  0.61584467  0.79437490  0.62156753  1
  F  F3  1  0.20562510  0.82146977  0.62156753  1
  F  F4  1  0.61584467  0.82146977  0.37843247  1
  F  F5  1  0.20562510  0.38415533  0.37843247  1
  F  F6  1  0.17853023  0.79437490  0.37843247  1
  F  F7  1  0.00354842  0.48924565  0.95114396  1
  F  F8  1  0.51075435  0.51430278  0.95114396  1
  F  F9  1  0.48569722  0.99645158  0.95114396  1
  F  F10  1  0.51075435  0.99645158  0.04885604  1
  F  F11  1  0.48569722  0.48924565  0.04885604  1
  F  F12  1  0.00354842  0.51430278  0.04885604  1
  F  F13  1  0.66666667  0.33333333  0.50000000  1
  F  F14  1  0.66666667  0.33333333  0.86528098  1
  F  F15  1  0.66666667  0.33333333  0.13471902  1
  F  F16  1  0.66666667  0.33333333  -0.00000000  1
  F  F17  1  0.15109167  0.84890833  0.50000000  1
  F  F18  1  0.15109167  0.30218335  0.50000000  1
  F  F19  1  0.69781665  0.84890833  0.50000000  1
  Li  Li20  1  0.00000000  0.00000000  0.50000000  1
  Li  Li21  1  0.49435619  0.21441413  0.25773120  1
  Li  Li22  1  -0.21441413  0.27994205  0.25773120  1
  Li  Li23  1  -0.27994205  -0.49435619  0.25773120  1
  Li  Li24  1  -0.21441413  -0.49435619  -0.25773120  1
  Li  Li25  1  -0.27994205  0.21441413  -0.25773120  1
  Li  Li26  1  0.49435619  0.27994205  -0.25773120  1
  Li  Li27  1  0.00459354  0.63011337  0.86043470  1
  Li  Li28  1  0.36988663  0.37448017  0.86043470  1
  Li  Li29  1  0.62551983  0.99540646  0.86043470  1
  Li  Li30  1  0.36988663  0.99540646  0.13956530  1
  Li  Li31  1  0.62551983  0.63011337  0.13956530  1
  Li  Li32  1  0.00459354  0.37448017  0.13956530  1
  Li  Li33  1  0.69520578  0.61822965  0.70110516  1
  Li  Li34  1  0.38177035  0.07697613  0.70110516  1
  Li  Li35  1  0.92302387  0.30479422  0.70110516  1
  Li  Li36  1  0.38177035  0.30479422  0.29889484  1
  Li  Li37  1  0.92302387  0.61822965  0.29889484  1
  Li  Li38  1  0.69520578  0.07697613  0.29889484  1
  Li  Li39  1  0.33333333  0.66666667  0.50000000  1
