# generated using pymatgen
data_Li4TeF2
_symmetry_space_group_name_H-M   'P 1'
_cell_length_a   18.34188070
_cell_length_b   18.34188070
_cell_length_c   9.16574942
_cell_angle_alpha   90.00000000
_cell_angle_beta   90.00000000
_cell_angle_gamma   90.00000000
_symmetry_Int_Tables_number   1
_chemical_formula_structural   Li4TeF2
_chemical_formula_sum   'Li96 Te24 F48'
_cell_volume   3083.58346920
_cell_formula_units_Z   24
loop_
 _symmetry_equiv_pos_site_id
 _symmetry_equiv_pos_as_xyz
  1  'x, y, z'
loop_
 _atom_site_type_symbol
 _atom_site_label
 _atom_site_symmetry_multiplicity
 _atom_site_fract_x
 _atom_site_fract_y
 _atom_site_fract_z
 _atom_site_occupancy
  F  F0  1  0.90873592  -0.00000000  0.83307079  1
  F  F1  1  0.09126408  0.00000000  0.83307079  1
  F  F2  1  0.00000000  0.90873592  0.83307079  1
  F  F3  1  0.00000000  0.09126408  0.83307079  1
  F  F4  1  0.09126408  0.00000000  0.16692921  1
  F  F5  1  0.90873592  -0.00000000  0.16692921  1
  F  F6  1  0.00000000  0.90873592  0.16692921  1
  F  F7  1  0.00000000  0.09126408  0.16692921  1
  F  F8  1  0.50000000  0.50000000  0.50000000  1
  F  F9  1  0.76057992  0.36043971  0.69766418  1
  F  F10  1  -0.76057992  -0.36043971  0.69766418  1
  F  F11  1  -0.36043971  0.76057992  0.69766418  1
  F  F12  1  0.36043971  -0.76057992  0.69766418  1
  F  F13  1  -0.76057992  0.36043971  -0.69766418  1
  F  F14  1  0.76057992  -0.36043971  -0.69766418  1
  F  F15  1  0.36043971  0.76057992  -0.69766418  1
  F  F16  1  -0.36043971  -0.76057992  -0.69766418  1
  F  F17  1  -0.76057992  -0.36043971  -0.69766418  1
  F  F18  1  0.76057992  0.36043971  -0.69766418  1
  F  F19  1  0.36043971  -0.76057992  -0.69766418  1
  F  F20  1  -0.36043971  0.76057992  -0.69766418  1
  F  F21  1  0.76057992  -0.36043971  0.69766418  1
  F  F22  1  -0.76057992  0.36043971  0.69766418  1
  F  F23  1  -0.36043971  -0.76057992  0.69766418  1
  F  F24  1  0.36043971  0.76057992  0.69766418  1
  F  F25  1  0.26221907  0.78630540  0.92802525  1
  F  F26  1  0.73778093  0.21369460  0.92802525  1
  F  F27  1  0.21369460  0.26221907  0.92802525  1
  F  F28  1  0.78630540  0.73778093  0.92802525  1
  F  F29  1  0.73778093  0.78630540  0.07197475  1
  F  F30  1  0.26221907  0.21369460  0.07197475  1
  F  F31  1  0.78630540  0.26221907  0.07197475  1
  F  F32  1  0.21369460  0.73778093  0.07197475  1
  F  F33  1  0.73778093  0.21369460  0.07197475  1
  F  F34  1  0.26221907  0.78630540  0.07197475  1
  F  F35  1  0.78630540  0.73778093  0.07197475  1
  F  F36  1  0.21369460  0.26221907  0.07197475  1
  F  F37  1  0.26221907  0.21369460  0.92802525  1
  F  F38  1  0.73778093  0.78630540  0.92802525  1
  F  F39  1  0.21369460  0.73778093  0.92802525  1
  F  F40  1  0.78630540  0.26221907  0.92802525  1
  F  F41  1  0.00000000  0.00000000  0.00000000  1
  F  F42  1  0.00000000  0.50000000  0.60371985  1
  F  F43  1  0.50000000  0.00000000  0.60371985  1
  F  F44  1  0.00000000  0.50000000  0.39628015  1
  F  F45  1  0.50000000  0.00000000  0.39628015  1
  F  F46  1  0.00000000  0.50000000  0.50000000  1
  F  F47  1  0.50000000  0.00000000  0.50000000  1
  Li  Li48  1  0.50000000  0.50000000  0.61519767  1
  Li  Li49  1  0.50000000  0.50000000  0.38480233  1
  Li  Li50  1  0.54318704  0.07021204  0.89986587  1
  Li  Li51  1  0.45681296  0.92978796  0.89986587  1
  Li  Li52  1  0.92978796  0.54318704  0.89986587  1
  Li  Li53  1  0.07021204  0.45681296  0.89986587  1
  Li  Li54  1  0.45681296  0.07021204  0.10013413  1
  Li  Li55  1  0.54318704  0.92978796  0.10013413  1
  Li  Li56  1  0.07021204  0.54318704  0.10013413  1
  Li  Li57  1  0.92978796  0.45681296  0.10013413  1
  Li  Li58  1  0.45681296  0.92978796  0.10013413  1
  Li  Li59  1  0.54318704  0.07021204  0.10013413  1
  Li  Li60  1  0.07021204  0.45681296  0.10013413  1
  Li  Li61  1  0.92978796  0.54318704  0.10013413  1
  Li  Li62  1  0.54318704  0.92978796  0.89986587  1
  Li  Li63  1  0.45681296  0.07021204  0.89986587  1
  Li  Li64  1  0.92978796  0.45681296  0.89986587  1
  Li  Li65  1  0.07021204  0.54318704  0.89986587  1
  Li  Li66  1  0.24654545  0.00000000  0.81907563  1
  Li  Li67  1  0.75345455  0.00000000  0.81907563  1
  Li  Li68  1  0.00000000  0.24654545  0.81907563  1
  Li  Li69  1  0.00000000  0.75345455  0.81907563  1
  Li  Li70  1  0.75345455  0.00000000  0.18092437  1
  Li  Li71  1  0.24654545  0.00000000  0.18092437  1
  Li  Li72  1  0.00000000  0.24654545  0.18092437  1
  Li  Li73  1  0.00000000  0.75345455  0.18092437  1
  Li  Li74  1  0.70066314  0.50000000  0.82267072  1
  Li  Li75  1  0.29933686  0.50000000  0.82267072  1
  Li  Li76  1  0.50000000  0.70066314  0.82267072  1
  Li  Li77  1  0.50000000  0.29933686  0.82267072  1
  Li  Li78  1  0.29933686  0.50000000  0.17732928  1
  Li  Li79  1  0.70066314  0.50000000  0.17732928  1
  Li  Li80  1  0.50000000  0.70066314  0.17732928  1
  Li  Li81  1  0.50000000  0.29933686  0.17732928  1
  Li  Li82  1  0.62902495  0.62902495  0.18089750  1
  Li  Li83  1  0.37097505  0.37097505  0.18089750  1
  Li  Li84  1  0.37097505  0.62902495  0.18089750  1
  Li  Li85  1  0.62902495  0.37097505  0.18089750  1
  Li  Li86  1  0.37097505  0.62902495  0.81910250  1
  Li  Li87  1  0.62902495  0.37097505  0.81910250  1
  Li  Li88  1  0.62902495  0.62902495  0.81910250  1
  Li  Li89  1  0.37097505  0.37097505  0.81910250  1
  Li  Li90  1  0.84206565  0.75353182  0.92814735  1
  Li  Li91  1  0.15793435  0.24646818  0.92814735  1
  Li  Li92  1  0.24646818  0.84206565  0.92814735  1
  Li  Li93  1  0.75353182  0.15793435  0.92814735  1
  Li  Li94  1  0.15793435  0.75353182  0.07185265  1
  Li  Li95  1  0.84206565  0.24646818  0.07185265  1
  Li  Li96  1  0.75353182  0.84206565  0.07185265  1
  Li  Li97  1  0.24646818  0.15793435  0.07185265  1
  Li  Li98  1  0.15793435  0.24646818  0.07185265  1
  Li  Li99  1  0.84206565  0.75353182  0.07185265  1
  Li  Li100  1  0.75353182  0.15793435  0.07185265  1
  Li  Li101  1  0.24646818  0.84206565  0.07185265  1
  Li  Li102  1  0.84206565  0.24646818  0.92814735  1
  Li  Li103  1  0.15793435  0.75353182  0.92814735  1
  Li  Li104  1  0.24646818  0.15793435  0.92814735  1
  Li  Li105  1  0.75353182  0.84206565  0.92814735  1
  Li  Li106  1  0.00000000  0.00000000  0.23929489  1
  Li  Li107  1  0.00000000  0.00000000  0.76070511  1
  Li  Li108  1  0.12303646  0.93589700  0.50000000  1
  Li  Li109  1  0.87696354  0.06410300  0.50000000  1
  Li  Li110  1  0.06410300  0.12303646  0.50000000  1
  Li  Li111  1  0.93589700  0.87696354  0.50000000  1
  Li  Li112  1  0.87696354  0.93589700  0.50000000  1
  Li  Li113  1  0.12303646  0.06410300  0.50000000  1
  Li  Li114  1  0.93589700  0.12303646  0.50000000  1
  Li  Li115  1  0.06410300  0.87696354  0.50000000  1
  Li  Li116  1  0.62141747  0.19204148  -0.00000000  1
  Li  Li117  1  0.37858253  0.80795852  -0.00000000  1
  Li  Li118  1  0.80795852  0.62141747  -0.00000000  1
  Li  Li119  1  0.19204148  0.37858253  -0.00000000  1
  Li  Li120  1  0.37858253  0.19204148  -0.00000000  1
  Li  Li121  1  0.62141747  0.80795852  -0.00000000  1
  Li  Li122  1  0.19204148  0.62141747  -0.00000000  1
  Li  Li123  1  0.80795852  0.37858253  -0.00000000  1
  Li  Li124  1  0.22571116  0.85234385  0.41947079  1
  Li  Li125  1  0.77428884  0.14765615  0.41947079  1
  Li  Li126  1  0.14765615  0.22571116  0.41947079  1
  Li  Li127  1  0.85234385  0.77428884  0.41947079  1
  Li  Li128  1  0.77428884  0.85234385  0.58052921  1
  Li  Li129  1  0.22571116  0.14765615  0.58052921  1
  Li  Li130  1  0.85234385  0.22571116  0.58052921  1
  Li  Li131  1  0.14765615  0.77428884  0.58052921  1
  Li  Li132  1  0.77428884  0.14765615  0.58052921  1
  Li  Li133  1  0.22571116  0.85234385  0.58052921  1
  Li  Li134  1  0.85234385  0.77428884  0.58052921  1
  Li  Li135  1  0.14765615  0.22571116  0.58052921  1
  Li  Li136  1  0.22571116  0.14765615  0.41947079  1
  Li  Li137  1  0.77428884  0.85234385  0.41947079  1
  Li  Li138  1  0.14765615  0.77428884  0.41947079  1
  Li  Li139  1  0.85234385  0.22571116  0.41947079  1
  Li  Li140  1  0.36995750  0.36995750  -0.00000000  1
  Li  Li141  1  0.63004250  0.63004250  -0.00000000  1
  Li  Li142  1  0.63004250  0.36995750  -0.00000000  1
  Li  Li143  1  0.36995750  0.63004250  -0.00000000  1
  Te  Te144  1  0.06191014  0.37882590  0.35843856  1
  Te  Te145  1  0.93808986  0.62117410  0.35843856  1
  Te  Te146  1  0.62117410  0.06191014  0.35843856  1
  Te  Te147  1  0.37882590  0.93808986  0.35843856  1
  Te  Te148  1  0.93808986  0.37882590  0.64156144  1
  Te  Te149  1  0.06191014  0.62117410  0.64156144  1
  Te  Te150  1  0.37882590  0.06191014  0.64156144  1
  Te  Te151  1  0.62117410  0.93808986  0.64156144  1
  Te  Te152  1  0.93808986  0.62117410  0.64156144  1
  Te  Te153  1  0.06191014  0.37882590  0.64156144  1
  Te  Te154  1  0.37882590  0.93808986  0.64156144  1
  Te  Te155  1  0.62117410  0.06191014  0.64156144  1
  Te  Te156  1  0.06191014  0.62117410  0.35843856  1
  Te  Te157  1  0.93808986  0.37882590  0.35843856  1
  Te  Te158  1  0.62117410  0.93808986  0.35843856  1
  Te  Te159  1  0.37882590  0.06191014  0.35843856  1
  Te  Te160  1  0.50000000  0.50000000  0.00000000  1
  Te  Te161  1  0.39176696  -0.00000000  0.50000000  1
  Te  Te162  1  0.60823304  -0.00000000  0.50000000  1
  Te  Te163  1  0.00000000  0.39176696  0.50000000  1
  Te  Te164  1  0.00000000  0.60823304  0.50000000  1
  Te  Te165  1  0.00000000  0.50000000  0.00000000  1
  Te  Te166  1  0.50000000  0.00000000  0.00000000  1
  Te  Te167  1  0.00000000  0.00000000  0.50000000  1
