# generated using pymatgen
data_LiY2Cu3PSe
_symmetry_space_group_name_H-M   'P 1'
_cell_length_a   4.64083372
_cell_length_b   4.71365996
_cell_length_c   6.12577602
_cell_angle_alpha   94.66329966
_cell_angle_beta   97.35411919
_cell_angle_gamma   104.33700560
_symmetry_Int_Tables_number   1
_chemical_formula_structural   LiY2Cu3PSe
_chemical_formula_sum   'Li1 Y2 Cu3 P1 Se1'
_cell_volume   127.86846889
_cell_formula_units_Z   1
loop_
 _symmetry_equiv_pos_site_id
 _symmetry_equiv_pos_as_xyz
  1  'x, y, z'
loop_
 _atom_site_type_symbol
 _atom_site_label
 _atom_site_symmetry_multiplicity
 _atom_site_fract_x
 _atom_site_fract_y
 _atom_site_fract_z
 _atom_site_occupancy
  Y  Y0  1  0.00000000  0.00000000  0.00000000  1
  Y  Y1  1  0.50000000  0.50000000  0.50000000  1
  P  P2  1  0.50000000  0.50000000  0.00000000  1
  Se  Se3  1  0.50000000  0.00000000  0.50000000  1
  Li  Li4  1  0.00000000  0.50000000  0.50000000  1
  Cu  Cu5  1  0.78255507  0.72909935  0.92371330  1
  Cu  Cu6  1  0.45519100  0.10832467  0.28074624  1
  Cu  Cu7  1  0.11666910  0.84478009  0.20848243  1
