# generated using pymatgen
data_LiF
_symmetry_space_group_name_H-M   'P 1'
_cell_length_a   13.33388674
_cell_length_b   13.33388674
_cell_length_c   7.11341198
_cell_angle_alpha   90.00000000
_cell_angle_beta   90.00000000
_cell_angle_gamma   120.00000000
_symmetry_Int_Tables_number   1
_chemical_formula_structural   LiF
_chemical_formula_sum   'Li34 F34'
_cell_volume   1095.27233388
_cell_formula_units_Z   34
loop_
 _symmetry_equiv_pos_site_id
 _symmetry_equiv_pos_as_xyz
  1  'x, y, z'
loop_
 _atom_site_type_symbol
 _atom_site_label
 _atom_site_symmetry_multiplicity
 _atom_site_fract_x
 _atom_site_fract_y
 _atom_site_fract_z
 _atom_site_occupancy
  F  F0  1  0.94020143  0.63556913  0.13225501  1
  F  F1  1  0.36443087  0.30463230  0.13225501  1
  F  F2  1  0.69536770  0.05979857  0.13225501  1
  F  F3  1  0.36443087  0.05979857  0.86774499  1
  F  F4  1  0.69536770  0.63556913  0.86774499  1
  F  F5  1  0.94020143  0.30463230  0.86774499  1
  F  F6  1  0.14446153  0.29868602  0.91906754  1
  F  F7  1  0.70131398  0.84577551  0.91906754  1
  F  F8  1  0.15422449  0.85553847  0.91906754  1
  F  F9  1  0.70131398  0.85553847  0.08093246  1
  F  F10  1  0.15422449  0.29868602  0.08093246  1
  F  F11  1  0.14446153  0.84577551  0.08093246  1
  F  F12  1  0.28425466  0.71574534  0.00000000  1
  F  F13  1  0.28425466  0.56850932  0.00000000  1
  F  F14  1  0.43149068  0.71574534  0.00000000  1
  F  F15  1  0.92693829  0.34538232  0.55053179  1
  F  F16  1  0.65461768  0.58155597  0.55053179  1
  F  F17  1  0.41844403  0.07306171  0.55053179  1
  F  F18  1  0.65461768  0.07306171  0.44946821  1
  F  F19  1  0.41844403  0.34538232  0.44946821  1
  F  F20  1  0.92693829  0.58155597  0.44946821  1
  F  F21  1  0.30005432  0.86780212  0.74879457  1
  F  F22  1  0.13219788  0.43225219  0.74879457  1
  F  F23  1  0.56774781  0.69994568  0.74879457  1
  F  F24  1  0.13219788  0.69994568  0.25120543  1
  F  F25  1  0.56774781  0.86780212  0.25120543  1
  F  F26  1  0.30005432  0.43225219  0.25120543  1
  F  F27  1  0.33333333  0.66666667  0.00000000  1
  F  F28  1  0.27053167  0.33651224  0.05477125  1
  F  F29  1  0.66348776  0.93401943  0.05477125  1
  F  F30  1  0.06598057  0.72946833  0.05477125  1
  F  F31  1  0.66348776  0.72946833  0.94522875  1
  F  F32  1  0.06598057  0.33651224  0.94522875  1
  F  F33  1  0.27053167  0.93401943  0.94522875  1
  Li  Li34  1  0.75778664  0.99722240  0.57175323  1
  Li  Li35  1  -0.99722240  -0.23943575  0.57175323  1
  Li  Li36  1  0.23943575  -0.75778664  0.57175323  1
  Li  Li37  1  -0.99722240  -0.75778664  -0.57175323  1
  Li  Li38  1  0.23943575  0.99722240  -0.57175323  1
  Li  Li39  1  0.75778664  -0.23943575  -0.57175323  1
  Li  Li40  1  0.63100300  0.15451100  0.17277042  1
  Li  Li41  1  0.84548900  0.47649200  0.17277042  1
  Li  Li42  1  0.52350800  0.36899700  0.17277042  1
  Li  Li43  1  0.84548900  0.36899700  0.82722958  1
  Li  Li44  1  0.52350800  0.15451100  0.82722958  1
  Li  Li45  1  0.63100300  0.47649200  0.82722958  1
  Li  Li46  1  0.27745544  0.35093473  0.27844143  1
  Li  Li47  1  0.64906527  0.92652070  0.27844143  1
  Li  Li48  1  0.07347930  0.72254456  0.27844143  1
  Li  Li49  1  0.64906527  0.72254456  0.72155857  1
  Li  Li50  1  0.07347930  0.35093473  0.72155857  1
  Li  Li51  1  0.27745544  0.92652070  0.72155857  1
  Li  Li52  1  0.80889561  0.48429257  0.90157727  1
  Li  Li53  1  0.51570743  0.32460304  0.90157727  1
  Li  Li54  1  0.67539696  0.19110439  0.90157727  1
  Li  Li55  1  0.51570743  0.19110439  0.09842273  1
  Li  Li56  1  0.67539696  0.48429257  0.09842273  1
  Li  Li57  1  0.80889561  0.32460304  0.09842273  1
  Li  Li58  1  0.44921054  0.55078946  0.50000000  1
  Li  Li59  1  0.44921054  0.89842107  0.50000000  1
  Li  Li60  1  0.10157893  0.55078946  0.50000000  1
  Li  Li61  1  0.33333333  0.66666667  0.15620748  1
  Li  Li62  1  0.33333333  0.66666667  0.84379252  1
  Li  Li63  1  0.46609598  0.53390402  0.00000000  1
  Li  Li64  1  0.46609598  0.93219196  0.00000000  1
  Li  Li65  1  0.06780804  0.53390402  0.00000000  1
  Li  Li66  1  0.00000000  0.00000000  0.71883217  1
  Li  Li67  1  0.00000000  0.00000000  0.28116783  1
