# generated using pymatgen
data_SrLi4(SF)2
_symmetry_space_group_name_H-M   'P 1'
_cell_length_a   14.91644575
_cell_length_b   17.22666776
_cell_length_c   15.46942098
_cell_angle_alpha   90.00000000
_cell_angle_beta   90.00000000
_cell_angle_gamma   90.00000000
_symmetry_Int_Tables_number   1
_chemical_formula_structural   SrLi4(SF)2
_chemical_formula_sum   'Sr24 Li96 S48 F48'
_cell_volume   3975.03254957
_cell_formula_units_Z   24
loop_
 _symmetry_equiv_pos_site_id
 _symmetry_equiv_pos_as_xyz
  1  'x, y, z'
loop_
 _atom_site_type_symbol
 _atom_site_label
 _atom_site_symmetry_multiplicity
 _atom_site_fract_x
 _atom_site_fract_y
 _atom_site_fract_z
 _atom_site_occupancy
  F  F0  1  0.98828434  0.70277595  0.46976803  1
  F  F1  1  0.51171566  0.29722405  0.96976803  1
  F  F2  1  0.01171566  0.20277595  0.53023197  1
  F  F3  1  0.48828434  0.79722405  0.03023197  1
  F  F4  1  0.01171566  0.29722405  0.53023197  1
  F  F5  1  0.48828434  0.70277595  0.03023197  1
  F  F6  1  0.98828434  0.79722405  0.46976803  1
  F  F7  1  0.51171566  0.20277595  0.96976803  1
  F  F8  1  0.34636958  0.37586253  0.35700097  1
  F  F9  1  0.15363042  0.62413747  0.85700097  1
  F  F10  1  0.65363042  0.87586253  0.64299903  1
  F  F11  1  0.84636958  0.12413747  0.14299903  1
  F  F12  1  0.65363042  0.62413747  0.64299903  1
  F  F13  1  0.84636958  0.37586253  0.14299903  1
  F  F14  1  0.34636958  0.12413747  0.35700097  1
  F  F15  1  0.15363042  0.87586253  0.85700097  1
  F  F16  1  0.26692623  0.86470826  0.38801879  1
  F  F17  1  0.23307377  0.13529174  0.88801879  1
  F  F18  1  0.73307377  0.36470826  0.61198121  1
  F  F19  1  0.76692623  0.63529174  0.11198121  1
  F  F20  1  0.73307377  0.13529174  0.61198121  1
  F  F21  1  0.76692623  0.86470826  0.11198121  1
  F  F22  1  0.26692623  0.63529174  0.38801879  1
  F  F23  1  0.23307377  0.36470826  0.88801879  1
  F  F24  1  0.49597233  0.28314001  0.60617224  1
  F  F25  1  0.00402767  0.71685999  0.10617224  1
  F  F26  1  0.50402767  0.78314001  0.39382776  1
  F  F27  1  0.99597233  0.21685999  0.89382776  1
  F  F28  1  0.50402767  0.71685999  0.39382776  1
  F  F29  1  0.99597233  0.28314001  0.89382776  1
  F  F30  1  0.49597233  0.21685999  0.60617224  1
  F  F31  1  0.00402767  0.78314001  0.10617224  1
  F  F32  1  0.32543024  0.21631013  0.70930319  1
  F  F33  1  0.17456976  0.78368987  0.20930319  1
  F  F34  1  0.67456976  0.71631013  0.29069681  1
  F  F35  1  0.82543024  0.28368987  0.79069681  1
  F  F36  1  0.67456976  0.78368987  0.29069681  1
  F  F37  1  0.82543024  0.21631013  0.79069681  1
  F  F38  1  0.32543024  0.28368987  0.70930319  1
  F  F39  1  0.17456976  0.71631013  0.20930319  1
  F  F40  1  0.21763851  0.25000000  0.53930446  1
  F  F41  1  0.28236149  0.75000000  0.03930446  1
  F  F42  1  0.78236149  0.75000000  0.46069554  1
  F  F43  1  0.71763851  0.25000000  0.96069554  1
  F  F44  1  0.97228399  0.25000000  0.36522480  1
  F  F45  1  0.52771601  0.75000000  0.86522480  1
  F  F46  1  0.02771601  0.75000000  0.63477520  1
  F  F47  1  0.47228399  0.25000000  0.13477520  1
  Li  Li48  1  0.73964541  0.07610338  0.43986578  1
  Li  Li49  1  0.76035459  0.92389662  0.93986578  1
  Li  Li50  1  0.26035459  0.57610338  0.56013422  1
  Li  Li51  1  0.23964541  0.42389662  0.06013422  1
  Li  Li52  1  0.26035459  0.92389662  0.56013422  1
  Li  Li53  1  0.23964541  0.07610338  0.06013422  1
  Li  Li54  1  0.73964541  0.42389662  0.43986578  1
  Li  Li55  1  0.76035459  0.57610338  0.93986578  1
  Li  Li56  1  0.07482809  0.79411583  0.71443745  1
  Li  Li57  1  0.42517191  0.20588417  0.21443745  1
  Li  Li58  1  0.92517191  0.29411583  0.28556255  1
  Li  Li59  1  0.57482809  0.70588417  0.78556255  1
  Li  Li60  1  0.92517191  0.20588417  0.28556255  1
  Li  Li61  1  0.57482809  0.79411583  0.78556255  1
  Li  Li62  1  0.07482809  0.70588417  0.71443745  1
  Li  Li63  1  0.42517191  0.29411583  0.21443745  1
  Li  Li64  1  0.75885312  0.25000000  0.11135793  1
  Li  Li65  1  0.74114688  0.75000000  0.61135793  1
  Li  Li66  1  0.24114688  0.75000000  0.88864207  1
  Li  Li67  1  0.25885312  0.25000000  0.38864207  1
  Li  Li68  1  0.59679328  0.31191945  0.94832129  1
  Li  Li69  1  0.90320672  0.68808055  0.44832129  1
  Li  Li70  1  0.40320672  0.81191945  0.05167871  1
  Li  Li71  1  0.09679328  0.18808055  0.55167871  1
  Li  Li72  1  0.40320672  0.68808055  0.05167871  1
  Li  Li73  1  0.09679328  0.31191945  0.55167871  1
  Li  Li74  1  0.59679328  0.18808055  0.94832129  1
  Li  Li75  1  0.90320672  0.81191945  0.44832129  1
  Li  Li76  1  0.36831684  0.25000000  0.33976066  1
  Li  Li77  1  0.13168316  0.75000000  0.83976066  1
  Li  Li78  1  0.63168316  0.75000000  0.66023934  1
  Li  Li79  1  0.86831684  0.25000000  0.16023934  1
  Li  Li80  1  0.94910506  0.88867160  0.05909143  1
  Li  Li81  1  0.55089494  0.11132840  0.55909143  1
  Li  Li82  1  0.05089494  0.38867160  0.94090857  1
  Li  Li83  1  0.44910506  0.61132840  0.44090857  1
  Li  Li84  1  0.05089494  0.11132840  0.94090857  1
  Li  Li85  1  0.44910506  0.88867160  0.44090857  1
  Li  Li86  1  0.94910506  0.61132840  0.05909143  1
  Li  Li87  1  0.55089494  0.38867160  0.55909143  1
  Li  Li88  1  0.67637237  0.25000000  0.81834442  1
  Li  Li89  1  0.82362763  0.75000000  0.31834442  1
  Li  Li90  1  0.32362763  0.75000000  0.18165558  1
  Li  Li91  1  0.17637237  0.25000000  0.68165558  1
  Li  Li92  1  0.12732002  0.25000000  0.10857416  1
  Li  Li93  1  0.37267998  0.75000000  0.60857416  1
  Li  Li94  1  0.87267998  0.75000000  0.89142584  1
  Li  Li95  1  0.62732002  0.25000000  0.39142584  1
  Li  Li96  1  0.57328233  0.09180840  0.75233428  1
  Li  Li97  1  0.92671767  0.90819160  0.25233428  1
  Li  Li98  1  0.42671767  0.59180840  0.24766572  1
  Li  Li99  1  0.07328233  0.40819160  0.74766572  1
  Li  Li100  1  0.42671767  0.90819160  0.24766572  1
  Li  Li101  1  0.07328233  0.09180840  0.74766572  1
  Li  Li102  1  0.57328233  0.40819160  0.75233428  1
  Li  Li103  1  0.92671767  0.59180840  0.25233428  1
  Li  Li104  1  0.24904055  0.40212631  0.84110466  1
  Li  Li105  1  0.25095945  0.59787369  0.34110466  1
  Li  Li106  1  0.75095945  0.90212631  0.15889534  1
  Li  Li107  1  0.74904055  0.09787369  0.65889534  1
  Li  Li108  1  0.75095945  0.59787369  0.15889534  1
  Li  Li109  1  0.74904055  0.40212631  0.65889534  1
  Li  Li110  1  0.24904055  0.09787369  0.84110466  1
  Li  Li111  1  0.25095945  0.90212631  0.34110466  1
  Li  Li112  1  0.83915626  0.34512126  0.60651237  1
  Li  Li113  1  0.66084374  0.65487874  0.10651237  1
  Li  Li114  1  0.16084374  0.84512126  0.39348763  1
  Li  Li115  1  0.33915626  0.15487874  0.89348763  1
  Li  Li116  1  0.16084374  0.65487874  0.39348763  1
  Li  Li117  1  0.33915626  0.34512126  0.89348763  1
  Li  Li118  1  0.83915626  0.15487874  0.60651237  1
  Li  Li119  1  0.66084374  0.84512126  0.10651237  1
  Li  Li120  1  0.37941178  0.64782236  0.84506056  1
  Li  Li121  1  0.12058822  0.35217764  0.34506056  1
  Li  Li122  1  0.62058822  0.14782236  0.15493944  1
  Li  Li123  1  0.87941178  0.85217764  0.65493944  1
  Li  Li124  1  0.62058822  0.35217764  0.15493944  1
  Li  Li125  1  0.87941178  0.64782236  0.65493944  1
  Li  Li126  1  0.37941178  0.85217764  0.84506056  1
  Li  Li127  1  0.12058822  0.14782236  0.34506056  1
  Li  Li128  1  0.76954089  0.25000000  0.62880060  1
  Li  Li129  1  0.73045911  0.75000000  0.12880060  1
  Li  Li130  1  0.23045911  0.75000000  0.37119940  1
  Li  Li131  1  0.26954089  0.25000000  0.87119940  1
  Li  Li132  1  0.64061567  0.25000000  0.22962051  1
  Li  Li133  1  0.85938433  0.75000000  0.72962051  1
  Li  Li134  1  0.35938433  0.75000000  0.77037949  1
  Li  Li135  1  0.14061567  0.25000000  0.27037949  1
  Li  Li136  1  0.58566085  0.25000000  0.79189189  1
  Li  Li137  1  0.91433915  0.75000000  0.29189189  1
  Li  Li138  1  0.41433915  0.75000000  0.20810811  1
  Li  Li139  1  0.08566085  0.25000000  0.70810811  1
  Li  Li140  1  0.02490133  0.25000000  0.09572694  1
  Li  Li141  1  0.47509867  0.75000000  0.59572694  1
  Li  Li142  1  0.97509867  0.75000000  0.90427306  1
  Li  Li143  1  0.52490133  0.25000000  0.40427306  1
  S  S144  1  0.48241058  0.07876138  0.83674505  1
  S  S145  1  0.01758942  0.92123862  0.33674505  1
  S  S146  1  0.51758942  0.57876138  0.16325495  1
  S  S147  1  0.98241058  0.42123862  0.66325495  1
  S  S148  1  0.51758942  0.92123862  0.16325495  1
  S  S149  1  0.98241058  0.07876138  0.66325495  1
  S  S150  1  0.48241058  0.42123862  0.83674505  1
  S  S151  1  0.01758942  0.57876138  0.33674505  1
  S  S152  1  0.96163187  0.25000000  0.59533271  1
  S  S153  1  0.53836813  0.75000000  0.09533271  1
  S  S154  1  0.03836813  0.75000000  0.40466729  1
  S  S155  1  0.46163187  0.25000000  0.90466729  1
  S  S156  1  0.37040038  0.67335879  0.96852949  1
  S  S157  1  0.12959962  0.32664121  0.46852949  1
  S  S158  1  0.62959962  0.17335879  0.03147051  1
  S  S159  1  0.87040038  0.82664121  0.53147051  1
  S  S160  1  0.62959962  0.32664121  0.03147051  1
  S  S161  1  0.87040038  0.67335879  0.53147051  1
  S  S162  1  0.37040038  0.82664121  0.96852949  1
  S  S163  1  0.12959962  0.17335879  0.46852949  1
  S  S164  1  0.25951709  0.01217133  0.95163413  1
  S  S165  1  0.24048291  0.98782867  0.45163413  1
  S  S166  1  0.74048291  0.51217133  0.04836587  1
  S  S167  1  0.75951709  0.48782867  0.54836587  1
  S  S168  1  0.74048291  0.98782867  0.04836587  1
  S  S169  1  0.75951709  0.01217133  0.54836587  1
  S  S170  1  0.25951709  0.48782867  0.95163413  1
  S  S171  1  0.24048291  0.51217133  0.45163413  1
  S  S172  1  0.62090724  0.62438873  0.49565857  1
  S  S173  1  0.87909276  0.37561127  0.99565857  1
  S  S174  1  0.37909276  0.12438873  0.50434143  1
  S  S175  1  0.12090724  0.87561127  0.00434143  1
  S  S176  1  0.37909276  0.37561127  0.50434143  1
  S  S177  1  0.12090724  0.62438873  0.00434143  1
  S  S178  1  0.62090724  0.87561127  0.49565857  1
  S  S179  1  0.87909276  0.12438873  0.99565857  1
  S  S180  1  0.15346174  0.25000000  0.98969759  1
  S  S181  1  0.34653826  0.75000000  0.48969759  1
  S  S182  1  0.84653826  0.75000000  0.01030241  1
  S  S183  1  0.65346174  0.25000000  0.51030241  1
  S  S184  1  0.35899840  0.25000000  0.15587941  1
  S  S185  1  0.14100160  0.75000000  0.65587941  1
  S  S186  1  0.64100160  0.75000000  0.84412059  1
  S  S187  1  0.85899840  0.25000000  0.34412059  1
  S  S188  1  0.00000000  0.00000000  0.50000000  1
  S  S189  1  0.50000000  0.00000000  0.00000000  1
  S  S190  1  0.00000000  0.50000000  0.50000000  1
  S  S191  1  0.50000000  0.50000000  0.00000000  1
  Sr  Sr192  1  0.41221788  0.25000000  0.70085318  1
  Sr  Sr193  1  0.08778212  0.75000000  0.20085318  1
  Sr  Sr194  1  0.58778212  0.75000000  0.29914682  1
  Sr  Sr195  1  0.91221788  0.25000000  0.79914682  1
  Sr  Sr196  1  0.43589085  0.57496140  0.92171419  1
  Sr  Sr197  1  0.06410915  -0.57496140  1.42171419  1
  Sr  Sr198  1  -0.43589085  1.07496140  -0.92171419  1
  Sr  Sr199  1  0.93589085  -0.07496140  -0.42171419  1
  Sr  Sr200  1  -0.43589085  -0.57496140  -0.92171419  1
  Sr  Sr201  1  0.93589085  0.57496140  -0.42171419  1
  Sr  Sr202  1  0.43589085  -0.07496140  0.92171419  1
  Sr  Sr203  1  0.06410915  1.07496140  1.42171419  1
  Sr  Sr204  1  0.00000000  0.00000000  0.00000000  1
  Sr  Sr205  1  0.50000000  0.00000000  0.50000000  1
  Sr  Sr206  1  0.00000000  0.50000000  0.00000000  1
  Sr  Sr207  1  0.50000000  0.50000000  0.50000000  1
  Sr  Sr208  1  0.93074525  0.49132190  0.27906169  1
  Sr  Sr209  1  0.56925475  0.50867810  0.77906169  1
  Sr  Sr210  1  0.06925475  0.99132190  0.72093831  1
  Sr  Sr211  1  0.43074525  0.00867810  0.22093831  1
  Sr  Sr212  1  0.06925475  0.50867810  0.72093831  1
  Sr  Sr213  1  0.43074525  0.49132190  0.22093831  1
  Sr  Sr214  1  0.93074525  0.00867810  0.27906169  1
  Sr  Sr215  1  0.56925475  0.99132190  0.77906169  1
