# generated using pymatgen
data_LiYP2Se
_symmetry_space_group_name_H-M   'P 1'
_cell_length_a   4.58429351
_cell_length_b   4.88928943
_cell_length_c   7.02628064
_cell_angle_alpha   95.45670649
_cell_angle_beta   101.88357232
_cell_angle_gamma   111.91742126
_symmetry_Int_Tables_number   1
_chemical_formula_structural   LiYP2Se
_chemical_formula_sum   'Li2 Y2 P4 Se2'
_cell_volume   140.38441436
_cell_formula_units_Z   2
loop_
 _symmetry_equiv_pos_site_id
 _symmetry_equiv_pos_as_xyz
  1  'x, y, z'
loop_
 _atom_site_type_symbol
 _atom_site_label
 _atom_site_symmetry_multiplicity
 _atom_site_fract_x
 _atom_site_fract_y
 _atom_site_fract_z
 _atom_site_occupancy
  Y  Y0  1  0.12500000  0.12500000  0.12500000  1
  Y  Y1  1  0.50000000  0.50000000  0.50000000  1
  P  P2  1  0.25000000  0.25000000  0.25000000  1
  P  P3  1  0.75000000  0.75000000  0.75000000  1
  P  P4  1  0.22164846  0.86963419  0.81223615  1
  P  P5  1  0.12395822  0.22356301  0.22435182  1
  Se  Se6  1  0.99730280  0.59451638  0.02063396  1
  Se  Se7  1  0.76099671  0.74646218  0.23127834  1
  Li  Li8  1  0.94019061  0.90695751  0.90841290  1
  Li  Li9  1  0.53963794  0.48166642  0.63576578  1
