# generated using pymatgen
data_LiF
_symmetry_space_group_name_H-M   'P 1'
_cell_length_a   8.03179124
_cell_length_b   6.25542969
_cell_length_c   6.49922133
_cell_angle_alpha   90.00000000
_cell_angle_beta   90.00000000
_cell_angle_gamma   90.00000000
_symmetry_Int_Tables_number   1
_chemical_formula_structural   LiF
_chemical_formula_sum   'Li14 F14'
_cell_volume   326.53586300
_cell_formula_units_Z   14
loop_
 _symmetry_equiv_pos_site_id
 _symmetry_equiv_pos_as_xyz
  1  'x, y, z'
loop_
 _atom_site_type_symbol
 _atom_site_label
 _atom_site_symmetry_multiplicity
 _atom_site_fract_x
 _atom_site_fract_y
 _atom_site_fract_z
 _atom_site_occupancy
  F  F0  1  0.00000000  0.50000000  0.22333679  1
  F  F1  1  0.50000000  0.00000000  0.77666321  1
  F  F2  1  0.00000000  0.50000000  0.77666321  1
  F  F3  1  0.50000000  0.00000000  0.22333679  1
  F  F4  1  0.00000000  0.50000000  0.05166147  1
  F  F5  1  0.50000000  0.00000000  0.94833853  1
  F  F6  1  0.00000000  0.50000000  0.94833853  1
  F  F7  1  0.50000000  0.00000000  0.05166147  1
  F  F8  1  0.00000000  0.00000000  0.23313964  1
  F  F9  1  0.50000000  0.50000000  0.76686036  1
  F  F10  1  0.00000000  0.00000000  0.76686036  1
  F  F11  1  0.50000000  0.50000000  0.23313964  1
  F  F12  1  0.00000000  0.00000000  0.50000000  1
  F  F13  1  0.50000000  0.50000000  0.50000000  1
  Li  Li14  1  0.32039687  0.87471841  0.10659765  1
  Li  Li15  1  -0.32039687  -0.87471841  0.10659765  1
  Li  Li16  1  0.17960313  1.37471841  -0.10659765  1
  Li  Li17  1  0.82039687  -0.37471841  -0.10659765  1
  Li  Li18  1  -0.32039687  -0.87471841  -0.10659765  1
  Li  Li19  1  0.32039687  0.87471841  -0.10659765  1
  Li  Li20  1  0.82039687  -0.37471841  0.10659765  1
  Li  Li21  1  0.17960313  1.37471841  0.10659765  1
  Li  Li22  1  0.80839860  0.81492565  0.00000000  1
  Li  Li23  1  0.19160140  0.18507435  0.00000000  1
  Li  Li24  1  0.69160140  0.31492565  0.00000000  1
  Li  Li25  1  0.30839860  0.68507435  0.00000000  1
  Li  Li26  1  0.00000000  0.50000000  0.50000000  1
  Li  Li27  1  0.50000000  0.00000000  0.50000000  1
