# generated using pymatgen
data_LiF
_symmetry_space_group_name_H-M   'P 1'
_cell_length_a   6.74918768
_cell_length_b   8.49759178
_cell_length_c   11.45849841
_cell_angle_alpha   90.00000000
_cell_angle_beta   90.00000000
_cell_angle_gamma   90.00000000
_symmetry_Int_Tables_number   1
_chemical_formula_structural   LiF
_chemical_formula_sum   'Li24 F24'
_cell_volume   657.16598708
_cell_formula_units_Z   24
loop_
 _symmetry_equiv_pos_site_id
 _symmetry_equiv_pos_as_xyz
  1  'x, y, z'
loop_
 _atom_site_type_symbol
 _atom_site_label
 _atom_site_symmetry_multiplicity
 _atom_site_fract_x
 _atom_site_fract_y
 _atom_site_fract_z
 _atom_site_occupancy
  F  F0  1  0.00000000  0.00000000  0.50000000  1
  F  F1  1  0.50000000  -0.00000000  0.00000000  1
  F  F2  1  0.00000000  0.50000000  0.50000000  1
  F  F3  1  0.50000000  0.50000000  0.00000000  1
  F  F4  1  0.08714838  0.63890450  0.26710611  1
  F  F5  1  0.41285162  0.36109550  0.76710611  1
  F  F6  1  0.91285162  0.13890450  0.73289389  1
  F  F7  1  0.58714838  0.86109550  0.23289389  1
  F  F8  1  0.91285162  0.36109550  0.73289389  1
  F  F9  1  0.58714838  0.63890450  0.23289389  1
  F  F10  1  0.08714838  0.86109550  0.26710611  1
  F  F11  1  0.41285162  0.13890450  0.76710611  1
  F  F12  1  0.00411928  0.35215707  0.96118573  1
  F  F13  1  0.49588072  0.64784293  0.46118573  1
  F  F14  1  0.99588072  0.85215707  0.03881427  1
  F  F15  1  0.50411928  0.14784293  0.53881427  1
  F  F16  1  0.99588072  0.64784293  0.03881427  1
  F  F17  1  0.50411928  0.35215707  0.53881427  1
  F  F18  1  0.00411928  0.14784293  0.96118573  1
  F  F19  1  0.49588072  0.85215707  0.46118573  1
  F  F20  1  0.72028837  0.25000000  0.39564758  1
  F  F21  1  0.77971163  0.75000000  0.89564758  1
  F  F22  1  0.27971163  0.75000000  0.60435242  1
  F  F23  1  0.22028837  0.25000000  0.10435242  1
  Li  Li24  1  0.18734508  0.43923531  0.76765759  1
  Li  Li25  1  0.31265492  -0.43923531  1.26765759  1
  Li  Li26  1  -0.18734508  0.93923531  -0.76765759  1
  Li  Li27  1  0.68734508  0.06076469  -0.26765759  1
  Li  Li28  1  -0.18734508  -0.43923531  -0.76765759  1
  Li  Li29  1  0.68734508  0.43923531  -0.26765759  1
  Li  Li30  1  0.18734508  0.06076469  0.76765759  1
  Li  Li31  1  0.31265492  0.93923531  1.26765759  1
  Li  Li32  1  0.52981015  0.25000000  0.60366394  1
  Li  Li33  1  0.97018985  0.75000000  0.10366394  1
  Li  Li34  1  0.47018985  0.75000000  0.39633606  1
  Li  Li35  1  0.02981015  0.25000000  0.89633606  1
  Li  Li36  1  0.99286105  0.48526169  0.93242058  1
  Li  Li37  1  0.50713895  0.51473831  0.43242058  1
  Li  Li38  1  0.00713895  0.98526169  0.06757942  1
  Li  Li39  1  0.49286105  0.01473831  0.56757942  1
  Li  Li40  1  0.00713895  0.51473831  0.06757942  1
  Li  Li41  1  0.49286105  0.48526169  0.56757942  1
  Li  Li42  1  0.99286105  0.01473831  0.93242058  1
  Li  Li43  1  0.50713895  0.98526169  0.43242058  1
  Li  Li44  1  0.41789116  0.25000000  0.91319971  1
  Li  Li45  1  0.08210884  0.75000000  0.41319971  1
  Li  Li46  1  0.58210884  0.75000000  0.08680029  1
  Li  Li47  1  0.91789116  0.25000000  0.58680029  1
