# generated using pymatgen
data_Li4TeF2
_symmetry_space_group_name_H-M   'P 1'
_cell_length_a   13.94107083
_cell_length_b   13.94107083
_cell_length_c   11.86141719
_cell_angle_alpha   90.00000000
_cell_angle_beta   90.00000000
_cell_angle_gamma   120.00000000
_symmetry_Int_Tables_number   1
_chemical_formula_structural   Li4TeF2
_chemical_formula_sum   'Li96 Te24 F48'
_cell_volume   1996.45479032
_cell_formula_units_Z   24
loop_
 _symmetry_equiv_pos_site_id
 _symmetry_equiv_pos_as_xyz
  1  'x, y, z'
loop_
 _atom_site_type_symbol
 _atom_site_label
 _atom_site_symmetry_multiplicity
 _atom_site_fract_x
 _atom_site_fract_y
 _atom_site_fract_z
 _atom_site_occupancy
  F  F0  1  0.39631740  0.24942922  0.68011331  1
  F  F1  1  -0.24942922  0.14688818  0.68011331  1
  F  F2  1  -0.14688818  -0.39631740  0.68011331  1
  F  F3  1  0.24942922  0.39631740  -0.18011331  1
  F  F4  1  0.14688818  -0.24942922  -0.18011331  1
  F  F5  1  -0.39631740  -0.14688818  -0.18011331  1
  F  F6  1  -0.39631740  -0.24942922  -0.68011331  1
  F  F7  1  0.24942922  -0.14688818  -0.68011331  1
  F  F8  1  0.14688818  0.39631740  -0.68011331  1
  F  F9  1  -0.24942922  -0.39631740  1.18011331  1
  F  F10  1  -0.14688818  0.24942922  1.18011331  1
  F  F11  1  0.39631740  0.14688818  1.18011331  1
  F  F12  1  1.06298407  0.58276256  1.01344664  1
  F  F13  1  0.41723744  0.48022151  1.01344664  1
  F  F14  1  0.51977849  -0.06298407  1.01344664  1
  F  F15  1  0.91609589  0.72965074  0.15322002  1
  F  F16  1  0.81355485  0.08390411  0.15322002  1
  F  F17  1  0.27034926  0.18644515  0.15322002  1
  F  F18  1  0.27034926  0.08390411  -0.34677998  1
  F  F19  1  0.91609589  0.18644515  -0.34677998  1
  F  F20  1  0.81355485  0.72965074  -0.34677998  1
  F  F21  1  0.41723744  -0.06298407  1.51344664  1
  F  F22  1  0.51977849  0.58276256  1.51344664  1
  F  F23  1  1.06298407  0.48022151  1.51344664  1
  F  F24  1  0.72965074  0.91609589  1.34677998  1
  F  F25  1  0.08390411  0.81355485  1.34677998  1
  F  F26  1  0.18644515  0.27034926  1.34677998  1
  F  F27  1  0.58276256  1.06298407  0.48655336  1
  F  F28  1  0.48022151  0.41723744  0.48655336  1
  F  F29  1  -0.06298407  0.51977849  0.48655336  1
  F  F30  1  -0.06298407  0.41723744  -0.01344664  1
  F  F31  1  0.58276256  0.51977849  -0.01344664  1
  F  F32  1  0.48022151  1.06298407  -0.01344664  1
  F  F33  1  0.08390411  0.27034926  1.84677998  1
  F  F34  1  0.18644515  0.91609589  1.84677998  1
  F  F35  1  0.72965074  0.81355485  1.84677998  1
  F  F36  1  0.00000000  0.00000000  0.83300754  1
  F  F37  1  0.00000000  0.00000000  0.66699246  1
  F  F38  1  0.00000000  0.00000000  0.16699246  1
  F  F39  1  0.00000000  0.00000000  0.33300754  1
  F  F40  1  0.66666667  0.33333333  0.16634087  1
  F  F41  1  0.66666667  0.33333333  0.00032580  1
  F  F42  1  0.66666667  0.33333333  0.50032580  1
  F  F43  1  0.66666667  0.33333333  0.66634087  1
  F  F44  1  0.33333333  0.66666667  0.49967420  1
  F  F45  1  0.33333333  0.66666667  0.33365913  1
  F  F46  1  0.33333333  0.66666667  0.83365913  1
  F  F47  1  0.33333333  0.66666667  0.99967420  1
  Li  Li48  1  0.04809727  0.18865762  0.80739451  1
  Li  Li49  1  0.81134238  0.85943965  0.80739451  1
  Li  Li50  1  0.14056035  0.95190273  0.80739451  1
  Li  Li51  1  0.18865762  0.04809727  0.69260549  1
  Li  Li52  1  0.85943965  0.81134238  0.69260549  1
  Li  Li53  1  0.95190273  0.14056035  0.69260549  1
  Li  Li54  1  0.95190273  0.81134238  0.19260549  1
  Li  Li55  1  0.18865762  0.14056035  0.19260549  1
  Li  Li56  1  0.85943965  0.04809727  0.19260549  1
  Li  Li57  1  0.81134238  0.95190273  0.30739451  1
  Li  Li58  1  0.14056035  0.18865762  0.30739451  1
  Li  Li59  1  0.04809727  0.85943965  0.30739451  1
  Li  Li60  1  0.71476394  0.52199096  0.14072784  1
  Li  Li61  1  0.47800904  0.19277298  0.14072784  1
  Li  Li62  1  0.80722702  0.28523606  0.14072784  1
  Li  Li63  1  0.85532429  0.38143060  0.02593883  1
  Li  Li64  1  0.52610631  0.14467571  0.02593883  1
  Li  Li65  1  0.61856940  0.47389369  0.02593883  1
  Li  Li66  1  0.61856940  0.14467571  0.52593883  1
  Li  Li67  1  0.85532429  0.47389369  0.52593883  1
  Li  Li68  1  0.52610631  0.38143060  0.52593883  1
  Li  Li69  1  0.47800904  0.28523606  0.64072784  1
  Li  Li70  1  0.80722702  0.52199096  0.64072784  1
  Li  Li71  1  0.71476394  0.19277298  0.64072784  1
  Li  Li72  1  0.38143060  0.85532429  0.47406117  1
  Li  Li73  1  0.14467571  0.52610631  0.47406117  1
  Li  Li74  1  0.47389369  0.61856940  0.47406117  1
  Li  Li75  1  0.52199096  0.71476394  0.35927216  1
  Li  Li76  1  0.19277298  0.47800904  0.35927216  1
  Li  Li77  1  0.28523606  0.80722702  0.35927216  1
  Li  Li78  1  0.28523606  0.47800904  0.85927216  1
  Li  Li79  1  0.52199096  0.80722702  0.85927216  1
  Li  Li80  1  0.19277298  0.71476394  0.85927216  1
  Li  Li81  1  0.14467571  0.61856940  0.97406117  1
  Li  Li82  1  0.47389369  0.85532429  0.97406117  1
  Li  Li83  1  0.38143060  0.52610631  0.97406117  1
  Li  Li84  1  0.25959035  0.44768156  0.18105104  1
  Li  Li85  1  0.55231844  0.81190879  0.18105104  1
  Li  Li86  1  0.18809121  0.74040965  0.18105104  1
  Li  Li87  1  0.44768156  0.25959035  0.31894896  1
  Li  Li88  1  0.81190879  0.55231844  0.31894896  1
  Li  Li89  1  0.74040965  0.18809121  0.31894896  1
  Li  Li90  1  0.74040965  0.55231844  0.81894896  1
  Li  Li91  1  0.44768156  0.18809121  0.81894896  1
  Li  Li92  1  0.81190879  0.25959035  0.81894896  1
  Li  Li93  1  0.55231844  0.74040965  0.68105104  1
  Li  Li94  1  0.18809121  0.44768156  0.68105104  1
  Li  Li95  1  0.25959035  0.81190879  0.68105104  1
  Li  Li96  1  0.92625701  0.78101489  0.51438438  1
  Li  Li97  1  0.21898511  0.14524212  0.51438438  1
  Li  Li98  1  0.85475788  0.07374299  0.51438438  1
  Li  Li99  1  0.11434823  0.59292368  0.65228229  1
  Li  Li100  1  0.47857545  0.88565177  0.65228229  1
  Li  Li101  1  0.40707632  0.52142455  0.65228229  1
  Li  Li102  1  0.40707632  0.88565177  0.15228229  1
  Li  Li103  1  0.11434823  0.52142455  0.15228229  1
  Li  Li104  1  0.47857545  0.59292368  0.15228229  1
  Li  Li105  1  0.21898511  0.07374299  0.01438438  1
  Li  Li106  1  0.85475788  0.78101489  0.01438438  1
  Li  Li107  1  0.92625701  0.14524212  0.01438438  1
  Li  Li108  1  0.59292368  0.11434823  0.84771771  1
  Li  Li109  1  0.88565177  0.47857545  0.84771771  1
  Li  Li110  1  0.52142455  0.40707632  0.84771771  1
  Li  Li111  1  0.78101489  0.92625701  0.98561562  1
  Li  Li112  1  0.14524212  0.21898511  0.98561562  1
  Li  Li113  1  0.07374299  0.85475788  0.98561562  1
  Li  Li114  1  0.07374299  0.21898511  0.48561562  1
  Li  Li115  1  0.78101489  0.85475788  0.48561562  1
  Li  Li116  1  0.14524212  0.92625701  0.48561562  1
  Li  Li117  1  0.88565177  0.40707632  0.34771771  1
  Li  Li118  1  0.52142455  0.11434823  0.34771771  1
  Li  Li119  1  0.59292368  0.47857545  0.34771771  1
  Li  Li120  1  0.38675877  0.00000000  0.25000000  1
  Li  Li121  1  0.00000000  0.38675877  0.25000000  1
  Li  Li122  1  0.61324123  0.61324123  0.25000000  1
  Li  Li123  1  0.61324123  0.00000000  0.75000000  1
  Li  Li124  1  0.00000000  0.61324123  0.75000000  1
  Li  Li125  1  0.38675877  0.38675877  0.75000000  1
  Li  Li126  1  0.05342544  0.33333333  0.58333333  1
  Li  Li127  1  0.66666667  0.72009210  0.58333333  1
  Li  Li128  1  0.27990790  0.94657456  0.58333333  1
  Li  Li129  1  0.27990790  0.33333333  0.08333333  1
  Li  Li130  1  0.66666667  0.94657456  0.08333333  1
  Li  Li131  1  0.05342544  0.72009210  0.08333333  1
  Li  Li132  1  0.72009210  0.66666667  0.91666667  1
  Li  Li133  1  0.33333333  0.05342544  0.91666667  1
  Li  Li134  1  0.94657456  0.27990790  0.91666667  1
  Li  Li135  1  0.94657456  0.66666667  0.41666667  1
  Li  Li136  1  0.33333333  0.27990790  0.41666667  1
  Li  Li137  1  0.72009210  0.05342544  0.41666667  1
  Li  Li138  1  0.00000000  0.00000000  0.25000000  1
  Li  Li139  1  0.00000000  0.00000000  0.75000000  1
  Li  Li140  1  0.66666667  0.33333333  0.58333333  1
  Li  Li141  1  0.66666667  0.33333333  0.08333333  1
  Li  Li142  1  0.33333333  0.66666667  0.91666667  1
  Li  Li143  1  0.33333333  0.66666667  0.41666667  1
  Te  Te144  1  0.00000000  0.00000000  0.00000000  1
  Te  Te145  1  0.00000000  0.00000000  0.50000000  1
  Te  Te146  1  0.66666667  0.33333333  0.33333333  1
  Te  Te147  1  0.66666667  0.33333333  0.83333333  1
  Te  Te148  1  0.33333333  0.66666667  0.66666667  1
  Te  Te149  1  0.33333333  0.66666667  0.16666667  1
  Te  Te150  1  0.50000000  0.00000000  -0.00000000  1
  Te  Te151  1  0.00000000  0.50000000  0.00000000  1
  Te  Te152  1  0.50000000  0.50000000  0.00000000  1
  Te  Te153  1  0.00000000  0.50000000  0.50000000  1
  Te  Te154  1  0.50000000  0.00000000  0.50000000  1
  Te  Te155  1  0.50000000  0.50000000  0.50000000  1
  Te  Te156  1  0.16666667  0.33333333  0.33333333  1
  Te  Te157  1  0.66666667  0.83333333  0.33333333  1
  Te  Te158  1  0.16666667  0.83333333  0.33333333  1
  Te  Te159  1  0.66666667  0.83333333  0.83333333  1
  Te  Te160  1  0.16666667  0.33333333  0.83333333  1
  Te  Te161  1  0.16666667  0.83333333  0.83333333  1
  Te  Te162  1  0.83333333  0.66666667  0.66666667  1
  Te  Te163  1  0.33333333  0.16666667  0.66666667  1
  Te  Te164  1  0.83333333  0.16666667  0.66666667  1
  Te  Te165  1  0.33333333  0.16666667  0.16666667  1
  Te  Te166  1  0.83333333  0.66666667  0.16666667  1
  Te  Te167  1  0.83333333  0.16666667  0.16666667  1
