# generated using pymatgen
data_K4Li6Ti(Se2F3)2
_symmetry_space_group_name_H-M   'P 1'
_cell_length_a   12.39337256
_cell_length_b   9.56058474
_cell_length_c   18.69922988
_cell_angle_alpha   90.00000000
_cell_angle_beta   90.00000000
_cell_angle_gamma   90.00000000
_symmetry_Int_Tables_number   1
_chemical_formula_structural   K4Li6Ti(Se2F3)2
_chemical_formula_sum   'K16 Li24 Ti4 Se16 F24'
_cell_volume   2215.63226599
_cell_formula_units_Z   4
loop_
 _symmetry_equiv_pos_site_id
 _symmetry_equiv_pos_as_xyz
  1  'x, y, z'
loop_
 _atom_site_type_symbol
 _atom_site_label
 _atom_site_symmetry_multiplicity
 _atom_site_fract_x
 _atom_site_fract_y
 _atom_site_fract_z
 _atom_site_occupancy
  F  F0  1  0.98081723  0.45582469  0.41966807  1
  F  F1  1  0.51918277  0.54417531  0.91966807  1
  F  F2  1  0.01918277  0.95582469  0.58033193  1
  F  F3  1  0.48081723  0.04417531  0.08033193  1
  F  F4  1  0.01918277  0.54417531  0.58033193  1
  F  F5  1  0.48081723  0.45582469  0.08033193  1
  F  F6  1  0.98081723  0.04417531  0.41966807  1
  F  F7  1  0.51918277  0.95582469  0.91966807  1
  F  F8  1  0.63774603  0.30956406  0.33997567  1
  F  F9  1  0.86225397  0.69043594  0.83997567  1
  F  F10  1  0.36225397  0.80956406  0.66002433  1
  F  F11  1  0.13774603  0.19043594  0.16002433  1
  F  F12  1  0.36225397  0.69043594  0.66002433  1
  F  F13  1  0.13774603  0.30956406  0.16002433  1
  F  F14  1  0.63774603  0.19043594  0.33997567  1
  F  F15  1  0.86225397  0.80956406  0.83997567  1
  F  F16  1  0.18337865  0.61251439  0.33372957  1
  F  F17  1  0.31662135  0.38748561  0.83372957  1
  F  F18  1  0.81662135  0.11251439  0.66627043  1
  F  F19  1  0.68337865  0.88748561  0.16627043  1
  F  F20  1  0.81662135  0.38748561  0.66627043  1
  F  F21  1  0.68337865  0.61251439  0.16627043  1
  F  F22  1  0.18337865  0.88748561  0.33372957  1
  F  F23  1  0.31662135  0.11251439  0.83372957  1
  K  K24  1  0.46861225  0.25000000  0.52477483  1
  K  K25  1  0.03138775  0.75000000  0.02477483  1
  K  K26  1  0.53138775  0.75000000  0.47522517  1
  K  K27  1  0.96861225  0.25000000  0.97522517  1
  K  K28  1  0.44837137  0.13943166  0.20912074  1
  K  K29  1  0.05162863  0.86056834  0.70912074  1
  K  K30  1  0.55162863  0.63943166  0.79087926  1
  K  K31  1  0.94837137  0.36056834  0.29087926  1
  K  K32  1  0.55162863  0.86056834  0.79087926  1
  K  K33  1  0.94837137  0.13943166  0.29087926  1
  K  K34  1  0.44837137  0.36056834  0.20912074  1
  K  K35  1  0.05162863  0.63943166  0.70912074  1
  K  K36  1  0.15028081  0.25000000  0.48006733  1
  K  K37  1  0.34971919  0.75000000  0.98006733  1
  K  K38  1  0.84971919  0.75000000  0.51993267  1
  K  K39  1  0.65028081  0.25000000  0.01993267  1
  Li  Li40  1  0.80095340  0.25000000  0.79102366  1
  Li  Li41  1  0.69904660  0.75000000  0.29102366  1
  Li  Li42  1  0.19904660  0.75000000  0.20897634  1
  Li  Li43  1  0.30095340  0.25000000  0.70897634  1
  Li  Li44  1  0.00000000  0.00000000  0.50000000  1
  Li  Li45  1  0.50000000  0.00000000  -0.00000000  1
  Li  Li46  1  0.00000000  0.50000000  0.50000000  1
  Li  Li47  1  0.50000000  0.50000000  0.00000000  1
  Li  Li48  1  0.55561833  0.25000000  0.22764087  1
  Li  Li49  1  0.94438167  0.75000000  0.72764087  1
  Li  Li50  1  0.44438167  0.75000000  0.77235913  1
  Li  Li51  1  0.05561833  0.25000000  0.27235913  1
  Li  Li52  1  0.76638484  0.49843822  0.49522970  1
  Li  Li53  1  -0.26638484  -0.49843822  0.99522970  1
  Li  Li54  1  -0.76638484  0.99843822  -0.49522970  1
  Li  Li55  1  1.26638484  0.00156178  0.00477030  1
  Li  Li56  1  -0.76638484  -0.49843822  -0.49522970  1
  Li  Li57  1  1.26638484  0.49843822  0.00477030  1
  Li  Li58  1  0.76638484  0.00156178  0.49522970  1
  Li  Li59  1  -0.26638484  0.99843822  0.99522970  1
  Li  Li60  1  0.00000000  0.00000000  0.00000000  1
  Li  Li61  1  0.50000000  0.00000000  0.50000000  1
  Li  Li62  1  0.00000000  0.50000000  0.00000000  1
  Li  Li63  1  0.50000000  0.50000000  0.50000000  1
  Se  Se64  1  0.60336197  0.92115180  0.43661095  1
  Se  Se65  1  0.89663803  0.07884820  0.93661095  1
  Se  Se66  1  0.39663803  0.42115180  0.56338905  1
  Se  Se67  1  0.10336197  0.57884820  0.06338905  1
  Se  Se68  1  0.39663803  0.07884820  0.56338905  1
  Se  Se69  1  0.10336197  0.92115180  0.06338905  1
  Se  Se70  1  0.60336197  0.57884820  0.43661095  1
  Se  Se71  1  0.89663803  0.42115180  0.93661095  1
  Se  Se72  1  0.83128934  0.04537197  0.87501264  1
  Se  Se73  1  0.66871066  0.95462803  0.37501264  1
  Se  Se74  1  0.16871066  0.54537197  0.12498736  1
  Se  Se75  1  0.33128934  0.45462803  0.62498736  1
  Se  Se76  1  0.16871066  0.95462803  0.12498736  1
  Se  Se77  1  0.33128934  0.04537197  0.62498736  1
  Se  Se78  1  0.83128934  0.45462803  0.87501264  1
  Se  Se79  1  0.66871066  0.54537197  0.37501264  1
  Ti  Ti80  1  0.30631027  0.25000000  0.38151826  1
  Ti  Ti81  1  0.19368973  0.75000000  0.88151826  1
  Ti  Ti82  1  0.69368973  0.75000000  0.61848174  1
  Ti  Ti83  1  0.80631027  0.25000000  0.11848174  1
