# generated using pymatgen
data_LiF
_symmetry_space_group_name_H-M   'P 1'
_cell_length_a   6.16374716
_cell_length_b   6.16374716
_cell_length_c   28.70057061
_cell_angle_alpha   90.00000000
_cell_angle_beta   90.00000000
_cell_angle_gamma   120.00000000
_symmetry_Int_Tables_number   1
_chemical_formula_structural   LiF
_chemical_formula_sum   'Li30 F30'
_cell_volume   944.30174945
_cell_formula_units_Z   30
loop_
 _symmetry_equiv_pos_site_id
 _symmetry_equiv_pos_as_xyz
  1  'x, y, z'
loop_
 _atom_site_type_symbol
 _atom_site_label
 _atom_site_symmetry_multiplicity
 _atom_site_fract_x
 _atom_site_fract_y
 _atom_site_fract_z
 _atom_site_occupancy
  F  F0  1  0.66666667  0.33333333  0.35564504  1
  F  F1  1  0.66666667  0.33333333  0.64435496  1
  F  F2  1  0.31969475  0.93615826  0.37774371  1
  F  F3  1  0.06384174  0.38353650  0.37774371  1
  F  F4  1  0.61646350  0.68030525  0.37774371  1
  F  F5  1  0.06384174  0.68030525  0.62225629  1
  F  F6  1  0.61646350  0.93615826  0.62225629  1
  F  F7  1  0.31969475  0.38353650  0.62225629  1
  F  F8  1  0.04266304  0.89840630  0.24232834  1
  F  F9  1  0.10159370  0.14425674  0.24232834  1
  F  F10  1  0.85574326  0.95733696  0.24232834  1
  F  F11  1  0.10159370  0.95733696  0.75767166  1
  F  F12  1  0.85574326  0.89840630  0.75767166  1
  F  F13  1  0.04266304  0.14425674  0.75767166  1
  F  F14  1  0.03762193  0.42259512  0.41036471  1
  F  F15  1  0.57740488  0.61502681  0.41036471  1
  F  F16  1  0.38497319  0.96237807  0.41036471  1
  F  F17  1  0.57740488  0.96237807  0.58963529  1
  F  F18  1  0.38497319  0.42259512  0.58963529  1
  F  F19  1  0.03762193  0.61502681  0.58963529  1
  F  F20  1  0.96720008  0.67185916  0.78339144  1
  F  F21  1  0.32814084  0.29534092  0.78339144  1
  F  F22  1  0.70465908  0.03279992  0.78339144  1
  F  F23  1  0.32814084  0.03279992  0.21660856  1
  F  F24  1  0.70465908  0.67185916  0.21660856  1
  F  F25  1  0.96720008  0.29534092  0.21660856  1
  F  F26  1  0.22394288  0.77605712  0.50000000  1
  F  F27  1  0.22394288  0.44788576  0.50000000  1
  F  F28  1  0.55211424  0.77605712  0.50000000  1
  F  F29  1  0.66666667  0.33333333  0.00000000  1
  Li  Li30  1  0.33333333  0.66666667  0.55192691  1
  Li  Li31  1  0.33333333  0.66666667  0.44807309  1
  Li  Li32  1  0.93019895  0.26106805  0.53185330  1
  Li  Li33  1  -0.26106805  0.66913090  0.53185330  1
  Li  Li34  1  -0.66913090  -0.93019895  0.53185330  1
  Li  Li35  1  -0.26106805  -0.93019895  -0.53185330  1
  Li  Li36  1  -0.66913090  0.26106805  -0.53185330  1
  Li  Li37  1  0.93019895  0.66913090  -0.53185330  1
  Li  Li38  1  0.33333333  0.66666667  0.92357025  1
  Li  Li39  1  0.33333333  0.66666667  0.07642975  1
  Li  Li40  1  0.55584104  0.41266900  0.19094895  1
  Li  Li41  1  0.58733100  0.14317203  0.19094895  1
  Li  Li42  1  0.85682797  0.44415896  0.19094895  1
  Li  Li43  1  0.58733100  0.44415896  0.80905105  1
  Li  Li44  1  0.85682797  0.41266900  0.80905105  1
  Li  Li45  1  0.55584104  0.14317203  0.80905105  1
  Li  Li46  1  0.24553903  0.07484930  0.70621348  1
  Li  Li47  1  0.92515070  0.17068973  0.70621348  1
  Li  Li48  1  0.82931027  0.75446097  0.70621348  1
  Li  Li49  1  0.92515070  0.75446097  0.29378652  1
  Li  Li50  1  0.82931027  0.07484930  0.29378652  1
  Li  Li51  1  0.24553903  0.17068973  0.29378652  1
  Li  Li52  1  0.81053191  0.81656871  0.90548342  1
  Li  Li53  1  0.18343129  0.99396320  0.90548342  1
  Li  Li54  1  0.00603680  0.18946809  0.90548342  1
  Li  Li55  1  0.18343129  0.18946809  0.09451658  1
  Li  Li56  1  0.00603680  0.81656871  0.09451658  1
  Li  Li57  1  0.81053191  0.99396320  0.09451658  1
  Li  Li58  1  0.66666667  0.33333333  0.88479966  1
  Li  Li59  1  0.66666667  0.33333333  0.11520034  1
