# generated using pymatgen
data_Li2Y2P3Se
_symmetry_space_group_name_H-M   'P 1'
_cell_length_a   4.58311254
_cell_length_b   4.82575607
_cell_length_c   6.87282751
_cell_angle_alpha   95.38222948
_cell_angle_beta   101.41600373
_cell_angle_gamma   111.13937080
_symmetry_Int_Tables_number   1
_chemical_formula_structural   Li2Y2P3Se
_chemical_formula_sum   'Li2 Y2 P3 Se1'
_cell_volume   136.68512972
_cell_formula_units_Z   1
loop_
 _symmetry_equiv_pos_site_id
 _symmetry_equiv_pos_as_xyz
  1  'x, y, z'
loop_
 _atom_site_type_symbol
 _atom_site_label
 _atom_site_symmetry_multiplicity
 _atom_site_fract_x
 _atom_site_fract_y
 _atom_site_fract_z
 _atom_site_occupancy
  P  P0  1  0.00000000  0.00000000  0.00000000  1
  P  P1  1  0.33300000  0.66700000  0.25000000  1
  P  P2  1  0.66700000  0.33300000  0.50000000  1
  Se  Se3  1  0.00000000  0.00000000  0.75000000  1
  Li  Li4  1  0.55101687  0.10808691  0.16151064  1
  Li  Li5  1  0.64059600  0.68248980  0.77033414  1
  Y  Y6  1  0.33007481  0.32469465  0.39802452  1
  Y  Y7  1  0.08189491  0.68644063  0.45059957  1
