# generated using pymatgen
data_Li3Y2(As2P)2
_symmetry_space_group_name_H-M   'P 1'
_cell_length_a   5.77244974
_cell_length_b   5.65146340
_cell_length_c   6.99941292
_cell_angle_alpha   93.30408975
_cell_angle_beta   97.19562056
_cell_angle_gamma   103.27121533
_symmetry_Int_Tables_number   1
_chemical_formula_structural   Li3Y2(As2P)2
_chemical_formula_sum   'Li3 Y2 As4 P2'
_cell_volume   219.60789396
_cell_formula_units_Z   1
loop_
 _symmetry_equiv_pos_site_id
 _symmetry_equiv_pos_as_xyz
  1  'x, y, z'
loop_
 _atom_site_type_symbol
 _atom_site_label
 _atom_site_symmetry_multiplicity
 _atom_site_fract_x
 _atom_site_fract_y
 _atom_site_fract_z
 _atom_site_occupancy
  P  P0  1  0.00000000  0.00000000  0.00000000  1
  P  P1  1  0.33300000  0.66700000  0.25000000  1
  As  As2  1  0.66700000  0.33300000  0.50000000  1
  As  As3  1  0.00000000  0.00000000  0.75000000  1
  As  As4  1  0.56722902  0.62802017  0.81743702  1
  As  As5  1  0.70170705  0.39440277  0.44829596  1
  Li  Li6  1  0.12928966  0.24359346  0.67153712  1
  Li  Li7  1  0.27749714  0.15844928  0.99309805  1
  Li  Li8  1  0.43157819  0.37550536  0.65099713  1
  Y  Y9  1  0.31506053  0.88809504  0.17918906  1
  Y  Y10  1  0.47253422  0.65894874  0.01673855  1
