# generated using pymatgen
data_LiF
_symmetry_space_group_name_H-M   'P 1'
_cell_length_a   7.12040311
_cell_length_b   7.12040311
_cell_length_c   39.21716237
_cell_angle_alpha   90.00000000
_cell_angle_beta   90.00000000
_cell_angle_gamma   120.00000000
_symmetry_Int_Tables_number   1
_chemical_formula_structural   LiF
_chemical_formula_sum   'Li44 F44'
_cell_volume   1721.93185288
_cell_formula_units_Z   44
loop_
 _symmetry_equiv_pos_site_id
 _symmetry_equiv_pos_as_xyz
  1  'x, y, z'
loop_
 _atom_site_type_symbol
 _atom_site_label
 _atom_site_symmetry_multiplicity
 _atom_site_fract_x
 _atom_site_fract_y
 _atom_site_fract_z
 _atom_site_occupancy
  F  F0  1  0.86271210  0.35874522  0.16226251  1
  F  F1  1  0.64125478  0.50396688  0.16226251  1
  F  F2  1  0.49603312  0.13728790  0.16226251  1
  F  F3  1  0.86271210  0.35874522  0.83773749  1
  F  F4  1  0.64125478  0.50396688  0.83773749  1
  F  F5  1  0.49603312  0.13728790  0.83773749  1
  F  F6  1  0.35874522  0.86271210  0.83773749  1
  F  F7  1  0.50396688  0.64125478  0.83773749  1
  F  F8  1  0.13728790  0.49603312  0.83773749  1
  F  F9  1  0.35874522  0.86271210  0.16226251  1
  F  F10  1  0.50396688  0.64125478  0.16226251  1
  F  F11  1  0.13728790  0.49603312  0.16226251  1
  F  F12  1  0.83697259  0.22721226  0.65277609  1
  F  F13  1  0.77278774  0.60976033  0.65277609  1
  F  F14  1  0.39023967  0.16302741  0.65277609  1
  F  F15  1  0.83697259  0.22721226  0.34722391  1
  F  F16  1  0.77278774  0.60976033  0.34722391  1
  F  F17  1  0.39023967  0.16302741  0.34722391  1
  F  F18  1  0.22721226  0.83697259  0.34722391  1
  F  F19  1  0.60976033  0.77278774  0.34722391  1
  F  F20  1  0.16302741  0.39023967  0.34722391  1
  F  F21  1  0.22721226  0.83697259  0.65277609  1
  F  F22  1  0.60976033  0.77278774  0.65277609  1
  F  F23  1  0.16302741  0.39023967  0.65277609  1
  F  F24  1  0.55100365  0.00000000  0.34161359  1
  F  F25  1  0.00000000  0.55100365  0.34161359  1
  F  F26  1  0.44899635  0.44899635  0.34161359  1
  F  F27  1  0.55100365  0.00000000  0.65838641  1
  F  F28  1  0.00000000  0.55100365  0.65838641  1
  F  F29  1  0.44899635  0.44899635  0.65838641  1
  F  F30  1  0.07844617  0.82889370  0.67818758  1
  F  F31  1  0.17110630  0.24955247  0.67818758  1
  F  F32  1  0.75044753  0.92155383  0.67818758  1
  F  F33  1  0.07844617  0.82889370  0.32181242  1
  F  F34  1  0.17110630  0.24955247  0.32181242  1
  F  F35  1  0.75044753  0.92155383  0.32181242  1
  F  F36  1  0.82889370  0.07844617  0.32181242  1
  F  F37  1  0.24955247  0.17110630  0.32181242  1
  F  F38  1  0.92155383  0.75044753  0.32181242  1
  F  F39  1  0.82889370  0.07844617  0.67818758  1
  F  F40  1  0.24955247  0.17110630  0.67818758  1
  F  F41  1  0.92155383  0.75044753  0.67818758  1
  F  F42  1  0.33333333  0.66666667  0.50000000  1
  F  F43  1  0.66666667  0.33333333  0.50000000  1
  Li  Li44  1  0.31909673  0.00000000  0.14800886  1
  Li  Li45  1  0.00000000  0.31909673  0.14800886  1
  Li  Li46  1  0.68090327  0.68090327  0.14800886  1
  Li  Li47  1  0.31909673  0.00000000  0.85199114  1
  Li  Li48  1  0.00000000  0.31909673  0.85199114  1
  Li  Li49  1  0.68090327  0.68090327  0.85199114  1
  Li  Li50  1  0.38985789  0.00000000  0.09016531  1
  Li  Li51  1  0.00000000  0.38985789  0.09016531  1
  Li  Li52  1  0.61014211  0.61014211  0.09016531  1
  Li  Li53  1  0.38985789  0.00000000  0.90983469  1
  Li  Li54  1  0.00000000  0.38985789  0.90983469  1
  Li  Li55  1  0.61014211  0.61014211  0.90983469  1
  Li  Li56  1  0.00000000  0.00000000  0.50000000  1
  Li  Li57  1  0.84185527  0.73742970  0.00000000  1
  Li  Li58  1  0.26257030  0.10442557  0.00000000  1
  Li  Li59  1  0.89557443  0.15814473  0.00000000  1
  Li  Li60  1  0.73742970  0.84185527  0.00000000  1
  Li  Li61  1  0.10442557  0.26257030  0.00000000  1
  Li  Li62  1  0.15814473  0.89557443  -0.00000000  1
  Li  Li63  1  0.47510857  0.81579570  0.03771296  1
  Li  Li64  1  -0.81579570  -0.34068713  0.03771296  1
  Li  Li65  1  0.34068713  -0.47510857  0.03771296  1
  Li  Li66  1  0.47510857  0.81579570  -0.03771296  1
  Li  Li67  1  -0.81579570  -0.34068713  -0.03771296  1
  Li  Li68  1  0.34068713  -0.47510857  -0.03771296  1
  Li  Li69  1  0.81579570  0.47510857  -0.03771296  1
  Li  Li70  1  -0.34068713  -0.81579570  -0.03771296  1
  Li  Li71  1  -0.47510857  0.34068713  -0.03771296  1
  Li  Li72  1  0.81579570  0.47510857  0.03771296  1
  Li  Li73  1  -0.34068713  -0.81579570  0.03771296  1
  Li  Li74  1  -0.47510857  0.34068713  0.03771296  1
  Li  Li75  1  0.25064378  0.44140047  0.85345612  1
  Li  Li76  1  0.55859953  0.80924332  0.85345612  1
  Li  Li77  1  0.19075668  0.74935622  0.85345612  1
  Li  Li78  1  0.25064378  0.44140047  0.14654388  1
  Li  Li79  1  0.55859953  0.80924332  0.14654388  1
  Li  Li80  1  0.19075668  0.74935622  0.14654388  1
  Li  Li81  1  0.44140047  0.25064378  0.14654388  1
  Li  Li82  1  0.80924332  0.55859953  0.14654388  1
  Li  Li83  1  0.74935622  0.19075668  0.14654388  1
  Li  Li84  1  0.44140047  0.25064378  0.85345612  1
  Li  Li85  1  0.80924332  0.55859953  0.85345612  1
  Li  Li86  1  0.74935622  0.19075668  0.85345612  1
  Li  Li87  1  0.00000000  0.00000000  0.00000000  1
