# generated using pymatgen
data_Li2Ca2TiSO4
_symmetry_space_group_name_H-M   'P 1'
_cell_length_a   15.34717122
_cell_length_b   15.34717122
_cell_length_c   6.35490516
_cell_angle_alpha   90.00000000
_cell_angle_beta   90.00000000
_cell_angle_gamma   120.00000000
_symmetry_Int_Tables_number   1
_chemical_formula_structural   Li2Ca2TiSO4
_chemical_formula_sum   'Li12 Ca12 Ti6 S6 O24'
_cell_volume   1296.27272024
_cell_formula_units_Z   6
loop_
 _symmetry_equiv_pos_site_id
 _symmetry_equiv_pos_as_xyz
  1  'x, y, z'
loop_
 _atom_site_type_symbol
 _atom_site_label
 _atom_site_symmetry_multiplicity
 _atom_site_fract_x
 _atom_site_fract_y
 _atom_site_fract_z
 _atom_site_occupancy
  Ca  Ca0  1  0.33333333  0.66666667  0.25000000  1
  Ca  Ca1  1  0.66666667  0.33333333  0.75000000  1
  Ca  Ca2  1  0.66666667  0.33333333  0.25000000  1
  Ca  Ca3  1  0.33333333  0.66666667  0.75000000  1
  Ca  Ca4  1  0.50000000  0.00000000  0.00000000  1
  Ca  Ca5  1  0.00000000  0.50000000  -0.00000000  1
  Ca  Ca6  1  0.50000000  0.50000000  0.00000000  1
  Ca  Ca7  1  0.50000000  0.00000000  0.50000000  1
  Ca  Ca8  1  0.00000000  0.50000000  0.50000000  1
  Ca  Ca9  1  0.50000000  0.50000000  0.50000000  1
  Ca  Ca10  1  0.00000000  0.00000000  0.25000000  1
  Ca  Ca11  1  0.00000000  0.00000000  0.75000000  1
  Li  Li12  1  0.03449127  0.41772810  0.53932075  1
  Li  Li13  1  0.58227190  0.61676316  0.53932075  1
  Li  Li14  1  0.38323684  0.96550873  0.53932075  1
  Li  Li15  1  0.96550873  0.58227190  0.03932075  1
  Li  Li16  1  0.41772810  0.38323684  0.03932075  1
  Li  Li17  1  0.61676316  0.03449127  0.03932075  1
  Li  Li18  1  0.96550873  0.58227190  0.46067925  1
  Li  Li19  1  0.41772810  0.38323684  0.46067925  1
  Li  Li20  1  0.61676316  0.03449127  0.46067925  1
  Li  Li21  1  0.03449127  0.41772810  0.96067925  1
  Li  Li22  1  0.58227190  0.61676316  0.96067925  1
  Li  Li23  1  0.38323684  0.96550873  0.96067925  1
  O  O24  1  0.69985753  0.21205176  0.84534249  1
  O  O25  1  -0.21205176  0.48780577  0.84534249  1
  O  O26  1  -0.48780577  -0.69985753  0.84534249  1
  O  O27  1  -0.69985753  -0.21205176  1.34534249  1
  O  O28  1  0.21205176  -0.48780577  1.34534249  1
  O  O29  1  0.48780577  0.69985753  1.34534249  1
  O  O30  1  -0.69985753  -0.21205176  -0.84534249  1
  O  O31  1  0.21205176  -0.48780577  -0.84534249  1
  O  O32  1  0.48780577  0.69985753  -0.84534249  1
  O  O33  1  0.69985753  0.21205176  -0.34534249  1
  O  O34  1  -0.21205176  0.48780577  -0.34534249  1
  O  O35  1  -0.48780577  -0.69985753  -0.34534249  1
  O  O36  1  0.45212403  0.87426260  0.25000000  1
  O  O37  1  0.12573740  0.57786143  0.25000000  1
  O  O38  1  0.42213857  0.54787597  0.25000000  1
  O  O39  1  0.54787597  0.12573740  0.75000000  1
  O  O40  1  0.87426260  0.42213857  0.75000000  1
  O  O41  1  0.57786143  0.45212403  0.75000000  1
  O  O42  1  0.78149092  0.58407957  0.25000000  1
  O  O43  1  0.41592043  0.19741135  0.25000000  1
  O  O44  1  0.80258865  0.21850908  0.25000000  1
  O  O45  1  0.21850908  0.41592043  0.75000000  1
  O  O46  1  0.58407957  0.80258865  0.75000000  1
  O  O47  1  0.19741135  0.78149092  0.75000000  1
  S  S48  1  0.00000000  0.00000000  0.00000000  1
  S  S49  1  0.00000000  0.00000000  0.50000000  1
  S  S50  1  0.33333333  0.66666667  0.50108066  1
  S  S51  1  0.66666667  0.33333333  0.00108066  1
  S  S52  1  0.66666667  0.33333333  0.49891934  1
  S  S53  1  0.33333333  0.66666667  0.99891934  1
  Ti  Ti54  1  0.91539804  0.37636810  0.25000000  1
  Ti  Ti55  1  0.62363190  0.53902994  0.25000000  1
  Ti  Ti56  1  0.46097006  0.08460196  0.25000000  1
  Ti  Ti57  1  0.08460196  0.62363190  0.75000000  1
  Ti  Ti58  1  0.37636810  0.46097006  0.75000000  1
  Ti  Ti59  1  0.53902994  0.91539804  0.75000000  1
