# generated using pymatgen
data_LiCu3P2
_symmetry_space_group_name_H-M   'P 1'
_cell_length_a   4.55583517
_cell_length_b   4.65919032
_cell_length_c   6.85798783
_cell_angle_alpha   95.45453702
_cell_angle_beta   101.70464252
_cell_angle_gamma   111.63550759
_symmetry_Int_Tables_number   1
_chemical_formula_structural   LiCu3P2
_chemical_formula_sum   'Li1 Cu3 P2'
_cell_volume   130.17422448
_cell_formula_units_Z   1
loop_
 _symmetry_equiv_pos_site_id
 _symmetry_equiv_pos_as_xyz
  1  'x, y, z'
loop_
 _atom_site_type_symbol
 _atom_site_label
 _atom_site_symmetry_multiplicity
 _atom_site_fract_x
 _atom_site_fract_y
 _atom_site_fract_z
 _atom_site_occupancy
  Cu  Cu0  1  0.00000000  0.00000000  0.00000000  1
  Cu  Cu1  1  0.50000000  0.50000000  0.50000000  1
  Cu  Cu2  1  0.25000000  0.25000000  0.25000000  1
  P  P3  1  0.75000000  0.25000000  0.00000000  1
  P  P4  1  0.25000000  0.75000000  0.50000000  1
  Li  Li5  1  0.70743009  0.24690193  0.20724016  1
