# generated using pymatgen
data_Li2Ca3F8
_symmetry_space_group_name_H-M   'P 1'
_cell_length_a   12.55924528
_cell_length_b   12.55924528
_cell_length_c   12.55924528
_cell_angle_alpha   90.00000000
_cell_angle_beta   90.00000000
_cell_angle_gamma   90.00000000
_symmetry_Int_Tables_number   1
_chemical_formula_structural   Li2Ca3F8
_chemical_formula_sum   'Li16 Ca24 F64'
_cell_volume   1981.02805712
_cell_formula_units_Z   8
loop_
 _symmetry_equiv_pos_site_id
 _symmetry_equiv_pos_as_xyz
  1  'x, y, z'
loop_
 _atom_site_type_symbol
 _atom_site_label
 _atom_site_symmetry_multiplicity
 _atom_site_fract_x
 _atom_site_fract_y
 _atom_site_fract_z
 _atom_site_occupancy
  Ca  Ca0  1  0.12500000  0.67536875  0.57463125  1
  Ca  Ca1  1  0.37500000  0.32463125  0.07463125  1
  Ca  Ca2  1  0.87500000  0.17536875  0.92536875  1
  Ca  Ca3  1  0.62500000  0.82463125  0.42536875  1
  Ca  Ca4  1  0.57463125  0.12500000  0.67536875  1
  Ca  Ca5  1  0.07463125  0.37500000  0.32463125  1
  Ca  Ca6  1  0.92536875  0.87500000  0.17536875  1
  Ca  Ca7  1  0.42536875  0.62500000  0.82463125  1
  Ca  Ca8  1  0.67536875  0.57463125  0.12500000  1
  Ca  Ca9  1  0.32463125  0.07463125  0.37500000  1
  Ca  Ca10  1  0.17536875  0.92536875  0.87500000  1
  Ca  Ca11  1  0.82463125  0.42536875  0.62500000  1
  Ca  Ca12  1  0.62500000  0.17536875  0.07463125  1
  Ca  Ca13  1  0.87500000  0.82463125  0.57463125  1
  Ca  Ca14  1  0.37500000  0.67536875  0.42536875  1
  Ca  Ca15  1  0.12500000  0.32463125  0.92536875  1
  Ca  Ca16  1  0.07463125  0.62500000  0.17536875  1
  Ca  Ca17  1  0.57463125  0.87500000  0.82463125  1
  Ca  Ca18  1  0.42536875  0.37500000  0.67536875  1
  Ca  Ca19  1  0.92536875  0.12500000  0.32463125  1
  Ca  Ca20  1  0.17536875  0.07463125  0.62500000  1
  Ca  Ca21  1  0.82463125  0.57463125  0.87500000  1
  Ca  Ca22  1  0.67536875  0.42536875  0.37500000  1
  Ca  Ca23  1  0.32463125  0.92536875  0.12500000  1
  F  F24  1  0.74640881  0.36698104  0.96319290  1
  F  F25  1  -0.24640881  -0.36698104  1.46319290  1
  F  F26  1  -0.74640881  0.86698104  -0.46319290  1
  F  F27  1  1.24640881  0.13301896  -0.96319290  1
  F  F28  1  0.96319290  0.74640881  0.36698104  1
  F  F29  1  1.46319290  -0.24640881  -0.36698104  1
  F  F30  1  -0.46319290  -0.74640881  0.86698104  1
  F  F31  1  -0.96319290  1.24640881  0.13301896  1
  F  F32  1  0.36698104  0.96319290  0.74640881  1
  F  F33  1  -0.36698104  1.46319290  -0.24640881  1
  F  F34  1  0.86698104  -0.46319290  -0.74640881  1
  F  F35  1  0.13301896  -0.96319290  1.24640881  1
  F  F36  1  1.11698104  0.99640881  -0.71319290  1
  F  F37  1  0.38301896  0.00359119  -0.21319290  1
  F  F38  1  0.61698104  -0.49640881  1.71319290  1
  F  F39  1  -0.11698104  1.49640881  1.21319290  1
  F  F40  1  1.49640881  1.21319290  -0.11698104  1
  F  F41  1  -0.49640881  1.71319290  0.61698104  1
  F  F42  1  0.00359119  -0.21319290  0.38301896  1
  F  F43  1  0.99640881  -0.71319290  1.11698104  1
  F  F44  1  1.71319290  0.61698104  -0.49640881  1
  F  F45  1  1.21319290  -0.11698104  1.49640881  1
  F  F46  1  -0.71319290  1.11698104  0.99640881  1
  F  F47  1  -0.21319290  0.38301896  0.00359119  1
  F  F48  1  1.24640881  0.86698104  1.46319290  1
  F  F49  1  0.25359119  0.13301896  1.96319290  1
  F  F50  1  -0.24640881  1.36698104  0.03680710  1
  F  F51  1  1.74640881  0.63301896  -0.46319290  1
  F  F52  1  1.46319290  1.24640881  0.86698104  1
  F  F53  1  1.96319290  0.25359119  0.13301896  1
  F  F54  1  0.03680710  -0.24640881  1.36698104  1
  F  F55  1  -0.46319290  1.74640881  0.63301896  1
  F  F56  1  0.86698104  1.46319290  1.24640881  1
  F  F57  1  0.13301896  1.96319290  0.25359119  1
  F  F58  1  1.36698104  0.03680710  -0.24640881  1
  F  F59  1  0.63301896  -0.46319290  1.74640881  1
  F  F60  1  1.61698104  1.49640881  -0.21319290  1
  F  F61  1  0.88301896  0.50359119  0.28680710  1
  F  F62  1  1.11698104  0.00359119  2.21319290  1
  F  F63  1  0.38301896  1.99640881  1.71319290  1
  F  F64  1  1.99640881  1.71319290  0.38301896  1
  F  F65  1  0.00359119  2.21319290  1.11698104  1
  F  F66  1  0.50359119  0.28680710  0.88301896  1
  F  F67  1  1.49640881  -0.21319290  1.61698104  1
  F  F68  1  2.21319290  1.11698104  0.00359119  1
  F  F69  1  1.71319290  0.38301896  1.99640881  1
  F  F70  1  -0.21319290  1.61698104  1.49640881  1
  F  F71  1  0.28680710  0.88301896  0.50359119  1
  F  F72  1  0.41428872  0.41428872  0.41428872  1
  F  F73  1  0.08571128  0.58571128  0.91428872  1
  F  F74  1  0.58571128  0.91428872  0.08571128  1
  F  F75  1  0.91428872  0.08571128  0.58571128  1
  F  F76  1  0.16428872  0.66428872  0.83571128  1
  F  F77  1  0.33571128  0.33571128  0.33571128  1
  F  F78  1  0.66428872  0.83571128  0.16428872  1
  F  F79  1  0.83571128  0.16428872  0.66428872  1
  F  F80  1  0.91428872  0.91428872  0.91428872  1
  F  F81  1  0.58571128  0.08571128  0.41428872  1
  F  F82  1  0.08571128  0.41428872  0.58571128  1
  F  F83  1  0.41428872  0.58571128  0.08571128  1
  F  F84  1  0.66428872  0.16428872  0.33571128  1
  F  F85  1  0.83571128  0.83571128  0.83571128  1
  F  F86  1  0.16428872  0.33571128  0.66428872  1
  F  F87  1  0.33571128  0.66428872  0.16428872  1
  Li  Li88  1  0.27106024  0.27106024  0.27106024  1
  Li  Li89  1  0.22893976  0.72893976  0.77106024  1
  Li  Li90  1  0.72893976  0.77106024  0.22893976  1
  Li  Li91  1  0.77106024  0.22893976  0.72893976  1
  Li  Li92  1  0.02106024  0.52106024  0.97893976  1
  Li  Li93  1  0.47893976  0.47893976  0.47893976  1
  Li  Li94  1  0.52106024  0.97893976  0.02106024  1
  Li  Li95  1  0.97893976  0.02106024  0.52106024  1
  Li  Li96  1  0.77106024  0.77106024  0.77106024  1
  Li  Li97  1  0.72893976  0.22893976  0.27106024  1
  Li  Li98  1  0.22893976  0.27106024  0.72893976  1
  Li  Li99  1  0.27106024  0.72893976  0.22893976  1
  Li  Li100  1  0.52106024  0.02106024  0.47893976  1
  Li  Li101  1  0.97893976  0.97893976  0.97893976  1
  Li  Li102  1  0.02106024  0.47893976  0.52106024  1
  Li  Li103  1  0.47893976  0.52106024  0.02106024  1
