# generated using pymatgen
data_LiCaF3
_symmetry_space_group_name_H-M   'P 1'
_cell_length_a   18.25007633
_cell_length_b   18.25007633
_cell_length_c   4.10471252
_cell_angle_alpha   90.00000000
_cell_angle_beta   90.00000000
_cell_angle_gamma   120.00000000
_symmetry_Int_Tables_number   1
_chemical_formula_structural   LiCaF3
_chemical_formula_sum   'Li18 Ca18 F54'
_cell_volume   1183.97558737
_cell_formula_units_Z   18
loop_
 _symmetry_equiv_pos_site_id
 _symmetry_equiv_pos_as_xyz
  1  'x, y, z'
loop_
 _atom_site_type_symbol
 _atom_site_label
 _atom_site_symmetry_multiplicity
 _atom_site_fract_x
 _atom_site_fract_y
 _atom_site_fract_z
 _atom_site_occupancy
  Ca  Ca0  1  0.77101420  0.00000000  0.25000000  1
  Ca  Ca1  1  0.00000000  0.77101420  0.25000000  1
  Ca  Ca2  1  0.22898580  0.22898580  0.25000000  1
  Ca  Ca3  1  0.22898580  0.00000000  0.75000000  1
  Ca  Ca4  1  0.00000000  0.22898580  0.75000000  1
  Ca  Ca5  1  0.77101420  0.77101420  0.75000000  1
  Ca  Ca6  1  0.43768086  0.33333333  0.58333333  1
  Ca  Ca7  1  0.66666667  0.10434753  0.58333333  1
  Ca  Ca8  1  0.89565247  0.56231914  0.58333333  1
  Ca  Ca9  1  0.89565247  0.33333333  0.08333333  1
  Ca  Ca10  1  0.66666667  0.56231914  0.08333333  1
  Ca  Ca11  1  0.43768086  0.10434753  0.08333333  1
  Ca  Ca12  1  0.10434753  0.66666667  0.91666667  1
  Ca  Ca13  1  0.33333333  0.43768086  0.91666667  1
  Ca  Ca14  1  0.56231914  0.89565247  0.91666667  1
  Ca  Ca15  1  0.56231914  0.66666667  0.41666667  1
  Ca  Ca16  1  0.33333333  0.89565247  0.41666667  1
  Ca  Ca17  1  0.10434753  0.43768086  0.41666667  1
  F  F18  1  0.00000000  0.00000000  0.00000000  1
  F  F19  1  0.00000000  0.00000000  0.50000000  1
  F  F20  1  0.66666667  0.33333333  0.33333333  1
  F  F21  1  0.66666667  0.33333333  0.83333333  1
  F  F22  1  0.33333333  0.66666667  0.66666667  1
  F  F23  1  0.33333333  0.66666667  0.16666667  1
  F  F24  1  0.17826143  0.62089859  0.38117006  1
  F  F25  1  -0.62089859  -0.44263716  0.38117006  1
  F  F26  1  0.44263716  -0.17826143  0.38117006  1
  F  F27  1  0.62089859  0.17826143  0.11882994  1
  F  F28  1  -0.44263716  -0.62089859  0.11882994  1
  F  F29  1  -0.17826143  0.44263716  0.11882994  1
  F  F30  1  -0.17826143  -0.62089859  -0.38117006  1
  F  F31  1  0.62089859  0.44263716  -0.38117006  1
  F  F32  1  -0.44263716  0.17826143  -0.38117006  1
  F  F33  1  -0.62089859  -0.17826143  0.88117006  1
  F  F34  1  0.44263716  0.62089859  0.88117006  1
  F  F35  1  0.17826143  -0.44263716  0.88117006  1
  F  F36  1  0.84492809  0.95423192  0.71450340  1
  F  F37  1  0.04576808  -0.10930383  0.71450340  1
  F  F38  1  1.10930383  0.15507191  0.71450340  1
  F  F39  1  1.28756525  0.51159476  0.45216327  1
  F  F40  1  0.22402951  -0.28756525  0.45216327  1
  F  F41  1  0.48840524  0.77597049  0.45216327  1
  F  F42  1  0.48840524  -0.28756525  -0.04783673  1
  F  F43  1  1.28756525  0.77597049  -0.04783673  1
  F  F44  1  0.22402951  0.51159476  -0.04783673  1
  F  F45  1  0.04576808  0.15507191  1.21450340  1
  F  F46  1  1.10930383  0.95423192  1.21450340  1
  F  F47  1  0.84492809  -0.10930383  1.21450340  1
  F  F48  1  0.51159476  1.28756525  1.04783673  1
  F  F49  1  -0.28756525  0.22402951  1.04783673  1
  F  F50  1  0.77597049  0.48840524  1.04783673  1
  F  F51  1  0.95423192  0.84492809  0.78549660  1
  F  F52  1  -0.10930383  0.04576808  0.78549660  1
  F  F53  1  0.15507191  1.10930383  0.78549660  1
  F  F54  1  0.15507191  0.04576808  0.28549660  1
  F  F55  1  0.95423192  1.10930383  0.28549660  1
  F  F56  1  -0.10930383  0.84492809  0.28549660  1
  F  F57  1  -0.28756525  0.48840524  1.54783673  1
  F  F58  1  0.77597049  1.28756525  1.54783673  1
  F  F59  1  0.51159476  0.22402951  1.54783673  1
  F  F60  1  0.00000000  0.00000000  0.35704099  1
  F  F61  1  0.00000000  0.00000000  0.14295901  1
  F  F62  1  0.00000000  0.00000000  0.64295901  1
  F  F63  1  0.00000000  0.00000000  0.85704099  1
  F  F64  1  0.66666667  0.33333333  0.69037432  1
  F  F65  1  0.66666667  0.33333333  0.47629235  1
  F  F66  1  0.66666667  0.33333333  0.97629235  1
  F  F67  1  0.66666667  0.33333333  0.19037432  1
  F  F68  1  0.33333333  0.66666667  0.02370765  1
  F  F69  1  0.33333333  0.66666667  0.80962568  1
  F  F70  1  0.33333333  0.66666667  0.30962568  1
  F  F71  1  0.33333333  0.66666667  0.52370765  1
  Li  Li72  1  0.46269284  0.00000000  0.25000000  1
  Li  Li73  1  0.00000000  0.46269284  0.25000000  1
  Li  Li74  1  0.53730716  0.53730716  0.25000000  1
  Li  Li75  1  0.53730716  0.00000000  0.75000000  1
  Li  Li76  1  0.00000000  0.53730716  0.75000000  1
  Li  Li77  1  0.46269284  0.46269284  0.75000000  1
  Li  Li78  1  0.12935951  0.33333333  0.58333333  1
  Li  Li79  1  0.66666667  0.79602617  0.58333333  1
  Li  Li80  1  0.20397383  0.87064049  0.58333333  1
  Li  Li81  1  0.20397383  0.33333333  0.08333333  1
  Li  Li82  1  0.66666667  0.87064049  0.08333333  1
  Li  Li83  1  0.12935951  0.79602617  0.08333333  1
  Li  Li84  1  0.79602617  0.66666667  0.91666667  1
  Li  Li85  1  0.33333333  0.12935951  0.91666667  1
  Li  Li86  1  0.87064049  0.20397383  0.91666667  1
  Li  Li87  1  0.87064049  0.66666667  0.41666667  1
  Li  Li88  1  0.33333333  0.20397383  0.41666667  1
  Li  Li89  1  0.79602617  0.12935951  0.41666667  1
