# generated using pymatgen
data_LiF
_symmetry_space_group_name_H-M   'P 1'
_cell_length_a   7.86371623
_cell_length_b   7.14607741
_cell_length_c   5.15442690
_cell_angle_alpha   90.00000000
_cell_angle_beta   90.00000000
_cell_angle_gamma   90.00000000
_symmetry_Int_Tables_number   1
_chemical_formula_structural   LiF
_chemical_formula_sum   'Li8 F8'
_cell_volume   289.65160155
_cell_formula_units_Z   8
loop_
 _symmetry_equiv_pos_site_id
 _symmetry_equiv_pos_as_xyz
  1  'x, y, z'
loop_
 _atom_site_type_symbol
 _atom_site_label
 _atom_site_symmetry_multiplicity
 _atom_site_fract_x
 _atom_site_fract_y
 _atom_site_fract_z
 _atom_site_occupancy
  F  F0  1  0.00997227  0.61120575  -0.00000000  1
  F  F1  1  -0.00997227  -0.61120575  0.00000000  1
  F  F2  1  0.49002773  1.11120575  0.50000000  1
  F  F3  1  0.50997227  -0.11120575  0.50000000  1
  F  F4  1  0.00000000  0.00000000  0.50000000  1
  F  F5  1  0.50000000  0.50000000  -0.00000000  1
  F  F6  1  0.00000000  0.50000000  0.50000000  1
  F  F7  1  0.50000000  0.00000000  0.00000000  1
  Li  Li8  1  0.79341001  0.56488515  0.00000000  1
  Li  Li9  1  0.20658999  0.43511485  -0.00000000  1
  Li  Li10  1  0.70658999  0.06488515  0.50000000  1
  Li  Li11  1  0.29341001  0.93511485  0.50000000  1
  Li  Li12  1  0.00000000  0.00000000  0.81686418  1
  Li  Li13  1  0.50000000  0.50000000  0.68313582  1
  Li  Li14  1  0.00000000  0.00000000  0.18313582  1
  Li  Li15  1  0.50000000  0.50000000  0.31686418  1
