# generated using pymatgen
data_Li2YAs2P3Pb2
_symmetry_space_group_name_H-M   'P 1'
_cell_length_a   5.44618366
_cell_length_b   5.44431837
_cell_length_c   7.33706662
_cell_angle_alpha   95.26229694
_cell_angle_beta   100.63716302
_cell_angle_gamma   107.13691712
_symmetry_Int_Tables_number   1
_chemical_formula_structural   Li2YAs2P3Pb2
_chemical_formula_sum   'Li2 Y1 As2 P3 Pb2'
_cell_volume   201.83117337
_cell_formula_units_Z   1
loop_
 _symmetry_equiv_pos_site_id
 _symmetry_equiv_pos_as_xyz
  1  'x, y, z'
loop_
 _atom_site_type_symbol
 _atom_site_label
 _atom_site_symmetry_multiplicity
 _atom_site_fract_x
 _atom_site_fract_y
 _atom_site_fract_z
 _atom_site_occupancy
  Pb  Pb0  1  0.00000000  0.00000000  0.00000000  1
  Pb  Pb1  1  0.50000000  0.50000000  0.50000000  1
  P  P2  1  0.25000000  0.25000000  0.25000000  1
  P  P3  1  0.75000000  0.25000000  0.00000000  1
  P  P4  1  0.25000000  0.75000000  0.50000000  1
  As  As5  1  0.08810924  0.73204909  0.87876452  1
  As  As6  1  0.12616861  0.72259060  0.30788432  1
  Li  Li7  1  0.46947456  0.45721372  0.98476703  1
  Li  Li8  1  0.59222646  0.19931576  0.63223551  1
  Y  Y9  1  0.60456598  0.65142040  0.57682660  1
