# generated using pymatgen
data_LiF
_symmetry_space_group_name_H-M   'P 1'
_cell_length_a   11.00579260
_cell_length_b   11.00579260
_cell_length_c   9.50655649
_cell_angle_alpha   90.00000000
_cell_angle_beta   90.00000000
_cell_angle_gamma   90.00000000
_symmetry_Int_Tables_number   1
_chemical_formula_structural   LiF
_chemical_formula_sum   'Li40 F40'
_cell_volume   1151.50514402
_cell_formula_units_Z   40
loop_
 _symmetry_equiv_pos_site_id
 _symmetry_equiv_pos_as_xyz
  1  'x, y, z'
loop_
 _atom_site_type_symbol
 _atom_site_label
 _atom_site_symmetry_multiplicity
 _atom_site_fract_x
 _atom_site_fract_y
 _atom_site_fract_z
 _atom_site_occupancy
  F  F0  1  0.43635138  0.45049100  0.02333765  1
  F  F1  1  0.06364862  0.54950900  0.52333765  1
  F  F2  1  0.79950900  0.18635138  0.27333765  1
  F  F3  1  0.70049100  0.81364862  0.77333765  1
  F  F4  1  0.06364862  0.45049100  0.97666235  1
  F  F5  1  0.43635138  0.54950900  0.47666235  1
  F  F6  1  0.70049100  0.18635138  0.72666235  1
  F  F7  1  0.79950900  0.81364862  0.22666235  1
  F  F8  1  0.56364862  0.54950900  0.97666235  1
  F  F9  1  0.93635138  0.45049100  0.47666235  1
  F  F10  1  0.20049100  0.81364862  0.72666235  1
  F  F11  1  0.29950900  0.18635138  0.22666235  1
  F  F12  1  0.93635138  0.54950900  0.02333765  1
  F  F13  1  0.56364862  0.45049100  0.52333765  1
  F  F14  1  0.29950900  0.81364862  0.27333765  1
  F  F15  1  0.20049100  0.18635138  0.77333765  1
  F  F16  1  0.93635138  0.95049100  0.52333765  1
  F  F17  1  0.56364862  0.04950900  0.02333765  1
  F  F18  1  0.29950900  0.68635138  0.77333765  1
  F  F19  1  0.20049100  0.31364862  0.27333765  1
  F  F20  1  0.56364862  0.95049100  0.47666235  1
  F  F21  1  0.93635138  0.04950900  0.97666235  1
  F  F22  1  0.20049100  0.68635138  0.22666235  1
  F  F23  1  0.29950900  0.31364862  0.72666235  1
  F  F24  1  0.06364862  0.04950900  0.47666235  1
  F  F25  1  0.43635138  0.95049100  0.97666235  1
  F  F26  1  0.70049100  0.31364862  0.22666235  1
  F  F27  1  0.79950900  0.68635138  0.72666235  1
  F  F28  1  0.43635138  0.04950900  0.52333765  1
  F  F29  1  0.06364862  0.95049100  0.02333765  1
  F  F30  1  0.79950900  0.31364862  0.77333765  1
  F  F31  1  0.70049100  0.68635138  0.27333765  1
  F  F32  1  0.00000000  0.25000000  0.37500000  1
  F  F33  1  0.00000000  0.75000000  0.62500000  1
  F  F34  1  0.50000000  0.25000000  0.62500000  1
  F  F35  1  0.50000000  0.75000000  0.37500000  1
  F  F36  1  0.50000000  0.75000000  0.87500000  1
  F  F37  1  0.50000000  0.25000000  0.12500000  1
  F  F38  1  0.00000000  0.75000000  0.12500000  1
  F  F39  1  0.00000000  0.25000000  0.87500000  1
  Li  Li40  1  0.14057608  0.08597414  0.48622695  1
  Li  Li41  1  0.35942392  -0.08597414  0.98622695  1
  Li  Li42  1  0.16402586  0.89057608  0.73622695  1
  Li  Li43  1  0.33597414  0.10942392  1.23622695  1
  Li  Li44  1  0.35942392  0.08597414  -0.48622695  1
  Li  Li45  1  0.14057608  -0.08597414  0.01377305  1
  Li  Li46  1  0.33597414  0.89057608  0.26377305  1
  Li  Li47  1  0.16402586  0.10942392  -0.23622695  1
  Li  Li48  1  -0.14057608  -0.08597414  -0.48622695  1
  Li  Li49  1  0.64057608  0.08597414  0.01377305  1
  Li  Li50  1  0.83597414  0.10942392  0.26377305  1
  Li  Li51  1  0.66402586  0.89057608  -0.23622695  1
  Li  Li52  1  0.64057608  -0.08597414  0.48622695  1
  Li  Li53  1  -0.14057608  0.08597414  0.98622695  1
  Li  Li54  1  0.66402586  0.10942392  0.73622695  1
  Li  Li55  1  0.83597414  0.89057608  1.23622695  1
  Li  Li56  1  0.64057608  0.58597414  0.98622695  1
  Li  Li57  1  0.85942392  0.41402586  1.48622695  1
  Li  Li58  1  0.66402586  1.39057608  1.23622695  1
  Li  Li59  1  0.83597414  0.60942392  1.73622695  1
  Li  Li60  1  0.85942392  0.58597414  0.01377305  1
  Li  Li61  1  0.64057608  0.41402586  0.51377305  1
  Li  Li62  1  0.83597414  1.39057608  0.76377305  1
  Li  Li63  1  0.66402586  0.60942392  0.26377305  1
  Li  Li64  1  0.35942392  0.41402586  0.01377305  1
  Li  Li65  1  1.14057608  0.58597414  0.51377305  1
  Li  Li66  1  1.33597414  0.60942392  0.76377305  1
  Li  Li67  1  1.16402586  1.39057608  0.26377305  1
  Li  Li68  1  1.14057608  0.41402586  0.98622695  1
  Li  Li69  1  0.35942392  0.58597414  1.48622695  1
  Li  Li70  1  1.16402586  0.60942392  1.23622695  1
  Li  Li71  1  1.33597414  1.39057608  1.73622695  1
  Li  Li72  1  0.00000000  0.25000000  0.12500000  1
  Li  Li73  1  0.00000000  0.75000000  0.37500000  1
  Li  Li74  1  0.00000000  0.75000000  0.87500000  1
  Li  Li75  1  0.00000000  0.25000000  0.62500000  1
  Li  Li76  1  0.50000000  0.75000000  0.62500000  1
  Li  Li77  1  0.50000000  0.25000000  0.87500000  1
  Li  Li78  1  0.50000000  0.25000000  0.37500000  1
  Li  Li79  1  0.50000000  0.75000000  0.12500000  1
