# generated using pymatgen
data_LiY2Cu3P3Se
_symmetry_space_group_name_H-M   'P 1'
_cell_length_a   3.61296428
_cell_length_b   3.90065258
_cell_length_c   6.22397602
_cell_angle_alpha   96.82970194
_cell_angle_beta   103.34033240
_cell_angle_gamma   115.02751761
_symmetry_Int_Tables_number   1
_chemical_formula_structural   LiY2Cu3P3Se
_chemical_formula_sum   'Li1 Y2 Cu3 P3 Se1'
_cell_volume   74.96490702
_cell_formula_units_Z   1
loop_
 _symmetry_equiv_pos_site_id
 _symmetry_equiv_pos_as_xyz
  1  'x, y, z'
loop_
 _atom_site_type_symbol
 _atom_site_label
 _atom_site_symmetry_multiplicity
 _atom_site_fract_x
 _atom_site_fract_y
 _atom_site_fract_z
 _atom_site_occupancy
  Y  Y0  1  0.00000000  0.00000000  0.00000000  1
  Y  Y1  1  0.50000000  0.50000000  0.50000000  1
  P  P2  1  0.25000000  0.25000000  0.25000000  1
  P  P3  1  0.75000000  0.25000000  0.00000000  1
  P  P4  1  0.25000000  0.75000000  0.50000000  1
  Se  Se5  1  0.75656096  0.19947808  0.61237670  1
  Li  Li6  1  0.78045403  0.08047568  0.22580538  1
  Cu  Cu7  1  0.79070324  0.79871407  0.12976212  1
  Cu  Cu8  1  0.95629363  0.12449364  0.60288591  1
  Cu  Cu9  1  0.41241045  0.30798329  0.21682184  1
