# generated using pymatgen
data_LiF
_symmetry_space_group_name_H-M   'P 1'
_cell_length_a   6.06126916
_cell_length_b   7.30835159
_cell_length_c   20.75246425
_cell_angle_alpha   90.00000000
_cell_angle_beta   90.00000000
_cell_angle_gamma   90.00000000
_symmetry_Int_Tables_number   1
_chemical_formula_structural   LiF
_chemical_formula_sum   'Li24 F24'
_cell_volume   919.29029838
_cell_formula_units_Z   24
loop_
 _symmetry_equiv_pos_site_id
 _symmetry_equiv_pos_as_xyz
  1  'x, y, z'
loop_
 _atom_site_type_symbol
 _atom_site_label
 _atom_site_symmetry_multiplicity
 _atom_site_fract_x
 _atom_site_fract_y
 _atom_site_fract_z
 _atom_site_occupancy
  F  F0  1  0.61563592  0.46958004  0.73104137  1
  F  F1  1  0.88436408  0.53041996  0.23104137  1
  F  F2  1  0.38436408  0.96958004  0.26895863  1
  F  F3  1  0.11563592  0.03041996  0.76895863  1
  F  F4  1  0.38436408  0.53041996  0.26895863  1
  F  F5  1  0.11563592  0.46958004  0.76895863  1
  F  F6  1  0.61563592  0.03041996  0.73104137  1
  F  F7  1  0.88436408  0.96958004  0.23104137  1
  F  F8  1  0.81882076  0.16052407  0.09154991  1
  F  F9  1  0.68117924  0.83947593  0.59154991  1
  F  F10  1  0.18117924  0.66052407  0.90845009  1
  F  F11  1  0.31882076  0.33947593  0.40845009  1
  F  F12  1  0.18117924  0.83947593  0.90845009  1
  F  F13  1  0.31882076  0.16052407  0.40845009  1
  F  F14  1  0.81882076  0.33947593  0.09154991  1
  F  F15  1  0.68117924  0.66052407  0.59154991  1
  F  F16  1  0.30593840  0.25000000  0.84574595  1
  F  F17  1  0.19406160  0.75000000  0.34574595  1
  F  F18  1  0.69406160  0.75000000  0.15425405  1
  F  F19  1  0.80593840  0.25000000  0.65425405  1
  F  F20  1  0.06088767  0.25000000  0.01314183  1
  F  F21  1  0.43911233  0.75000000  0.51314183  1
  F  F22  1  0.93911233  0.75000000  0.98685817  1
  F  F23  1  0.56088767  0.25000000  0.48685817  1
  Li  Li24  1  0.94258697  0.58762762  0.92181884  1
  Li  Li25  1  -0.44258697  -0.58762762  1.42181884  1
  Li  Li26  1  -0.94258697  1.08762762  -0.92181884  1
  Li  Li27  1  1.44258697  -0.08762762  -0.42181884  1
  Li  Li28  1  -0.94258697  -0.58762762  -0.92181884  1
  Li  Li29  1  1.44258697  0.58762762  -0.42181884  1
  Li  Li30  1  0.94258697  -0.08762762  0.92181884  1
  Li  Li31  1  -0.44258697  1.08762762  1.42181884  1
  Li  Li32  1  0.09679396  0.25000000  0.23507781  1
  Li  Li33  1  0.40320604  0.75000000  0.73507781  1
  Li  Li34  1  0.90320604  0.75000000  0.76492219  1
  Li  Li35  1  0.59679396  0.25000000  0.26492219  1
  Li  Li36  1  0.00000000  0.00000000  0.50000000  1
  Li  Li37  1  0.50000000  -0.00000000  0.00000000  1
  Li  Li38  1  0.00000000  0.50000000  0.50000000  1
  Li  Li39  1  0.50000000  0.50000000  0.00000000  1
  Li  Li40  1  0.57050248  0.36121138  0.06082494  1
  Li  Li41  1  0.92949752  0.63878862  0.56082494  1
  Li  Li42  1  0.42949752  0.86121138  0.93917506  1
  Li  Li43  1  0.07050248  0.13878862  0.43917506  1
  Li  Li44  1  0.42949752  0.63878862  0.93917506  1
  Li  Li45  1  0.07050248  0.36121138  0.43917506  1
  Li  Li46  1  0.57050248  0.13878862  0.06082494  1
  Li  Li47  1  0.92949752  0.86121138  0.56082494  1
