# generated using pymatgen
data_Li3(YP)2
_symmetry_space_group_name_H-M   'P 1'
_cell_length_a   4.43983584
_cell_length_b   4.61711358
_cell_length_c   6.91512607
_cell_angle_alpha   95.70901708
_cell_angle_beta   102.43305232
_cell_angle_gamma   112.93085261
_symmetry_Int_Tables_number   1
_chemical_formula_structural   Li3(YP)2
_chemical_formula_sum   'Li3 Y2 P2'
_cell_volume   124.81326469
_cell_formula_units_Z   1
loop_
 _symmetry_equiv_pos_site_id
 _symmetry_equiv_pos_as_xyz
  1  'x, y, z'
loop_
 _atom_site_type_symbol
 _atom_site_label
 _atom_site_symmetry_multiplicity
 _atom_site_fract_x
 _atom_site_fract_y
 _atom_site_fract_z
 _atom_site_occupancy
  P  P0  1  0.12500000  0.12500000  0.12500000  1
  P  P1  1  0.50000000  0.50000000  0.50000000  1
  Li  Li2  1  0.25000000  0.25000000  0.25000000  1
  Li  Li3  1  0.75000000  0.75000000  0.75000000  1
  Li  Li4  1  0.83083790  0.80821697  0.47469209  1
  Y  Y5  1  0.12029265  0.84810608  0.67432667  1
  Y  Y6  1  0.48453078  0.94621123  0.29611478  1
