# generated using pymatgen
data_Li2Y2As2P3Se
_symmetry_space_group_name_H-M   'P 1'
_cell_length_a   5.13327903
_cell_length_b   5.23042179
_cell_length_c   7.26599846
_cell_angle_alpha   94.53355244
_cell_angle_beta   99.87313471
_cell_angle_gamma   108.20947832
_symmetry_Int_Tables_number   1
_chemical_formula_structural   Li2Y2As2P3Se
_chemical_formula_sum   'Li2 Y2 As2 P3 Se1'
_cell_volume   180.72930231
_cell_formula_units_Z   1
loop_
 _symmetry_equiv_pos_site_id
 _symmetry_equiv_pos_as_xyz
  1  'x, y, z'
loop_
 _atom_site_type_symbol
 _atom_site_label
 _atom_site_symmetry_multiplicity
 _atom_site_fract_x
 _atom_site_fract_y
 _atom_site_fract_z
 _atom_site_occupancy
  Se  Se0  1  0.00000000  0.00000000  0.00000000  1
  Y  Y1  1  0.50000000  0.50000000  0.50000000  1
  Y  Y2  1  0.50000000  0.50000000  0.00000000  1
  P  P3  1  0.50000000  0.00000000  0.50000000  1
  P  P4  1  0.00000000  0.50000000  0.50000000  1
  P  P5  1  0.86004255  0.06069316  0.08130875  1
  As  As6  1  0.04520689  0.45081735  0.94260109  1
  As  As7  1  0.14353901  0.52608080  0.21975222  1
  Li  Li8  1  0.21876886  0.94028778  0.45323466  1
  Li  Li9  1  0.76529735  0.04000932  0.53695071  1
