# generated using pymatgen
data_LiF
_symmetry_space_group_name_H-M   'P 1'
_cell_length_a   6.52403118
_cell_length_b   15.09164315
_cell_length_c   8.87933219
_cell_angle_alpha   90.00000000
_cell_angle_beta   90.00000000
_cell_angle_gamma   90.00000000
_symmetry_Int_Tables_number   1
_chemical_formula_structural   LiF
_chemical_formula_sum   'Li24 F24'
_cell_volume   874.24440140
_cell_formula_units_Z   24
loop_
 _symmetry_equiv_pos_site_id
 _symmetry_equiv_pos_as_xyz
  1  'x, y, z'
loop_
 _atom_site_type_symbol
 _atom_site_label
 _atom_site_symmetry_multiplicity
 _atom_site_fract_x
 _atom_site_fract_y
 _atom_site_fract_z
 _atom_site_occupancy
  F  F0  1  0.38549404  0.54778889  0.09713902  1
  F  F1  1  0.11450596  0.45221111  0.59713902  1
  F  F2  1  0.61450596  0.04778889  0.90286098  1
  F  F3  1  0.88549404  0.95221111  0.40286098  1
  F  F4  1  0.61450596  0.45221111  0.90286098  1
  F  F5  1  0.88549404  0.54778889  0.40286098  1
  F  F6  1  0.38549404  0.95221111  0.09713902  1
  F  F7  1  0.11450596  0.04778889  0.59713902  1
  F  F8  1  0.51651881  0.20009194  0.81525960  1
  F  F9  1  0.98348119  0.79990806  0.31525960  1
  F  F10  1  0.48348119  0.70009194  0.18474040  1
  F  F11  1  0.01651881  0.29990806  0.68474040  1
  F  F12  1  0.48348119  0.79990806  0.18474040  1
  F  F13  1  0.01651881  0.20009194  0.68474040  1
  F  F14  1  0.51651881  0.29990806  0.81525960  1
  F  F15  1  0.98348119  0.70009194  0.31525960  1
  F  F16  1  0.70595349  0.71723229  0.73811936  1
  F  F17  1  0.79404651  0.28276771  0.23811936  1
  F  F18  1  0.29404651  0.21723229  0.26188064  1
  F  F19  1  0.20595349  0.78276771  0.76188064  1
  F  F20  1  0.29404651  0.28276771  0.26188064  1
  F  F21  1  0.20595349  0.71723229  0.76188064  1
  F  F22  1  0.70595349  0.78276771  0.73811936  1
  F  F23  1  0.79404651  0.21723229  0.23811936  1
  Li  Li24  1  0.04760324  0.25000000  0.83041070  1
  Li  Li25  1  0.45239676  0.75000000  0.33041070  1
  Li  Li26  1  0.95239676  0.75000000  0.16958930  1
  Li  Li27  1  0.54760324  0.25000000  0.66958930  1
  Li  Li28  1  0.92658601  0.25000000  0.62739779  1
  Li  Li29  1  0.57341399  0.75000000  0.12739779  1
  Li  Li30  1  0.07341399  0.75000000  0.37260221  1
  Li  Li31  1  0.42658601  0.25000000  0.87260221  1
  Li  Li32  1  0.71893596  0.31774998  0.98538607  1
  Li  Li33  1  -0.21893596  -0.31774998  1.48538607  1
  Li  Li34  1  -0.71893596  0.81774998  -0.98538607  1
  Li  Li35  1  1.21893596  0.18225002  -0.48538607  1
  Li  Li36  1  -0.71893596  -0.31774998  -0.98538607  1
  Li  Li37  1  1.21893596  0.31774998  -0.48538607  1
  Li  Li38  1  0.71893596  0.18225002  0.98538607  1
  Li  Li39  1  -0.21893596  0.81774998  1.48538607  1
  Li  Li40  1  0.67732551  0.99778146  0.36165757  1
  Li  Li41  1  0.82267449  0.00221854  0.86165757  1
  Li  Li42  1  0.32267449  0.49778146  0.63834243  1
  Li  Li43  1  0.17732551  0.50221854  0.13834243  1
  Li  Li44  1  0.32267449  0.00221854  0.63834243  1
  Li  Li45  1  0.17732551  0.99778146  0.13834243  1
  Li  Li46  1  0.67732551  0.50221854  0.36165757  1
  Li  Li47  1  0.82267449  0.49778146  0.86165757  1
