# generated using pymatgen
data_LiLaTiClO3
_symmetry_space_group_name_H-M   'P 1'
_cell_length_a   3.47830856
_cell_length_b   3.15465144
_cell_length_c   5.14574389
_cell_angle_alpha   107.75119280
_cell_angle_beta   102.20716537
_cell_angle_gamma   102.07983085
_symmetry_Int_Tables_number   1
_chemical_formula_structural   LiLaTiClO3
_chemical_formula_sum   'Li1 La1 Ti1 Cl1 O3'
_cell_volume   50.23528867
_cell_formula_units_Z   1
loop_
 _symmetry_equiv_pos_site_id
 _symmetry_equiv_pos_as_xyz
  1  'x, y, z'
loop_
 _atom_site_type_symbol
 _atom_site_label
 _atom_site_symmetry_multiplicity
 _atom_site_fract_x
 _atom_site_fract_y
 _atom_site_fract_z
 _atom_site_occupancy
  Li  Li0  1  0.12500000  0.00000000  0.25000000  1
  O  O1  1  0.00000000  0.00000000  0.00000000  1
  O  O2  1  0.37500000  0.00000000  0.25000000  1
  O  O3  1  0.25000000  0.25000000  0.25000000  1
  Cl  Cl4  1  0.00000000  0.25000000  0.12500000  1
  Ti  Ti5  1  0.15428810  0.60364719  0.54983183  1
  La  La6  1  0.60920159  0.52192053  0.57399568  1
