# generated using pymatgen
data_Li2Y2P3Se
_symmetry_space_group_name_H-M   'P 1'
_cell_length_a   5.68119553
_cell_length_b   5.95763463
_cell_length_c   7.19068945
_cell_angle_alpha   93.18110008
_cell_angle_beta   96.32352675
_cell_angle_gamma   101.80193781
_symmetry_Int_Tables_number   1
_chemical_formula_structural   Li2Y2P3Se
_chemical_formula_sum   'Li2 Y2 P3 Se1'
_cell_volume   236.02259713
_cell_formula_units_Z   1
loop_
 _symmetry_equiv_pos_site_id
 _symmetry_equiv_pos_as_xyz
  1  'x, y, z'
loop_
 _atom_site_type_symbol
 _atom_site_label
 _atom_site_symmetry_multiplicity
 _atom_site_fract_x
 _atom_site_fract_y
 _atom_site_fract_z
 _atom_site_occupancy
  Se  Se0  1  0.12500000  0.12500000  0.12500000  1
  Y  Y1  1  0.50000000  0.50000000  0.50000000  1
  Y  Y2  1  0.25000000  0.25000000  0.25000000  1
  P  P3  1  0.75000000  0.75000000  0.75000000  1
  P  P4  1  0.93555183  0.02852578  0.16961254  1
  P  P5  1  0.17983785  0.30470021  0.45231261  1
  Li  Li6  1  0.65588626  0.58473492  0.35582672  1
  Li  Li7  1  0.53839617  0.16435047  0.01495882  1
