# generated using pymatgen
data_Li3Y2As4P3Se2
_symmetry_space_group_name_H-M   'P 1'
_cell_length_a   5.23819715
_cell_length_b   5.41488882
_cell_length_c   7.12453254
_cell_angle_alpha   94.27640095
_cell_angle_beta   99.31311223
_cell_angle_gamma   107.17660300
_symmetry_Int_Tables_number   1
_chemical_formula_structural   Li3Y2As4P3Se2
_chemical_formula_sum   'Li3 Y2 As4 P3 Se2'
_cell_volume   188.91275779
_cell_formula_units_Z   1
loop_
 _symmetry_equiv_pos_site_id
 _symmetry_equiv_pos_as_xyz
  1  'x, y, z'
loop_
 _atom_site_type_symbol
 _atom_site_label
 _atom_site_symmetry_multiplicity
 _atom_site_fract_x
 _atom_site_fract_y
 _atom_site_fract_z
 _atom_site_occupancy
  Se  Se0  1  0.00000000  0.00000000  0.00000000  1
  Se  Se1  1  0.50000000  0.50000000  0.50000000  1
  Y  Y2  1  0.50000000  0.50000000  0.00000000  1
  Y  Y3  1  0.50000000  0.00000000  0.50000000  1
  P  P4  1  0.00000000  0.50000000  0.50000000  1
  P  P5  1  0.92043885  0.96113337  0.51130074  1
  P  P6  1  0.47696250  0.64516121  0.21903282  1
  As  As7  1  0.12604593  0.64973835  0.47686103  1
  As  As8  1  0.72650670  0.84003508  0.96434990  1
  As  As9  1  0.59490710  0.40801241  0.47532109  1
  As  As10  1  0.40619640  0.88691556  0.25208584  1
  Li  Li11  1  0.00065494  0.20360111  0.22656129  1
  Li  Li12  1  0.84060588  0.74645899  0.88852418  1
  Li  Li13  1  0.12586776  0.54175877  0.23858012  1
