# generated using pymatgen
data_Li2Y2MoP3Se2
_symmetry_space_group_name_H-M   'P 1'
_cell_length_a   5.33695871
_cell_length_b   5.57325536
_cell_length_c   7.19380693
_cell_angle_alpha   94.17542513
_cell_angle_beta   99.09320788
_cell_angle_gamma   106.77102326
_symmetry_Int_Tables_number   1
_chemical_formula_structural   Li2Y2MoP3Se2
_chemical_formula_sum   'Li2 Y2 Mo1 P3 Se2'
_cell_volume   200.70528086
_cell_formula_units_Z   1
loop_
 _symmetry_equiv_pos_site_id
 _symmetry_equiv_pos_as_xyz
  1  'x, y, z'
loop_
 _atom_site_type_symbol
 _atom_site_label
 _atom_site_symmetry_multiplicity
 _atom_site_fract_x
 _atom_site_fract_y
 _atom_site_fract_z
 _atom_site_occupancy
  Se  Se0  1  0.00000000  0.00000000  0.00000000  1
  Se  Se1  1  0.50000000  0.50000000  0.50000000  1
  P  P2  1  0.50000000  0.50000000  0.00000000  1
  P  P3  1  0.50000000  0.00000000  0.50000000  1
  P  P4  1  0.00000000  0.50000000  0.50000000  1
  Mo  Mo5  1  0.09790237  0.48199644  0.75901332  1
  Li  Li6  1  0.93486229  0.04508118  0.96053369  1
  Li  Li7  1  0.31136357  0.34866069  0.85539981  1
  Y  Y8  1  0.79964571  0.87377865  0.26254899  1
  Y  Y9  1  0.46507600  0.73912740  0.10704983  1
