# generated using pymatgen
data_LiF
_symmetry_space_group_name_H-M   'P 1'
_cell_length_a   10.92762240
_cell_length_b   10.92762240
_cell_length_c   11.13888605
_cell_angle_alpha   90.00000000
_cell_angle_beta   90.00000000
_cell_angle_gamma   120.00000000
_symmetry_Int_Tables_number   1
_chemical_formula_structural   LiF
_chemical_formula_sum   'Li36 F36'
_cell_volume   1151.92380331
_cell_formula_units_Z   36
loop_
 _symmetry_equiv_pos_site_id
 _symmetry_equiv_pos_as_xyz
  1  'x, y, z'
loop_
 _atom_site_type_symbol
 _atom_site_label
 _atom_site_symmetry_multiplicity
 _atom_site_fract_x
 _atom_site_fract_y
 _atom_site_fract_z
 _atom_site_occupancy
  F  F0  1  0.00000000  0.00000000  0.63680028  1
  F  F1  1  0.00000000  0.00000000  0.13680028  1
  F  F2  1  0.00000000  0.00000000  0.36319972  1
  F  F3  1  0.00000000  0.00000000  0.86319972  1
  F  F4  1  0.66666667  0.33333333  0.25000000  1
  F  F5  1  0.33333333  0.66666667  0.75000000  1
  F  F6  1  0.36008711  0.61441829  0.15558648  1
  F  F7  1  -0.61441829  -0.25433118  0.15558648  1
  F  F8  1  0.25433118  -0.36008711  0.15558648  1
  F  F9  1  -0.36008711  -0.61441829  0.65558648  1
  F  F10  1  0.61441829  0.25433118  0.65558648  1
  F  F11  1  -0.25433118  0.36008711  0.65558648  1
  F  F12  1  -0.36008711  -0.61441829  -0.15558648  1
  F  F13  1  0.61441829  0.25433118  -0.15558648  1
  F  F14  1  -0.25433118  0.36008711  -0.15558648  1
  F  F15  1  0.36008711  0.61441829  0.34441352  1
  F  F16  1  -0.61441829  -0.25433118  0.34441352  1
  F  F17  1  0.25433118  -0.36008711  0.34441352  1
  F  F18  1  0.16093712  0.40237007  0.03255878  1
  F  F19  1  0.59762993  0.75856704  0.03255878  1
  F  F20  1  0.24143296  0.83906288  0.03255878  1
  F  F21  1  0.83906288  0.59762993  0.53255878  1
  F  F22  1  0.40237007  0.24143296  0.53255878  1
  F  F23  1  0.75856704  0.16093712  0.53255878  1
  F  F24  1  0.83906288  0.59762993  0.96744122  1
  F  F25  1  0.40237007  0.24143296  0.96744122  1
  F  F26  1  0.75856704  0.16093712  0.96744122  1
  F  F27  1  0.16093712  0.40237007  0.46744122  1
  F  F28  1  0.59762993  0.75856704  0.46744122  1
  F  F29  1  0.24143296  0.83906288  0.46744122  1
  F  F30  1  0.72029472  0.75699798  0.25000000  1
  F  F31  1  0.24300202  0.96329675  0.25000000  1
  F  F32  1  0.03670325  0.27970528  0.25000000  1
  F  F33  1  0.27970528  0.24300202  0.75000000  1
  F  F34  1  0.75699798  0.03670325  0.75000000  1
  F  F35  1  0.96329675  0.72029472  0.75000000  1
  Li  Li36  1  0.33333333  0.66666667  0.25000000  1
  Li  Li37  1  0.66666667  0.33333333  0.75000000  1
  Li  Li38  1  0.77632011  0.82051454  0.95860028  1
  Li  Li39  1  0.17948546  0.95580557  0.95860028  1
  Li  Li40  1  0.04419443  0.22367989  0.95860028  1
  Li  Li41  1  0.22367989  0.17948546  0.45860028  1
  Li  Li42  1  0.82051454  0.04419443  0.45860028  1
  Li  Li43  1  0.95580557  0.77632011  0.45860028  1
  Li  Li44  1  0.22367989  0.17948546  0.04139972  1
  Li  Li45  1  0.82051454  0.04419443  0.04139972  1
  Li  Li46  1  0.95580557  0.77632011  0.04139972  1
  Li  Li47  1  0.77632011  0.82051454  0.54139972  1
  Li  Li48  1  0.17948546  0.95580557  0.54139972  1
  Li  Li49  1  0.04419443  0.22367989  0.54139972  1
  Li  Li50  1  0.73200923  0.02526135  0.14336105  1
  Li  Li51  1  0.97473865  0.70674788  0.14336105  1
  Li  Li52  1  0.29325212  0.26799077  0.14336105  1
  Li  Li53  1  0.26799077  0.97473865  0.64336105  1
  Li  Li54  1  0.02526135  0.29325212  0.64336105  1
  Li  Li55  1  0.70674788  0.73200923  0.64336105  1
  Li  Li56  1  0.26799077  0.97473865  0.85663895  1
  Li  Li57  1  0.02526135  0.29325212  0.85663895  1
  Li  Li58  1  0.70674788  0.73200923  0.85663895  1
  Li  Li59  1  0.73200923  0.02526135  0.35663895  1
  Li  Li60  1  0.97473865  0.70674788  0.35663895  1
  Li  Li61  1  0.29325212  0.26799077  0.35663895  1
  Li  Li62  1  0.80616679  0.57990078  0.25000000  1
  Li  Li63  1  0.42009922  0.22626601  0.25000000  1
  Li  Li64  1  0.77373399  0.19383321  0.25000000  1
  Li  Li65  1  0.19383321  0.42009922  0.75000000  1
  Li  Li66  1  0.57990078  0.77373399  0.75000000  1
  Li  Li67  1  0.22626601  0.80616679  0.75000000  1
  Li  Li68  1  0.33333333  0.66666667  0.83965174  1
  Li  Li69  1  0.66666667  0.33333333  0.33965174  1
  Li  Li70  1  0.66666667  0.33333333  0.16034826  1
  Li  Li71  1  0.33333333  0.66666667  0.66034826  1
