# generated using pymatgen
data_Li3Ti(SeF)2
_symmetry_space_group_name_H-M   'P 1'
_cell_length_a   5.91746587
_cell_length_b   5.40859916
_cell_length_c   6.91793558
_cell_angle_alpha   101.46709363
_cell_angle_beta   99.41430507
_cell_angle_gamma   98.43822878
_symmetry_Int_Tables_number   1
_chemical_formula_structural   Li3Ti(SeF)2
_chemical_formula_sum   'Li3 Ti1 Se2 F2'
_cell_volume   210.35611325
_cell_formula_units_Z   1
loop_
 _symmetry_equiv_pos_site_id
 _symmetry_equiv_pos_as_xyz
  1  'x, y, z'
loop_
 _atom_site_type_symbol
 _atom_site_label
 _atom_site_symmetry_multiplicity
 _atom_site_fract_x
 _atom_site_fract_y
 _atom_site_fract_z
 _atom_site_occupancy
  Se  Se0  1  0.12500000  0.12500000  0.12500000  1
  Se  Se1  1  0.50000000  0.50000000  0.50000000  1
  Ti  Ti2  1  0.25000000  0.25000000  0.25000000  1
  F  F3  1  0.75000000  0.75000000  0.75000000  1
  F  F4  1  0.55898771  0.44724853  0.63074365  1
  Li  Li5  1  0.10208090  0.83197781  0.41953887  1
  Li  Li6  1  0.80248887  0.49222263  0.95434802  1
  Li  Li7  1  0.98640127  0.67587107  0.11526011  1
