# generated using pymatgen
data_LiY2Sb2P2Se
_symmetry_space_group_name_H-M   'P 1'
_cell_length_a   4.28416382
_cell_length_b   4.39243177
_cell_length_c   5.87773756
_cell_angle_alpha   95.15223388
_cell_angle_beta   97.78818982
_cell_angle_gamma   105.31171403
_symmetry_Int_Tables_number   1
_chemical_formula_structural   LiY2Sb2P2Se
_chemical_formula_sum   'Li1 Y2 Sb2 P2 Se1'
_cell_volume   104.77972043
_cell_formula_units_Z   1
loop_
 _symmetry_equiv_pos_site_id
 _symmetry_equiv_pos_as_xyz
  1  'x, y, z'
loop_
 _atom_site_type_symbol
 _atom_site_label
 _atom_site_symmetry_multiplicity
 _atom_site_fract_x
 _atom_site_fract_y
 _atom_site_fract_z
 _atom_site_occupancy
  Y  Y0  1  0.00000000  0.00000000  0.00000000  1
  Y  Y1  1  0.50000000  0.50000000  0.50000000  1
  P  P2  1  0.50000000  0.50000000  0.00000000  1
  P  P3  1  0.50000000  0.00000000  0.50000000  1
  Se  Se4  1  0.00000000  0.50000000  0.50000000  1
  Li  Li5  1  0.65012850  0.84407776  0.25546908  1
  Sb  Sb6  1  0.48434568  0.47829558  0.99678165  1
  Sb  Sb7  1  0.02314635  0.54443288  0.33751697  1
