# generated using pymatgen
data_LiF
_symmetry_space_group_name_H-M   'P 1'
_cell_length_a   6.31847929
_cell_length_b   7.05824447
_cell_length_c   14.08363080
_cell_angle_alpha   90.00000000
_cell_angle_beta   90.00000000
_cell_angle_gamma   90.00000000
_symmetry_Int_Tables_number   1
_chemical_formula_structural   LiF
_chemical_formula_sum   'Li24 F24'
_cell_volume   628.09291493
_cell_formula_units_Z   24
loop_
 _symmetry_equiv_pos_site_id
 _symmetry_equiv_pos_as_xyz
  1  'x, y, z'
loop_
 _atom_site_type_symbol
 _atom_site_label
 _atom_site_symmetry_multiplicity
 _atom_site_fract_x
 _atom_site_fract_y
 _atom_site_fract_z
 _atom_site_occupancy
  F  F0  1  0.00000000  0.00000000  0.00000000  1
  F  F1  1  0.50000000  -0.00000000  0.50000000  1
  F  F2  1  0.00000000  0.50000000  0.00000000  1
  F  F3  1  0.50000000  0.50000000  0.50000000  1
  F  F4  1  0.56140656  0.19145293  0.56507694  1
  F  F5  1  0.93859344  0.80854707  0.06507694  1
  F  F6  1  0.43859344  0.69145293  0.43492306  1
  F  F7  1  0.06140656  0.30854707  0.93492306  1
  F  F8  1  0.43859344  0.80854707  0.43492306  1
  F  F9  1  0.06140656  0.19145293  0.93492306  1
  F  F10  1  0.56140656  0.30854707  0.56507694  1
  F  F11  1  0.93859344  0.69145293  0.06507694  1
  F  F12  1  0.56787021  0.65679548  0.31461727  1
  F  F13  1  0.93212979  0.34320452  0.81461727  1
  F  F14  1  0.43212979  0.15679548  0.68538273  1
  F  F15  1  0.06787021  0.84320452  0.18538273  1
  F  F16  1  0.43212979  0.34320452  0.68538273  1
  F  F17  1  0.06787021  0.65679548  0.18538273  1
  F  F18  1  0.56787021  0.84320452  0.31461727  1
  F  F19  1  0.93212979  0.15679548  0.81461727  1
  F  F20  1  0.47647422  0.25000000  0.95520067  1
  F  F21  1  0.02352578  0.75000000  0.45520067  1
  F  F22  1  0.52352578  0.75000000  0.04479933  1
  F  F23  1  0.97647422  0.25000000  0.54479933  1
  Li  Li24  1  0.28311803  0.11413512  0.13220749  1
  Li  Li25  1  0.21688197  -0.11413512  0.63220749  1
  Li  Li26  1  -0.28311803  0.61413512  -0.13220749  1
  Li  Li27  1  0.78311803  0.38586488  0.36779251  1
  Li  Li28  1  -0.28311803  -0.11413512  -0.13220749  1
  Li  Li29  1  0.78311803  0.11413512  0.36779251  1
  Li  Li30  1  0.28311803  0.38586488  0.13220749  1
  Li  Li31  1  0.21688197  0.61413512  0.63220749  1
  Li  Li32  1  0.21156762  0.25000000  0.71869387  1
  Li  Li33  1  0.28843238  0.75000000  0.21869387  1
  Li  Li34  1  0.78843238  0.75000000  0.28130613  1
  Li  Li35  1  0.71156762  0.25000000  0.78130613  1
  Li  Li36  1  0.00000000  0.00000000  0.50000000  1
  Li  Li37  1  0.50000000  -0.00000000  -0.00000000  1
  Li  Li38  1  0.00000000  0.50000000  0.50000000  1
  Li  Li39  1  0.50000000  0.50000000  0.00000000  1
  Li  Li40  1  0.13733998  0.92848966  0.42581966  1
  Li  Li41  1  0.36266002  0.07151034  0.92581966  1
  Li  Li42  1  0.86266002  0.42848966  0.57418034  1
  Li  Li43  1  0.63733998  0.57151034  0.07418034  1
  Li  Li44  1  0.86266002  0.07151034  0.57418034  1
  Li  Li45  1  0.63733998  0.92848966  0.07418034  1
  Li  Li46  1  0.13733998  0.57151034  0.42581966  1
  Li  Li47  1  0.36266002  0.42848966  0.92581966  1
