# generated using pymatgen
data_Li2Ti2Al3As2
_symmetry_space_group_name_H-M   'P 1'
_cell_length_a   6.43567099
_cell_length_b   5.58743207
_cell_length_c   7.85239425
_cell_angle_alpha   92.67363660
_cell_angle_beta   90.07732551
_cell_angle_gamma   99.93580692
_symmetry_Int_Tables_number   1
_chemical_formula_structural   Li2Ti2Al3As2
_chemical_formula_sum   'Li2 Ti2 Al3 As2'
_cell_volume   277.81285410
_cell_formula_units_Z   1
loop_
 _symmetry_equiv_pos_site_id
 _symmetry_equiv_pos_as_xyz
  1  'x, y, z'
loop_
 _atom_site_type_symbol
 _atom_site_label
 _atom_site_symmetry_multiplicity
 _atom_site_fract_x
 _atom_site_fract_y
 _atom_site_fract_z
 _atom_site_occupancy
  Al  Al0  1  0.00000000  0.00000000  0.00000000  1
  Al  Al1  1  0.50000000  0.50000000  0.50000000  1
  Al  Al2  1  0.25000000  0.25000000  0.25000000  1
  As  As3  1  0.75000000  0.25000000  0.00000000  1
  As  As4  1  0.25000000  0.75000000  0.50000000  1
  Ti  Ti5  1  0.57426811  0.55561283  0.17924955  1
  Ti  Ti6  1  0.65116130  0.53060543  0.08418355  1
  Li  Li7  1  0.71630451  0.47464640  0.84086402  1
  Li  Li8  1  0.24007244  0.95060081  0.88703274  1
