# generated using pymatgen
data_Li2O
_symmetry_space_group_name_H-M   'P 1'
_cell_length_a   5.64142423
_cell_length_b   5.64142423
_cell_length_c   10.38435371
_cell_angle_alpha   90.00000000
_cell_angle_beta   90.00000000
_cell_angle_gamma   120.00000000
_symmetry_Int_Tables_number   1
_chemical_formula_structural   Li2O
_chemical_formula_sum   'Li24 O12'
_cell_volume   286.21185852
_cell_formula_units_Z   12
loop_
 _symmetry_equiv_pos_site_id
 _symmetry_equiv_pos_as_xyz
  1  'x, y, z'
loop_
 _atom_site_type_symbol
 _atom_site_label
 _atom_site_symmetry_multiplicity
 _atom_site_fract_x
 _atom_site_fract_y
 _atom_site_fract_z
 _atom_site_occupancy
  Li  Li0  1  0.00000000  0.00000000  0.25000000  1
  Li  Li1  1  0.00000000  0.00000000  0.75000000  1
  Li  Li2  1  0.50000000  0.00000000  0.00000000  1
  Li  Li3  1  0.00000000  0.50000000  0.00000000  1
  Li  Li4  1  0.50000000  0.50000000  0.00000000  1
  Li  Li5  1  0.50000000  0.00000000  0.50000000  1
  Li  Li6  1  0.00000000  0.50000000  0.50000000  1
  Li  Li7  1  0.50000000  0.50000000  0.50000000  1
  Li  Li8  1  0.24930605  0.83296711  0.25000000  1
  Li  Li9  1  0.16703289  0.41633894  0.25000000  1
  Li  Li10  1  0.58366106  0.75069395  0.25000000  1
  Li  Li11  1  0.75069395  0.16703289  0.75000000  1
  Li  Li12  1  0.83296711  0.58366106  0.75000000  1
  Li  Li13  1  0.41633894  0.24930605  0.75000000  1
  Li  Li14  1  0.78264794  0.69719423  0.25000000  1
  Li  Li15  1  0.30280577  0.08545371  0.25000000  1
  Li  Li16  1  0.91454629  0.21735206  0.25000000  1
  Li  Li17  1  0.21735206  0.30280577  0.75000000  1
  Li  Li18  1  0.69719423  0.91454629  0.75000000  1
  Li  Li19  1  0.08545371  0.78264794  0.75000000  1
  Li  Li20  1  0.00000000  0.00000000  0.58518797  1
  Li  Li21  1  0.00000000  0.00000000  0.08518797  1
  Li  Li22  1  0.00000000  0.00000000  0.41481203  1
  Li  Li23  1  0.00000000  0.00000000  0.91481203  1
  O  O24  1  0.67246303  0.50330689  0.53743240  1
  O  O25  1  -0.50330689  0.16915614  0.53743240  1
  O  O26  1  -0.16915614  -0.67246303  0.53743240  1
  O  O27  1  -0.67246303  -0.50330689  1.03743240  1
  O  O28  1  0.50330689  -0.16915614  1.03743240  1
  O  O29  1  0.16915614  0.67246303  1.03743240  1
  O  O30  1  -0.67246303  -0.50330689  -0.53743240  1
  O  O31  1  0.50330689  -0.16915614  -0.53743240  1
  O  O32  1  0.16915614  0.67246303  -0.53743240  1
  O  O33  1  0.67246303  0.50330689  -0.03743240  1
  O  O34  1  -0.50330689  0.16915614  -0.03743240  1
  O  O35  1  -0.16915614  -0.67246303  -0.03743240  1
