# generated using pymatgen
data_Li2Ca4MgO6
_symmetry_space_group_name_H-M   'P 1'
_cell_length_a   16.77710917
_cell_length_b   16.77710917
_cell_length_c   4.59019696
_cell_angle_alpha   90.00000000
_cell_angle_beta   90.00000000
_cell_angle_gamma   90.00000000
_symmetry_Int_Tables_number   1
_chemical_formula_structural   Li2Ca4MgO6
_chemical_formula_sum   'Li8 Ca16 Mg4 O24'
_cell_volume   1292.00912960
_cell_formula_units_Z   4
loop_
 _symmetry_equiv_pos_site_id
 _symmetry_equiv_pos_as_xyz
  1  'x, y, z'
loop_
 _atom_site_type_symbol
 _atom_site_label
 _atom_site_symmetry_multiplicity
 _atom_site_fract_x
 _atom_site_fract_y
 _atom_site_fract_z
 _atom_site_occupancy
  Ca  Ca0  1  0.55768003  0.80768003  0.87500000  1
  Ca  Ca1  1  0.94231997  0.19231997  0.37500000  1
  Ca  Ca2  1  0.44231997  0.30768003  0.12500000  1
  Ca  Ca3  1  0.05768003  0.69231997  0.62500000  1
  Ca  Ca4  1  0.44231997  0.19231997  0.12500000  1
  Ca  Ca5  1  0.05768003  0.80768003  0.62500000  1
  Ca  Ca6  1  0.55768003  0.69231997  0.87500000  1
  Ca  Ca7  1  0.94231997  0.30768003  0.37500000  1
  Ca  Ca8  1  0.05768003  0.30768003  0.37500000  1
  Ca  Ca9  1  0.44231997  0.69231997  0.87500000  1
  Ca  Ca10  1  0.94231997  0.80768003  0.62500000  1
  Ca  Ca11  1  0.55768003  0.19231997  0.12500000  1
  Ca  Ca12  1  0.94231997  0.69231997  0.62500000  1
  Ca  Ca13  1  0.55768003  0.30768003  0.12500000  1
  Ca  Ca14  1  0.05768003  0.19231997  0.37500000  1
  Ca  Ca15  1  0.44231997  0.80768003  0.87500000  1
  Li  Li16  1  0.00000000  0.00000000  0.50000000  1
  Li  Li17  1  0.50000000  0.00000000  0.00000000  1
  Li  Li18  1  0.25000000  0.75000000  0.75000000  1
  Li  Li19  1  0.25000000  0.25000000  0.25000000  1
  Li  Li20  1  0.50000000  0.50000000  0.00000000  1
  Li  Li21  1  0.00000000  0.50000000  0.50000000  1
  Li  Li22  1  0.75000000  0.25000000  0.25000000  1
  Li  Li23  1  0.75000000  0.75000000  0.75000000  1
  Mg  Mg24  1  0.00000000  0.75000000  0.12500000  1
  Mg  Mg25  1  0.50000000  0.75000000  0.37500000  1
  Mg  Mg26  1  0.50000000  0.25000000  0.62500000  1
  Mg  Mg27  1  0.00000000  0.25000000  0.87500000  1
  O  O28  1  0.00000000  0.25000000  0.25652203  1
  O  O29  1  0.00000000  0.75000000  0.50652203  1
  O  O30  1  0.50000000  0.25000000  0.24347797  1
  O  O31  1  0.50000000  0.75000000  0.99347797  1
  O  O32  1  0.50000000  0.75000000  0.75652203  1
  O  O33  1  0.50000000  0.25000000  0.00652203  1
  O  O34  1  0.00000000  0.75000000  0.74347797  1
  O  O35  1  0.00000000  0.25000000  0.49347797  1
  O  O36  1  0.00000000  0.85883139  0.08350244  1
  O  O37  1  0.50000000  -0.85883139  0.58350244  1
  O  O38  1  -0.60883139  0.75000000  0.33350244  1
  O  O39  1  1.10883139  0.25000000  0.83350244  1
  O  O40  1  0.50000000  0.85883139  0.41649756  1
  O  O41  1  0.00000000  -0.85883139  -0.08350244  1
  O  O42  1  1.10883139  0.75000000  0.16649756  1
  O  O43  1  -0.60883139  0.25000000  0.66649756  1
  O  O44  1  0.50000000  1.35883139  0.58350244  1
  O  O45  1  1.00000000  -0.35883139  1.08350244  1
  O  O46  1  -0.10883139  1.25000000  0.83350244  1
  O  O47  1  1.60883139  0.75000000  1.33350244  1
  O  O48  1  1.00000000  1.35883139  0.91649756  1
  O  O49  1  0.50000000  -0.35883139  0.41649756  1
  O  O50  1  1.60883139  1.25000000  0.66649756  1
  O  O51  1  -0.10883139  0.75000000  1.16649756  1
