# generated using pymatgen
data_LiF
_symmetry_space_group_name_H-M   'P 1'
_cell_length_a   12.65626185
_cell_length_b   8.11472185
_cell_length_c   10.53588183
_cell_angle_alpha   90.00000000
_cell_angle_beta   90.00000000
_cell_angle_gamma   90.00000000
_symmetry_Int_Tables_number   1
_chemical_formula_structural   LiF
_chemical_formula_sum   'Li50 F50'
_cell_volume   1082.05660449
_cell_formula_units_Z   50
loop_
 _symmetry_equiv_pos_site_id
 _symmetry_equiv_pos_as_xyz
  1  'x, y, z'
loop_
 _atom_site_type_symbol
 _atom_site_label
 _atom_site_symmetry_multiplicity
 _atom_site_fract_x
 _atom_site_fract_y
 _atom_site_fract_z
 _atom_site_occupancy
  F  F0  1  0.32340815  0.68027714  0.53324403  1
  F  F1  1  0.67659185  0.31972286  0.53324403  1
  F  F2  1  0.17659185  0.18027714  0.46675597  1
  F  F3  1  0.82340815  0.81972286  0.46675597  1
  F  F4  1  0.67659185  0.31972286  0.46675597  1
  F  F5  1  0.32340815  0.68027714  0.46675597  1
  F  F6  1  0.82340815  0.81972286  0.53324403  1
  F  F7  1  0.17659185  0.18027714  0.53324403  1
  F  F8  1  0.54313068  0.58955530  0.30777310  1
  F  F9  1  0.45686932  0.41044470  0.30777310  1
  F  F10  1  0.95686932  0.08955530  0.69222690  1
  F  F11  1  0.04313068  0.91044470  0.69222690  1
  F  F12  1  0.45686932  0.41044470  0.69222690  1
  F  F13  1  0.54313068  0.58955530  0.69222690  1
  F  F14  1  0.04313068  0.91044470  0.30777310  1
  F  F15  1  0.95686932  0.08955530  0.30777310  1
  F  F16  1  0.22194779  0.52700206  0.00000000  1
  F  F17  1  0.77805221  0.47299794  0.00000000  1
  F  F18  1  0.27805221  0.02700206  0.00000000  1
  F  F19  1  0.72194779  0.97299794  0.00000000  1
  F  F20  1  0.18968138  0.40484083  0.08387385  1
  F  F21  1  0.81031862  0.59515917  0.08387385  1
  F  F22  1  0.31031862  0.90484083  0.91612615  1
  F  F23  1  0.68968138  0.09515917  0.91612615  1
  F  F24  1  0.81031862  0.59515917  0.91612615  1
  F  F25  1  0.18968138  0.40484083  0.91612615  1
  F  F26  1  0.68968138  0.09515917  0.08387385  1
  F  F27  1  0.31031862  0.90484083  0.08387385  1
  F  F28  1  0.13615878  0.92727278  0.07568163  1
  F  F29  1  0.86384122  0.07272722  0.07568163  1
  F  F30  1  0.36384122  0.42727278  0.92431837  1
  F  F31  1  0.63615878  0.57272722  0.92431837  1
  F  F32  1  0.86384122  0.07272722  0.92431837  1
  F  F33  1  0.13615878  0.92727278  0.92431837  1
  F  F34  1  0.63615878  0.57272722  0.07568163  1
  F  F35  1  0.36384122  0.42727278  0.07568163  1
  F  F36  1  0.43359956  0.61523265  0.50000000  1
  F  F37  1  0.56640044  0.38476735  0.50000000  1
  F  F38  1  0.06640044  0.11523265  0.50000000  1
  F  F39  1  0.93359956  0.88476735  0.50000000  1
  F  F40  1  0.00000000  0.00000000  0.50000000  1
  F  F41  1  0.50000000  0.50000000  0.50000000  1
  F  F42  1  0.28958389  0.60303288  0.35793566  1
  F  F43  1  0.71041611  0.39696712  0.35793566  1
  F  F44  1  0.21041611  0.10303288  0.64206434  1
  F  F45  1  0.78958389  0.89696712  0.64206434  1
  F  F46  1  0.71041611  0.39696712  0.64206434  1
  F  F47  1  0.28958389  0.60303288  0.64206434  1
  F  F48  1  0.78958389  0.89696712  0.35793566  1
  F  F49  1  0.21041611  0.10303288  0.35793566  1
  Li  Li50  1  0.18015797  0.92526502  0.00000000  1
  Li  Li51  1  0.81984203  0.07473498  -0.00000000  1
  Li  Li52  1  0.31984203  0.42526502  0.00000000  1
  Li  Li53  1  0.68015797  0.57473498  0.00000000  1
  Li  Li54  1  0.33302855  0.92287430  0.65913605  1
  Li  Li55  1  -0.33302855  -0.92287430  0.65913605  1
  Li  Li56  1  0.16697145  1.42287430  -0.65913605  1
  Li  Li57  1  0.83302855  -0.42287430  -0.65913605  1
  Li  Li58  1  -0.33302855  -0.92287430  -0.65913605  1
  Li  Li59  1  0.33302855  0.92287430  -0.65913605  1
  Li  Li60  1  0.83302855  -0.42287430  0.65913605  1
  Li  Li61  1  0.16697145  1.42287430  0.65913605  1
  Li  Li62  1  0.40566185  0.28344266  0.38814787  1
  Li  Li63  1  0.59433815  0.71655734  0.38814787  1
  Li  Li64  1  0.09433815  0.78344266  0.61185213  1
  Li  Li65  1  0.90566185  0.21655734  0.61185213  1
  Li  Li66  1  0.59433815  0.71655734  0.61185213  1
  Li  Li67  1  0.40566185  0.28344266  0.61185213  1
  Li  Li68  1  0.90566185  0.21655734  0.38814787  1
  Li  Li69  1  0.09433815  0.78344266  0.38814787  1
  Li  Li70  1  0.00000000  0.00000000  0.00000000  1
  Li  Li71  1  0.50000000  0.50000000  0.00000000  1
  Li  Li72  1  0.61054892  0.20585941  0.77533380  1
  Li  Li73  1  0.38945108  0.79414059  0.77533380  1
  Li  Li74  1  0.88945108  0.70585941  0.22466620  1
  Li  Li75  1  0.11054892  0.29414059  0.22466620  1
  Li  Li76  1  0.38945108  0.79414059  0.22466620  1
  Li  Li77  1  0.61054892  0.20585941  0.22466620  1
  Li  Li78  1  0.11054892  0.29414059  0.77533380  1
  Li  Li79  1  0.88945108  0.70585941  0.77533380  1
  Li  Li80  1  0.59480538  0.37219990  0.74930106  1
  Li  Li81  1  0.40519462  0.62780010  0.74930106  1
  Li  Li82  1  0.90519462  0.87219990  0.25069894  1
  Li  Li83  1  0.09480538  0.12780010  0.25069894  1
  Li  Li84  1  0.40519462  0.62780010  0.25069894  1
  Li  Li85  1  0.59480538  0.37219990  0.25069894  1
  Li  Li86  1  0.09480538  0.12780010  0.74930106  1
  Li  Li87  1  0.90519462  0.87219990  0.74930106  1
  Li  Li88  1  0.21487140  0.67582525  0.00000000  1
  Li  Li89  1  0.78512860  0.32417475  0.00000000  1
  Li  Li90  1  0.28512860  0.17582525  0.00000000  1
  Li  Li91  1  0.71487140  0.82417475  0.00000000  1
  Li  Li92  1  0.00000000  0.50000000  0.00000000  1
  Li  Li93  1  0.50000000  0.00000000  0.00000000  1
  Li  Li94  1  0.00000000  0.50000000  0.34421584  1
  Li  Li95  1  0.50000000  0.00000000  0.65578416  1
  Li  Li96  1  0.00000000  0.50000000  0.65578416  1
  Li  Li97  1  0.50000000  0.00000000  0.34421584  1
  Li  Li98  1  0.00000000  0.50000000  0.50000000  1
  Li  Li99  1  0.50000000  0.00000000  0.50000000  1
