# generated using pymatgen
data_LiF
_symmetry_space_group_name_H-M   'P 1'
_cell_length_a   10.76512538
_cell_length_b   7.47085679
_cell_length_c   7.79636763
_cell_angle_alpha   90.00000000
_cell_angle_beta   90.00000000
_cell_angle_gamma   90.00000000
_symmetry_Int_Tables_number   1
_chemical_formula_structural   LiF
_chemical_formula_sum   'Li22 F22'
_cell_volume   627.02060575
_cell_formula_units_Z   22
loop_
 _symmetry_equiv_pos_site_id
 _symmetry_equiv_pos_as_xyz
  1  'x, y, z'
loop_
 _atom_site_type_symbol
 _atom_site_label
 _atom_site_symmetry_multiplicity
 _atom_site_fract_x
 _atom_site_fract_y
 _atom_site_fract_z
 _atom_site_occupancy
  F  F0  1  0.00000000  0.50000000  0.50000000  1
  F  F1  1  0.50000000  -0.00000000  0.50000000  1
  F  F2  1  0.66698636  0.16360429  -0.00000000  1
  F  F3  1  0.33301364  0.83639571  0.00000000  1
  F  F4  1  0.83301364  0.66360429  0.00000000  1
  F  F5  1  0.16698636  0.33639571  -0.00000000  1
  F  F6  1  0.52988893  0.37225054  0.94113798  1
  F  F7  1  -0.52988893  -0.37225054  0.94113798  1
  F  F8  1  -0.02988893  0.87225054  -0.94113798  1
  F  F9  1  1.02988893  0.12774946  -0.94113798  1
  F  F10  1  -0.52988893  -0.37225054  -0.94113798  1
  F  F11  1  0.52988893  0.37225054  -0.94113798  1
  F  F12  1  1.02988893  0.12774946  0.94113798  1
  F  F13  1  -0.02988893  0.87225054  0.94113798  1
  F  F14  1  0.18151508  0.68775388  0.33393400  1
  F  F15  1  0.81848492  0.31224612  0.33393400  1
  F  F16  1  0.31848492  0.18775388  0.66606600  1
  F  F17  1  0.68151508  0.81224612  0.66606600  1
  F  F18  1  0.81848492  0.31224612  0.66606600  1
  F  F19  1  0.18151508  0.68775388  0.66606600  1
  F  F20  1  0.68151508  0.81224612  0.33393400  1
  F  F21  1  0.31848492  0.18775388  0.33393400  1
  Li  Li22  1  0.40289181  0.53491441  0.50000000  1
  Li  Li23  1  0.59710819  0.46508559  0.50000000  1
  Li  Li24  1  0.09710819  0.03491441  0.50000000  1
  Li  Li25  1  0.90289181  0.96508559  0.50000000  1
  Li  Li26  1  0.02398000  0.81273418  0.16468948  1
  Li  Li27  1  0.97602000  0.18726582  0.16468948  1
  Li  Li28  1  0.47602000  0.31273418  0.83531052  1
  Li  Li29  1  0.52398000  0.68726582  0.83531052  1
  Li  Li30  1  0.97602000  0.18726582  0.83531052  1
  Li  Li31  1  0.02398000  0.81273418  0.83531052  1
  Li  Li32  1  0.52398000  0.68726582  0.16468948  1
  Li  Li33  1  0.47602000  0.31273418  0.16468948  1
  Li  Li34  1  0.44999195  0.86691125  0.50000000  1
  Li  Li35  1  0.55000805  0.13308875  0.50000000  1
  Li  Li36  1  0.05000805  0.36691125  0.50000000  1
  Li  Li37  1  0.94999195  0.63308875  0.50000000  1
  Li  Li38  1  0.63483355  0.54641973  0.00000000  1
  Li  Li39  1  0.36516645  0.45358027  0.00000000  1
  Li  Li40  1  0.86516645  0.04641973  0.00000000  1
  Li  Li41  1  0.13483355  0.95358027  0.00000000  1
  Li  Li42  1  0.00000000  0.50000000  0.00000000  1
  Li  Li43  1  0.50000000  -0.00000000  0.00000000  1
