# generated using pymatgen
data_Li2YAsP2Se
_symmetry_space_group_name_H-M   'P 1'
_cell_length_a   4.49196723
_cell_length_b   4.70527898
_cell_length_c   6.79358698
_cell_angle_alpha   95.97835893
_cell_angle_beta   101.84704173
_cell_angle_gamma   111.06052502
_symmetry_Int_Tables_number   1
_chemical_formula_structural   Li2YAsP2Se
_chemical_formula_sum   'Li2 Y1 As1 P2 Se1'
_cell_volume   128.63049372
_cell_formula_units_Z   1
loop_
 _symmetry_equiv_pos_site_id
 _symmetry_equiv_pos_as_xyz
  1  'x, y, z'
loop_
 _atom_site_type_symbol
 _atom_site_label
 _atom_site_symmetry_multiplicity
 _atom_site_fract_x
 _atom_site_fract_y
 _atom_site_fract_z
 _atom_site_occupancy
  Se  Se0  1  0.00000000  0.00000000  0.00000000  1
  Y  Y1  1  0.50000000  0.50000000  0.50000000  1
  P  P2  1  0.50000000  0.50000000  0.00000000  1
  P  P3  1  0.50000000  0.00000000  0.50000000  1
  As  As4  1  0.00000000  0.50000000  0.50000000  1
  Li  Li5  1  0.34900824  0.84730452  0.68485701  1
  Li  Li6  1  0.15649566  0.15347960  0.99869736  1
