# generated using pymatgen
data_Li6SeO2
_symmetry_space_group_name_H-M   'P 1'
_cell_length_a   13.49576228
_cell_length_b   13.49576228
_cell_length_c   6.53148113
_cell_angle_alpha   90.00000000
_cell_angle_beta   90.00000000
_cell_angle_gamma   120.00000000
_symmetry_Int_Tables_number   1
_chemical_formula_structural   Li6SeO2
_chemical_formula_sum   'Li36 Se6 O12'
_cell_volume   1030.23701107
_cell_formula_units_Z   6
loop_
 _symmetry_equiv_pos_site_id
 _symmetry_equiv_pos_as_xyz
  1  'x, y, z'
loop_
 _atom_site_type_symbol
 _atom_site_label
 _atom_site_symmetry_multiplicity
 _atom_site_fract_x
 _atom_site_fract_y
 _atom_site_fract_z
 _atom_site_occupancy
  Li  Li0  1  0.06619416  0.13238833  0.61126704  1
  Li  Li1  1  0.86761167  0.93380584  0.61126704  1
  Li  Li2  1  0.06619416  0.93380584  0.61126704  1
  Li  Li3  1  0.93380584  0.86761167  0.11126704  1
  Li  Li4  1  0.13238833  0.06619416  0.11126704  1
  Li  Li5  1  0.93380584  0.06619416  0.11126704  1
  Li  Li6  1  0.13238833  0.06619416  0.38873296  1
  Li  Li7  1  0.93380584  0.86761167  0.38873296  1
  Li  Li8  1  0.93380584  0.06619416  0.38873296  1
  Li  Li9  1  0.86761167  0.93380584  0.88873296  1
  Li  Li10  1  0.06619416  0.13238833  0.88873296  1
  Li  Li11  1  0.06619416  0.93380584  0.88873296  1
  Li  Li12  1  0.97834724  0.72845303  0.37554950  1
  Li  Li13  1  -0.72845303  0.24989421  0.37554950  1
  Li  Li14  1  -0.24989421  -0.97834724  0.37554950  1
  Li  Li15  1  -0.97834724  -0.72845303  0.87554950  1
  Li  Li16  1  0.72845303  -0.24989421  0.87554950  1
  Li  Li17  1  0.24989421  0.97834724  0.87554950  1
  Li  Li18  1  0.72845303  0.97834724  -0.37554950  1
  Li  Li19  1  0.24989421  -0.72845303  -0.37554950  1
  Li  Li20  1  -0.97834724  -0.24989421  -0.37554950  1
  Li  Li21  1  -0.72845303  -0.97834724  0.12445050  1
  Li  Li22  1  -0.24989421  0.72845303  0.12445050  1
  Li  Li23  1  0.97834724  0.24989421  0.12445050  1
  Li  Li24  1  -0.97834724  -0.72845303  -0.37554950  1
  Li  Li25  1  0.72845303  -0.24989421  -0.37554950  1
  Li  Li26  1  0.24989421  0.97834724  -0.37554950  1
  Li  Li27  1  0.97834724  0.72845303  0.12445050  1
  Li  Li28  1  -0.72845303  0.24989421  0.12445050  1
  Li  Li29  1  -0.24989421  -0.97834724  0.12445050  1
  Li  Li30  1  -0.72845303  -0.97834724  0.37554950  1
  Li  Li31  1  -0.24989421  0.72845303  0.37554950  1
  Li  Li32  1  0.97834724  0.24989421  0.37554950  1
  Li  Li33  1  0.72845303  0.97834724  0.87554950  1
  Li  Li34  1  0.24989421  -0.72845303  0.87554950  1
  Li  Li35  1  -0.97834724  -0.24989421  0.87554950  1
  O  O36  1  0.00000000  0.00000000  0.25000000  1
  O  O37  1  0.00000000  0.00000000  0.75000000  1
  O  O38  1  0.33333333  0.66666667  0.75000000  1
  O  O39  1  0.66666667  0.33333333  0.25000000  1
  O  O40  1  0.42204663  0.84409325  0.25000000  1
  O  O41  1  0.15590675  0.57795337  0.25000000  1
  O  O42  1  0.42204663  0.57795337  0.25000000  1
  O  O43  1  0.57795337  0.15590675  0.75000000  1
  O  O44  1  0.84409325  0.42204663  0.75000000  1
  O  O45  1  0.57795337  0.42204663  0.75000000  1
  O  O46  1  0.00000000  0.00000000  0.00000000  1
  O  O47  1  0.00000000  0.00000000  0.50000000  1
  Se  Se48  1  0.50000000  -0.00000000  0.00000000  1
  Se  Se49  1  0.00000000  0.50000000  0.00000000  1
  Se  Se50  1  0.50000000  0.50000000  0.00000000  1
  Se  Se51  1  0.50000000  -0.00000000  0.50000000  1
  Se  Se52  1  0.00000000  0.50000000  0.50000000  1
  Se  Se53  1  0.50000000  0.50000000  0.50000000  1
