# generated using pymatgen
data_Li2Si4Te3F12
_symmetry_space_group_name_H-M   'P 1'
_cell_length_a   10.07363879
_cell_length_b   9.56857503
_cell_length_c   9.40334472
_cell_angle_alpha   90.00000000
_cell_angle_beta   90.00000000
_cell_angle_gamma   90.00000000
_symmetry_Int_Tables_number   1
_chemical_formula_structural   Li2Si4Te3F12
_chemical_formula_sum   'Li8 Si16 Te12 F48'
_cell_volume   906.39186356
_cell_formula_units_Z   4
loop_
 _symmetry_equiv_pos_site_id
 _symmetry_equiv_pos_as_xyz
  1  'x, y, z'
loop_
 _atom_site_type_symbol
 _atom_site_label
 _atom_site_symmetry_multiplicity
 _atom_site_fract_x
 _atom_site_fract_y
 _atom_site_fract_z
 _atom_site_occupancy
  F  F0  1  0.66181176  0.33251539  0.39879586  1
  F  F1  1  0.33818824  0.66748461  0.39879586  1
  F  F2  1  0.83818824  0.83251539  0.10120414  1
  F  F3  1  0.16181176  0.16748461  0.10120414  1
  F  F4  1  0.33818824  0.66748461  0.60120414  1
  F  F5  1  0.66181176  0.33251539  0.60120414  1
  F  F6  1  0.16181176  0.16748461  0.89879586  1
  F  F7  1  0.83818824  0.83251539  0.89879586  1
  F  F8  1  0.00000000  0.50000000  0.50000000  1
  F  F9  1  0.50000000  0.00000000  0.00000000  1
  F  F10  1  0.63222665  0.99073973  0.70212185  1
  F  F11  1  0.36777335  0.00926027  0.70212185  1
  F  F12  1  0.86777335  0.49073973  0.79787815  1
  F  F13  1  0.13222665  0.50926027  0.79787815  1
  F  F14  1  0.36777335  0.00926027  0.29787815  1
  F  F15  1  0.63222665  0.99073973  0.29787815  1
  F  F16  1  0.13222665  0.50926027  0.20212185  1
  F  F17  1  0.86777335  0.49073973  0.20212185  1
  F  F18  1  0.00000000  0.50000000  0.33696512  1
  F  F19  1  0.50000000  0.00000000  0.16303488  1
  F  F20  1  0.00000000  0.50000000  0.66303488  1
  F  F21  1  0.50000000  0.00000000  0.83696512  1
  F  F22  1  0.36053969  0.71427349  0.76802979  1
  F  F23  1  0.63946031  0.28572651  0.76802979  1
  F  F24  1  0.13946031  0.21427349  0.73197021  1
  F  F25  1  0.86053969  0.78572651  0.73197021  1
  F  F26  1  0.63946031  0.28572651  0.23197021  1
  F  F27  1  0.36053969  0.71427349  0.23197021  1
  F  F28  1  0.86053969  0.78572651  0.26802979  1
  F  F29  1  0.13946031  0.21427349  0.26802979  1
  F  F30  1  0.55996532  0.28681318  0.60118319  1
  F  F31  1  0.44003468  0.71318682  0.60118319  1
  F  F32  1  0.94003468  0.78681318  0.89881681  1
  F  F33  1  0.05996532  0.21318682  0.89881681  1
  F  F34  1  0.44003468  0.71318682  0.39881681  1
  F  F35  1  0.55996532  0.28681318  0.39881681  1
  F  F36  1  0.05996532  0.21318682  0.10118319  1
  F  F37  1  0.94003468  0.78681318  0.10118319  1
  F  F38  1  0.00000000  0.00000000  0.50000000  1
  F  F39  1  0.50000000  0.50000000  0.00000000  1
  F  F40  1  0.45955547  0.46891837  0.05126639  1
  F  F41  1  0.54044453  0.53108163  0.05126639  1
  F  F42  1  0.04044453  0.96891837  0.44873361  1
  F  F43  1  0.95955547  0.03108163  0.44873361  1
  F  F44  1  0.54044453  0.53108163  0.94873361  1
  F  F45  1  0.45955547  0.46891837  0.94873361  1
  F  F46  1  0.95955547  0.03108163  0.55126639  1
  F  F47  1  0.04044453  0.96891837  0.55126639  1
  Li  Li48  1  0.06879622  0.62804562  0.61932180  1
  Li  Li49  1  0.93120378  0.37195438  0.61932180  1
  Li  Li50  1  0.43120378  0.12804562  0.88067820  1
  Li  Li51  1  0.56879622  0.87195438  0.88067820  1
  Li  Li52  1  0.93120378  0.37195438  0.38067820  1
  Li  Li53  1  0.06879622  0.62804562  0.38067820  1
  Li  Li54  1  0.56879622  0.87195438  0.11932180  1
  Li  Li55  1  0.43120378  0.12804562  0.11932180  1
  Si  Si56  1  0.26736823  0.33954918  0.00000000  1
  Si  Si57  1  0.73263177  0.66045082  0.00000000  1
  Si  Si58  1  0.23263177  0.83954918  0.50000000  1
  Si  Si59  1  0.76736823  0.16045082  0.50000000  1
  Si  Si60  1  0.68632615  0.23789680  0.16473927  1
  Si  Si61  1  -0.68632615  -0.23789680  0.16473927  1
  Si  Si62  1  -0.18632615  0.73789680  0.33526073  1
  Si  Si63  1  1.18632615  0.26210320  0.33526073  1
  Si  Si64  1  -0.68632615  -0.23789680  -0.16473927  1
  Si  Si65  1  0.68632615  0.23789680  -0.16473927  1
  Si  Si66  1  1.18632615  0.26210320  0.66473927  1
  Si  Si67  1  -0.18632615  0.73789680  0.66473927  1
  Si  Si68  1  0.00000000  0.00000000  0.80711299  1
  Si  Si69  1  0.50000000  0.50000000  0.69288701  1
  Si  Si70  1  0.00000000  0.00000000  0.19288701  1
  Si  Si71  1  0.50000000  0.50000000  0.30711299  1
  Te  Te72  1  0.00000000  0.50000000  0.00000000  1
  Te  Te73  1  0.50000000  0.00000000  0.50000000  1
  Te  Te74  1  0.02679825  0.70161726  -0.00000000  1
  Te  Te75  1  0.97320175  0.29838274  -0.00000000  1
  Te  Te76  1  0.47320175  0.20161726  0.50000000  1
  Te  Te77  1  0.52679825  0.79838274  0.50000000  1
  Te  Te78  1  0.08829235  0.12721693  -0.00000000  1
  Te  Te79  1  0.91170765  0.87278307  0.00000000  1
  Te  Te80  1  0.41170765  0.62721693  0.50000000  1
  Te  Te81  1  0.58829235  0.37278307  0.50000000  1
  Te  Te82  1  0.00000000  0.00000000  0.00000000  1
  Te  Te83  1  0.50000000  0.50000000  0.50000000  1
