# generated using pymatgen
data_LiF
_symmetry_space_group_name_H-M   'P 1'
_cell_length_a   7.53725962
_cell_length_b   7.53725962
_cell_length_c   13.25426652
_cell_angle_alpha   90.00000000
_cell_angle_beta   90.00000000
_cell_angle_gamma   90.00000000
_symmetry_Int_Tables_number   1
_chemical_formula_structural   LiF
_chemical_formula_sum   'Li64 F64'
_cell_volume   752.97862562
_cell_formula_units_Z   64
loop_
 _symmetry_equiv_pos_site_id
 _symmetry_equiv_pos_as_xyz
  1  'x, y, z'
loop_
 _atom_site_type_symbol
 _atom_site_label
 _atom_site_symmetry_multiplicity
 _atom_site_fract_x
 _atom_site_fract_y
 _atom_site_fract_z
 _atom_site_occupancy
  F  F0  1  0.94883887  0.84270850  0.48263056  1
  F  F1  1  0.55116113  0.15729150  0.98263056  1
  F  F2  1  0.40729150  0.69883887  0.73263056  1
  F  F3  1  0.09270850  0.30116113  0.23263056  1
  F  F4  1  0.55116113  0.84270850  0.51736944  1
  F  F5  1  0.94883887  0.15729150  0.01736944  1
  F  F6  1  0.09270850  0.69883887  0.26736944  1
  F  F7  1  0.40729150  0.30116113  0.76736944  1
  F  F8  1  0.05116113  0.15729150  0.51736944  1
  F  F9  1  0.44883887  0.84270850  0.01736944  1
  F  F10  1  0.59270850  0.30116113  0.26736944  1
  F  F11  1  0.90729150  0.69883887  0.76736944  1
  F  F12  1  0.44883887  0.15729150  0.48263056  1
  F  F13  1  0.05116113  0.84270850  0.98263056  1
  F  F14  1  0.90729150  0.30116113  0.73263056  1
  F  F15  1  0.59270850  0.69883887  0.23263056  1
  F  F16  1  0.44883887  0.34270850  0.98263056  1
  F  F17  1  0.05116113  0.65729150  0.48263056  1
  F  F18  1  0.90729150  0.19883887  0.23263056  1
  F  F19  1  0.59270850  0.80116113  0.73263056  1
  F  F20  1  0.05116113  0.34270850  0.01736944  1
  F  F21  1  0.44883887  0.65729150  0.51736944  1
  F  F22  1  0.59270850  0.19883887  0.76736944  1
  F  F23  1  0.90729150  0.80116113  0.26736944  1
  F  F24  1  0.55116113  0.65729150  0.01736944  1
  F  F25  1  0.94883887  0.34270850  0.51736944  1
  F  F26  1  0.09270850  0.80116113  0.76736944  1
  F  F27  1  0.40729150  0.19883887  0.26736944  1
  F  F28  1  0.94883887  0.65729150  0.98263056  1
  F  F29  1  0.55116113  0.34270850  0.48263056  1
  F  F30  1  0.40729150  0.80116113  0.23263056  1
  F  F31  1  0.09270850  0.19883887  0.73263056  1
  F  F32  1  0.00000000  0.25000000  0.54689028  1
  F  F33  1  0.00000000  0.75000000  0.79689028  1
  F  F34  1  0.50000000  0.25000000  0.45310972  1
  F  F35  1  0.50000000  0.75000000  0.20310972  1
  F  F36  1  0.00000000  0.75000000  0.45310972  1
  F  F37  1  0.00000000  0.25000000  0.20310972  1
  F  F38  1  0.50000000  0.75000000  0.54689028  1
  F  F39  1  0.50000000  0.25000000  0.79689028  1
  F  F40  1  0.50000000  0.75000000  0.04689028  1
  F  F41  1  0.50000000  0.25000000  0.29689028  1
  F  F42  1  0.00000000  0.75000000  0.95310972  1
  F  F43  1  0.00000000  0.25000000  0.70310972  1
  F  F44  1  0.50000000  0.25000000  0.95310972  1
  F  F45  1  0.50000000  0.75000000  0.70310972  1
  F  F46  1  0.00000000  0.25000000  0.04689028  1
  F  F47  1  0.00000000  0.75000000  0.29689028  1
  F  F48  1  0.00000000  0.00000000  0.00000000  1
  F  F49  1  0.50000000  0.00000000  0.50000000  1
  F  F50  1  0.25000000  0.75000000  0.25000000  1
  F  F51  1  0.25000000  0.25000000  0.75000000  1
  F  F52  1  0.50000000  0.00000000  0.00000000  1
  F  F53  1  0.00000000  0.00000000  0.50000000  1
  F  F54  1  0.25000000  0.75000000  0.75000000  1
  F  F55  1  0.25000000  0.25000000  0.25000000  1
  F  F56  1  0.50000000  0.50000000  0.50000000  1
  F  F57  1  0.00000000  0.50000000  0.00000000  1
  F  F58  1  0.75000000  0.25000000  0.75000000  1
  F  F59  1  0.75000000  0.75000000  0.25000000  1
  F  F60  1  0.00000000  0.50000000  0.50000000  1
  F  F61  1  0.50000000  0.50000000  0.00000000  1
  F  F62  1  0.75000000  0.25000000  0.25000000  1
  F  F63  1  0.75000000  0.75000000  0.75000000  1
  Li  Li64  1  0.27430656  0.60512073  0.91186056  1
  Li  Li65  1  0.22569344  -0.60512073  1.41186056  1
  Li  Li66  1  -0.35512073  1.02430656  1.16186056  1
  Li  Li67  1  0.85512073  -0.02430656  1.66186056  1
  Li  Li68  1  0.22569344  0.60512073  -0.91186056  1
  Li  Li69  1  0.27430656  -0.60512073  -0.41186056  1
  Li  Li70  1  0.85512073  1.02430656  -0.16186056  1
  Li  Li71  1  -0.35512073  -0.02430656  -0.66186056  1
  Li  Li72  1  -0.27430656  -0.60512073  -0.91186056  1
  Li  Li73  1  0.77430656  0.60512073  -0.41186056  1
  Li  Li74  1  1.35512073  -0.02430656  -0.16186056  1
  Li  Li75  1  0.14487927  1.02430656  -0.66186056  1
  Li  Li76  1  0.77430656  -0.60512073  0.91186056  1
  Li  Li77  1  -0.27430656  0.60512073  1.41186056  1
  Li  Li78  1  0.14487927  -0.02430656  1.16186056  1
  Li  Li79  1  1.35512073  1.02430656  1.66186056  1
  Li  Li80  1  0.77430656  1.10512073  1.41186056  1
  Li  Li81  1  0.72569344  -0.10512073  1.91186056  1
  Li  Li82  1  0.14487927  1.52430656  1.66186056  1
  Li  Li83  1  1.35512073  0.47569344  2.16186056  1
  Li  Li84  1  0.72569344  1.10512073  -0.41186056  1
  Li  Li85  1  0.77430656  -0.10512073  0.08813944  1
  Li  Li86  1  1.35512073  1.52430656  0.33813944  1
  Li  Li87  1  0.14487927  0.47569344  -0.16186056  1
  Li  Li88  1  0.22569344  -0.10512073  -0.41186056  1
  Li  Li89  1  1.27430656  1.10512073  0.08813944  1
  Li  Li90  1  1.85512073  0.47569344  0.33813944  1
  Li  Li91  1  0.64487927  1.52430656  -0.16186056  1
  Li  Li92  1  1.27430656  -0.10512073  1.41186056  1
  Li  Li93  1  0.22569344  1.10512073  1.91186056  1
  Li  Li94  1  0.64487927  0.47569344  1.66186056  1
  Li  Li95  1  1.85512073  1.52430656  2.16186056  1
  Li  Li96  1  0.79958359  0.00000000  0.25000000  1
  Li  Li97  1  0.70041641  0.00000000  0.75000000  1
  Li  Li98  1  0.25000000  0.54958359  0.50000000  1
  Li  Li99  1  0.25000000  0.45041641  0.00000000  1
  Li  Li100  1  0.20041641  0.00000000  0.75000000  1
  Li  Li101  1  0.29958359  0.00000000  0.25000000  1
  Li  Li102  1  0.75000000  0.45041641  0.50000000  1
  Li  Li103  1  0.75000000  0.54958359  0.00000000  1
  Li  Li104  1  0.29958359  0.50000000  0.75000000  1
  Li  Li105  1  0.20041641  0.50000000  0.25000000  1
  Li  Li106  1  0.75000000  0.04958359  0.00000000  1
  Li  Li107  1  0.75000000  0.95041641  0.50000000  1
  Li  Li108  1  0.70041641  0.50000000  0.25000000  1
  Li  Li109  1  0.79958359  0.50000000  0.75000000  1
  Li  Li110  1  0.25000000  0.95041641  0.00000000  1
  Li  Li111  1  0.25000000  0.04958359  0.50000000  1
  Li  Li112  1  0.00000000  0.25000000  0.37500000  1
  Li  Li113  1  0.00000000  0.75000000  0.62500000  1
  Li  Li114  1  0.50000000  0.25000000  0.62500000  1
  Li  Li115  1  0.50000000  0.75000000  0.37500000  1
  Li  Li116  1  0.50000000  0.75000000  0.87500000  1
  Li  Li117  1  0.50000000  0.25000000  0.12500000  1
  Li  Li118  1  0.00000000  0.75000000  0.12500000  1
  Li  Li119  1  0.00000000  0.25000000  0.87500000  1
  Li  Li120  1  0.00000000  0.25000000  0.12500000  1
  Li  Li121  1  0.00000000  0.75000000  0.37500000  1
  Li  Li122  1  0.00000000  0.75000000  0.87500000  1
  Li  Li123  1  0.00000000  0.25000000  0.62500000  1
  Li  Li124  1  0.50000000  0.75000000  0.62500000  1
  Li  Li125  1  0.50000000  0.25000000  0.87500000  1
  Li  Li126  1  0.50000000  0.25000000  0.37500000  1
  Li  Li127  1  0.50000000  0.75000000  0.12500000  1
