# generated using pymatgen
data_LiTi3Sb4As3O
_symmetry_space_group_name_H-M   'P 1'
_cell_length_a   7.96344527
_cell_length_b   7.79088341
_cell_length_c   8.19310418
_cell_angle_alpha   90.00000000
_cell_angle_beta   90.00000000
_cell_angle_gamma   90.00000000
_symmetry_Int_Tables_number   1
_chemical_formula_structural   LiTi3Sb4As3O
_chemical_formula_sum   'Li1 Ti3 Sb4 As3 O1'
_cell_volume   508.31881151
_cell_formula_units_Z   1
loop_
 _symmetry_equiv_pos_site_id
 _symmetry_equiv_pos_as_xyz
  1  'x, y, z'
loop_
 _atom_site_type_symbol
 _atom_site_label
 _atom_site_symmetry_multiplicity
 _atom_site_fract_x
 _atom_site_fract_y
 _atom_site_fract_z
 _atom_site_occupancy
  As  As0  1  0.12500000  0.00000000  0.25000000  1
  As  As1  1  0.00000000  0.00000000  0.00000000  1
  As  As2  1  0.37500000  0.00000000  0.25000000  1
  Ti  Ti3  1  0.25000000  0.25000000  0.25000000  1
  Ti  Ti4  1  0.00000000  0.25000000  0.12500000  1
  Ti  Ti5  1  0.03474524  0.33801640  0.17062029  1
  O  O6  1  0.00529686  0.85676736  0.11715021  1
  Li  Li7  1  0.31372593  0.29350752  0.99007735  1
  Sb  Sb8  1  0.09316202  0.21514740  0.60287383  1
  Sb  Sb9  1  0.75940396  0.39568118  0.61263613  1
  Sb  Sb10  1  0.99006966  0.19908973  0.08213726  1
  Sb  Sb11  1  0.11432324  0.23775270  0.22707981  1
