# generated using pymatgen
data_LiAlSe2
_symmetry_space_group_name_H-M   'P 1'
_cell_length_a   12.81447767
_cell_length_b   12.81447767
_cell_length_c   12.81447767
_cell_angle_alpha   90.00000000
_cell_angle_beta   90.00000000
_cell_angle_gamma   90.00000000
_symmetry_Int_Tables_number   1
_chemical_formula_structural   LiAlSe2
_chemical_formula_sum   'Li24 Al24 Se48'
_cell_volume   2104.27611623
_cell_formula_units_Z   24
loop_
 _symmetry_equiv_pos_site_id
 _symmetry_equiv_pos_as_xyz
  1  'x, y, z'
loop_
 _atom_site_type_symbol
 _atom_site_label
 _atom_site_symmetry_multiplicity
 _atom_site_fract_x
 _atom_site_fract_y
 _atom_site_fract_z
 _atom_site_occupancy
  Al  Al0  1  0.88813702  0.00000000  -0.00000000  1
  Al  Al1  1  0.11186298  0.00000000  -0.00000000  1
  Al  Al2  1  0.00000000  0.88813702  0.00000000  1
  Al  Al3  1  0.00000000  0.11186298  0.00000000  1
  Al  Al4  1  0.00000000  0.00000000  0.88813702  1
  Al  Al5  1  0.00000000  0.00000000  0.11186298  1
  Al  Al6  1  0.88813702  0.50000000  0.50000000  1
  Al  Al7  1  0.11186298  0.50000000  0.50000000  1
  Al  Al8  1  0.00000000  0.38813702  0.50000000  1
  Al  Al9  1  0.00000000  0.61186298  0.50000000  1
  Al  Al10  1  0.00000000  0.50000000  0.38813702  1
  Al  Al11  1  0.00000000  0.50000000  0.61186298  1
  Al  Al12  1  0.38813702  0.00000000  0.50000000  1
  Al  Al13  1  0.61186298  0.00000000  0.50000000  1
  Al  Al14  1  0.50000000  0.88813702  0.50000000  1
  Al  Al15  1  0.50000000  0.11186298  0.50000000  1
  Al  Al16  1  0.50000000  0.00000000  0.38813702  1
  Al  Al17  1  0.50000000  0.00000000  0.61186298  1
  Al  Al18  1  0.38813702  0.50000000  0.00000000  1
  Al  Al19  1  0.61186298  0.50000000  -0.00000000  1
  Al  Al20  1  0.50000000  0.38813702  0.00000000  1
  Al  Al21  1  0.50000000  0.61186298  0.00000000  1
  Al  Al22  1  0.50000000  0.50000000  0.88813702  1
  Al  Al23  1  0.50000000  0.50000000  0.11186298  1
  Li  Li24  1  0.79083347  0.00000000  0.00000000  1
  Li  Li25  1  0.20916653  0.00000000  0.00000000  1
  Li  Li26  1  0.00000000  0.79083347  0.00000000  1
  Li  Li27  1  0.00000000  0.20916653  0.00000000  1
  Li  Li28  1  0.00000000  0.00000000  0.79083347  1
  Li  Li29  1  0.00000000  0.00000000  0.20916653  1
  Li  Li30  1  0.79083347  0.50000000  0.50000000  1
  Li  Li31  1  0.20916653  0.50000000  0.50000000  1
  Li  Li32  1  0.00000000  0.29083347  0.50000000  1
  Li  Li33  1  0.00000000  0.70916653  0.50000000  1
  Li  Li34  1  0.00000000  0.50000000  0.29083347  1
  Li  Li35  1  0.00000000  0.50000000  0.70916653  1
  Li  Li36  1  0.29083347  0.00000000  0.50000000  1
  Li  Li37  1  0.70916653  0.00000000  0.50000000  1
  Li  Li38  1  0.50000000  0.79083347  0.50000000  1
  Li  Li39  1  0.50000000  0.20916653  0.50000000  1
  Li  Li40  1  0.50000000  0.00000000  0.29083347  1
  Li  Li41  1  0.50000000  0.00000000  0.70916653  1
  Li  Li42  1  0.29083347  0.50000000  0.00000000  1
  Li  Li43  1  0.70916653  0.50000000  -0.00000000  1
  Li  Li44  1  0.50000000  0.29083347  0.00000000  1
  Li  Li45  1  0.50000000  0.70916653  -0.00000000  1
  Li  Li46  1  0.50000000  0.50000000  0.79083347  1
  Li  Li47  1  0.50000000  0.50000000  0.20916653  1
  Se  Se48  1  0.00000000  0.62577982  0.62577982  1
  Se  Se49  1  0.00000000  -0.62577982  0.62577982  1
  Se  Se50  1  0.00000000  0.62577982  -0.62577982  1
  Se  Se51  1  0.00000000  -0.62577982  -0.62577982  1
  Se  Se52  1  0.62577982  0.00000000  0.62577982  1
  Se  Se53  1  0.62577982  0.00000000  -0.62577982  1
  Se  Se54  1  -0.62577982  0.00000000  0.62577982  1
  Se  Se55  1  -0.62577982  0.00000000  -0.62577982  1
  Se  Se56  1  0.62577982  0.62577982  0.00000000  1
  Se  Se57  1  -0.62577982  0.62577982  0.00000000  1
  Se  Se58  1  0.62577982  -0.62577982  0.00000000  1
  Se  Se59  1  -0.62577982  -0.62577982  0.00000000  1
  Se  Se60  1  0.00000000  1.12577982  1.12577982  1
  Se  Se61  1  0.00000000  -0.12577982  1.12577982  1
  Se  Se62  1  0.00000000  1.12577982  -0.12577982  1
  Se  Se63  1  0.00000000  -0.12577982  -0.12577982  1
  Se  Se64  1  0.62577982  0.50000000  1.12577982  1
  Se  Se65  1  0.62577982  0.50000000  -0.12577982  1
  Se  Se66  1  -0.62577982  0.50000000  1.12577982  1
  Se  Se67  1  -0.62577982  0.50000000  -0.12577982  1
  Se  Se68  1  0.62577982  1.12577982  0.50000000  1
  Se  Se69  1  -0.62577982  1.12577982  0.50000000  1
  Se  Se70  1  0.62577982  -0.12577982  0.50000000  1
  Se  Se71  1  -0.62577982  -0.12577982  0.50000000  1
  Se  Se72  1  0.50000000  0.62577982  1.12577982  1
  Se  Se73  1  0.50000000  -0.62577982  1.12577982  1
  Se  Se74  1  0.50000000  0.62577982  -0.12577982  1
  Se  Se75  1  0.50000000  -0.62577982  -0.12577982  1
  Se  Se76  1  1.12577982  -0.00000000  1.12577982  1
  Se  Se77  1  1.12577982  -0.00000000  -0.12577982  1
  Se  Se78  1  -0.12577982  0.00000000  1.12577982  1
  Se  Se79  1  -0.12577982  0.00000000  -0.12577982  1
  Se  Se80  1  1.12577982  0.62577982  0.50000000  1
  Se  Se81  1  -0.12577982  0.62577982  0.50000000  1
  Se  Se82  1  1.12577982  -0.62577982  0.50000000  1
  Se  Se83  1  -0.12577982  -0.62577982  0.50000000  1
  Se  Se84  1  0.50000000  1.12577982  0.62577982  1
  Se  Se85  1  0.50000000  -0.12577982  0.62577982  1
  Se  Se86  1  0.50000000  1.12577982  -0.62577982  1
  Se  Se87  1  0.50000000  -0.12577982  -0.62577982  1
  Se  Se88  1  1.12577982  0.50000000  0.62577982  1
  Se  Se89  1  1.12577982  0.50000000  -0.62577982  1
  Se  Se90  1  -0.12577982  0.50000000  0.62577982  1
  Se  Se91  1  -0.12577982  0.50000000  -0.62577982  1
  Se  Se92  1  1.12577982  1.12577982  -0.00000000  1
  Se  Se93  1  -0.12577982  1.12577982  -0.00000000  1
  Se  Se94  1  1.12577982  -0.12577982  -0.00000000  1
  Se  Se95  1  -0.12577982  -0.12577982  0.00000000  1
