# generated using pymatgen
data_Li2TiAlO
_symmetry_space_group_name_H-M   'P 1'
_cell_length_a   3.51440619
_cell_length_b   3.49283820
_cell_length_c   6.09117028
_cell_angle_alpha   96.59298773
_cell_angle_beta   103.63856604
_cell_angle_gamma   102.26285226
_symmetry_Int_Tables_number   1
_chemical_formula_structural   Li2TiAlO
_chemical_formula_sum   'Li2 Ti1 Al1 O1'
_cell_volume   69.92573464
_cell_formula_units_Z   1
loop_
 _symmetry_equiv_pos_site_id
 _symmetry_equiv_pos_as_xyz
  1  'x, y, z'
loop_
 _atom_site_type_symbol
 _atom_site_label
 _atom_site_symmetry_multiplicity
 _atom_site_fract_x
 _atom_site_fract_y
 _atom_site_fract_z
 _atom_site_occupancy
  Al  Al0  1  0.12500000  0.12500000  0.12500000  1
  Li  Li1  1  0.50000000  0.50000000  0.50000000  1
  Li  Li2  1  0.25000000  0.25000000  0.25000000  1
  O  O3  1  0.75000000  0.75000000  0.75000000  1
  Ti  Ti4  1  0.41024481  0.74177061  0.22256148  1
