# generated using pymatgen
data_LiF
_symmetry_space_group_name_H-M   'P 1'
_cell_length_a   9.82433805
_cell_length_b   17.37759894
_cell_length_c   9.00941374
_cell_angle_alpha   90.00000000
_cell_angle_beta   90.00000000
_cell_angle_gamma   90.00000000
_symmetry_Int_Tables_number   1
_chemical_formula_structural   LiF
_chemical_formula_sum   'Li56 F56'
_cell_volume   1538.11780354
_cell_formula_units_Z   56
loop_
 _symmetry_equiv_pos_site_id
 _symmetry_equiv_pos_as_xyz
  1  'x, y, z'
loop_
 _atom_site_type_symbol
 _atom_site_label
 _atom_site_symmetry_multiplicity
 _atom_site_fract_x
 _atom_site_fract_y
 _atom_site_fract_z
 _atom_site_occupancy
  F  F0  1  0.34002638  0.25000000  0.01985129  1
  F  F1  1  0.15997362  0.75000000  0.51985129  1
  F  F2  1  0.65997362  0.75000000  0.98014871  1
  F  F3  1  0.84002638  0.25000000  0.48014871  1
  F  F4  1  0.38774150  0.73143985  0.52771654  1
  F  F5  1  0.11225850  0.26856015  0.02771654  1
  F  F6  1  0.61225850  0.23143985  0.47228346  1
  F  F7  1  0.88774150  0.76856015  0.97228346  1
  F  F8  1  0.61225850  0.26856015  0.47228346  1
  F  F9  1  0.88774150  0.73143985  0.97228346  1
  F  F10  1  0.38774150  0.76856015  0.52771654  1
  F  F11  1  0.11225850  0.23143985  0.02771654  1
  F  F12  1  0.74967815  0.93544565  0.02106321  1
  F  F13  1  0.75032185  0.06455435  0.52106321  1
  F  F14  1  0.25032185  0.43544565  0.97893679  1
  F  F15  1  0.24967815  0.56455435  0.47893679  1
  F  F16  1  0.25032185  0.06455435  0.97893679  1
  F  F17  1  0.24967815  0.93544565  0.47893679  1
  F  F18  1  0.74967815  0.56455435  0.02106321  1
  F  F19  1  0.75032185  0.43544565  0.52106321  1
  F  F20  1  0.69737104  0.21265396  0.99345815  1
  F  F21  1  0.80262896  0.78734604  0.49345815  1
  F  F22  1  0.30262896  0.71265396  0.00654185  1
  F  F23  1  0.19737104  0.28734604  0.50654185  1
  F  F24  1  0.30262896  0.78734604  0.00654185  1
  F  F25  1  0.19737104  0.21265396  0.50654185  1
  F  F26  1  0.69737104  0.28734604  0.99345815  1
  F  F27  1  0.80262896  0.71265396  0.49345815  1
  F  F28  1  0.39824838  0.40767877  0.39984148  1
  F  F29  1  0.10175162  0.59232123  0.89984148  1
  F  F30  1  0.60175162  0.90767877  0.60015852  1
  F  F31  1  0.89824838  0.09232123  0.10015852  1
  F  F32  1  0.60175162  0.59232123  0.60015852  1
  F  F33  1  0.89824838  0.40767877  0.10015852  1
  F  F34  1  0.39824838  0.09232123  0.39984148  1
  F  F35  1  0.10175162  0.90767877  0.89984148  1
  F  F36  1  0.85257790  0.05250324  0.14375562  1
  F  F37  1  0.64742210  0.94749676  0.64375562  1
  F  F38  1  0.14742210  0.55250324  0.85624438  1
  F  F39  1  0.35257790  0.44749676  0.35624438  1
  F  F40  1  0.14742210  0.94749676  0.85624438  1
  F  F41  1  0.35257790  0.05250324  0.35624438  1
  F  F42  1  0.85257790  0.44749676  0.14375562  1
  F  F43  1  0.64742210  0.55250324  0.64375562  1
  F  F44  1  0.34521064  0.88312028  0.56506857  1
  F  F45  1  0.15478936  0.11687972  0.06506857  1
  F  F46  1  0.65478936  0.38312028  0.43493143  1
  F  F47  1  0.84521064  0.61687972  0.93493143  1
  F  F48  1  0.65478936  0.11687972  0.43493143  1
  F  F49  1  0.84521064  0.88312028  0.93493143  1
  F  F50  1  0.34521064  0.61687972  0.56506857  1
  F  F51  1  0.15478936  0.38312028  0.06506857  1
  F  F52  1  0.72278678  0.25000000  0.87024898  1
  F  F53  1  0.77721322  0.75000000  0.37024898  1
  F  F54  1  0.27721322  0.75000000  0.12975102  1
  F  F55  1  0.22278678  0.25000000  0.62975102  1
  Li  Li56  1  0.81254294  0.25000000  0.13322462  1
  Li  Li57  1  0.68745706  0.75000000  0.63322462  1
  Li  Li58  1  0.18745706  0.75000000  0.86677538  1
  Li  Li59  1  0.31254294  0.25000000  0.36677538  1
  Li  Li60  1  0.75198588  0.30883676  0.06737911  1
  Li  Li61  1  -0.25198588  -0.30883676  0.56737911  1
  Li  Li62  1  -0.75198588  0.80883676  -0.06737911  1
  Li  Li63  1  1.25198588  0.19116324  0.43262089  1
  Li  Li64  1  -0.75198588  -0.30883676  -0.06737911  1
  Li  Li65  1  1.25198588  0.30883676  0.43262089  1
  Li  Li66  1  0.75198588  0.19116324  0.06737911  1
  Li  Li67  1  -0.25198588  0.80883676  0.56737911  1
  Li  Li68  1  0.00327964  0.41703654  0.57474498  1
  Li  Li69  1  0.49672036  0.58296346  0.07474498  1
  Li  Li70  1  0.99672036  0.91703654  0.42525502  1
  Li  Li71  1  0.50327964  0.08296346  0.92525502  1
  Li  Li72  1  0.99672036  0.58296346  0.42525502  1
  Li  Li73  1  0.50327964  0.41703654  0.92525502  1
  Li  Li74  1  0.00327964  0.08296346  0.57474498  1
  Li  Li75  1  0.49672036  0.91703654  0.07474498  1
  Li  Li76  1  0.16097215  0.67022409  0.51410888  1
  Li  Li77  1  0.33902785  0.32977591  0.01410888  1
  Li  Li78  1  0.83902785  0.17022409  0.48589112  1
  Li  Li79  1  0.66097215  0.82977591  0.98589112  1
  Li  Li80  1  0.83902785  0.32977591  0.48589112  1
  Li  Li81  1  0.66097215  0.67022409  0.98589112  1
  Li  Li82  1  0.16097215  0.82977591  0.51410888  1
  Li  Li83  1  0.33902785  0.17022409  0.01410888  1
  Li  Li84  1  0.10708553  0.25000000  0.13824774  1
  Li  Li85  1  0.39291447  0.75000000  0.63824774  1
  Li  Li86  1  0.89291447  0.75000000  0.86175226  1
  Li  Li87  1  0.60708553  0.25000000  0.36175226  1
  Li  Li88  1  0.23777601  0.25000000  0.17439008  1
  Li  Li89  1  0.26222399  0.75000000  0.67439008  1
  Li  Li90  1  0.76222399  0.75000000  0.82560992  1
  Li  Li91  1  0.73777601  0.25000000  0.32560992  1
  Li  Li92  1  0.08801417  0.25000000  0.89470400  1
  Li  Li93  1  0.41198583  0.75000000  0.39470400  1
  Li  Li94  1  0.91198583  0.75000000  0.10529600  1
  Li  Li95  1  0.58801417  0.25000000  0.60529600  1
  Li  Li96  1  0.42878205  0.25000000  0.84609127  1
  Li  Li97  1  0.07121795  0.75000000  0.34609127  1
  Li  Li98  1  0.57121795  0.75000000  0.15390873  1
  Li  Li99  1  0.92878205  0.25000000  0.65390873  1
  Li  Li100  1  0.66400069  0.53967878  0.20628395  1
  Li  Li101  1  0.83599931  0.46032122  0.70628395  1
  Li  Li102  1  0.33599931  0.03967878  0.79371605  1
  Li  Li103  1  0.16400069  0.96032122  0.29371605  1
  Li  Li104  1  0.33599931  0.46032122  0.79371605  1
  Li  Li105  1  0.16400069  0.53967878  0.29371605  1
  Li  Li106  1  0.66400069  0.96032122  0.20628395  1
  Li  Li107  1  0.83599931  0.03967878  0.70628395  1
  Li  Li108  1  0.00000000  0.00000000  0.00000000  1
  Li  Li109  1  0.50000000  0.00000000  0.50000000  1
  Li  Li110  1  0.00000000  0.50000000  0.00000000  1
  Li  Li111  1  0.50000000  0.50000000  0.50000000  1
