# generated using pymatgen
data_LiF
_symmetry_space_group_name_H-M   'P 1'
_cell_length_a   9.83446773
_cell_length_b   6.21445549
_cell_length_c   11.90800122
_cell_angle_alpha   90.00000000
_cell_angle_beta   90.00000000
_cell_angle_gamma   90.00000000
_symmetry_Int_Tables_number   1
_chemical_formula_structural   LiF
_chemical_formula_sum   'Li24 F24'
_cell_volume   727.76775954
_cell_formula_units_Z   24
loop_
 _symmetry_equiv_pos_site_id
 _symmetry_equiv_pos_as_xyz
  1  'x, y, z'
loop_
 _atom_site_type_symbol
 _atom_site_label
 _atom_site_symmetry_multiplicity
 _atom_site_fract_x
 _atom_site_fract_y
 _atom_site_fract_z
 _atom_site_occupancy
  F  F0  1  0.00000000  0.00000000  0.00000000  1
  F  F1  1  0.50000000  0.00000000  0.50000000  1
  F  F2  1  0.00000000  0.50000000  0.00000000  1
  F  F3  1  0.50000000  0.50000000  0.50000000  1
  F  F4  1  0.58671585  0.10306843  0.29807250  1
  F  F5  1  0.91328415  0.89693157  0.79807250  1
  F  F6  1  0.41328415  0.60306843  0.70192750  1
  F  F7  1  0.08671585  0.39693157  0.20192750  1
  F  F8  1  0.41328415  0.89693157  0.70192750  1
  F  F9  1  0.08671585  0.10306843  0.20192750  1
  F  F10  1  0.58671585  0.39693157  0.29807250  1
  F  F11  1  0.91328415  0.60306843  0.79807250  1
  F  F12  1  0.07847866  0.25000000  0.80728845  1
  F  F13  1  0.42152134  0.75000000  0.30728845  1
  F  F14  1  0.92152134  0.75000000  0.19271155  1
  F  F15  1  0.57847866  0.25000000  0.69271155  1
  F  F16  1  0.98509084  0.39100331  0.93075073  1
  F  F17  1  0.51490916  0.60899669  0.43075073  1
  F  F18  1  0.01490916  0.89100331  0.06924927  1
  F  F19  1  0.48509084  0.10899669  0.56924927  1
  F  F20  1  0.01490916  0.60899669  0.06924927  1
  F  F21  1  0.48509084  0.39100331  0.56924927  1
  F  F22  1  0.98509084  0.10899669  0.93075073  1
  F  F23  1  0.51490916  0.89100331  0.43075073  1
  Li  Li24  1  0.58042553  0.58170402  0.33831966  1
  Li  Li25  1  -0.08042553  -0.58170402  0.83831966  1
  Li  Li26  1  -0.58042553  1.08170402  -0.33831966  1
  Li  Li27  1  1.08042553  -0.08170402  0.16168034  1
  Li  Li28  1  -0.58042553  -0.58170402  -0.33831966  1
  Li  Li29  1  1.08042553  0.58170402  0.16168034  1
  Li  Li30  1  0.58042553  -0.08170402  0.33831966  1
  Li  Li31  1  -0.08042553  1.08170402  0.83831966  1
  Li  Li32  1  0.77512287  0.25000000  0.75482679  1
  Li  Li33  1  0.72487713  0.75000000  0.25482679  1
  Li  Li34  1  0.22487713  0.75000000  0.24517321  1
  Li  Li35  1  0.27512287  0.25000000  0.74517321  1
  Li  Li36  1  0.38987136  0.25000000  0.29910535  1
  Li  Li37  1  0.11012864  0.75000000  0.79910535  1
  Li  Li38  1  0.61012864  0.75000000  0.70089465  1
  Li  Li39  1  0.88987136  0.25000000  0.20089465  1
  Li  Li40  1  0.74616285  0.59871139  0.86362015  1
  Li  Li41  1  0.75383715  0.40128861  0.36362015  1
  Li  Li42  1  0.25383715  0.09871139  0.13637985  1
  Li  Li43  1  0.24616285  0.90128861  0.63637985  1
  Li  Li44  1  0.25383715  0.40128861  0.13637985  1
  Li  Li45  1  0.24616285  0.59871139  0.63637985  1
  Li  Li46  1  0.74616285  0.90128861  0.86362015  1
  Li  Li47  1  0.75383715  0.09871139  0.36362015  1
