# generated using pymatgen
data_LiCaF3
_symmetry_space_group_name_H-M   'P 1'
_cell_length_a   17.64147011
_cell_length_b   17.64147011
_cell_length_c   3.93282611
_cell_angle_alpha   90.00000000
_cell_angle_beta   90.00000000
_cell_angle_gamma   120.00000000
_symmetry_Int_Tables_number   1
_chemical_formula_structural   LiCaF3
_chemical_formula_sum   'Li18 Ca18 F54'
_cell_volume   1059.99769874
_cell_formula_units_Z   18
loop_
 _symmetry_equiv_pos_site_id
 _symmetry_equiv_pos_as_xyz
  1  'x, y, z'
loop_
 _atom_site_type_symbol
 _atom_site_label
 _atom_site_symmetry_multiplicity
 _atom_site_fract_x
 _atom_site_fract_y
 _atom_site_fract_z
 _atom_site_occupancy
  Ca  Ca0  1  0.18322610  0.00000000  0.25000000  1
  Ca  Ca1  1  0.00000000  0.18322610  0.25000000  1
  Ca  Ca2  1  0.81677390  0.81677390  0.25000000  1
  Ca  Ca3  1  0.81677390  0.00000000  0.75000000  1
  Ca  Ca4  1  0.00000000  0.81677390  0.75000000  1
  Ca  Ca5  1  0.18322610  0.18322610  0.75000000  1
  Ca  Ca6  1  0.84989277  0.33333333  0.58333333  1
  Ca  Ca7  1  0.66666667  0.51655944  0.58333333  1
  Ca  Ca8  1  0.48344056  0.15010723  0.58333333  1
  Ca  Ca9  1  0.48344056  0.33333333  0.08333333  1
  Ca  Ca10  1  0.66666667  0.15010723  0.08333333  1
  Ca  Ca11  1  0.84989277  0.51655944  0.08333333  1
  Ca  Ca12  1  0.51655944  0.66666667  0.91666667  1
  Ca  Ca13  1  0.33333333  0.84989277  0.91666667  1
  Ca  Ca14  1  0.15010723  0.48344056  0.91666667  1
  Ca  Ca15  1  0.15010723  0.66666667  0.41666667  1
  Ca  Ca16  1  0.33333333  0.48344056  0.41666667  1
  Ca  Ca17  1  0.51655944  0.84989277  0.41666667  1
  F  F18  1  0.10593404  0.21401259  0.33697333  1
  F  F19  1  -0.21401259  -0.10807856  0.33697333  1
  F  F20  1  0.10807856  -0.10593404  0.33697333  1
  F  F21  1  0.21401259  0.10593404  0.16302667  1
  F  F22  1  -0.10807856  -0.21401259  0.16302667  1
  F  F23  1  -0.10593404  0.10807856  0.16302667  1
  F  F24  1  -0.10593404  -0.21401259  -0.33697333  1
  F  F25  1  0.21401259  0.10807856  -0.33697333  1
  F  F26  1  -0.10807856  0.10593404  -0.33697333  1
  F  F27  1  -0.21401259  -0.10593404  0.83697333  1
  F  F28  1  0.10807856  0.21401259  0.83697333  1
  F  F29  1  0.10593404  -0.10807856  0.83697333  1
  F  F30  1  0.77260070  0.54734593  0.67030666  1
  F  F31  1  0.45265407  0.22525478  0.67030666  1
  F  F32  1  0.77474522  0.22739930  0.67030666  1
  F  F33  1  0.88067926  0.43926737  0.49636001  1
  F  F34  1  0.55858811  0.11932074  0.49636001  1
  F  F35  1  0.56073263  0.44141189  0.49636001  1
  F  F36  1  0.56073263  0.11932074  -0.00363999  1
  F  F37  1  0.88067926  0.44141189  -0.00363999  1
  F  F38  1  0.55858811  0.43926737  -0.00363999  1
  F  F39  1  0.45265407  0.22739930  1.17030666  1
  F  F40  1  0.77474522  0.54734593  1.17030666  1
  F  F41  1  0.77260070  0.22525478  1.17030666  1
  F  F42  1  0.43926737  0.88067926  1.00363999  1
  F  F43  1  0.11932074  0.55858811  1.00363999  1
  F  F44  1  0.44141189  0.56073263  1.00363999  1
  F  F45  1  0.54734593  0.77260070  0.82969334  1
  F  F46  1  0.22525478  0.45265407  0.82969334  1
  F  F47  1  0.22739930  0.77474522  0.82969334  1
  F  F48  1  0.22739930  0.45265407  0.32969334  1
  F  F49  1  0.54734593  0.77474522  0.32969334  1
  F  F50  1  0.22525478  0.77260070  0.32969334  1
  F  F51  1  0.11932074  0.56073263  1.50363999  1
  F  F52  1  0.44141189  0.88067926  1.50363999  1
  F  F53  1  0.43926737  0.55858811  1.50363999  1
  F  F54  1  0.41978600  0.00000000  0.25000000  1
  F  F55  1  0.00000000  0.41978600  0.25000000  1
  F  F56  1  0.58021400  0.58021400  0.25000000  1
  F  F57  1  0.58021400  0.00000000  0.75000000  1
  F  F58  1  0.00000000  0.58021400  0.75000000  1
  F  F59  1  0.41978600  0.41978600  0.75000000  1
  F  F60  1  0.08645267  0.33333333  0.58333333  1
  F  F61  1  0.66666667  0.75311934  0.58333333  1
  F  F62  1  0.24688066  0.91354733  0.58333333  1
  F  F63  1  0.24688066  0.33333333  0.08333333  1
  F  F64  1  0.66666667  0.91354733  0.08333333  1
  F  F65  1  0.08645267  0.75311934  0.08333333  1
  F  F66  1  0.75311934  0.66666667  0.91666667  1
  F  F67  1  0.33333333  0.08645267  0.91666667  1
  F  F68  1  0.91354733  0.24688066  0.91666667  1
  F  F69  1  0.91354733  0.66666667  0.41666667  1
  F  F70  1  0.33333333  0.24688066  0.41666667  1
  F  F71  1  0.75311934  0.08645267  0.41666667  1
  Li  Li72  1  0.48573681  0.00000000  0.25000000  1
  Li  Li73  1  0.00000000  0.48573681  0.25000000  1
  Li  Li74  1  0.51426319  0.51426319  0.25000000  1
  Li  Li75  1  0.51426319  0.00000000  0.75000000  1
  Li  Li76  1  0.00000000  0.51426319  0.75000000  1
  Li  Li77  1  0.48573681  0.48573681  0.75000000  1
  Li  Li78  1  0.15240348  0.33333333  0.58333333  1
  Li  Li79  1  0.66666667  0.81907014  0.58333333  1
  Li  Li80  1  0.18092986  0.84759652  0.58333333  1
  Li  Li81  1  0.18092986  0.33333333  0.08333333  1
  Li  Li82  1  0.66666667  0.84759652  0.08333333  1
  Li  Li83  1  0.15240348  0.81907014  0.08333333  1
  Li  Li84  1  0.81907014  0.66666667  0.91666667  1
  Li  Li85  1  0.33333333  0.15240348  0.91666667  1
  Li  Li86  1  0.84759652  0.18092986  0.91666667  1
  Li  Li87  1  0.84759652  0.66666667  0.41666667  1
  Li  Li88  1  0.33333333  0.18092986  0.41666667  1
  Li  Li89  1  0.81907014  0.15240348  0.41666667  1
