# generated using pymatgen
data_LiF
_symmetry_space_group_name_H-M   'P 1'
_cell_length_a   10.16014977
_cell_length_b   10.16014977
_cell_length_c   6.29887782
_cell_angle_alpha   90.00000000
_cell_angle_beta   90.00000000
_cell_angle_gamma   120.00000000
_symmetry_Int_Tables_number   1
_chemical_formula_structural   LiF
_chemical_formula_sum   'Li25 F25'
_cell_volume   563.11103255
_cell_formula_units_Z   25
loop_
 _symmetry_equiv_pos_site_id
 _symmetry_equiv_pos_as_xyz
  1  'x, y, z'
loop_
 _atom_site_type_symbol
 _atom_site_label
 _atom_site_symmetry_multiplicity
 _atom_site_fract_x
 _atom_site_fract_y
 _atom_site_fract_z
 _atom_site_occupancy
  F  F0  1  0.66666667  0.33333333  0.50000000  1
  F  F1  1  0.71007305  0.91779753  0.30136262  1
  F  F2  1  0.08220247  0.79227552  0.30136262  1
  F  F3  1  0.20772448  0.28992695  0.30136262  1
  F  F4  1  0.08220247  0.28992695  0.69863738  1
  F  F5  1  0.20772448  0.91779753  0.69863738  1
  F  F6  1  0.71007305  0.79227552  0.69863738  1
  F  F7  1  0.63593224  0.47513744  0.84348506  1
  F  F8  1  0.52486256  0.16079480  0.84348506  1
  F  F9  1  0.83920520  0.36406776  0.84348506  1
  F  F10  1  0.52486256  0.36406776  0.15651494  1
  F  F11  1  0.83920520  0.47513744  0.15651494  1
  F  F12  1  0.63593224  0.16079480  0.15651494  1
  F  F13  1  0.40518487  0.74576964  0.85976640  1
  F  F14  1  0.25423036  0.65941523  0.85976640  1
  F  F15  1  0.34058477  0.59481513  0.85976640  1
  F  F16  1  0.25423036  0.59481513  0.14023360  1
  F  F17  1  0.34058477  0.74576964  0.14023360  1
  F  F18  1  0.40518487  0.65941523  0.14023360  1
  F  F19  1  0.36088235  0.12072312  0.42028388  1
  F  F20  1  0.87927688  0.24015923  0.42028388  1
  F  F21  1  0.75984077  0.63911765  0.42028388  1
  F  F22  1  0.87927688  0.63911765  0.57971612  1
  F  F23  1  0.75984077  0.12072312  0.57971612  1
  F  F24  1  0.36088235  0.24015923  0.57971612  1
  Li  Li25  1  0.00000000  0.00000000  0.23662862  1
  Li  Li26  1  0.00000000  0.00000000  0.76337138  1
  Li  Li27  1  0.33333333  0.66666667  0.22660724  1
  Li  Li28  1  0.33333333  0.66666667  0.77339276  1
  Li  Li29  1  0.29571068  0.87096082  0.32831487  1
  Li  Li30  1  -0.87096082  -0.57525013  0.32831487  1
  Li  Li31  1  0.57525013  -0.29571068  0.32831487  1
  Li  Li32  1  -0.87096082  -0.29571068  -0.32831487  1
  Li  Li33  1  0.57525013  0.87096082  -0.32831487  1
  Li  Li34  1  0.29571068  -0.57525013  -0.32831487  1
  Li  Li35  1  0.46023610  0.22960287  0.72227252  1
  Li  Li36  1  0.77039713  0.23063323  0.72227252  1
  Li  Li37  1  0.76936677  0.53976390  0.72227252  1
  Li  Li38  1  0.77039713  0.53976390  0.27772748  1
  Li  Li39  1  0.76936677  0.22960287  0.27772748  1
  Li  Li40  1  0.46023610  0.23063323  0.27772748  1
  Li  Li41  1  0.04011675  0.18189159  0.40472963  1
  Li  Li42  1  0.81810841  0.85822516  0.40472963  1
  Li  Li43  1  0.14177484  0.95988325  0.40472963  1
  Li  Li44  1  0.81810841  0.95988325  0.59527037  1
  Li  Li45  1  0.14177484  0.18189159  0.59527037  1
  Li  Li46  1  0.04011675  0.85822516  0.59527037  1
  Li  Li47  1  0.95472894  0.04527106  0.50000000  1
  Li  Li48  1  0.95472894  0.90945788  0.50000000  1
  Li  Li49  1  0.09054212  0.04527106  0.50000000  1
