# generated using pymatgen
data_LiF
_symmetry_space_group_name_H-M   'P 1'
_cell_length_a   9.91404156
_cell_length_b   9.91404156
_cell_length_c   15.79186316
_cell_angle_alpha   90.00000000
_cell_angle_beta   90.00000000
_cell_angle_gamma   120.00000000
_symmetry_Int_Tables_number   1
_chemical_formula_structural   LiF
_chemical_formula_sum   'Li72 F72'
_cell_volume   1344.20490010
_cell_formula_units_Z   72
loop_
 _symmetry_equiv_pos_site_id
 _symmetry_equiv_pos_as_xyz
  1  'x, y, z'
loop_
 _atom_site_type_symbol
 _atom_site_label
 _atom_site_symmetry_multiplicity
 _atom_site_fract_x
 _atom_site_fract_y
 _atom_site_fract_z
 _atom_site_occupancy
  F  F0  1  0.10610392  0.11435967  0.70607298  1
  F  F1  1  0.88564033  0.99174426  0.70607298  1
  F  F2  1  0.00825574  0.89389608  0.70607298  1
  F  F3  1  0.11435967  0.10610392  0.79392702  1
  F  F4  1  0.99174426  0.88564033  0.79392702  1
  F  F5  1  0.89389608  0.00825574  0.79392702  1
  F  F6  1  0.89389608  0.88564033  0.29392702  1
  F  F7  1  0.11435967  0.00825574  0.29392702  1
  F  F8  1  0.99174426  0.10610392  0.29392702  1
  F  F9  1  0.88564033  0.89389608  0.20607298  1
  F  F10  1  0.00825574  0.11435967  0.20607298  1
  F  F11  1  0.10610392  0.99174426  0.20607298  1
  F  F12  1  0.77277059  0.44769300  0.03940632  1
  F  F13  1  0.55230700  0.32507759  0.03940632  1
  F  F14  1  0.67492241  0.22722941  0.03940632  1
  F  F15  1  0.78102633  0.43943726  0.12726035  1
  F  F16  1  0.65841092  0.21897367  0.12726035  1
  F  F17  1  0.56056274  0.34158908  0.12726035  1
  F  F18  1  0.56056274  0.21897367  0.62726035  1
  F  F19  1  0.78102633  0.34158908  0.62726035  1
  F  F20  1  0.65841092  0.43943726  0.62726035  1
  F  F21  1  0.55230700  0.22722941  0.53940632  1
  F  F22  1  0.67492241  0.44769300  0.53940632  1
  F  F23  1  0.77277059  0.32507759  0.53940632  1
  F  F24  1  0.43943726  0.78102633  0.37273965  1
  F  F25  1  0.21897367  0.65841092  0.37273965  1
  F  F26  1  0.34158908  0.56056274  0.37273965  1
  F  F27  1  0.44769300  0.77277059  0.46059368  1
  F  F28  1  0.32507759  0.55230700  0.46059368  1
  F  F29  1  0.22722941  0.67492241  0.46059368  1
  F  F30  1  0.22722941  0.55230700  0.96059368  1
  F  F31  1  0.44769300  0.67492241  0.96059368  1
  F  F32  1  0.32507759  0.77277059  0.96059368  1
  F  F33  1  0.21897367  0.56056274  0.87273965  1
  F  F34  1  0.34158908  0.78102633  0.87273965  1
  F  F35  1  0.43943726  0.65841092  0.87273965  1
  F  F36  1  0.26425647  0.86106019  0.25740772  1
  F  F37  1  0.13893981  0.40319628  0.25740772  1
  F  F38  1  0.59680372  0.73574353  0.25740772  1
  F  F39  1  0.86106019  0.26425647  0.24259228  1
  F  F40  1  0.40319628  0.13893981  0.24259228  1
  F  F41  1  0.73574353  0.59680372  0.24259228  1
  F  F42  1  0.73574353  0.13893981  0.74259228  1
  F  F43  1  0.86106019  0.59680372  0.74259228  1
  F  F44  1  0.40319628  0.26425647  0.74259228  1
  F  F45  1  0.13893981  0.73574353  0.75740772  1
  F  F46  1  0.59680372  0.86106019  0.75740772  1
  F  F47  1  0.26425647  0.40319628  0.75740772  1
  F  F48  1  0.93092314  0.19439353  0.59074105  1
  F  F49  1  0.80560647  0.73652961  0.59074105  1
  F  F50  1  0.26347039  0.06907686  0.59074105  1
  F  F51  1  0.52772686  0.59758981  0.57592561  1
  F  F52  1  0.06986295  0.47227314  0.57592561  1
  F  F53  1  0.40241019  0.93013705  0.57592561  1
  F  F54  1  0.40241019  0.47227314  0.07592561  1
  F  F55  1  0.52772686  0.93013705  0.07592561  1
  F  F56  1  0.06986295  0.59758981  0.07592561  1
  F  F57  1  0.80560647  0.06907686  0.09074105  1
  F  F58  1  0.26347039  0.19439353  0.09074105  1
  F  F59  1  0.93092314  0.73652961  0.09074105  1
  F  F60  1  0.59758981  0.52772686  0.92407439  1
  F  F61  1  0.47227314  0.06986295  0.92407439  1
  F  F62  1  0.93013705  0.40241019  0.92407439  1
  F  F63  1  0.19439353  0.93092314  0.90925895  1
  F  F64  1  0.73652961  0.80560647  0.90925895  1
  F  F65  1  0.06907686  0.26347039  0.90925895  1
  F  F66  1  0.06907686  0.80560647  0.40925895  1
  F  F67  1  0.19439353  0.26347039  0.40925895  1
  F  F68  1  0.73652961  0.93092314  0.40925895  1
  F  F69  1  0.47227314  0.40241019  0.42407439  1
  F  F70  1  0.93013705  0.52772686  0.42407439  1
  F  F71  1  0.59758981  0.06986295  0.42407439  1
  Li  Li72  1  0.28001605  0.09900041  0.96706237  1
  Li  Li73  1  -0.09900041  0.18101563  0.96706237  1
  Li  Li74  1  -0.18101563  -0.28001605  0.96706237  1
  Li  Li75  1  0.09900041  0.28001605  -0.46706237  1
  Li  Li76  1  0.18101563  -0.09900041  -0.46706237  1
  Li  Li77  1  -0.28001605  -0.18101563  -0.46706237  1
  Li  Li78  1  -0.28001605  -0.09900041  -0.96706237  1
  Li  Li79  1  0.09900041  -0.18101563  -0.96706237  1
  Li  Li80  1  0.18101563  0.28001605  -0.96706237  1
  Li  Li81  1  -0.09900041  -0.28001605  1.46706237  1
  Li  Li82  1  -0.18101563  0.09900041  1.46706237  1
  Li  Li83  1  0.28001605  0.18101563  1.46706237  1
  Li  Li84  1  0.94668271  0.43233375  1.30039571  1
  Li  Li85  1  0.56766625  0.51434897  1.30039571  1
  Li  Li86  1  0.48565103  0.05331729  1.30039571  1
  Li  Li87  1  0.76566708  0.61334938  -0.13372904  1
  Li  Li88  1  0.84768230  0.23433292  -0.13372904  1
  Li  Li89  1  0.38665062  0.15231770  -0.13372904  1
  Li  Li90  1  0.38665062  0.23433292  -0.63372904  1
  Li  Li91  1  0.76566708  0.15231770  -0.63372904  1
  Li  Li92  1  0.84768230  0.61334938  -0.63372904  1
  Li  Li93  1  0.56766625  0.05331729  1.80039571  1
  Li  Li94  1  0.48565103  0.43233375  1.80039571  1
  Li  Li95  1  0.94668271  0.51434897  1.80039571  1
  Li  Li96  1  0.61334938  0.76566708  1.63372904  1
  Li  Li97  1  0.23433292  0.84768230  1.63372904  1
  Li  Li98  1  0.15231770  0.38665062  1.63372904  1
  Li  Li99  1  0.43233375  0.94668271  0.19960429  1
  Li  Li100  1  0.51434897  0.56766625  0.19960429  1
  Li  Li101  1  0.05331729  0.48565103  0.19960429  1
  Li  Li102  1  0.05331729  0.56766625  -0.30039571  1
  Li  Li103  1  0.43233375  0.48565103  -0.30039571  1
  Li  Li104  1  0.51434897  0.94668271  -0.30039571  1
  Li  Li105  1  0.23433292  0.38665062  2.13372904  1
  Li  Li106  1  0.15231770  0.76566708  2.13372904  1
  Li  Li107  1  0.61334938  0.84768230  2.13372904  1
  Li  Li108  1  0.00000000  0.00000000  0.04403006  1
  Li  Li109  1  0.00000000  0.00000000  0.45596994  1
  Li  Li110  1  0.00000000  0.00000000  0.95596994  1
  Li  Li111  1  0.00000000  0.00000000  0.54403006  1
  Li  Li112  1  0.66666667  0.33333333  0.37736339  1
  Li  Li113  1  0.66666667  0.33333333  0.78930328  1
  Li  Li114  1  0.66666667  0.33333333  0.28930328  1
  Li  Li115  1  0.66666667  0.33333333  0.87736339  1
  Li  Li116  1  0.33333333  0.66666667  0.71069672  1
  Li  Li117  1  0.33333333  0.66666667  0.12263661  1
  Li  Li118  1  0.33333333  0.66666667  0.62263661  1
  Li  Li119  1  0.33333333  0.66666667  0.21069672  1
  Li  Li120  1  0.50000000  0.00000000  0.00000000  1
  Li  Li121  1  0.00000000  0.50000000  0.00000000  1
  Li  Li122  1  0.50000000  0.50000000  0.00000000  1
  Li  Li123  1  0.00000000  0.50000000  0.50000000  1
  Li  Li124  1  0.50000000  0.00000000  0.50000000  1
  Li  Li125  1  0.50000000  0.50000000  0.50000000  1
  Li  Li126  1  0.16666667  0.33333333  0.33333333  1
  Li  Li127  1  0.66666667  0.83333333  0.33333333  1
  Li  Li128  1  0.16666667  0.83333333  0.33333333  1
  Li  Li129  1  0.66666667  0.83333333  0.83333333  1
  Li  Li130  1  0.16666667  0.33333333  0.83333333  1
  Li  Li131  1  0.16666667  0.83333333  0.83333333  1
  Li  Li132  1  0.83333333  0.66666667  0.66666667  1
  Li  Li133  1  0.33333333  0.16666667  0.66666667  1
  Li  Li134  1  0.83333333  0.16666667  0.66666667  1
  Li  Li135  1  0.33333333  0.16666667  0.16666667  1
  Li  Li136  1  0.83333333  0.66666667  0.16666667  1
  Li  Li137  1  0.83333333  0.16666667  0.16666667  1
  Li  Li138  1  0.00000000  0.00000000  0.25000000  1
  Li  Li139  1  0.00000000  0.00000000  0.75000000  1
  Li  Li140  1  0.66666667  0.33333333  0.58333333  1
  Li  Li141  1  0.66666667  0.33333333  0.08333333  1
  Li  Li142  1  0.33333333  0.66666667  0.91666667  1
  Li  Li143  1  0.33333333  0.66666667  0.41666667  1
