# generated using pymatgen
data_LiF
_symmetry_space_group_name_H-M   'P 1'
_cell_length_a   11.17074036
_cell_length_b   11.27163292
_cell_length_c   5.80336984
_cell_angle_alpha   90.00000000
_cell_angle_beta   90.00000000
_cell_angle_gamma   90.00000000
_symmetry_Int_Tables_number   1
_chemical_formula_structural   LiF
_chemical_formula_sum   'Li24 F24'
_cell_volume   730.71671613
_cell_formula_units_Z   24
loop_
 _symmetry_equiv_pos_site_id
 _symmetry_equiv_pos_as_xyz
  1  'x, y, z'
loop_
 _atom_site_type_symbol
 _atom_site_label
 _atom_site_symmetry_multiplicity
 _atom_site_fract_x
 _atom_site_fract_y
 _atom_site_fract_z
 _atom_site_occupancy
  F  F0  1  0.84392605  0.82150224  0.11470969  1
  F  F1  1  0.65607395  0.17849776  0.61470969  1
  F  F2  1  0.15607395  0.32150224  0.88529031  1
  F  F3  1  0.34392605  0.67849776  0.38529031  1
  F  F4  1  0.15607395  0.17849776  0.88529031  1
  F  F5  1  0.34392605  0.82150224  0.38529031  1
  F  F6  1  0.84392605  0.67849776  0.11470969  1
  F  F7  1  0.65607395  0.32150224  0.61470969  1
  F  F8  1  0.74040509  0.25000000  0.27628553  1
  F  F9  1  0.75959491  0.75000000  0.77628553  1
  F  F10  1  0.25959491  0.75000000  0.72371447  1
  F  F11  1  0.24040509  0.25000000  0.22371447  1
  F  F12  1  0.27163685  0.03140388  0.37980412  1
  F  F13  1  0.22836315  0.96859612  0.87980412  1
  F  F14  1  0.72836315  0.53140388  0.62019588  1
  F  F15  1  0.77163685  0.46859612  0.12019588  1
  F  F16  1  0.72836315  0.96859612  0.62019588  1
  F  F17  1  0.77163685  0.03140388  0.12019588  1
  F  F18  1  0.27163685  0.46859612  0.37980412  1
  F  F19  1  0.22836315  0.53140388  0.87980412  1
  F  F20  1  0.00000000  0.00000000  0.50000000  1
  F  F21  1  0.50000000  0.00000000  0.00000000  1
  F  F22  1  0.00000000  0.50000000  0.50000000  1
  F  F23  1  0.50000000  0.50000000  0.00000000  1
  Li  Li24  1  0.46166752  0.25000000  0.51498329  1
  Li  Li25  1  0.03833248  0.75000000  0.01498329  1
  Li  Li26  1  0.53833248  0.75000000  0.48501671  1
  Li  Li27  1  0.96166752  0.25000000  0.98501671  1
  Li  Li28  1  0.00000000  0.00000000  0.00000000  1
  Li  Li29  1  0.50000000  0.00000000  0.50000000  1
  Li  Li30  1  0.00000000  0.50000000  0.00000000  1
  Li  Li31  1  0.50000000  0.50000000  0.50000000  1
  Li  Li32  1  0.76822247  0.82925753  0.95379852  1
  Li  Li33  1  -0.26822247  -0.82925753  1.45379852  1
  Li  Li34  1  -0.76822247  1.32925753  -0.95379852  1
  Li  Li35  1  1.26822247  -0.32925753  -0.45379852  1
  Li  Li36  1  -0.76822247  -0.82925753  -0.95379852  1
  Li  Li37  1  1.26822247  0.82925753  -0.45379852  1
  Li  Li38  1  0.76822247  -0.32925753  0.95379852  1
  Li  Li39  1  -0.26822247  1.32925753  1.45379852  1
  Li  Li40  1  0.86115503  0.56426613  0.77418031  1
  Li  Li41  1  0.63884497  0.43573387  0.27418031  1
  Li  Li42  1  0.13884497  0.06426613  0.22581969  1
  Li  Li43  1  0.36115503  0.93573387  0.72581969  1
  Li  Li44  1  0.13884497  0.43573387  0.22581969  1
  Li  Li45  1  0.36115503  0.56426613  0.72581969  1
  Li  Li46  1  0.86115503  0.93573387  0.77418031  1
  Li  Li47  1  0.63884497  0.06426613  0.27418031  1
