# generated using pymatgen
data_LiF
_symmetry_space_group_name_H-M   'P 1'
_cell_length_a   10.94014244
_cell_length_b   7.78079398
_cell_length_c   6.02837540
_cell_angle_alpha   90.00000000
_cell_angle_beta   90.00000000
_cell_angle_gamma   90.00000000
_symmetry_Int_Tables_number   1
_chemical_formula_structural   LiF
_chemical_formula_sum   'Li24 F24'
_cell_volume   513.15336602
_cell_formula_units_Z   24
loop_
 _symmetry_equiv_pos_site_id
 _symmetry_equiv_pos_as_xyz
  1  'x, y, z'
loop_
 _atom_site_type_symbol
 _atom_site_label
 _atom_site_symmetry_multiplicity
 _atom_site_fract_x
 _atom_site_fract_y
 _atom_site_fract_z
 _atom_site_occupancy
  F  F0  1  0.85922538  0.11517430  0.88722794  1
  F  F1  1  0.64077462  0.88482570  0.38722794  1
  F  F2  1  0.14077462  0.61517430  0.11277206  1
  F  F3  1  0.35922538  0.38482570  0.61277206  1
  F  F4  1  0.14077462  0.88482570  0.11277206  1
  F  F5  1  0.35922538  0.11517430  0.61277206  1
  F  F6  1  0.85922538  0.38482570  0.88722794  1
  F  F7  1  0.64077462  0.61517430  0.38722794  1
  F  F8  1  0.16185187  0.85692925  0.20804289  1
  F  F9  1  0.33814813  0.14307075  0.70804289  1
  F  F10  1  0.83814813  0.35692925  0.79195711  1
  F  F11  1  0.66185187  0.64307075  0.29195711  1
  F  F12  1  0.83814813  0.14307075  0.79195711  1
  F  F13  1  0.66185187  0.85692925  0.29195711  1
  F  F14  1  0.16185187  0.64307075  0.20804289  1
  F  F15  1  0.33814813  0.35692925  0.70804289  1
  F  F16  1  0.17005493  0.31463822  0.84699331  1
  F  F17  1  0.32994507  0.68536178  0.34699331  1
  F  F18  1  0.82994507  0.81463822  0.15300669  1
  F  F19  1  0.67005493  0.18536178  0.65300669  1
  F  F20  1  0.82994507  0.68536178  0.15300669  1
  F  F21  1  0.67005493  0.31463822  0.65300669  1
  F  F22  1  0.17005493  0.18536178  0.84699331  1
  F  F23  1  0.32994507  0.81463822  0.34699331  1
  Li  Li24  1  0.66139987  0.37342034  0.50266840  1
  Li  Li25  1  -0.16139987  -0.37342034  1.00266840  1
  Li  Li26  1  -0.66139987  0.87342034  -0.50266840  1
  Li  Li27  1  1.16139987  0.12657966  -0.00266840  1
  Li  Li28  1  -0.66139987  -0.37342034  -0.50266840  1
  Li  Li29  1  1.16139987  0.37342034  -0.00266840  1
  Li  Li30  1  0.66139987  0.12657966  0.50266840  1
  Li  Li31  1  -0.16139987  0.87342034  1.00266840  1
  Li  Li32  1  0.62074304  0.25000000  0.17960209  1
  Li  Li33  1  0.87925696  0.75000000  0.67960209  1
  Li  Li34  1  0.37925696  0.75000000  0.82039791  1
  Li  Li35  1  0.12074304  0.25000000  0.32039791  1
  Li  Li36  1  0.00000000  0.00000000  0.50000000  1
  Li  Li37  1  0.50000000  0.00000000  0.00000000  1
  Li  Li38  1  0.00000000  0.50000000  0.50000000  1
  Li  Li39  1  0.50000000  0.50000000  -0.00000000  1
  Li  Li40  1  0.59487226  0.25000000  0.72016342  1
  Li  Li41  1  0.90512774  0.75000000  0.22016342  1
  Li  Li42  1  0.40512774  0.75000000  0.27983658  1
  Li  Li43  1  0.09487226  0.25000000  0.77983658  1
  Li  Li44  1  0.39569660  0.25000000  0.99938438  1
  Li  Li45  1  0.10430340  0.75000000  0.49938438  1
  Li  Li46  1  0.60430340  0.75000000  0.00061562  1
  Li  Li47  1  0.89569660  0.25000000  0.50061562  1
