# generated using pymatgen
data_LiF
_symmetry_space_group_name_H-M   'P 1'
_cell_length_a   15.40781115
_cell_length_b   15.40781115
_cell_length_c   4.13531303
_cell_angle_alpha   90.00000000
_cell_angle_beta   90.00000000
_cell_angle_gamma   90.00000000
_symmetry_Int_Tables_number   1
_chemical_formula_structural   LiF
_chemical_formula_sum   'Li32 F32'
_cell_volume   981.72597868
_cell_formula_units_Z   32
loop_
 _symmetry_equiv_pos_site_id
 _symmetry_equiv_pos_as_xyz
  1  'x, y, z'
loop_
 _atom_site_type_symbol
 _atom_site_label
 _atom_site_symmetry_multiplicity
 _atom_site_fract_x
 _atom_site_fract_y
 _atom_site_fract_z
 _atom_site_occupancy
  F  F0  1  0.41668282  0.29729529  0.74232553  1
  F  F1  1  0.08331718  0.70270471  0.24232553  1
  F  F2  1  0.95270471  0.16668282  0.99232553  1
  F  F3  1  0.54729529  0.83331718  0.49232553  1
  F  F4  1  0.08331718  0.29729529  0.25767447  1
  F  F5  1  0.41668282  0.70270471  0.75767447  1
  F  F6  1  0.54729529  0.16668282  0.00767447  1
  F  F7  1  0.95270471  0.83331718  0.50767447  1
  F  F8  1  0.58331718  0.70270471  0.25767447  1
  F  F9  1  0.91668282  0.29729529  0.75767447  1
  F  F10  1  0.04729529  0.83331718  0.00767447  1
  F  F11  1  0.45270471  0.16668282  0.50767447  1
  F  F12  1  0.91668282  0.70270471  0.74232553  1
  F  F13  1  0.58331718  0.29729529  0.24232553  1
  F  F14  1  0.45270471  0.83331718  0.99232553  1
  F  F15  1  0.04729529  0.16668282  0.49232553  1
  F  F16  1  0.91668282  0.79729529  0.24232553  1
  F  F17  1  0.58331718  0.20270471  0.74232553  1
  F  F18  1  0.45270471  0.66668282  0.49232553  1
  F  F19  1  0.04729529  0.33331718  0.99232553  1
  F  F20  1  0.58331718  0.79729529  0.75767447  1
  F  F21  1  0.91668282  0.20270471  0.25767447  1
  F  F22  1  0.04729529  0.66668282  0.50767447  1
  F  F23  1  0.45270471  0.33331718  0.00767447  1
  F  F24  1  0.08331718  0.20270471  0.75767447  1
  F  F25  1  0.41668282  0.79729529  0.25767447  1
  F  F26  1  0.54729529  0.33331718  0.50767447  1
  F  F27  1  0.95270471  0.66668282  0.00767447  1
  F  F28  1  0.41668282  0.20270471  0.24232553  1
  F  F29  1  0.08331718  0.79729529  0.74232553  1
  F  F30  1  0.95270471  0.33331718  0.49232553  1
  F  F31  1  0.54729529  0.66668282  0.99232553  1
  Li  Li32  1  0.56019826  0.37289718  0.77732528  1
  Li  Li33  1  -0.06019826  -0.37289718  1.27732528  1
  Li  Li34  1  -0.12289718  1.31019826  1.02732528  1
  Li  Li35  1  0.62289718  -0.31019826  1.52732528  1
  Li  Li36  1  -0.06019826  0.37289718  -0.77732528  1
  Li  Li37  1  0.56019826  -0.37289718  -0.27732528  1
  Li  Li38  1  0.62289718  1.31019826  -0.02732528  1
  Li  Li39  1  -0.12289718  -0.31019826  -0.52732528  1
  Li  Li40  1  -0.56019826  -0.37289718  -0.77732528  1
  Li  Li41  1  1.06019826  0.37289718  -0.27732528  1
  Li  Li42  1  1.12289718  -0.31019826  -0.02732528  1
  Li  Li43  1  0.37710282  1.31019826  -0.52732528  1
  Li  Li44  1  1.06019826  -0.37289718  0.77732528  1
  Li  Li45  1  -0.56019826  0.37289718  1.27732528  1
  Li  Li46  1  0.37710282  -0.31019826  1.02732528  1
  Li  Li47  1  1.12289718  1.31019826  1.52732528  1
  Li  Li48  1  1.06019826  0.87289718  1.27732528  1
  Li  Li49  1  0.43980174  0.12710282  1.77732528  1
  Li  Li50  1  0.37710282  1.81019826  1.52732528  1
  Li  Li51  1  1.12289718  0.18980174  2.02732528  1
  Li  Li52  1  0.43980174  0.87289718  -0.27732528  1
  Li  Li53  1  1.06019826  0.12710282  0.22267472  1
  Li  Li54  1  1.12289718  1.81019826  0.47267472  1
  Li  Li55  1  0.37710282  0.18980174  -0.02732528  1
  Li  Li56  1  -0.06019826  0.12710282  -0.27732528  1
  Li  Li57  1  1.56019826  0.87289718  0.22267472  1
  Li  Li58  1  1.62289718  0.18980174  0.47267472  1
  Li  Li59  1  0.87710282  1.81019826  -0.02732528  1
  Li  Li60  1  1.56019826  0.12710282  1.27732528  1
  Li  Li61  1  -0.06019826  0.87289718  1.77732528  1
  Li  Li62  1  0.87710282  0.18980174  1.52732528  1
  Li  Li63  1  1.62289718  1.81019826  2.02732528  1
