# generated using pymatgen
data_Li2YAs2P4Se
_symmetry_space_group_name_H-M   'P 1'
_cell_length_a   5.46807813
_cell_length_b   5.49559470
_cell_length_c   7.57910323
_cell_angle_alpha   94.82045405
_cell_angle_beta   100.49794676
_cell_angle_gamma   109.36184805
_symmetry_Int_Tables_number   1
_chemical_formula_structural   Li2YAs2P4Se
_chemical_formula_sum   'Li2 Y1 As2 P4 Se1'
_cell_volume   208.70020384
_cell_formula_units_Z   1
loop_
 _symmetry_equiv_pos_site_id
 _symmetry_equiv_pos_as_xyz
  1  'x, y, z'
loop_
 _atom_site_type_symbol
 _atom_site_label
 _atom_site_symmetry_multiplicity
 _atom_site_fract_x
 _atom_site_fract_y
 _atom_site_fract_z
 _atom_site_occupancy
  Se  Se0  1  0.12500000  0.00000000  0.25000000  1
  P  P1  1  0.00000000  0.00000000  0.00000000  1
  P  P2  1  0.37500000  0.00000000  0.25000000  1
  P  P3  1  0.25000000  0.25000000  0.25000000  1
  P  P4  1  0.00000000  0.25000000  0.12500000  1
  As  As5  1  0.76500734  0.30122006  0.47119631  1
  As  As6  1  0.58766053  0.83938614  0.55095951  1
  Li  Li7  1  0.88766406  0.36979722  0.96711046  1
  Li  Li8  1  0.61381721  0.90575505  0.22441701  1
  Y  Y9  1  0.60372098  0.51581036  0.68926752  1
