# generated using pymatgen
data_Li2Ca3F8
_symmetry_space_group_name_H-M   'P 1'
_cell_length_a   12.26747319
_cell_length_b   12.26747319
_cell_length_c   11.78353334
_cell_angle_alpha   90.00000000
_cell_angle_beta   90.00000000
_cell_angle_gamma   90.00000000
_symmetry_Int_Tables_number   1
_chemical_formula_structural   Li2Ca3F8
_chemical_formula_sum   'Li16 Ca24 F64'
_cell_volume   1773.31451922
_cell_formula_units_Z   8
loop_
 _symmetry_equiv_pos_site_id
 _symmetry_equiv_pos_as_xyz
  1  'x, y, z'
loop_
 _atom_site_type_symbol
 _atom_site_label
 _atom_site_symmetry_multiplicity
 _atom_site_fract_x
 _atom_site_fract_y
 _atom_site_fract_z
 _atom_site_occupancy
  Ca  Ca0  1  0.00000000  0.00000000  0.00000000  1
  Ca  Ca1  1  0.50000000  0.00000000  0.50000000  1
  Ca  Ca2  1  0.25000000  0.75000000  0.25000000  1
  Ca  Ca3  1  0.25000000  0.25000000  0.75000000  1
  Ca  Ca4  1  0.50000000  0.00000000  0.00000000  1
  Ca  Ca5  1  0.00000000  0.00000000  0.50000000  1
  Ca  Ca6  1  0.25000000  0.75000000  0.75000000  1
  Ca  Ca7  1  0.25000000  0.25000000  0.25000000  1
  Ca  Ca8  1  0.50000000  0.50000000  0.50000000  1
  Ca  Ca9  1  0.00000000  0.50000000  0.00000000  1
  Ca  Ca10  1  0.75000000  0.25000000  0.75000000  1
  Ca  Ca11  1  0.75000000  0.75000000  0.25000000  1
  Ca  Ca12  1  0.00000000  0.50000000  0.50000000  1
  Ca  Ca13  1  0.50000000  0.50000000  0.00000000  1
  Ca  Ca14  1  0.75000000  0.25000000  0.25000000  1
  Ca  Ca15  1  0.75000000  0.75000000  0.75000000  1
  Ca  Ca16  1  0.00000000  0.25000000  0.12500000  1
  Ca  Ca17  1  0.00000000  0.75000000  0.37500000  1
  Ca  Ca18  1  0.00000000  0.75000000  0.87500000  1
  Ca  Ca19  1  0.00000000  0.25000000  0.62500000  1
  Ca  Ca20  1  0.50000000  0.75000000  0.62500000  1
  Ca  Ca21  1  0.50000000  0.25000000  0.87500000  1
  Ca  Ca22  1  0.50000000  0.25000000  0.37500000  1
  Ca  Ca23  1  0.50000000  0.75000000  0.12500000  1
  F  F24  1  0.82959168  0.66568361  0.53869885  1
  F  F25  1  -0.32959168  -0.66568361  1.03869885  1
  F  F26  1  -0.41568361  1.57959168  0.78869885  1
  F  F27  1  0.91568361  -0.57959168  1.28869885  1
  F  F28  1  -0.32959168  0.66568361  -0.53869885  1
  F  F29  1  0.82959168  -0.66568361  -0.03869885  1
  F  F30  1  0.91568361  1.57959168  0.21130115  1
  F  F31  1  -0.41568361  -0.57959168  -0.28869885  1
  F  F32  1  -0.82959168  -0.66568361  -0.53869885  1
  F  F33  1  1.32959168  0.66568361  -0.03869885  1
  F  F34  1  1.41568361  -0.57959168  0.21130115  1
  F  F35  1  0.08431639  1.57959168  -0.28869885  1
  F  F36  1  1.32959168  -0.66568361  0.53869885  1
  F  F37  1  -0.82959168  0.66568361  1.03869885  1
  F  F38  1  0.08431639  -0.57959168  0.78869885  1
  F  F39  1  1.41568361  1.57959168  1.28869885  1
  F  F40  1  1.32959168  1.16568361  1.03869885  1
  F  F41  1  0.17040832  -0.16568361  1.53869885  1
  F  F42  1  0.08431639  2.07959168  1.28869885  1
  F  F43  1  1.41568361  -0.07959168  1.78869885  1
  F  F44  1  0.17040832  1.16568361  -0.03869885  1
  F  F45  1  1.32959168  -0.16568361  0.46130115  1
  F  F46  1  1.41568361  2.07959168  0.71130115  1
  F  F47  1  0.08431639  -0.07959168  0.21130115  1
  F  F48  1  -0.32959168  -0.16568361  -0.03869885  1
  F  F49  1  1.82959168  1.16568361  0.46130115  1
  F  F50  1  1.91568361  -0.07959168  0.71130115  1
  F  F51  1  0.58431639  2.07959168  0.21130115  1
  F  F52  1  1.82959168  -0.16568361  1.03869885  1
  F  F53  1  -0.32959168  1.16568361  1.53869885  1
  F  F54  1  0.58431639  -0.07959168  1.28869885  1
  F  F55  1  1.91568361  2.07959168  1.78869885  1
  F  F56  1  0.99152357  0.84157084  0.75371796  1
  F  F57  1  0.50847643  0.15842916  0.25371796  1
  F  F58  1  0.40842916  0.74152357  0.00371796  1
  F  F59  1  0.09157084  0.25847643  0.50371796  1
  F  F60  1  0.50847643  0.84157084  0.24628204  1
  F  F61  1  0.99152357  0.15842916  0.74628204  1
  F  F62  1  0.09157084  0.74152357  0.99628204  1
  F  F63  1  0.40842916  0.25847643  0.49628204  1
  F  F64  1  0.00847643  0.15842916  0.24628204  1
  F  F65  1  0.49152357  0.84157084  0.74628204  1
  F  F66  1  0.59157084  0.25847643  0.99628204  1
  F  F67  1  0.90842916  0.74152357  0.49628204  1
  F  F68  1  0.49152357  0.15842916  0.75371796  1
  F  F69  1  0.00847643  0.84157084  0.25371796  1
  F  F70  1  0.90842916  0.25847643  0.00371796  1
  F  F71  1  0.59157084  0.74152357  0.50371796  1
  F  F72  1  0.49152357  0.34157084  0.25371796  1
  F  F73  1  0.00847643  0.65842916  0.75371796  1
  F  F74  1  0.90842916  0.24152357  0.50371796  1
  F  F75  1  0.59157084  0.75847643  0.00371796  1
  F  F76  1  0.00847643  0.34157084  0.74628204  1
  F  F77  1  0.49152357  0.65842916  0.24628204  1
  F  F78  1  0.59157084  0.24152357  0.49628204  1
  F  F79  1  0.90842916  0.75847643  0.99628204  1
  F  F80  1  0.50847643  0.65842916  0.74628204  1
  F  F81  1  0.99152357  0.34157084  0.24628204  1
  F  F82  1  0.09157084  0.75847643  0.49628204  1
  F  F83  1  0.40842916  0.24152357  0.99628204  1
  F  F84  1  0.99152357  0.65842916  0.25371796  1
  F  F85  1  0.50847643  0.34157084  0.75371796  1
  F  F86  1  0.40842916  0.75847643  0.50371796  1
  F  F87  1  0.09157084  0.24152357  0.00371796  1
  Li  Li88  1  0.60309633  0.00000000  0.25000000  1
  Li  Li89  1  0.89690367  0.00000000  0.75000000  1
  Li  Li90  1  0.25000000  0.35309633  0.50000000  1
  Li  Li91  1  0.25000000  0.64690367  -0.00000000  1
  Li  Li92  1  0.39690367  0.00000000  0.75000000  1
  Li  Li93  1  0.10309633  0.00000000  0.25000000  1
  Li  Li94  1  0.75000000  0.64690367  0.50000000  1
  Li  Li95  1  0.75000000  0.35309633  -0.00000000  1
  Li  Li96  1  0.10309633  0.50000000  0.75000000  1
  Li  Li97  1  0.39690367  0.50000000  0.25000000  1
  Li  Li98  1  0.75000000  0.85309633  -0.00000000  1
  Li  Li99  1  0.75000000  0.14690367  0.50000000  1
  Li  Li100  1  0.89690367  0.50000000  0.25000000  1
  Li  Li101  1  0.60309633  0.50000000  0.75000000  1
  Li  Li102  1  0.25000000  0.14690367  -0.00000000  1
  Li  Li103  1  0.25000000  0.85309633  0.50000000  1
