# generated using pymatgen
data_LiF
_symmetry_space_group_name_H-M   'P 1'
_cell_length_a   10.39428009
_cell_length_b   10.39428009
_cell_length_c   26.90455275
_cell_angle_alpha   90.00000000
_cell_angle_beta   90.00000000
_cell_angle_gamma   120.00000000
_symmetry_Int_Tables_number   1
_chemical_formula_structural   LiF
_chemical_formula_sum   'Li72 F72'
_cell_volume   2517.35949270
_cell_formula_units_Z   72
loop_
 _symmetry_equiv_pos_site_id
 _symmetry_equiv_pos_as_xyz
  1  'x, y, z'
loop_
 _atom_site_type_symbol
 _atom_site_label
 _atom_site_symmetry_multiplicity
 _atom_site_fract_x
 _atom_site_fract_y
 _atom_site_fract_z
 _atom_site_occupancy
  F  F0  1  0.65104187  0.18220886  0.30730520  1
  F  F1  1  0.81779114  0.46883301  0.30730520  1
  F  F2  1  0.53116699  0.34895813  0.30730520  1
  F  F3  1  0.18220886  0.65104187  0.19269480  1
  F  F4  1  0.46883301  0.81779114  0.19269480  1
  F  F5  1  0.34895813  0.53116699  0.19269480  1
  F  F6  1  0.34895813  0.81779114  0.69269480  1
  F  F7  1  0.18220886  0.53116699  0.69269480  1
  F  F8  1  0.46883301  0.65104187  0.69269480  1
  F  F9  1  0.81779114  0.34895813  0.80730520  1
  F  F10  1  0.53116699  0.18220886  0.80730520  1
  F  F11  1  0.65104187  0.46883301  0.80730520  1
  F  F12  1  0.31770853  0.51554219  0.64063854  1
  F  F13  1  0.48445781  0.80216634  0.64063854  1
  F  F14  1  0.19783366  0.68229147  0.64063854  1
  F  F15  1  0.84887552  0.98437520  0.52602813  1
  F  F16  1  0.13549968  0.15112448  0.52602813  1
  F  F17  1  0.01562480  0.86450032  0.52602813  1
  F  F18  1  0.01562480  0.15112448  0.02602813  1
  F  F19  1  0.84887552  0.86450032  0.02602813  1
  F  F20  1  0.13549968  0.98437520  0.02602813  1
  F  F21  1  0.48445781  0.68229147  0.14063854  1
  F  F22  1  0.19783366  0.51554219  0.14063854  1
  F  F23  1  0.31770853  0.80216634  0.14063854  1
  F  F24  1  0.98437520  0.84887552  0.97397187  1
  F  F25  1  0.15112448  0.13549968  0.97397187  1
  F  F26  1  0.86450032  0.01562480  0.97397187  1
  F  F27  1  0.51554219  0.31770853  0.85936146  1
  F  F28  1  0.80216634  0.48445781  0.85936146  1
  F  F29  1  0.68229147  0.19783366  0.85936146  1
  F  F30  1  0.68229147  0.48445781  0.35936146  1
  F  F31  1  0.51554219  0.19783366  0.35936146  1
  F  F32  1  0.80216634  0.31770853  0.35936146  1
  F  F33  1  0.15112448  0.01562480  0.47397187  1
  F  F34  1  0.86450032  0.84887552  0.47397187  1
  F  F35  1  0.98437520  0.13549968  0.47397187  1
  F  F36  1  0.81051020  0.60646903  0.47797531  1
  F  F37  1  0.39353097  0.20404117  0.47797531  1
  F  F38  1  0.79595883  0.18948980  0.47797531  1
  F  F39  1  0.60646903  0.81051020  0.02202469  1
  F  F40  1  0.20404117  0.39353097  0.02202469  1
  F  F41  1  0.18948980  0.79595883  0.02202469  1
  F  F42  1  0.18948980  0.39353097  0.52202469  1
  F  F43  1  0.60646903  0.79595883  0.52202469  1
  F  F44  1  0.20404117  0.81051020  0.52202469  1
  F  F45  1  0.39353097  0.18948980  0.97797531  1
  F  F46  1  0.79595883  0.60646903  0.97797531  1
  F  F47  1  0.81051020  0.20404117  0.97797531  1
  F  F48  1  0.47717687  0.93980236  0.81130864  1
  F  F49  1  0.06019764  0.53737450  0.81130864  1
  F  F50  1  0.46262550  0.52282313  0.81130864  1
  F  F51  1  0.27313570  0.14384353  0.35535802  1
  F  F52  1  0.87070784  0.72686430  0.35535802  1
  F  F53  1  0.85615647  0.12929216  0.35535802  1
  F  F54  1  0.85615647  0.72686430  0.85535802  1
  F  F55  1  0.27313570  0.12929216  0.85535802  1
  F  F56  1  0.87070784  0.14384353  0.85535802  1
  F  F57  1  0.06019764  0.52282313  0.31130864  1
  F  F58  1  0.46262550  0.93980236  0.31130864  1
  F  F59  1  0.47717687  0.53737450  0.31130864  1
  F  F60  1  0.14384353  0.27313570  0.14464198  1
  F  F61  1  0.72686430  0.87070784  0.14464198  1
  F  F62  1  0.12929216  0.85615647  0.14464198  1
  F  F63  1  0.93980236  0.47717687  0.68869136  1
  F  F64  1  0.53737450  0.06019764  0.68869136  1
  F  F65  1  0.52282313  0.46262550  0.68869136  1
  F  F66  1  0.52282313  0.06019764  0.18869136  1
  F  F67  1  0.93980236  0.46262550  0.18869136  1
  F  F68  1  0.53737450  0.47717687  0.18869136  1
  F  F69  1  0.72686430  0.85615647  0.64464198  1
  F  F70  1  0.12929216  0.27313570  0.64464198  1
  F  F71  1  0.14384353  0.87070784  0.64464198  1
  Li  Li72  1  0.00644462  0.56318017  0.21197475  1
  Li  Li73  1  -0.56318017  -0.55673555  0.21197475  1
  Li  Li74  1  0.55673555  -0.00644462  0.21197475  1
  Li  Li75  1  0.56318017  0.00644462  0.28802525  1
  Li  Li76  1  -0.55673555  -0.56318017  0.28802525  1
  Li  Li77  1  -0.00644462  0.55673555  0.28802525  1
  Li  Li78  1  -0.00644462  -0.56318017  -0.21197475  1
  Li  Li79  1  0.56318017  0.55673555  -0.21197475  1
  Li  Li80  1  -0.55673555  0.00644462  -0.21197475  1
  Li  Li81  1  -0.56318017  -0.00644462  0.71197475  1
  Li  Li82  1  0.55673555  0.56318017  0.71197475  1
  Li  Li83  1  0.00644462  -0.55673555  0.71197475  1
  Li  Li84  1  0.67311128  0.89651350  0.54530808  1
  Li  Li85  1  0.10348650  -0.22340222  0.54530808  1
  Li  Li86  1  1.22340222  0.32688872  0.54530808  1
  Li  Li87  1  1.22984683  0.33977795  0.62135858  1
  Li  Li88  1  0.10993112  -0.22984683  0.62135858  1
  Li  Li89  1  0.66022205  0.89006888  0.62135858  1
  Li  Li90  1  0.66022205  -0.22984683  0.12135858  1
  Li  Li91  1  1.22984683  0.89006888  0.12135858  1
  Li  Li92  1  0.10993112  0.33977795  0.12135858  1
  Li  Li93  1  0.10348650  0.32688872  1.04530808  1
  Li  Li94  1  1.22340222  0.89651350  1.04530808  1
  Li  Li95  1  0.67311128  -0.22340222  1.04530808  1
  Li  Li96  1  0.33977795  1.22984683  0.87864142  1
  Li  Li97  1  -0.22984683  0.10993112  0.87864142  1
  Li  Li98  1  0.89006888  0.66022205  0.87864142  1
  Li  Li99  1  0.89651350  0.67311128  0.95469192  1
  Li  Li100  1  -0.22340222  0.10348650  0.95469192  1
  Li  Li101  1  0.32688872  1.22340222  0.95469192  1
  Li  Li102  1  0.32688872  0.10348650  0.45469192  1
  Li  Li103  1  0.89651350  1.22340222  0.45469192  1
  Li  Li104  1  -0.22340222  0.67311128  0.45469192  1
  Li  Li105  1  -0.22984683  0.66022205  1.37864142  1
  Li  Li106  1  0.89006888  1.22984683  1.37864142  1
  Li  Li107  1  0.33977795  0.10993112  1.37864142  1
  Li  Li108  1  0.75174531  0.82036724  0.71433271  1
  Li  Li109  1  0.17963276  0.93137807  0.71433271  1
  Li  Li110  1  0.06862193  0.24825469  0.71433271  1
  Li  Li111  1  0.82036724  0.75174531  0.78566729  1
  Li  Li112  1  0.93137807  0.17963276  0.78566729  1
  Li  Li113  1  0.24825469  0.06862193  0.78566729  1
  Li  Li114  1  0.24825469  0.17963276  0.28566729  1
  Li  Li115  1  0.82036724  0.06862193  0.28566729  1
  Li  Li116  1  0.93137807  0.75174531  0.28566729  1
  Li  Li117  1  0.17963276  0.24825469  0.21433271  1
  Li  Li118  1  0.06862193  0.82036724  0.21433271  1
  Li  Li119  1  0.75174531  0.93137807  0.21433271  1
  Li  Li120  1  0.41841197  0.15370057  0.04766604  1
  Li  Li121  1  0.84629943  0.26471140  0.04766604  1
  Li  Li122  1  0.73528860  0.58158803  0.04766604  1
  Li  Li123  1  0.48703391  0.08507864  0.11900063  1
  Li  Li124  1  0.59804474  0.51296609  0.11900063  1
  Li  Li125  1  0.91492136  0.40195526  0.11900063  1
  Li  Li126  1  0.91492136  0.51296609  0.61900063  1
  Li  Li127  1  0.48703391  0.40195526  0.61900063  1
  Li  Li128  1  0.59804474  0.08507864  0.61900063  1
  Li  Li129  1  0.84629943  0.58158803  0.54766604  1
  Li  Li130  1  0.73528860  0.15370057  0.54766604  1
  Li  Li131  1  0.41841197  0.26471140  0.54766604  1
  Li  Li132  1  0.08507864  0.48703391  0.38099937  1
  Li  Li133  1  0.51296609  0.59804474  0.38099937  1
  Li  Li134  1  0.40195526  0.91492136  0.38099937  1
  Li  Li135  1  0.15370057  0.41841197  0.45233396  1
  Li  Li136  1  0.26471140  0.84629943  0.45233396  1
  Li  Li137  1  0.58158803  0.73528860  0.45233396  1
  Li  Li138  1  0.58158803  0.84629943  0.95233396  1
  Li  Li139  1  0.15370057  0.73528860  0.95233396  1
  Li  Li140  1  0.26471140  0.41841197  0.95233396  1
  Li  Li141  1  0.51296609  0.91492136  0.88099937  1
  Li  Li142  1  0.40195526  0.48703391  0.88099937  1
  Li  Li143  1  0.08507864  0.59804474  0.88099937  1
