# generated using pymatgen
data_LiF
_symmetry_space_group_name_H-M   'P 1'
_cell_length_a   7.21719602
_cell_length_b   8.45036693
_cell_length_c   13.89830572
_cell_angle_alpha   90.00000000
_cell_angle_beta   90.00000000
_cell_angle_gamma   90.00000000
_symmetry_Int_Tables_number   1
_chemical_formula_structural   LiF
_chemical_formula_sum   'Li26 F26'
_cell_volume   847.62923795
_cell_formula_units_Z   26
loop_
 _symmetry_equiv_pos_site_id
 _symmetry_equiv_pos_as_xyz
  1  'x, y, z'
loop_
 _atom_site_type_symbol
 _atom_site_label
 _atom_site_symmetry_multiplicity
 _atom_site_fract_x
 _atom_site_fract_y
 _atom_site_fract_z
 _atom_site_occupancy
  F  F0  1  0.00000000  0.00000000  0.00000000  1
  F  F1  1  0.50000000  0.50000000  0.00000000  1
  F  F2  1  0.00000000  0.50000000  0.39493131  1
  F  F3  1  0.50000000  0.00000000  0.60506869  1
  F  F4  1  0.00000000  0.50000000  0.60506869  1
  F  F5  1  0.50000000  0.00000000  0.39493131  1
  F  F6  1  0.00000000  0.50000000  0.72364332  1
  F  F7  1  0.50000000  0.00000000  0.27635668  1
  F  F8  1  0.00000000  0.50000000  0.27635668  1
  F  F9  1  0.50000000  0.00000000  0.72364332  1
  F  F10  1  0.26973069  0.52660528  0.00000000  1
  F  F11  1  0.73026931  0.47339472  -0.00000000  1
  F  F12  1  0.23026931  0.02660528  -0.00000000  1
  F  F13  1  0.76973069  0.97339472  0.00000000  1
  F  F14  1  0.85019809  0.72015745  0.38790471  1
  F  F15  1  0.14980191  0.27984255  0.38790471  1
  F  F16  1  0.64980191  0.22015745  0.61209529  1
  F  F17  1  0.35019809  0.77984255  0.61209529  1
  F  F18  1  0.14980191  0.27984255  0.61209529  1
  F  F19  1  0.85019809  0.72015745  0.61209529  1
  F  F20  1  0.35019809  0.77984255  0.38790471  1
  F  F21  1  0.64980191  0.22015745  0.38790471  1
  F  F22  1  0.45491974  0.61386085  0.50000000  1
  F  F23  1  0.54508026  0.38613915  0.50000000  1
  F  F24  1  0.04508026  0.11386085  0.50000000  1
  F  F25  1  0.95491974  0.88613915  0.50000000  1
  Li  Li26  1  0.74762685  0.76392627  0.50000000  1
  Li  Li27  1  0.25237315  0.23607373  0.50000000  1
  Li  Li28  1  0.75237315  0.26392627  0.50000000  1
  Li  Li29  1  0.24762685  0.73607373  0.50000000  1
  Li  Li30  1  0.00000000  0.00000000  0.20346388  1
  Li  Li31  1  0.50000000  0.50000000  0.79653612  1
  Li  Li32  1  0.00000000  0.00000000  0.79653612  1
  Li  Li33  1  0.50000000  0.50000000  0.20346388  1
  Li  Li34  1  0.00000000  0.50000000  0.00000000  1
  Li  Li35  1  0.50000000  0.00000000  0.00000000  1
  Li  Li36  1  0.00000000  0.00000000  0.90394847  1
  Li  Li37  1  0.50000000  0.50000000  0.09605153  1
  Li  Li38  1  0.00000000  0.00000000  0.09605153  1
  Li  Li39  1  0.50000000  0.50000000  0.90394847  1
  Li  Li40  1  0.00000000  0.50000000  0.15343584  1
  Li  Li41  1  0.50000000  0.00000000  0.84656416  1
  Li  Li42  1  0.00000000  0.50000000  0.84656416  1
  Li  Li43  1  0.50000000  0.00000000  0.15343584  1
  Li  Li44  1  0.36277015  0.12200084  0.79168897  1
  Li  Li45  1  -0.36277015  -0.12200084  0.79168897  1
  Li  Li46  1  0.13722985  0.62200084  -0.79168897  1
  Li  Li47  1  0.86277015  0.37799916  -0.79168897  1
  Li  Li48  1  -0.36277015  -0.12200084  -0.79168897  1
  Li  Li49  1  0.36277015  0.12200084  -0.79168897  1
  Li  Li50  1  0.86277015  0.37799916  0.79168897  1
  Li  Li51  1  0.13722985  0.62200084  0.79168897  1
