# generated using pymatgen
data_LiF
_symmetry_space_group_name_H-M   'P 1'
_cell_length_a   8.04621618
_cell_length_b   8.04621618
_cell_length_c   5.05685042
_cell_angle_alpha   90.00000000
_cell_angle_beta   90.00000000
_cell_angle_gamma   120.00000000
_symmetry_Int_Tables_number   1
_chemical_formula_structural   LiF
_chemical_formula_sum   'Li16 F16'
_cell_volume   283.52681051
_cell_formula_units_Z   16
loop_
 _symmetry_equiv_pos_site_id
 _symmetry_equiv_pos_as_xyz
  1  'x, y, z'
loop_
 _atom_site_type_symbol
 _atom_site_label
 _atom_site_symmetry_multiplicity
 _atom_site_fract_x
 _atom_site_fract_y
 _atom_site_fract_z
 _atom_site_occupancy
  F  F0  1  0.88660126  0.75552104  0.91237333  1
  F  F1  1  0.24447896  0.13108022  0.91237333  1
  F  F2  1  0.86891978  0.11339874  0.91237333  1
  F  F3  1  0.24447896  0.11339874  0.08762667  1
  F  F4  1  0.86891978  0.75552104  0.08762667  1
  F  F5  1  0.88660126  0.13108022  0.08762667  1
  F  F6  1  0.00000000  0.00000000  0.00000000  1
  F  F7  1  0.81193344  0.18806656  -0.00000000  1
  F  F8  1  0.81193344  0.62386687  0.00000000  1
  F  F9  1  0.37613313  0.18806656  0.00000000  1
  F  F10  1  0.52461525  0.14233308  0.53862436  1
  F  F11  1  0.85766692  0.38228217  0.53862436  1
  F  F12  1  0.61771783  0.47538475  0.53862436  1
  F  F13  1  0.85766692  0.47538475  0.46137564  1
  F  F14  1  0.61771783  0.14233308  0.46137564  1
  F  F15  1  0.52461525  0.38228217  0.46137564  1
  Li  Li16  1  0.30142114  0.89475444  0.53295600  1
  Li  Li17  1  -0.89475444  -0.59333329  0.53295600  1
  Li  Li18  1  0.59333329  -0.30142114  0.53295600  1
  Li  Li19  1  -0.89475444  -0.30142114  -0.53295600  1
  Li  Li20  1  0.59333329  0.89475444  -0.53295600  1
  Li  Li21  1  0.30142114  -0.59333329  -0.53295600  1
  Li  Li22  1  0.14687733  0.26368371  0.76031314  1
  Li  Li23  1  0.73631629  0.88319362  0.76031314  1
  Li  Li24  1  0.11680638  0.85312267  0.76031314  1
  Li  Li25  1  0.73631629  0.85312267  0.23968686  1
  Li  Li26  1  0.11680638  0.26368371  0.23968686  1
  Li  Li27  1  0.14687733  0.88319362  0.23968686  1
  Li  Li28  1  0.66666667  0.33333333  0.50000000  1
  Li  Li29  1  0.33333333  0.66666667  0.50000000  1
  Li  Li30  1  0.00000000  0.00000000  0.81088725  1
  Li  Li31  1  0.00000000  0.00000000  0.18911275  1
