# generated using pymatgen
data_Li4TeF2
_symmetry_space_group_name_H-M   'P 1'
_cell_length_a   13.29904677
_cell_length_b   13.29904677
_cell_length_c   13.29904677
_cell_angle_alpha   90.00000000
_cell_angle_beta   90.00000000
_cell_angle_gamma   90.00000000
_symmetry_Int_Tables_number   1
_chemical_formula_structural   Li4TeF2
_chemical_formula_sum   'Li96 Te24 F48'
_cell_volume   2352.13118433
_cell_formula_units_Z   24
loop_
 _symmetry_equiv_pos_site_id
 _symmetry_equiv_pos_as_xyz
  1  'x, y, z'
loop_
 _atom_site_type_symbol
 _atom_site_label
 _atom_site_symmetry_multiplicity
 _atom_site_fract_x
 _atom_site_fract_y
 _atom_site_fract_z
 _atom_site_occupancy
  F  F0  1  0.63404673  0.98152690  0.60021925  1
  F  F1  1  -0.13404673  -0.98152690  1.10021925  1
  F  F2  1  -0.63404673  1.48152690  -0.10021925  1
  F  F3  1  1.13404673  -0.48152690  -0.60021925  1
  F  F4  1  0.60021925  0.63404673  0.98152690  1
  F  F5  1  1.10021925  -0.13404673  -0.98152690  1
  F  F6  1  -0.10021925  -0.63404673  1.48152690  1
  F  F7  1  -0.60021925  1.13404673  -0.48152690  1
  F  F8  1  0.98152690  0.60021925  0.63404673  1
  F  F9  1  -0.98152690  1.10021925  -0.13404673  1
  F  F10  1  1.48152690  -0.10021925  -0.63404673  1
  F  F11  1  -0.48152690  -0.60021925  1.13404673  1
  F  F12  1  1.73152690  0.88404673  -0.35021925  1
  F  F13  1  -0.23152690  0.11595327  0.14978075  1
  F  F14  1  1.23152690  -0.38404673  1.35021925  1
  F  F15  1  -0.73152690  1.38404673  0.85021925  1
  F  F16  1  1.38404673  0.85021925  -0.73152690  1
  F  F17  1  -0.38404673  1.35021925  1.23152690  1
  F  F18  1  0.11595327  0.14978075  -0.23152690  1
  F  F19  1  0.88404673  -0.35021925  1.73152690  1
  F  F20  1  1.35021925  1.23152690  -0.38404673  1
  F  F21  1  0.85021925  -0.73152690  1.38404673  1
  F  F22  1  -0.35021925  1.73152690  0.88404673  1
  F  F23  1  0.14978075  -0.23152690  0.11595327  1
  F  F24  1  1.13404673  1.48152690  1.10021925  1
  F  F25  1  0.36595327  -0.48152690  1.60021925  1
  F  F26  1  -0.13404673  1.98152690  0.39978075  1
  F  F27  1  1.63404673  0.01847310  -0.10021925  1
  F  F28  1  1.10021925  1.13404673  1.48152690  1
  F  F29  1  1.60021925  0.36595327  -0.48152690  1
  F  F30  1  0.39978075  -0.13404673  1.98152690  1
  F  F31  1  -0.10021925  1.63404673  0.01847310  1
  F  F32  1  1.48152690  1.10021925  1.13404673  1
  F  F33  1  -0.48152690  1.60021925  0.36595327  1
  F  F34  1  1.98152690  0.39978075  -0.13404673  1
  F  F35  1  0.01847310  -0.10021925  1.63404673  1
  F  F36  1  2.23152690  1.38404673  0.14978075  1
  F  F37  1  0.26847310  0.61595327  0.64978075  1
  F  F38  1  1.73152690  0.11595327  1.85021925  1
  F  F39  1  -0.23152690  1.88404673  1.35021925  1
  F  F40  1  1.88404673  1.35021925  -0.23152690  1
  F  F41  1  0.11595327  1.85021925  1.73152690  1
  F  F42  1  0.61595327  0.64978075  0.26847310  1
  F  F43  1  1.38404673  0.14978075  2.23152690  1
  F  F44  1  1.85021925  1.73152690  0.11595327  1
  F  F45  1  1.35021925  -0.23152690  1.88404673  1
  F  F46  1  0.14978075  2.23152690  1.38404673  1
  F  F47  1  0.64978075  0.26847310  0.61595327  1
  Li  Li48  1  0.37302354  0.02452249  0.51470581  1
  Li  Li49  1  0.12697646  0.97547751  0.01470581  1
  Li  Li50  1  0.62697646  0.52452249  0.98529419  1
  Li  Li51  1  0.87302354  0.47547751  0.48529419  1
  Li  Li52  1  0.51470581  0.37302354  0.02452249  1
  Li  Li53  1  0.01470581  0.12697646  0.97547751  1
  Li  Li54  1  0.98529419  0.62697646  0.52452249  1
  Li  Li55  1  0.48529419  0.87302354  0.47547751  1
  Li  Li56  1  0.02452249  0.51470581  0.37302354  1
  Li  Li57  1  0.97547751  0.01470581  0.12697646  1
  Li  Li58  1  0.52452249  0.98529419  0.62697646  1
  Li  Li59  1  0.47547751  0.48529419  0.87302354  1
  Li  Li60  1  0.77452249  0.62302354  0.73529419  1
  Li  Li61  1  0.72547751  0.37697646  0.23529419  1
  Li  Li62  1  0.27452249  0.87697646  0.26470581  1
  Li  Li63  1  0.22547751  0.12302354  0.76470581  1
  Li  Li64  1  0.12302354  0.76470581  0.22547751  1
  Li  Li65  1  0.87697646  0.26470581  0.27452249  1
  Li  Li66  1  0.37697646  0.23529419  0.72547751  1
  Li  Li67  1  0.62302354  0.73529419  0.77452249  1
  Li  Li68  1  0.26470581  0.27452249  0.87697646  1
  Li  Li69  1  0.76470581  0.22547751  0.12302354  1
  Li  Li70  1  0.73529419  0.77452249  0.62302354  1
  Li  Li71  1  0.23529419  0.72547751  0.37697646  1
  Li  Li72  1  0.87302354  0.52452249  0.01470581  1
  Li  Li73  1  0.62697646  0.47547751  0.51470581  1
  Li  Li74  1  0.12697646  0.02452249  0.48529419  1
  Li  Li75  1  0.37302354  0.97547751  0.98529419  1
  Li  Li76  1  0.01470581  0.87302354  0.52452249  1
  Li  Li77  1  0.51470581  0.62697646  0.47547751  1
  Li  Li78  1  0.48529419  0.12697646  0.02452249  1
  Li  Li79  1  0.98529419  0.37302354  0.97547751  1
  Li  Li80  1  0.52452249  0.01470581  0.87302354  1
  Li  Li81  1  0.47547751  0.51470581  0.62697646  1
  Li  Li82  1  0.02452249  0.48529419  0.12697646  1
  Li  Li83  1  0.97547751  0.98529419  0.37302354  1
  Li  Li84  1  0.27452249  0.12302354  0.23529419  1
  Li  Li85  1  0.22547751  0.87697646  0.73529419  1
  Li  Li86  1  0.77452249  0.37697646  0.76470581  1
  Li  Li87  1  0.72547751  0.62302354  0.26470581  1
  Li  Li88  1  0.62302354  0.26470581  0.72547751  1
  Li  Li89  1  0.37697646  0.76470581  0.77452249  1
  Li  Li90  1  0.87697646  0.73529419  0.22547751  1
  Li  Li91  1  0.12302354  0.23529419  0.27452249  1
  Li  Li92  1  0.76470581  0.77452249  0.37697646  1
  Li  Li93  1  0.26470581  0.72547751  0.62302354  1
  Li  Li94  1  0.23529419  0.27452249  0.12302354  1
  Li  Li95  1  0.73529419  0.22547751  0.87697646  1
  Li  Li96  1  0.12500000  0.43698514  0.81301486  1
  Li  Li97  1  0.37500000  0.56301486  0.31301486  1
  Li  Li98  1  0.87500000  0.93698514  0.68698514  1
  Li  Li99  1  0.62500000  0.06301486  0.18698514  1
  Li  Li100  1  0.81301486  0.12500000  0.43698514  1
  Li  Li101  1  0.31301486  0.37500000  0.56301486  1
  Li  Li102  1  0.68698514  0.87500000  0.93698514  1
  Li  Li103  1  0.18698514  0.62500000  0.06301486  1
  Li  Li104  1  0.43698514  0.81301486  0.12500000  1
  Li  Li105  1  0.56301486  0.31301486  0.37500000  1
  Li  Li106  1  0.93698514  0.68698514  0.87500000  1
  Li  Li107  1  0.06301486  0.18698514  0.62500000  1
  Li  Li108  1  0.62500000  0.93698514  0.31301486  1
  Li  Li109  1  0.87500000  0.06301486  0.81301486  1
  Li  Li110  1  0.37500000  0.43698514  0.18698514  1
  Li  Li111  1  0.12500000  0.56301486  0.68698514  1
  Li  Li112  1  0.31301486  0.62500000  0.93698514  1
  Li  Li113  1  0.81301486  0.87500000  0.06301486  1
  Li  Li114  1  0.18698514  0.37500000  0.43698514  1
  Li  Li115  1  0.68698514  0.12500000  0.56301486  1
  Li  Li116  1  0.93698514  0.31301486  0.62500000  1
  Li  Li117  1  0.06301486  0.81301486  0.87500000  1
  Li  Li118  1  0.43698514  0.18698514  0.37500000  1
  Li  Li119  1  0.56301486  0.68698514  0.12500000  1
  Li  Li120  1  0.12500000  0.12500000  0.12500000  1
  Li  Li121  1  0.37500000  0.87500000  0.62500000  1
  Li  Li122  1  0.87500000  0.62500000  0.37500000  1
  Li  Li123  1  0.62500000  0.37500000  0.87500000  1
  Li  Li124  1  0.62500000  0.62500000  0.62500000  1
  Li  Li125  1  0.87500000  0.37500000  0.12500000  1
  Li  Li126  1  0.37500000  0.12500000  0.87500000  1
  Li  Li127  1  0.12500000  0.87500000  0.37500000  1
  Li  Li128  1  0.19278224  0.19278224  0.19278224  1
  Li  Li129  1  0.30721776  0.80721776  0.69278224  1
  Li  Li130  1  0.80721776  0.69278224  0.30721776  1
  Li  Li131  1  0.69278224  0.30721776  0.80721776  1
  Li  Li132  1  0.94278224  0.44278224  0.05721776  1
  Li  Li133  1  0.55721776  0.55721776  0.55721776  1
  Li  Li134  1  0.44278224  0.05721776  0.94278224  1
  Li  Li135  1  0.05721776  0.94278224  0.44278224  1
  Li  Li136  1  0.69278224  0.69278224  0.69278224  1
  Li  Li137  1  0.80721776  0.30721776  0.19278224  1
  Li  Li138  1  0.30721776  0.19278224  0.80721776  1
  Li  Li139  1  0.19278224  0.80721776  0.30721776  1
  Li  Li140  1  0.44278224  0.94278224  0.55721776  1
  Li  Li141  1  0.05721776  0.05721776  0.05721776  1
  Li  Li142  1  0.94278224  0.55721776  0.44278224  1
  Li  Li143  1  0.55721776  0.44278224  0.94278224  1
  Te  Te144  1  0.12500000  0.90941697  0.15941697  1
  Te  Te145  1  0.37500000  0.09058303  0.65941697  1
  Te  Te146  1  0.87500000  0.40941697  0.34058303  1
  Te  Te147  1  0.62500000  0.59058303  0.84058303  1
  Te  Te148  1  0.15941697  0.12500000  0.90941697  1
  Te  Te149  1  0.65941697  0.37500000  0.09058303  1
  Te  Te150  1  0.34058303  0.87500000  0.40941697  1
  Te  Te151  1  0.84058303  0.62500000  0.59058303  1
  Te  Te152  1  0.90941697  0.15941697  0.12500000  1
  Te  Te153  1  0.09058303  0.65941697  0.37500000  1
  Te  Te154  1  0.40941697  0.34058303  0.87500000  1
  Te  Te155  1  0.59058303  0.84058303  0.62500000  1
  Te  Te156  1  0.62500000  0.40941697  0.65941697  1
  Te  Te157  1  0.87500000  0.59058303  0.15941697  1
  Te  Te158  1  0.37500000  0.90941697  0.84058303  1
  Te  Te159  1  0.12500000  0.09058303  0.34058303  1
  Te  Te160  1  0.65941697  0.62500000  0.40941697  1
  Te  Te161  1  0.15941697  0.87500000  0.59058303  1
  Te  Te162  1  0.84058303  0.37500000  0.90941697  1
  Te  Te163  1  0.34058303  0.12500000  0.09058303  1
  Te  Te164  1  0.40941697  0.65941697  0.62500000  1
  Te  Te165  1  0.59058303  0.15941697  0.87500000  1
  Te  Te166  1  0.90941697  0.84058303  0.37500000  1
  Te  Te167  1  0.09058303  0.34058303  0.12500000  1
