# generated using pymatgen
data_LiTe4MoP2Se
_symmetry_space_group_name_H-M   'P 1'
_cell_length_a   4.95793432
_cell_length_b   5.03113435
_cell_length_c   6.72705801
_cell_angle_alpha   94.28156651
_cell_angle_beta   97.91038743
_cell_angle_gamma   104.91436463
_symmetry_Int_Tables_number   1
_chemical_formula_structural   LiTe4MoP2Se
_chemical_formula_sum   'Li1 Te4 Mo1 P2 Se1'
_cell_volume   159.53840727
_cell_formula_units_Z   1
loop_
 _symmetry_equiv_pos_site_id
 _symmetry_equiv_pos_as_xyz
  1  'x, y, z'
loop_
 _atom_site_type_symbol
 _atom_site_label
 _atom_site_symmetry_multiplicity
 _atom_site_fract_x
 _atom_site_fract_y
 _atom_site_fract_z
 _atom_site_occupancy
  Se  Se0  1  0.00000000  0.00000000  0.00000000  1
  Te  Te1  1  0.50000000  0.50000000  0.50000000  1
  Te  Te2  1  0.25000000  0.25000000  0.25000000  1
  Te  Te3  1  0.75000000  0.25000000  0.00000000  1
  Te  Te4  1  0.25000000  0.75000000  0.50000000  1
  P  P5  1  0.24298572  0.79187499  0.69875646  1
  P  P6  1  0.42169934  0.82509712  0.26693233  1
  Mo  Mo7  1  0.58938075  0.47200441  0.47920698  1
  Li  Li8  1  0.16651053  0.86626138  0.64788422  1
