# generated using pymatgen
data_Li3Y2P3Se
_symmetry_space_group_name_H-M   'P 1'
_cell_length_a   5.39277066
_cell_length_b   5.66693031
_cell_length_c   7.19958780
_cell_angle_alpha   93.93066169
_cell_angle_beta   98.26304791
_cell_angle_gamma   105.32194915
_symmetry_Int_Tables_number   1
_chemical_formula_structural   Li3Y2P3Se
_chemical_formula_sum   'Li3 Y2 P3 Se1'
_cell_volume   208.68725502
_cell_formula_units_Z   1
loop_
 _symmetry_equiv_pos_site_id
 _symmetry_equiv_pos_as_xyz
  1  'x, y, z'
loop_
 _atom_site_type_symbol
 _atom_site_label
 _atom_site_symmetry_multiplicity
 _atom_site_fract_x
 _atom_site_fract_y
 _atom_site_fract_z
 _atom_site_occupancy
  Se  Se0  1  0.12500000  0.00000000  0.25000000  1
  P  P1  1  0.00000000  0.00000000  0.00000000  1
  P  P2  1  0.37500000  0.00000000  0.25000000  1
  P  P3  1  0.25000000  0.25000000  0.25000000  1
  Li  Li4  1  0.00000000  0.25000000  0.12500000  1
  Li  Li5  1  0.59910722  0.62431796  0.42930173  1
  Li  Li6  1  0.05800909  0.21008681  0.40061156  1
  Y  Y7  1  0.75249926  0.04736263  0.45297243  1
  Y  Y8  1  0.81899558  0.74301763  0.28434441  1
