# generated using pymatgen
data_LiF
_symmetry_space_group_name_H-M   'P 1'
_cell_length_a   3.80403460
_cell_length_b   7.69060216
_cell_length_c   9.76420841
_cell_angle_alpha   90.00000000
_cell_angle_beta   90.00000000
_cell_angle_gamma   90.00000000
_symmetry_Int_Tables_number   1
_chemical_formula_structural   LiF
_chemical_formula_sum   'Li8 F8'
_cell_volume   285.65500952
_cell_formula_units_Z   8
loop_
 _symmetry_equiv_pos_site_id
 _symmetry_equiv_pos_as_xyz
  1  'x, y, z'
loop_
 _atom_site_type_symbol
 _atom_site_label
 _atom_site_symmetry_multiplicity
 _atom_site_fract_x
 _atom_site_fract_y
 _atom_site_fract_z
 _atom_site_occupancy
  F  F0  1  0.66712711  0.16787681  0.40629161  1
  F  F1  1  -0.66712711  -0.16787681  0.40629161  1
  F  F2  1  -0.16712711  0.66787681  0.09370839  1
  F  F3  1  1.16712711  0.33212319  0.09370839  1
  F  F4  1  -0.66712711  -0.16787681  -0.40629161  1
  F  F5  1  0.66712711  0.16787681  -0.40629161  1
  F  F6  1  1.16712711  0.33212319  0.90629161  1
  F  F7  1  -0.16712711  0.66787681  0.90629161  1
  Li  Li8  1  0.00000000  0.50000000  0.69800537  1
  Li  Li9  1  0.50000000  0.00000000  0.80199463  1
  Li  Li10  1  0.00000000  0.50000000  0.30199463  1
  Li  Li11  1  0.50000000  0.00000000  0.19800537  1
  Li  Li12  1  0.00287031  0.35527189  0.00000000  1
  Li  Li13  1  0.99712969  0.64472811  0.00000000  1
  Li  Li14  1  0.49712969  0.85527189  0.50000000  1
  Li  Li15  1  0.50287031  0.14472811  0.50000000  1
