# generated using pymatgen
data_LiF
_symmetry_space_group_name_H-M   'P 1'
_cell_length_a   9.08438505
_cell_length_b   6.50577510
_cell_length_c   7.91380854
_cell_angle_alpha   90.00000000
_cell_angle_beta   90.00000000
_cell_angle_gamma   90.00000000
_symmetry_Int_Tables_number   1
_chemical_formula_structural   LiF
_chemical_formula_sum   'Li20 F20'
_cell_volume   467.71372935
_cell_formula_units_Z   20
loop_
 _symmetry_equiv_pos_site_id
 _symmetry_equiv_pos_as_xyz
  1  'x, y, z'
loop_
 _atom_site_type_symbol
 _atom_site_label
 _atom_site_symmetry_multiplicity
 _atom_site_fract_x
 _atom_site_fract_y
 _atom_site_fract_z
 _atom_site_occupancy
  F  F0  1  0.05322195  0.12473327  0.37070317  1
  F  F1  1  0.44677805  0.87526673  0.87070317  1
  F  F2  1  0.94677805  0.62473327  0.62929683  1
  F  F3  1  0.55322195  0.37526673  0.12929683  1
  F  F4  1  0.94677805  0.87526673  0.62929683  1
  F  F5  1  0.55322195  0.12473327  0.12929683  1
  F  F6  1  0.05322195  0.37526673  0.37070317  1
  F  F7  1  0.44677805  0.62473327  0.87070317  1
  F  F8  1  0.64376138  0.90521603  0.45878643  1
  F  F9  1  0.85623862  0.09478397  0.95878643  1
  F  F10  1  0.35623862  0.40521603  0.54121357  1
  F  F11  1  0.14376138  0.59478397  0.04121357  1
  F  F12  1  0.35623862  0.09478397  0.54121357  1
  F  F13  1  0.14376138  0.90521603  0.04121357  1
  F  F14  1  0.64376138  0.59478397  0.45878643  1
  F  F15  1  0.85623862  0.40521603  0.95878643  1
  F  F16  1  0.44000887  0.25000000  0.56912083  1
  F  F17  1  0.05999113  0.75000000  0.06912083  1
  F  F18  1  0.55999113  0.75000000  0.43087917  1
  F  F19  1  0.94000887  0.25000000  0.93087917  1
  Li  Li20  1  0.33610767  0.53033121  0.87549493  1
  Li  Li21  1  0.16389233  -0.53033121  1.37549493  1
  Li  Li22  1  -0.33610767  1.03033121  -0.87549493  1
  Li  Li23  1  0.83610767  -0.03033121  -0.37549493  1
  Li  Li24  1  -0.33610767  -0.53033121  -0.87549493  1
  Li  Li25  1  0.83610767  0.53033121  -0.37549493  1
  Li  Li26  1  0.33610767  -0.03033121  0.87549493  1
  Li  Li27  1  0.16389233  1.03033121  1.37549493  1
  Li  Li28  1  0.86196266  0.25000000  0.11401107  1
  Li  Li29  1  0.63803734  0.75000000  0.61401107  1
  Li  Li30  1  0.13803734  0.75000000  0.88598893  1
  Li  Li31  1  0.36196266  0.25000000  0.38598893  1
  Li  Li32  1  0.33201893  0.25000000  0.65089543  1
  Li  Li33  1  0.16798107  0.75000000  0.15089543  1
  Li  Li34  1  0.66798107  0.75000000  0.34910457  1
  Li  Li35  1  0.83201893  0.25000000  0.84910457  1
  Li  Li36  1  0.00000000  0.00000000  0.00000000  1
  Li  Li37  1  0.50000000  0.00000000  0.50000000  1
  Li  Li38  1  0.00000000  0.50000000  0.00000000  1
  Li  Li39  1  0.50000000  0.50000000  0.50000000  1
