# generated using pymatgen
data_Li2YAsP3Se
_symmetry_space_group_name_H-M   'P 1'
_cell_length_a   5.14694748
_cell_length_b   5.28752283
_cell_length_c   6.81719721
_cell_angle_alpha   94.33355386
_cell_angle_beta   98.18870056
_cell_angle_gamma   104.60753401
_symmetry_Int_Tables_number   1
_chemical_formula_structural   Li2YAsP3Se
_chemical_formula_sum   'Li2 Y1 As1 P3 Se1'
_cell_volume   176.49207942
_cell_formula_units_Z   1
loop_
 _symmetry_equiv_pos_site_id
 _symmetry_equiv_pos_as_xyz
  1  'x, y, z'
loop_
 _atom_site_type_symbol
 _atom_site_label
 _atom_site_symmetry_multiplicity
 _atom_site_fract_x
 _atom_site_fract_y
 _atom_site_fract_z
 _atom_site_occupancy
  Se  Se0  1  0.12500000  0.00000000  0.25000000  1
  Y  Y1  1  0.00000000  0.00000000  0.00000000  1
  P  P2  1  0.37500000  0.00000000  0.25000000  1
  P  P3  1  0.25000000  0.25000000  0.25000000  1
  P  P4  1  0.00000000  0.25000000  0.12500000  1
  As  As5  1  0.52210226  0.85055617  0.84806982  1
  Li  Li6  1  0.48466864  0.05271360  0.30522787  1
  Li  Li7  1  0.07945319  0.73761988  0.98332340  1
