# generated using pymatgen
data_LiAlSe2
_symmetry_space_group_name_H-M   'P 1'
_cell_length_a   15.68071010
_cell_length_b   16.49742865
_cell_length_c   8.20290294
_cell_angle_alpha   90.00000000
_cell_angle_beta   90.00000000
_cell_angle_gamma   90.00000000
_symmetry_Int_Tables_number   1
_chemical_formula_structural   LiAlSe2
_chemical_formula_sum   'Li24 Al24 Se48'
_cell_volume   2122.02041347
_cell_formula_units_Z   24
loop_
 _symmetry_equiv_pos_site_id
 _symmetry_equiv_pos_as_xyz
  1  'x, y, z'
loop_
 _atom_site_type_symbol
 _atom_site_label
 _atom_site_symmetry_multiplicity
 _atom_site_fract_x
 _atom_site_fract_y
 _atom_site_fract_z
 _atom_site_occupancy
  Al  Al0  1  0.26611667  0.88071408  0.00000000  1
  Al  Al1  1  0.73388333  0.11928592  -0.00000000  1
  Al  Al2  1  0.23388333  0.38071408  -0.00000000  1
  Al  Al3  1  0.76611667  0.61928592  -0.00000000  1
  Al  Al4  1  0.90758568  0.30060419  0.66040748  1
  Al  Al5  1  -0.90758568  -0.30060419  0.66040748  1
  Al  Al6  1  -0.40758568  0.80060419  -0.66040748  1
  Al  Al7  1  1.40758568  0.19939581  -0.66040748  1
  Al  Al8  1  -0.90758568  -0.30060419  -0.66040748  1
  Al  Al9  1  0.90758568  0.30060419  -0.66040748  1
  Al  Al10  1  1.40758568  0.19939581  0.66040748  1
  Al  Al11  1  -0.40758568  0.80060419  0.66040748  1
  Al  Al12  1  0.53949522  0.72477023  0.80787661  1
  Al  Al13  1  0.46050478  0.27522977  0.80787661  1
  Al  Al14  1  0.96050478  0.22477023  0.19212339  1
  Al  Al15  1  0.03949522  0.77522977  0.19212339  1
  Al  Al16  1  0.46050478  0.27522977  0.19212339  1
  Al  Al17  1  0.53949522  0.72477023  0.19212339  1
  Al  Al18  1  0.03949522  0.77522977  0.80787661  1
  Al  Al19  1  0.96050478  0.22477023  0.80787661  1
  Al  Al20  1  0.00000000  0.50000000  0.50000000  1
  Al  Al21  1  0.50000000  0.00000000  0.50000000  1
  Al  Al22  1  0.00000000  0.00000000  0.00000000  1
  Al  Al23  1  0.50000000  0.50000000  0.00000000  1
  Li  Li24  1  0.33913889  0.62482813  0.50000000  1
  Li  Li25  1  0.66086111  0.37517187  0.50000000  1
  Li  Li26  1  0.16086111  0.12482813  0.50000000  1
  Li  Li27  1  0.83913889  0.87517187  0.50000000  1
  Li  Li28  1  0.81527083  0.97551025  0.30608939  1
  Li  Li29  1  0.18472917  0.02448975  0.30608939  1
  Li  Li30  1  0.68472917  0.47551025  0.69391061  1
  Li  Li31  1  0.31527083  0.52448975  0.69391061  1
  Li  Li32  1  0.18472917  0.02448975  0.69391061  1
  Li  Li33  1  0.81527083  0.97551025  0.69391061  1
  Li  Li34  1  0.31527083  0.52448975  0.30608939  1
  Li  Li35  1  0.68472917  0.47551025  0.30608939  1
  Li  Li36  1  0.43364844  0.38276478  0.50000000  1
  Li  Li37  1  0.56635156  0.61723522  0.50000000  1
  Li  Li38  1  0.06635156  0.88276478  0.50000000  1
  Li  Li39  1  0.93364844  0.11723522  0.50000000  1
  Li  Li40  1  0.88981234  0.68790158  0.32866333  1
  Li  Li41  1  0.11018766  0.31209842  0.32866333  1
  Li  Li42  1  0.61018766  0.18790158  0.67133667  1
  Li  Li43  1  0.38981234  0.81209842  0.67133667  1
  Li  Li44  1  0.11018766  0.31209842  0.67133667  1
  Li  Li45  1  0.88981234  0.68790158  0.67133667  1
  Li  Li46  1  0.38981234  0.81209842  0.32866333  1
  Li  Li47  1  0.61018766  0.18790158  0.32866333  1
  Se  Se48  1  0.00000000  0.50000000  0.00000000  1
  Se  Se49  1  0.50000000  0.00000000  0.00000000  1
  Se  Se50  1  0.26977388  0.64256044  0.85023012  1
  Se  Se51  1  0.73022612  0.35743956  0.85023012  1
  Se  Se52  1  0.23022612  0.14256044  0.14976988  1
  Se  Se53  1  0.76977388  0.85743956  0.14976988  1
  Se  Se54  1  0.73022612  0.35743956  0.14976988  1
  Se  Se55  1  0.26977388  0.64256044  0.14976988  1
  Se  Se56  1  0.76977388  0.85743956  0.85023012  1
  Se  Se57  1  0.23022612  0.14256044  0.85023012  1
  Se  Se58  1  0.00000000  0.00000000  0.50000000  1
  Se  Se59  1  0.50000000  0.50000000  0.50000000  1
  Se  Se60  1  0.15484209  0.12212370  -0.00000000  1
  Se  Se61  1  0.84515791  0.87787630  -0.00000000  1
  Se  Se62  1  0.34515791  0.62212370  -0.00000000  1
  Se  Se63  1  0.65484209  0.37787630  -0.00000000  1
  Se  Se64  1  0.00000000  0.50000000  0.75864735  1
  Se  Se65  1  0.50000000  0.00000000  0.24135265  1
  Se  Se66  1  0.00000000  0.50000000  0.24135265  1
  Se  Se67  1  0.50000000  0.00000000  0.75864735  1
  Se  Se68  1  0.43947470  0.70378830  0.39572567  1
  Se  Se69  1  0.56052530  0.29621170  0.39572567  1
  Se  Se70  1  0.06052530  0.20378830  0.60427433  1
  Se  Se71  1  0.93947470  0.79621170  0.60427433  1
  Se  Se72  1  0.56052530  0.29621170  0.60427433  1
  Se  Se73  1  0.43947470  0.70378830  0.60427433  1
  Se  Se74  1  0.93947470  0.79621170  0.39572567  1
  Se  Se75  1  0.06052530  0.20378830  0.39572567  1
  Se  Se76  1  0.30793177  0.76424514  0.28035237  1
  Se  Se77  1  0.69206823  0.23575486  0.28035237  1
  Se  Se78  1  0.19206823  0.26424514  0.71964763  1
  Se  Se79  1  0.80793177  0.73575486  0.71964763  1
  Se  Se80  1  0.69206823  0.23575486  0.71964763  1
  Se  Se81  1  0.30793177  0.76424514  0.71964763  1
  Se  Se82  1  0.80793177  0.73575486  0.28035237  1
  Se  Se83  1  0.19206823  0.26424514  0.28035237  1
  Se  Se84  1  0.90601789  0.42818211  0.80563667  1
  Se  Se85  1  0.09398211  0.57181789  0.80563667  1
  Se  Se86  1  0.59398211  0.92818211  0.19436333  1
  Se  Se87  1  0.40601789  0.07181789  0.19436333  1
  Se  Se88  1  0.09398211  0.57181789  0.19436333  1
  Se  Se89  1  0.90601789  0.42818211  0.19436333  1
  Se  Se90  1  0.40601789  0.07181789  0.80563667  1
  Se  Se91  1  0.59398211  0.92818211  0.80563667  1
  Se  Se92  1  0.85073610  0.72268137  0.00000000  1
  Se  Se93  1  0.14926390  0.27731863  -0.00000000  1
  Se  Se94  1  0.64926390  0.22268137  -0.00000000  1
  Se  Se95  1  0.35073610  0.77731863  -0.00000000  1
