# generated using pymatgen
data_LiF
_symmetry_space_group_name_H-M   'P 1'
_cell_length_a   8.43219638
_cell_length_b   10.79914406
_cell_length_c   8.43749577
_cell_angle_alpha   90.00000000
_cell_angle_beta   90.00000000
_cell_angle_gamma   90.00000000
_symmetry_Int_Tables_number   1
_chemical_formula_structural   LiF
_chemical_formula_sum   'Li28 F28'
_cell_volume   768.32261264
_cell_formula_units_Z   28
loop_
 _symmetry_equiv_pos_site_id
 _symmetry_equiv_pos_as_xyz
  1  'x, y, z'
loop_
 _atom_site_type_symbol
 _atom_site_label
 _atom_site_symmetry_multiplicity
 _atom_site_fract_x
 _atom_site_fract_y
 _atom_site_fract_z
 _atom_site_occupancy
  F  F0  1  0.88608747  0.05167672  0.78023948  1
  F  F1  1  0.61391253  0.94832328  0.28023948  1
  F  F2  1  0.11391253  0.55167672  0.21976052  1
  F  F3  1  0.38608747  0.44832328  0.71976052  1
  F  F4  1  0.11391253  0.94832328  0.21976052  1
  F  F5  1  0.38608747  0.05167672  0.71976052  1
  F  F6  1  0.88608747  0.44832328  0.78023948  1
  F  F7  1  0.61391253  0.55167672  0.28023948  1
  F  F8  1  0.15991549  0.25000000  0.72176505  1
  F  F9  1  0.34008451  0.75000000  0.22176505  1
  F  F10  1  0.84008451  0.75000000  0.27823495  1
  F  F11  1  0.65991549  0.25000000  0.77823495  1
  F  F12  1  0.44000218  0.57247151  0.29378930  1
  F  F13  1  0.05999782  0.42752849  0.79378930  1
  F  F14  1  0.55999782  0.07247151  0.70621070  1
  F  F15  1  0.94000218  0.92752849  0.20621070  1
  F  F16  1  0.55999782  0.42752849  0.70621070  1
  F  F17  1  0.94000218  0.57247151  0.20621070  1
  F  F18  1  0.44000218  0.92752849  0.29378930  1
  F  F19  1  0.05999782  0.07247151  0.79378930  1
  F  F20  1  0.16292156  0.54378918  0.98182535  1
  F  F21  1  0.33707844  0.45621082  0.48182535  1
  F  F22  1  0.83707844  0.04378918  0.01817465  1
  F  F23  1  0.66292156  0.95621082  0.51817465  1
  F  F24  1  0.83707844  0.45621082  0.01817465  1
  F  F25  1  0.66292156  0.54378918  0.51817465  1
  F  F26  1  0.16292156  0.95621082  0.98182535  1
  F  F27  1  0.33707844  0.04378918  0.48182535  1
  Li  Li28  1  0.00000000  0.00000000  0.00000000  1
  Li  Li29  1  0.50000000  0.00000000  0.50000000  1
  Li  Li30  1  0.00000000  0.50000000  0.00000000  1
  Li  Li31  1  0.50000000  0.50000000  0.50000000  1
  Li  Li32  1  0.69345332  0.49308924  0.15099900  1
  Li  Li33  1  -0.19345332  -0.49308924  0.65099900  1
  Li  Li34  1  -0.69345332  0.99308924  -0.15099900  1
  Li  Li35  1  1.19345332  0.00691076  0.34900100  1
  Li  Li36  1  -0.69345332  -0.49308924  -0.15099900  1
  Li  Li37  1  1.19345332  0.49308924  0.34900100  1
  Li  Li38  1  0.69345332  0.00691076  0.15099900  1
  Li  Li39  1  -0.19345332  0.99308924  0.65099900  1
  Li  Li40  1  0.52599546  0.25000000  0.75387079  1
  Li  Li41  1  0.97400454  0.75000000  0.25387079  1
  Li  Li42  1  0.47400454  0.75000000  0.24612921  1
  Li  Li43  1  0.02599546  0.25000000  0.74612921  1
  Li  Li44  1  0.69302606  0.25000000  0.36147722  1
  Li  Li45  1  0.80697394  0.75000000  0.86147722  1
  Li  Li46  1  0.30697394  0.75000000  0.63852278  1
  Li  Li47  1  0.19302606  0.25000000  0.13852278  1
  Li  Li48  1  0.61110300  0.33983877  0.86250142  1
  Li  Li49  1  0.88889700  0.66016123  0.36250142  1
  Li  Li50  1  0.38889700  0.83983877  0.13749858  1
  Li  Li51  1  0.11110300  0.16016123  0.63749858  1
  Li  Li52  1  0.38889700  0.66016123  0.13749858  1
  Li  Li53  1  0.11110300  0.33983877  0.63749858  1
  Li  Li54  1  0.61110300  0.16016123  0.86250142  1
  Li  Li55  1  0.88889700  0.83983877  0.36250142  1
