# generated using pymatgen
data_LiF
_symmetry_space_group_name_H-M   'P 1'
_cell_length_a   12.47764554
_cell_length_b   7.11644538
_cell_length_c   8.49344764
_cell_angle_alpha   90.00000000
_cell_angle_beta   90.00000000
_cell_angle_gamma   90.00000000
_symmetry_Int_Tables_number   1
_chemical_formula_structural   LiF
_chemical_formula_sum   'Li40 F40'
_cell_volume   754.18827832
_cell_formula_units_Z   40
loop_
 _symmetry_equiv_pos_site_id
 _symmetry_equiv_pos_as_xyz
  1  'x, y, z'
loop_
 _atom_site_type_symbol
 _atom_site_label
 _atom_site_symmetry_multiplicity
 _atom_site_fract_x
 _atom_site_fract_y
 _atom_site_fract_z
 _atom_site_occupancy
  F  F0  1  0.64841162  0.10199068  0.78211408  1
  F  F1  1  0.35158838  0.89800932  0.78211408  1
  F  F2  1  0.85158838  0.60199068  0.21788592  1
  F  F3  1  0.14841162  0.39800932  0.21788592  1
  F  F4  1  0.35158838  0.89800932  0.21788592  1
  F  F5  1  0.64841162  0.10199068  0.21788592  1
  F  F6  1  0.14841162  0.39800932  0.78211408  1
  F  F7  1  0.85158838  0.60199068  0.78211408  1
  F  F8  1  0.57757147  0.96389481  0.73056608  1
  F  F9  1  0.42242853  0.03610519  0.73056608  1
  F  F10  1  0.92242853  0.46389481  0.26943392  1
  F  F11  1  0.07757147  0.53610519  0.26943392  1
  F  F12  1  0.42242853  0.03610519  0.26943392  1
  F  F13  1  0.57757147  0.96389481  0.26943392  1
  F  F14  1  0.07757147  0.53610519  0.73056608  1
  F  F15  1  0.92242853  0.46389481  0.73056608  1
  F  F16  1  0.52729470  0.83022315  0.72129112  1
  F  F17  1  0.47270530  0.16977685  0.72129112  1
  F  F18  1  0.97270530  0.33022315  0.27870888  1
  F  F19  1  0.02729470  0.66977685  0.27870888  1
  F  F20  1  0.47270530  0.16977685  0.27870888  1
  F  F21  1  0.52729470  0.83022315  0.27870888  1
  F  F22  1  0.02729470  0.66977685  0.72129112  1
  F  F23  1  0.97270530  0.33022315  0.72129112  1
  F  F24  1  0.65984615  0.88171981  0.80301053  1
  F  F25  1  0.34015385  0.11828019  0.80301053  1
  F  F26  1  0.84015385  0.38171981  0.19698947  1
  F  F27  1  0.15984615  0.61828019  0.19698947  1
  F  F28  1  0.34015385  0.11828019  0.19698947  1
  F  F29  1  0.65984615  0.88171981  0.19698947  1
  F  F30  1  0.15984615  0.61828019  0.80301053  1
  F  F31  1  0.84015385  0.38171981  0.80301053  1
  F  F32  1  0.57181486  0.79175333  0.35577050  1
  F  F33  1  0.42818514  0.20824667  0.35577050  1
  F  F34  1  0.92818514  0.29175333  0.64422950  1
  F  F35  1  0.07181486  0.70824667  0.64422950  1
  F  F36  1  0.42818514  0.20824667  0.64422950  1
  F  F37  1  0.57181486  0.79175333  0.64422950  1
  F  F38  1  0.07181486  0.70824667  0.35577050  1
  F  F39  1  0.92818514  0.29175333  0.35577050  1
  Li  Li40  1  0.28940429  0.46268261  0.23501736  1
  Li  Li41  1  -0.28940429  -0.46268261  0.23501736  1
  Li  Li42  1  0.21059571  0.96268261  -0.23501736  1
  Li  Li43  1  0.78940429  0.03731739  -0.23501736  1
  Li  Li44  1  -0.28940429  -0.46268261  -0.23501736  1
  Li  Li45  1  0.28940429  0.46268261  -0.23501736  1
  Li  Li46  1  0.78940429  0.03731739  0.23501736  1
  Li  Li47  1  0.21059571  0.96268261  0.23501736  1
  Li  Li48  1  0.00000000  0.50000000  0.30202733  1
  Li  Li49  1  0.50000000  0.00000000  0.69797267  1
  Li  Li50  1  0.00000000  0.50000000  0.69797267  1
  Li  Li51  1  0.50000000  0.00000000  0.30202733  1
  Li  Li52  1  0.63960807  0.91812992  0.50000000  1
  Li  Li53  1  0.36039193  0.08187008  0.50000000  1
  Li  Li54  1  0.86039193  0.41812992  0.50000000  1
  Li  Li55  1  0.13960807  0.58187008  0.50000000  1
  Li  Li56  1  0.15232309  0.82164579  0.18088795  1
  Li  Li57  1  0.84767691  0.17835421  0.18088795  1
  Li  Li58  1  0.34767691  0.32164579  0.81911205  1
  Li  Li59  1  0.65232309  0.67835421  0.81911205  1
  Li  Li60  1  0.84767691  0.17835421  0.81911205  1
  Li  Li61  1  0.15232309  0.82164579  0.81911205  1
  Li  Li62  1  0.65232309  0.67835421  0.18088795  1
  Li  Li63  1  0.34767691  0.32164579  0.18088795  1
  Li  Li64  1  0.74327980  0.72375473  0.35197754  1
  Li  Li65  1  0.25672020  0.27624527  0.35197754  1
  Li  Li66  1  0.75672020  0.22375473  0.64802246  1
  Li  Li67  1  0.24327980  0.77624527  0.64802246  1
  Li  Li68  1  0.25672020  0.27624527  0.64802246  1
  Li  Li69  1  0.74327980  0.72375473  0.64802246  1
  Li  Li70  1  0.24327980  0.77624527  0.35197754  1
  Li  Li71  1  0.75672020  0.22375473  0.35197754  1
  Li  Li72  1  0.00000000  0.50000000  0.50000000  1
  Li  Li73  1  0.50000000  0.00000000  0.50000000  1
  Li  Li74  1  0.68704575  0.40997047  0.50000000  1
  Li  Li75  1  0.31295425  0.59002953  0.50000000  1
  Li  Li76  1  0.81295425  0.90997047  0.50000000  1
  Li  Li77  1  0.18704575  0.09002953  0.50000000  1
  Li  Li78  1  0.00000000  0.00000000  0.50000000  1
  Li  Li79  1  0.50000000  0.50000000  0.50000000  1
