# generated using pymatgen
data_Li2Y2P3Se2
_symmetry_space_group_name_H-M   'P 1'
_cell_length_a   5.03228072
_cell_length_b   5.17488578
_cell_length_c   7.01425797
_cell_angle_alpha   94.64500170
_cell_angle_beta   100.11584803
_cell_angle_gamma   108.65712572
_symmetry_Int_Tables_number   1
_chemical_formula_structural   Li2Y2P3Se2
_chemical_formula_sum   'Li2 Y2 P3 Se2'
_cell_volume   168.51998290
_cell_formula_units_Z   1
loop_
 _symmetry_equiv_pos_site_id
 _symmetry_equiv_pos_as_xyz
  1  'x, y, z'
loop_
 _atom_site_type_symbol
 _atom_site_label
 _atom_site_symmetry_multiplicity
 _atom_site_fract_x
 _atom_site_fract_y
 _atom_site_fract_z
 _atom_site_occupancy
  Se  Se0  1  0.00000000  0.00000000  0.00000000  1
  Se  Se1  1  0.33300000  0.66700000  0.25000000  1
  Y  Y2  1  0.66700000  0.33300000  0.50000000  1
  Y  Y3  1  0.00000000  0.00000000  0.75000000  1
  P  P4  1  0.41183152  0.30822129  0.93847025  1
  P  P5  1  0.61362283  0.56381539  0.69397007  1
  P  P6  1  0.30304370  0.19558997  0.51327492  1
  Li  Li7  1  0.98640647  0.24185798  0.71866277  1
  Li  Li8  1  0.41942918  0.15457402  0.33946681  1
