# generated using pymatgen
data_Li2O
_symmetry_space_group_name_H-M   'P 1'
_cell_length_a   7.02570509
_cell_length_b   7.02570509
_cell_length_c   17.58860292
_cell_angle_alpha   90.00000000
_cell_angle_beta   90.00000000
_cell_angle_gamma   120.00000000
_symmetry_Int_Tables_number   1
_chemical_formula_structural   Li2O
_chemical_formula_sum   'Li24 O12'
_cell_volume   751.86835722
_cell_formula_units_Z   12
loop_
 _symmetry_equiv_pos_site_id
 _symmetry_equiv_pos_as_xyz
  1  'x, y, z'
loop_
 _atom_site_type_symbol
 _atom_site_label
 _atom_site_symmetry_multiplicity
 _atom_site_fract_x
 _atom_site_fract_y
 _atom_site_fract_z
 _atom_site_occupancy
  Li  Li0  1  0.78946631  1.57893261  0.25000000  1
  Li  Li1  1  -1.57893261  -0.78946631  0.25000000  1
  Li  Li2  1  0.78946631  -0.78946631  0.25000000  1
  Li  Li3  1  -0.78946631  -1.57893261  0.75000000  1
  Li  Li4  1  1.57893261  0.78946631  0.75000000  1
  Li  Li5  1  -0.78946631  0.78946631  0.75000000  1
  Li  Li6  1  0.56205899  0.12411797  0.25000000  1
  Li  Li7  1  0.87588203  0.43794101  0.25000000  1
  Li  Li8  1  0.56205899  0.43794101  0.25000000  1
  Li  Li9  1  0.43794101  0.87588203  0.75000000  1
  Li  Li10  1  0.12411797  0.56205899  0.75000000  1
  Li  Li11  1  0.43794101  0.56205899  0.75000000  1
  Li  Li12  1  0.16665241  0.33330483  0.25000000  1
  Li  Li13  1  0.66669517  0.83334759  0.25000000  1
  Li  Li14  1  0.16665241  0.83334759  0.25000000  1
  Li  Li15  1  0.83334759  0.66669517  0.75000000  1
  Li  Li16  1  0.33330483  0.16665241  0.75000000  1
  Li  Li17  1  0.83334759  0.16665241  0.75000000  1
  Li  Li18  1  0.00000000  0.00000000  0.00000000  1
  Li  Li19  1  0.00000000  0.00000000  0.50000000  1
  Li  Li20  1  0.00000000  0.00000000  0.92416610  1
  Li  Li21  1  0.00000000  0.00000000  0.42416610  1
  Li  Li22  1  0.00000000  0.00000000  0.07583390  1
  Li  Li23  1  0.00000000  0.00000000  0.57583390  1
  O  O24  1  0.33333333  0.66666667  0.68542283  1
  O  O25  1  0.66666667  0.33333333  0.18542283  1
  O  O26  1  0.66666667  0.33333333  0.31457717  1
  O  O27  1  0.33333333  0.66666667  0.81457717  1
  O  O28  1  0.00000000  0.00000000  0.32802130  1
  O  O29  1  0.00000000  0.00000000  0.82802130  1
  O  O30  1  0.00000000  0.00000000  0.67197870  1
  O  O31  1  0.00000000  0.00000000  0.17197870  1
  O  O32  1  0.33333333  0.66666667  0.06630388  1
  O  O33  1  0.66666667  0.33333333  0.56630388  1
  O  O34  1  0.66666667  0.33333333  0.93369612  1
  O  O35  1  0.33333333  0.66666667  0.43369612  1
