# generated using pymatgen
data_Li2Y2As4P2Se
_symmetry_space_group_name_H-M   'P 1'
_cell_length_a   4.71367611
_cell_length_b   4.81927837
_cell_length_c   6.74460719
_cell_angle_alpha   95.11702618
_cell_angle_beta   100.73561653
_cell_angle_gamma   109.91289060
_symmetry_Int_Tables_number   1
_chemical_formula_structural   Li2Y2As4P2Se
_chemical_formula_sum   'Li2 Y2 As4 P2 Se1'
_cell_volume   139.58679416
_cell_formula_units_Z   1
loop_
 _symmetry_equiv_pos_site_id
 _symmetry_equiv_pos_as_xyz
  1  'x, y, z'
loop_
 _atom_site_type_symbol
 _atom_site_label
 _atom_site_symmetry_multiplicity
 _atom_site_fract_x
 _atom_site_fract_y
 _atom_site_fract_z
 _atom_site_occupancy
  Se  Se0  1  0.00000000  0.00000000  0.00000000  1
  P  P1  1  0.50000000  0.50000000  0.50000000  1
  P  P2  1  0.25000000  0.25000000  0.25000000  1
  As  As3  1  0.75000000  0.25000000  0.00000000  1
  As  As4  1  0.25000000  0.75000000  0.50000000  1
  As  As5  1  0.34250779  0.59699380  0.88035459  1
  As  As6  1  0.09316372  0.93299534  0.37830465  1
  Li  Li7  1  0.57808761  0.34524144  0.40514092  1
  Li  Li8  1  0.30474229  0.60666161  0.16523435  1
  Y  Y9  1  0.07658511  0.92525222  0.33932481  1
  Y  Y10  1  0.35621818  0.41308467  0.72064005  1
