# generated using pymatgen
data_LiCl
_symmetry_space_group_name_H-M   'P 1'
_cell_length_a   12.97250426
_cell_length_b   12.97250426
_cell_length_c   10.93209481
_cell_angle_alpha   90.00000000
_cell_angle_beta   90.00000000
_cell_angle_gamma   120.00000000
_symmetry_Int_Tables_number   1
_chemical_formula_structural   LiCl
_chemical_formula_sum   'Li72 Cl72'
_cell_volume   1593.24170140
_cell_formula_units_Z   72
loop_
 _symmetry_equiv_pos_site_id
 _symmetry_equiv_pos_as_xyz
  1  'x, y, z'
loop_
 _atom_site_type_symbol
 _atom_site_label
 _atom_site_symmetry_multiplicity
 _atom_site_fract_x
 _atom_site_fract_y
 _atom_site_fract_z
 _atom_site_occupancy
  Cl  Cl0  1  0.50000000  0.00000000  0.00000000  1
  Cl  Cl1  1  0.00000000  0.50000000  0.00000000  1
  Cl  Cl2  1  0.50000000  0.50000000  0.00000000  1
  Cl  Cl3  1  0.00000000  0.50000000  0.50000000  1
  Cl  Cl4  1  0.50000000  0.00000000  0.50000000  1
  Cl  Cl5  1  0.50000000  0.50000000  0.50000000  1
  Cl  Cl6  1  0.16666667  0.33333333  0.33333333  1
  Cl  Cl7  1  0.66666667  0.83333333  0.33333333  1
  Cl  Cl8  1  0.16666667  0.83333333  0.33333333  1
  Cl  Cl9  1  0.66666667  0.83333333  0.83333333  1
  Cl  Cl10  1  0.16666667  0.33333333  0.83333333  1
  Cl  Cl11  1  0.16666667  0.83333333  0.83333333  1
  Cl  Cl12  1  0.83333333  0.66666667  0.66666667  1
  Cl  Cl13  1  0.33333333  0.16666667  0.66666667  1
  Cl  Cl14  1  0.83333333  0.16666667  0.66666667  1
  Cl  Cl15  1  0.33333333  0.16666667  0.16666667  1
  Cl  Cl16  1  0.83333333  0.66666667  0.16666667  1
  Cl  Cl17  1  0.83333333  0.16666667  0.16666667  1
  Cl  Cl18  1  0.22462576  0.47691268  0.52434086  1
  Cl  Cl19  1  -0.47691268  -0.25228692  0.52434086  1
  Cl  Cl20  1  0.25228692  -0.22462576  0.52434086  1
  Cl  Cl21  1  0.47691268  0.22462576  -0.02434086  1
  Cl  Cl22  1  -0.25228692  -0.47691268  -0.02434086  1
  Cl  Cl23  1  -0.22462576  0.25228692  -0.02434086  1
  Cl  Cl24  1  -0.22462576  -0.47691268  -0.52434086  1
  Cl  Cl25  1  0.47691268  0.25228692  -0.52434086  1
  Cl  Cl26  1  -0.25228692  0.22462576  -0.52434086  1
  Cl  Cl27  1  -0.47691268  -0.22462576  1.02434086  1
  Cl  Cl28  1  0.25228692  0.47691268  1.02434086  1
  Cl  Cl29  1  0.22462576  -0.25228692  1.02434086  1
  Cl  Cl30  1  0.89129243  0.81024602  0.85767419  1
  Cl  Cl31  1  0.18975398  0.08104641  0.85767419  1
  Cl  Cl32  1  0.91895359  0.10870757  0.85767419  1
  Cl  Cl33  1  1.14357935  0.55795909  0.30899248  1
  Cl  Cl34  1  0.41437974  -0.14357935  0.30899248  1
  Cl  Cl35  1  0.44204091  0.58562026  0.30899248  1
  Cl  Cl36  1  0.44204091  -0.14357935  -0.19100752  1
  Cl  Cl37  1  1.14357935  0.58562026  -0.19100752  1
  Cl  Cl38  1  0.41437974  0.55795909  -0.19100752  1
  Cl  Cl39  1  0.18975398  0.10870757  1.35767419  1
  Cl  Cl40  1  0.91895359  0.81024602  1.35767419  1
  Cl  Cl41  1  0.89129243  0.08104641  1.35767419  1
  Cl  Cl42  1  0.55795909  1.14357935  1.19100752  1
  Cl  Cl43  1  -0.14357935  0.41437974  1.19100752  1
  Cl  Cl44  1  0.58562026  0.44204091  1.19100752  1
  Cl  Cl45  1  0.81024602  0.89129243  0.64232581  1
  Cl  Cl46  1  0.08104641  0.18975398  0.64232581  1
  Cl  Cl47  1  0.10870757  0.91895359  0.64232581  1
  Cl  Cl48  1  0.10870757  0.18975398  0.14232581  1
  Cl  Cl49  1  0.81024602  0.91895359  0.14232581  1
  Cl  Cl50  1  0.08104641  0.89129243  0.14232581  1
  Cl  Cl51  1  -0.14357935  0.44204091  1.69100752  1
  Cl  Cl52  1  0.58562026  1.14357935  1.69100752  1
  Cl  Cl53  1  0.55795909  0.41437974  1.69100752  1
  Cl  Cl54  1  0.00000000  0.00000000  0.34886727  1
  Cl  Cl55  1  0.00000000  0.00000000  0.15113273  1
  Cl  Cl56  1  0.00000000  0.00000000  0.65113273  1
  Cl  Cl57  1  0.00000000  0.00000000  0.84886727  1
  Cl  Cl58  1  0.66666667  0.33333333  0.68220060  1
  Cl  Cl59  1  0.66666667  0.33333333  0.48446606  1
  Cl  Cl60  1  0.66666667  0.33333333  0.98446606  1
  Cl  Cl61  1  0.66666667  0.33333333  0.18220060  1
  Cl  Cl62  1  0.33333333  0.66666667  0.01553394  1
  Cl  Cl63  1  0.33333333  0.66666667  0.81779940  1
  Cl  Cl64  1  0.33333333  0.66666667  0.31779940  1
  Cl  Cl65  1  0.33333333  0.66666667  0.51553394  1
  Cl  Cl66  1  0.00000000  0.00000000  0.25000000  1
  Cl  Cl67  1  0.00000000  0.00000000  0.75000000  1
  Cl  Cl68  1  0.66666667  0.33333333  0.58333333  1
  Cl  Cl69  1  0.66666667  0.33333333  0.08333333  1
  Cl  Cl70  1  0.33333333  0.66666667  0.91666667  1
  Cl  Cl71  1  0.33333333  0.66666667  0.41666667  1
  Li  Li72  1  0.02621452  0.73449063  0.15796128  1
  Li  Li73  1  0.26550937  0.29172389  0.15796128  1
  Li  Li74  1  0.70827611  0.97378548  0.15796128  1
  Li  Li75  1  0.73449063  0.02621452  0.34203872  1
  Li  Li76  1  0.29172389  0.26550937  0.34203872  1
  Li  Li77  1  0.97378548  0.70827611  0.34203872  1
  Li  Li78  1  0.97378548  0.26550937  0.84203872  1
  Li  Li79  1  0.73449063  0.70827611  0.84203872  1
  Li  Li80  1  0.29172389  0.02621452  0.84203872  1
  Li  Li81  1  0.26550937  0.97378548  0.65796128  1
  Li  Li82  1  0.70827611  0.73449063  0.65796128  1
  Li  Li83  1  0.02621452  0.29172389  0.65796128  1
  Li  Li84  1  0.69288119  0.06782397  0.49129461  1
  Li  Li85  1  0.93217603  0.62505722  0.49129461  1
  Li  Li86  1  0.37494278  0.30711881  0.49129461  1
  Li  Li87  1  0.40115730  0.35954785  0.67537206  1
  Li  Li88  1  0.95839055  0.59884270  0.67537206  1
  Li  Li89  1  0.64045215  0.04160945  0.67537206  1
  Li  Li90  1  0.64045215  0.59884270  0.17537206  1
  Li  Li91  1  0.40115730  0.04160945  0.17537206  1
  Li  Li92  1  0.95839055  0.35954785  0.17537206  1
  Li  Li93  1  0.93217603  0.30711881  0.99129461  1
  Li  Li94  1  0.37494278  0.06782397  0.99129461  1
  Li  Li95  1  0.69288119  0.62505722  0.99129461  1
  Li  Li96  1  0.35954785  0.40115730  0.82462794  1
  Li  Li97  1  0.59884270  0.95839055  0.82462794  1
  Li  Li98  1  0.04160945  0.64045215  0.82462794  1
  Li  Li99  1  0.06782397  0.69288119  0.00870539  1
  Li  Li100  1  0.62505722  0.93217603  0.00870539  1
  Li  Li101  1  0.30711881  0.37494278  0.00870539  1
  Li  Li102  1  0.30711881  0.93217603  0.50870539  1
  Li  Li103  1  0.06782397  0.37494278  0.50870539  1
  Li  Li104  1  0.62505722  0.69288119  0.50870539  1
  Li  Li105  1  0.59884270  0.64045215  0.32462794  1
  Li  Li106  1  0.04160945  0.40115730  0.32462794  1
  Li  Li107  1  0.35954785  0.95839055  0.32462794  1
  Li  Li108  1  0.37912482  0.27416140  0.18818099  1
  Li  Li109  1  0.72583860  0.10496342  0.18818099  1
  Li  Li110  1  0.89503658  0.62087518  0.18818099  1
  Li  Li111  1  0.27416140  0.37912482  0.31181901  1
  Li  Li112  1  0.10496342  0.72583860  0.31181901  1
  Li  Li113  1  0.62087518  0.89503658  0.31181901  1
  Li  Li114  1  0.62087518  0.72583860  0.81181901  1
  Li  Li115  1  0.27416140  0.89503658  0.81181901  1
  Li  Li116  1  0.10496342  0.37912482  0.81181901  1
  Li  Li117  1  0.72583860  0.62087518  0.68818099  1
  Li  Li118  1  0.89503658  0.27416140  0.68818099  1
  Li  Li119  1  0.37912482  0.10496342  0.68818099  1
  Li  Li120  1  0.04579149  0.60749474  0.52151433  1
  Li  Li121  1  0.39250526  0.43829675  0.52151433  1
  Li  Li122  1  0.56170325  0.95420851  0.52151433  1
  Li  Li123  1  0.94082807  0.71245815  0.64515234  1
  Li  Li124  1  0.77163008  0.05917193  0.64515234  1
  Li  Li125  1  0.28754185  0.22836992  0.64515234  1
  Li  Li126  1  0.28754185  0.05917193  0.14515234  1
  Li  Li127  1  0.94082807  0.22836992  0.14515234  1
  Li  Li128  1  0.77163008  0.71245815  0.14515234  1
  Li  Li129  1  0.39250526  0.95420851  0.02151433  1
  Li  Li130  1  0.56170325  0.60749474  0.02151433  1
  Li  Li131  1  0.04579149  0.43829675  0.02151433  1
  Li  Li132  1  0.71245815  0.94082807  0.85484766  1
  Li  Li133  1  0.05917193  0.77163008  0.85484766  1
  Li  Li134  1  0.22836992  0.28754185  0.85484766  1
  Li  Li135  1  0.60749474  0.04579149  0.97848567  1
  Li  Li136  1  0.43829675  0.39250526  0.97848567  1
  Li  Li137  1  0.95420851  0.56170325  0.97848567  1
  Li  Li138  1  0.95420851  0.39250526  0.47848567  1
  Li  Li139  1  0.60749474  0.56170325  0.47848567  1
  Li  Li140  1  0.43829675  0.04579149  0.47848567  1
  Li  Li141  1  0.05917193  0.28754185  0.35484766  1
  Li  Li142  1  0.22836992  0.94082807  0.35484766  1
  Li  Li143  1  0.71245815  0.77163008  0.35484766  1
