# generated using pymatgen
data_Li2Y2MoP3Se2
_symmetry_space_group_name_H-M   'P 1'
_cell_length_a   5.70902242
_cell_length_b   5.81467103
_cell_length_c   7.35733164
_cell_angle_alpha   93.51517811
_cell_angle_beta   97.65532712
_cell_angle_gamma   104.11907337
_symmetry_Int_Tables_number   1
_chemical_formula_structural   Li2Y2MoP3Se2
_chemical_formula_sum   'Li2 Y2 Mo1 P3 Se2'
_cell_volume   233.62473259
_cell_formula_units_Z   1
loop_
 _symmetry_equiv_pos_site_id
 _symmetry_equiv_pos_as_xyz
  1  'x, y, z'
loop_
 _atom_site_type_symbol
 _atom_site_label
 _atom_site_symmetry_multiplicity
 _atom_site_fract_x
 _atom_site_fract_y
 _atom_site_fract_z
 _atom_site_occupancy
  Se  Se0  1  0.12500000  0.00000000  0.25000000  1
  Se  Se1  1  0.00000000  0.00000000  0.00000000  1
  P  P2  1  0.37500000  0.00000000  0.25000000  1
  P  P3  1  0.25000000  0.25000000  0.25000000  1
  P  P4  1  0.00000000  0.25000000  0.12500000  1
  Mo  Mo5  1  0.76121012  0.46860317  0.47066458  1
  Li  Li6  1  0.06419653  0.19166540  0.09376689  1
  Li  Li7  1  0.10539266  0.81860920  0.70183840  1
  Y  Y8  1  0.52327445  0.80040552  0.46254209  1
  Y  Y9  1  0.11255490  0.64370698  0.30335940  1
