# generated using pymatgen
data_LiF
_symmetry_space_group_name_H-M   'P 1'
_cell_length_a   7.38254730
_cell_length_b   18.05033206
_cell_length_c   8.60886221
_cell_angle_alpha   90.00000000
_cell_angle_beta   90.00000000
_cell_angle_gamma   90.00000000
_symmetry_Int_Tables_number   1
_chemical_formula_structural   LiF
_chemical_formula_sum   'Li30 F30'
_cell_volume   1147.19485523
_cell_formula_units_Z   30
loop_
 _symmetry_equiv_pos_site_id
 _symmetry_equiv_pos_as_xyz
  1  'x, y, z'
loop_
 _atom_site_type_symbol
 _atom_site_label
 _atom_site_symmetry_multiplicity
 _atom_site_fract_x
 _atom_site_fract_y
 _atom_site_fract_z
 _atom_site_occupancy
  F  F0  1  0.00000000  0.50000000  0.50000000  1
  F  F1  1  0.50000000  0.00000000  0.50000000  1
  F  F2  1  0.88786159  0.60406102  0.38575936  1
  F  F3  1  0.11213841  0.39593898  0.38575936  1
  F  F4  1  0.61213841  0.10406102  0.61424064  1
  F  F5  1  0.38786159  0.89593898  0.61424064  1
  F  F6  1  0.11213841  0.39593898  0.61424064  1
  F  F7  1  0.88786159  0.60406102  0.61424064  1
  F  F8  1  0.38786159  0.89593898  0.38575936  1
  F  F9  1  0.61213841  0.10406102  0.38575936  1
  F  F10  1  0.92151775  0.41128015  0.24582361  1
  F  F11  1  0.07848225  0.58871985  0.24582361  1
  F  F12  1  0.57848225  0.91128015  0.75417639  1
  F  F13  1  0.42151775  0.08871985  0.75417639  1
  F  F14  1  0.07848225  0.58871985  0.75417639  1
  F  F15  1  0.92151775  0.41128015  0.75417639  1
  F  F16  1  0.42151775  0.08871985  0.24582361  1
  F  F17  1  0.57848225  0.91128015  0.24582361  1
  F  F18  1  0.28896920  0.23587397  0.00000000  1
  F  F19  1  0.71103080  0.76412603  0.00000000  1
  F  F20  1  0.21103080  0.73587397  -0.00000000  1
  F  F21  1  0.78896920  0.26412603  0.00000000  1
  F  F22  1  0.71628522  0.12466517  0.34014508  1
  F  F23  1  0.28371478  0.87533483  0.34014508  1
  F  F24  1  0.78371478  0.62466517  0.65985492  1
  F  F25  1  0.21628522  0.37533483  0.65985492  1
  F  F26  1  0.28371478  0.87533483  0.65985492  1
  F  F27  1  0.71628522  0.12466517  0.65985492  1
  F  F28  1  0.21628522  0.37533483  0.34014508  1
  F  F29  1  0.78371478  0.62466517  0.34014508  1
  Li  Li30  1  0.74963220  0.67646549  0.24189449  1
  Li  Li31  1  -0.74963220  -0.67646549  0.24189449  1
  Li  Li32  1  -0.24963220  1.17646549  -0.24189449  1
  Li  Li33  1  1.24963220  -0.17646549  -0.24189449  1
  Li  Li34  1  -0.74963220  -0.67646549  -0.24189449  1
  Li  Li35  1  0.74963220  0.67646549  -0.24189449  1
  Li  Li36  1  1.24963220  -0.17646549  0.24189449  1
  Li  Li37  1  -0.24963220  1.17646549  0.24189449  1
  Li  Li38  1  0.30285088  0.34322043  0.50000000  1
  Li  Li39  1  0.69714912  0.65677957  0.50000000  1
  Li  Li40  1  0.19714912  0.84322043  0.50000000  1
  Li  Li41  1  0.80285088  0.15677957  0.50000000  1
  Li  Li42  1  0.00000000  0.50000000  0.00000000  1
  Li  Li43  1  0.50000000  0.00000000  0.00000000  1
  Li  Li44  1  0.96462844  0.67977890  0.28846932  1
  Li  Li45  1  0.03537156  0.32022110  0.28846932  1
  Li  Li46  1  0.53537156  0.17977890  0.71153068  1
  Li  Li47  1  0.46462844  0.82022110  0.71153068  1
  Li  Li48  1  0.03537156  0.32022110  0.71153068  1
  Li  Li49  1  0.96462844  0.67977890  0.71153068  1
  Li  Li50  1  0.46462844  0.82022110  0.28846932  1
  Li  Li51  1  0.53537156  0.17977890  0.28846932  1
  Li  Li52  1  0.14594694  0.31300471  -0.00000000  1
  Li  Li53  1  0.85405306  0.68699529  0.00000000  1
  Li  Li54  1  0.35405306  0.81300471  0.00000000  1
  Li  Li55  1  0.64594694  0.18699529  -0.00000000  1
  Li  Li56  1  0.98098676  0.18944570  0.50000000  1
  Li  Li57  1  0.01901324  0.81055430  0.50000000  1
  Li  Li58  1  0.51901324  0.68944570  0.50000000  1
  Li  Li59  1  0.48098676  0.31055430  0.50000000  1
