# generated using pymatgen
data_LiF
_symmetry_space_group_name_H-M   'P 1'
_cell_length_a   13.41557204
_cell_length_b   8.18914762
_cell_length_c   7.54096489
_cell_angle_alpha   90.00000000
_cell_angle_beta   90.00000000
_cell_angle_gamma   90.00000000
_symmetry_Int_Tables_number   1
_chemical_formula_structural   LiF
_chemical_formula_sum   'Li24 F24'
_cell_volume   828.46623794
_cell_formula_units_Z   24
loop_
 _symmetry_equiv_pos_site_id
 _symmetry_equiv_pos_as_xyz
  1  'x, y, z'
loop_
 _atom_site_type_symbol
 _atom_site_label
 _atom_site_symmetry_multiplicity
 _atom_site_fract_x
 _atom_site_fract_y
 _atom_site_fract_z
 _atom_site_occupancy
  F  F0  1  0.65910524  0.06547690  0.84740488  1
  F  F1  1  0.84089476  0.93452310  0.34740488  1
  F  F2  1  0.34089476  0.56547690  0.15259512  1
  F  F3  1  0.15910524  0.43452310  0.65259512  1
  F  F4  1  0.34089476  0.93452310  0.15259512  1
  F  F5  1  0.15910524  0.06547690  0.65259512  1
  F  F6  1  0.65910524  0.43452310  0.84740488  1
  F  F7  1  0.84089476  0.56547690  0.34740488  1
  F  F8  1  0.35266845  0.53810527  0.93142687  1
  F  F9  1  0.14733155  0.46189473  0.43142687  1
  F  F10  1  0.64733155  0.03810527  0.06857313  1
  F  F11  1  0.85266845  0.96189473  0.56857313  1
  F  F12  1  0.64733155  0.46189473  0.06857313  1
  F  F13  1  0.85266845  0.53810527  0.56857313  1
  F  F14  1  0.35266845  0.96189473  0.93142687  1
  F  F15  1  0.14733155  0.03810527  0.43142687  1
  F  F16  1  0.27459321  0.12309494  0.88393079  1
  F  F17  1  0.22540679  0.87690506  0.38393079  1
  F  F18  1  0.72540679  0.62309494  0.11606921  1
  F  F19  1  0.77459321  0.37690506  0.61606921  1
  F  F20  1  0.72540679  0.87690506  0.11606921  1
  F  F21  1  0.77459321  0.12309494  0.61606921  1
  F  F22  1  0.27459321  0.37690506  0.88393079  1
  F  F23  1  0.22540679  0.62309494  0.38393079  1
  Li  Li24  1  0.00000000  0.00000000  0.50000000  1
  Li  Li25  1  0.50000000  0.00000000  0.00000000  1
  Li  Li26  1  0.00000000  0.50000000  0.50000000  1
  Li  Li27  1  0.50000000  0.50000000  0.00000000  1
  Li  Li28  1  0.19743893  0.67052605  0.03776802  1
  Li  Li29  1  0.30256107  -0.67052605  0.53776802  1
  Li  Li30  1  -0.19743893  1.17052605  -0.03776802  1
  Li  Li31  1  0.69743893  -0.17052605  0.46223198  1
  Li  Li32  1  -0.19743893  -0.67052605  -0.03776802  1
  Li  Li33  1  0.69743893  0.67052605  0.46223198  1
  Li  Li34  1  0.19743893  -0.17052605  0.03776802  1
  Li  Li35  1  0.30256107  1.17052605  0.53776802  1
  Li  Li36  1  0.55035004  0.11551022  0.23595076  1
  Li  Li37  1  0.94964996  0.88448978  0.73595076  1
  Li  Li38  1  0.44964996  0.61551022  0.76404924  1
  Li  Li39  1  0.05035004  0.38448978  0.26404924  1
  Li  Li40  1  0.44964996  0.88448978  0.76404924  1
  Li  Li41  1  0.05035004  0.11551022  0.26404924  1
  Li  Li42  1  0.55035004  0.38448978  0.23595076  1
  Li  Li43  1  0.94964996  0.61551022  0.73595076  1
  Li  Li44  1  0.43356919  0.25000000  0.61901432  1
  Li  Li45  1  0.06643081  0.75000000  0.11901432  1
  Li  Li46  1  0.56643081  0.75000000  0.38098568  1
  Li  Li47  1  0.93356919  0.25000000  0.88098568  1
