# generated using pymatgen
data_Li4TeF2
_symmetry_space_group_name_H-M   'P 1'
_cell_length_a   15.29760657
_cell_length_b   15.29760657
_cell_length_c   15.29760657
_cell_angle_alpha   90.00000000
_cell_angle_beta   90.00000000
_cell_angle_gamma   90.00000000
_symmetry_Int_Tables_number   1
_chemical_formula_structural   Li4TeF2
_chemical_formula_sum   'Li96 Te24 F48'
_cell_volume   3579.89642731
_cell_formula_units_Z   24
loop_
 _symmetry_equiv_pos_site_id
 _symmetry_equiv_pos_as_xyz
  1  'x, y, z'
loop_
 _atom_site_type_symbol
 _atom_site_label
 _atom_site_symmetry_multiplicity
 _atom_site_fract_x
 _atom_site_fract_y
 _atom_site_fract_z
 _atom_site_occupancy
  F  F0  1  0.12500000  0.40041684  0.65041684  1
  F  F1  1  0.37500000  0.59958316  0.15041684  1
  F  F2  1  0.87500000  0.90041684  0.84958316  1
  F  F3  1  0.62500000  0.09958316  0.34958316  1
  F  F4  1  0.65041684  0.12500000  0.40041684  1
  F  F5  1  0.15041684  0.37500000  0.59958316  1
  F  F6  1  0.84958316  0.87500000  0.90041684  1
  F  F7  1  0.34958316  0.62500000  0.09958316  1
  F  F8  1  0.40041684  0.65041684  0.12500000  1
  F  F9  1  0.59958316  0.15041684  0.37500000  1
  F  F10  1  0.90041684  0.84958316  0.87500000  1
  F  F11  1  0.09958316  0.34958316  0.62500000  1
  F  F12  1  0.62500000  0.90041684  0.15041684  1
  F  F13  1  0.87500000  0.09958316  0.65041684  1
  F  F14  1  0.37500000  0.40041684  0.34958316  1
  F  F15  1  0.12500000  0.59958316  0.84958316  1
  F  F16  1  0.15041684  0.62500000  0.90041684  1
  F  F17  1  0.65041684  0.87500000  0.09958316  1
  F  F18  1  0.34958316  0.37500000  0.40041684  1
  F  F19  1  0.84958316  0.12500000  0.59958316  1
  F  F20  1  0.90041684  0.15041684  0.62500000  1
  F  F21  1  0.09958316  0.65041684  0.87500000  1
  F  F22  1  0.40041684  0.34958316  0.37500000  1
  F  F23  1  0.59958316  0.84958316  0.12500000  1
  F  F24  1  0.53107600  -0.00000000  0.25000000  1
  F  F25  1  0.96892400  -0.00000000  0.75000000  1
  F  F26  1  0.25000000  0.53107600  -0.00000000  1
  F  F27  1  0.75000000  0.96892400  -0.00000000  1
  F  F28  1  0.00000000  0.25000000  0.53107600  1
  F  F29  1  0.00000000  0.75000000  0.96892400  1
  F  F30  1  0.75000000  0.78107600  0.00000000  1
  F  F31  1  0.75000000  0.21892400  0.50000000  1
  F  F32  1  0.28107600  0.50000000  0.25000000  1
  F  F33  1  0.71892400  -0.00000000  0.25000000  1
  F  F34  1  0.00000000  0.25000000  0.71892400  1
  F  F35  1  0.50000000  0.25000000  0.28107600  1
  F  F36  1  0.03107600  0.50000000  0.75000000  1
  F  F37  1  0.46892400  0.50000000  0.25000000  1
  F  F38  1  0.75000000  0.03107600  0.50000000  1
  F  F39  1  0.25000000  0.46892400  0.50000000  1
  F  F40  1  0.50000000  0.75000000  0.03107600  1
  F  F41  1  0.50000000  0.25000000  0.46892400  1
  F  F42  1  0.25000000  0.28107600  0.50000000  1
  F  F43  1  0.25000000  0.71892400  -0.00000000  1
  F  F44  1  0.78107600  0.00000000  0.75000000  1
  F  F45  1  0.21892400  0.50000000  0.75000000  1
  F  F46  1  0.50000000  0.75000000  0.21892400  1
  F  F47  1  0.00000000  0.75000000  0.78107600  1
  Li  Li48  1  0.83060385  0.19639208  0.34148632  1
  Li  Li49  1  -0.33060385  -0.19639208  0.84148632  1
  Li  Li50  1  -0.83060385  0.69639208  0.15851368  1
  Li  Li51  1  1.33060385  0.30360792  -0.34148632  1
  Li  Li52  1  0.34148632  0.83060385  0.19639208  1
  Li  Li53  1  0.84148632  -0.33060385  -0.19639208  1
  Li  Li54  1  0.15851368  -0.83060385  0.69639208  1
  Li  Li55  1  -0.34148632  1.33060385  0.30360792  1
  Li  Li56  1  0.19639208  0.34148632  0.83060385  1
  Li  Li57  1  -0.19639208  0.84148632  -0.33060385  1
  Li  Li58  1  0.69639208  0.15851368  -0.83060385  1
  Li  Li59  1  0.30360792  -0.34148632  1.33060385  1
  Li  Li60  1  0.94639208  1.08060385  -0.09148632  1
  Li  Li61  1  0.55360792  -0.08060385  0.40851368  1
  Li  Li62  1  0.44639208  -0.58060385  1.09148632  1
  Li  Li63  1  0.05360792  1.58060385  0.59148632  1
  Li  Li64  1  1.58060385  0.59148632  0.05360792  1
  Li  Li65  1  -0.58060385  1.09148632  0.44639208  1
  Li  Li66  1  -0.08060385  0.40851368  0.55360792  1
  Li  Li67  1  1.08060385  -0.09148632  0.94639208  1
  Li  Li68  1  1.09148632  0.44639208  -0.58060385  1
  Li  Li69  1  0.59148632  0.05360792  1.58060385  1
  Li  Li70  1  -0.09148632  0.94639208  1.08060385  1
  Li  Li71  1  0.40851368  0.55360792  -0.08060385  1
  Li  Li72  1  1.33060385  0.69639208  0.84148632  1
  Li  Li73  1  0.16939615  0.30360792  1.34148632  1
  Li  Li74  1  -0.33060385  1.19639208  0.65851368  1
  Li  Li75  1  1.83060385  0.80360792  0.15851368  1
  Li  Li76  1  0.84148632  1.33060385  0.69639208  1
  Li  Li77  1  1.34148632  0.16939615  0.30360792  1
  Li  Li78  1  0.65851368  -0.33060385  1.19639208  1
  Li  Li79  1  0.15851368  1.83060385  0.80360792  1
  Li  Li80  1  0.69639208  0.84148632  1.33060385  1
  Li  Li81  1  0.30360792  1.34148632  0.16939615  1
  Li  Li82  1  1.19639208  0.65851368  -0.33060385  1
  Li  Li83  1  0.80360792  0.15851368  1.83060385  1
  Li  Li84  1  1.44639208  1.58060385  0.40851368  1
  Li  Li85  1  1.05360792  0.41939615  0.90851368  1
  Li  Li86  1  0.94639208  -0.08060385  1.59148632  1
  Li  Li87  1  0.55360792  2.08060385  1.09148632  1
  Li  Li88  1  2.08060385  1.09148632  0.55360792  1
  Li  Li89  1  -0.08060385  1.59148632  0.94639208  1
  Li  Li90  1  0.41939615  0.90851368  1.05360792  1
  Li  Li91  1  1.58060385  0.40851368  1.44639208  1
  Li  Li92  1  1.59148632  0.94639208  -0.08060385  1
  Li  Li93  1  1.09148632  0.55360792  2.08060385  1
  Li  Li94  1  0.40851368  1.44639208  1.58060385  1
  Li  Li95  1  0.90851368  1.05360792  0.41939615  1
  Li  Li96  1  0.12500000  0.12500000  0.12500000  1
  Li  Li97  1  0.37500000  0.87500000  0.62500000  1
  Li  Li98  1  0.87500000  0.62500000  0.37500000  1
  Li  Li99  1  0.62500000  0.37500000  0.87500000  1
  Li  Li100  1  0.62500000  0.62500000  0.62500000  1
  Li  Li101  1  0.87500000  0.37500000  0.12500000  1
  Li  Li102  1  0.37500000  0.12500000  0.87500000  1
  Li  Li103  1  0.12500000  0.87500000  0.37500000  1
  Li  Li104  1  0.12500000  0.09979574  0.34979574  1
  Li  Li105  1  0.37500000  0.90020426  0.84979574  1
  Li  Li106  1  0.87500000  0.59979574  0.15020426  1
  Li  Li107  1  0.62500000  0.40020426  0.65020426  1
  Li  Li108  1  0.34979574  0.12500000  0.09979574  1
  Li  Li109  1  0.84979574  0.37500000  0.90020426  1
  Li  Li110  1  0.15020426  0.87500000  0.59979574  1
  Li  Li111  1  0.65020426  0.62500000  0.40020426  1
  Li  Li112  1  0.09979574  0.34979574  0.12500000  1
  Li  Li113  1  0.90020426  0.84979574  0.37500000  1
  Li  Li114  1  0.59979574  0.15020426  0.87500000  1
  Li  Li115  1  0.40020426  0.65020426  0.62500000  1
  Li  Li116  1  0.62500000  0.59979574  0.84979574  1
  Li  Li117  1  0.87500000  0.40020426  0.34979574  1
  Li  Li118  1  0.37500000  0.09979574  0.65020426  1
  Li  Li119  1  0.12500000  0.90020426  0.15020426  1
  Li  Li120  1  0.84979574  0.62500000  0.59979574  1
  Li  Li121  1  0.34979574  0.87500000  0.40020426  1
  Li  Li122  1  0.65020426  0.37500000  0.09979574  1
  Li  Li123  1  0.15020426  0.12500000  0.90020426  1
  Li  Li124  1  0.59979574  0.84979574  0.62500000  1
  Li  Li125  1  0.40020426  0.34979574  0.87500000  1
  Li  Li126  1  0.09979574  0.65020426  0.37500000  1
  Li  Li127  1  0.90020426  0.15020426  0.12500000  1
  Li  Li128  1  0.33157445  0.33157445  0.33157445  1
  Li  Li129  1  0.16842555  0.66842555  0.83157445  1
  Li  Li130  1  0.66842555  0.83157445  0.16842555  1
  Li  Li131  1  0.83157445  0.16842555  0.66842555  1
  Li  Li132  1  0.08157445  0.58157445  0.91842555  1
  Li  Li133  1  0.41842555  0.41842555  0.41842555  1
  Li  Li134  1  0.58157445  0.91842555  0.08157445  1
  Li  Li135  1  0.91842555  0.08157445  0.58157445  1
  Li  Li136  1  0.83157445  0.83157445  0.83157445  1
  Li  Li137  1  0.66842555  0.16842555  0.33157445  1
  Li  Li138  1  0.16842555  0.33157445  0.66842555  1
  Li  Li139  1  0.33157445  0.66842555  0.16842555  1
  Li  Li140  1  0.58157445  0.08157445  0.41842555  1
  Li  Li141  1  0.91842555  0.91842555  0.91842555  1
  Li  Li142  1  0.08157445  0.41842555  0.58157445  1
  Li  Li143  1  0.41842555  0.58157445  0.08157445  1
  Te  Te144  1  0.62500000  -0.00000000  0.25000000  1
  Te  Te145  1  0.87500000  -0.00000000  0.75000000  1
  Te  Te146  1  0.25000000  0.62500000  0.00000000  1
  Te  Te147  1  0.75000000  0.87500000  -0.00000000  1
  Te  Te148  1  0.00000000  0.25000000  0.62500000  1
  Te  Te149  1  0.00000000  0.75000000  0.87500000  1
  Te  Te150  1  0.12500000  0.50000000  0.75000000  1
  Te  Te151  1  0.37500000  0.50000000  0.25000000  1
  Te  Te152  1  0.75000000  0.12500000  0.50000000  1
  Te  Te153  1  0.25000000  0.37500000  0.50000000  1
  Te  Te154  1  0.50000000  0.75000000  0.12500000  1
  Te  Te155  1  0.50000000  0.25000000  0.37500000  1
  Te  Te156  1  0.12500000  0.00000000  0.25000000  1
  Te  Te157  1  0.37500000  0.00000000  0.75000000  1
  Te  Te158  1  0.25000000  0.12500000  0.00000000  1
  Te  Te159  1  0.75000000  0.37500000  0.00000000  1
  Te  Te160  1  0.00000000  0.25000000  0.12500000  1
  Te  Te161  1  0.00000000  0.75000000  0.37500000  1
  Te  Te162  1  0.62500000  0.50000000  0.75000000  1
  Te  Te163  1  0.87500000  0.50000000  0.25000000  1
  Te  Te164  1  0.75000000  0.62500000  0.50000000  1
  Te  Te165  1  0.25000000  0.87500000  0.50000000  1
  Te  Te166  1  0.50000000  0.75000000  0.62500000  1
  Te  Te167  1  0.50000000  0.25000000  0.87500000  1
