# generated using pymatgen
data_Li2Ca3F8
_symmetry_space_group_name_H-M   'P 1'
_cell_length_a   7.40571689
_cell_length_b   7.40571689
_cell_length_c   26.33041789
_cell_angle_alpha   90.00000000
_cell_angle_beta   90.00000000
_cell_angle_gamma   90.00000000
_symmetry_Int_Tables_number   1
_chemical_formula_structural   Li2Ca3F8
_chemical_formula_sum   'Li16 Ca24 F64'
_cell_volume   1444.08235883
_cell_formula_units_Z   8
loop_
 _symmetry_equiv_pos_site_id
 _symmetry_equiv_pos_as_xyz
  1  'x, y, z'
loop_
 _atom_site_type_symbol
 _atom_site_label
 _atom_site_symmetry_multiplicity
 _atom_site_fract_x
 _atom_site_fract_y
 _atom_site_fract_z
 _atom_site_occupancy
  Ca  Ca0  1  0.12847462  0.50000000  0.36979148  1
  Ca  Ca1  1  0.87152538  0.50000000  0.36979148  1
  Ca  Ca2  1  0.50000000  0.12847462  0.36979148  1
  Ca  Ca3  1  0.50000000  0.87152538  0.36979148  1
  Ca  Ca4  1  0.87152538  0.50000000  0.63020852  1
  Ca  Ca5  1  0.12847462  0.50000000  0.63020852  1
  Ca  Ca6  1  0.50000000  0.12847462  0.63020852  1
  Ca  Ca7  1  0.50000000  0.87152538  0.63020852  1
  Ca  Ca8  1  0.12841084  0.12841084  0.78052631  1
  Ca  Ca9  1  0.87158916  0.87158916  0.78052631  1
  Ca  Ca10  1  0.87158916  0.12841084  0.78052631  1
  Ca  Ca11  1  0.12841084  0.87158916  0.78052631  1
  Ca  Ca12  1  0.87158916  0.12841084  0.21947369  1
  Ca  Ca13  1  0.12841084  0.87158916  0.21947369  1
  Ca  Ca14  1  0.12841084  0.12841084  0.21947369  1
  Ca  Ca15  1  0.87158916  0.87158916  0.21947369  1
  Ca  Ca16  1  0.00000000  0.50000000  0.12534987  1
  Ca  Ca17  1  0.50000000  0.00000000  0.12534987  1
  Ca  Ca18  1  0.00000000  0.50000000  0.87465013  1
  Ca  Ca19  1  0.50000000  0.00000000  0.87465013  1
  Ca  Ca20  1  0.00000000  0.50000000  0.69805784  1
  Ca  Ca21  1  0.50000000  0.00000000  0.69805784  1
  Ca  Ca22  1  0.00000000  0.50000000  0.30194216  1
  Ca  Ca23  1  0.50000000  0.00000000  0.30194216  1
  F  F24  1  0.54254865  0.54254865  0.50000000  1
  F  F25  1  0.45745135  0.45745135  0.50000000  1
  F  F26  1  0.45745135  0.54254865  0.50000000  1
  F  F27  1  0.54254865  0.45745135  0.50000000  1
  F  F28  1  0.00000000  0.00000000  0.50000000  1
  F  F29  1  0.69661350  0.50000000  0.97691368  1
  F  F30  1  0.30338650  0.50000000  0.97691368  1
  F  F31  1  0.50000000  0.69661350  0.97691368  1
  F  F32  1  0.50000000  0.30338650  0.97691368  1
  F  F33  1  0.30338650  0.50000000  0.02308632  1
  F  F34  1  0.69661350  0.50000000  0.02308632  1
  F  F35  1  0.50000000  0.69661350  0.02308632  1
  F  F36  1  0.50000000  0.30338650  0.02308632  1
  F  F37  1  0.60132806  0.21585503  0.88982283  1
  F  F38  1  -0.60132806  -0.21585503  0.88982283  1
  F  F39  1  -0.21585503  0.60132806  0.88982283  1
  F  F40  1  0.21585503  -0.60132806  0.88982283  1
  F  F41  1  -0.60132806  0.21585503  -0.88982283  1
  F  F42  1  0.60132806  -0.21585503  -0.88982283  1
  F  F43  1  0.21585503  0.60132806  -0.88982283  1
  F  F44  1  -0.21585503  -0.60132806  -0.88982283  1
  F  F45  1  -0.60132806  -0.21585503  -0.88982283  1
  F  F46  1  0.60132806  0.21585503  -0.88982283  1
  F  F47  1  0.21585503  -0.60132806  -0.88982283  1
  F  F48  1  -0.21585503  0.60132806  -0.88982283  1
  F  F49  1  0.60132806  -0.21585503  0.88982283  1
  F  F50  1  -0.60132806  0.21585503  0.88982283  1
  F  F51  1  -0.21585503  -0.60132806  0.88982283  1
  F  F52  1  0.21585503  0.60132806  0.88982283  1
  F  F53  1  0.58200203  0.12639439  0.47327322  1
  F  F54  1  0.41799797  0.87360561  0.47327322  1
  F  F55  1  0.87360561  0.58200203  0.47327322  1
  F  F56  1  0.12639439  0.41799797  0.47327322  1
  F  F57  1  0.41799797  0.12639439  0.52672678  1
  F  F58  1  0.58200203  0.87360561  0.52672678  1
  F  F59  1  0.12639439  0.58200203  0.52672678  1
  F  F60  1  0.87360561  0.41799797  0.52672678  1
  F  F61  1  0.41799797  0.87360561  0.52672678  1
  F  F62  1  0.58200203  0.12639439  0.52672678  1
  F  F63  1  0.12639439  0.41799797  0.52672678  1
  F  F64  1  0.87360561  0.58200203  0.52672678  1
  F  F65  1  0.58200203  0.87360561  0.47327322  1
  F  F66  1  0.41799797  0.12639439  0.47327322  1
  F  F67  1  0.87360561  0.41799797  0.47327322  1
  F  F68  1  0.12639439  0.58200203  0.47327322  1
  F  F69  1  0.81439880  0.04296698  0.72042301  1
  F  F70  1  0.18560120  0.95703302  0.72042301  1
  F  F71  1  0.95703302  0.81439880  0.72042301  1
  F  F72  1  0.04296698  0.18560120  0.72042301  1
  F  F73  1  0.18560120  0.04296698  0.27957699  1
  F  F74  1  0.81439880  0.95703302  0.27957699  1
  F  F75  1  0.04296698  0.81439880  0.27957699  1
  F  F76  1  0.95703302  0.18560120  0.27957699  1
  F  F77  1  0.18560120  0.95703302  0.27957699  1
  F  F78  1  0.81439880  0.04296698  0.27957699  1
  F  F79  1  0.04296698  0.18560120  0.27957699  1
  F  F80  1  0.95703302  0.81439880  0.27957699  1
  F  F81  1  0.81439880  0.95703302  0.72042301  1
  F  F82  1  0.18560120  0.04296698  0.72042301  1
  F  F83  1  0.95703302  0.18560120  0.72042301  1
  F  F84  1  0.04296698  0.81439880  0.72042301  1
  F  F85  1  0.00000000  0.00000000  0.41289931  1
  F  F86  1  0.00000000  0.00000000  0.58710069  1
  F  F87  1  0.00000000  0.00000000  0.00000000  1
  Li  Li88  1  0.00000000  0.50000000  0.78777527  1
  Li  Li89  1  0.50000000  0.00000000  0.78777527  1
  Li  Li90  1  0.00000000  0.50000000  0.21222473  1
  Li  Li91  1  0.50000000  0.00000000  0.21222473  1
  Li  Li92  1  0.65909855  0.00000000  0.50000000  1
  Li  Li93  1  0.34090145  0.00000000  0.50000000  1
  Li  Li94  1  0.00000000  0.65909855  0.50000000  1
  Li  Li95  1  0.00000000  0.34090145  0.50000000  1
  Li  Li96  1  0.77551783  0.77551783  -0.00000000  1
  Li  Li97  1  0.22448217  0.22448217  0.00000000  1
  Li  Li98  1  0.22448217  0.77551783  -0.00000000  1
  Li  Li99  1  0.77551783  0.22448217  -0.00000000  1
  Li  Li100  1  0.50000000  0.50000000  0.66728109  1
  Li  Li101  1  0.50000000  0.50000000  0.33271891  1
  Li  Li102  1  0.00000000  0.00000000  0.10665552  1
  Li  Li103  1  0.00000000  0.00000000  0.89334448  1
