# generated using pymatgen
data_LiF
_symmetry_space_group_name_H-M   'P 1'
_cell_length_a   12.00931638
_cell_length_b   12.00931638
_cell_length_c   12.78857826
_cell_angle_alpha   90.00000000
_cell_angle_beta   90.00000000
_cell_angle_gamma   120.00000000
_symmetry_Int_Tables_number   1
_chemical_formula_structural   LiF
_chemical_formula_sum   'Li108 F108'
_cell_volume   1597.31095332
_cell_formula_units_Z   108
loop_
 _symmetry_equiv_pos_site_id
 _symmetry_equiv_pos_as_xyz
  1  'x, y, z'
loop_
 _atom_site_type_symbol
 _atom_site_label
 _atom_site_symmetry_multiplicity
 _atom_site_fract_x
 _atom_site_fract_y
 _atom_site_fract_z
 _atom_site_occupancy
  F  F0  1  0.76306405  0.77812496  0.52651763  1
  F  F1  1  0.22187504  0.98493908  0.52651763  1
  F  F2  1  0.01506092  0.23693595  0.52651763  1
  F  F3  1  0.77812496  0.76306405  0.97348237  1
  F  F4  1  0.98493908  0.22187504  0.97348237  1
  F  F5  1  0.23693595  0.01506092  0.97348237  1
  F  F6  1  0.23693595  0.22187504  0.47348237  1
  F  F7  1  0.77812496  0.01506092  0.47348237  1
  F  F8  1  0.98493908  0.76306405  0.47348237  1
  F  F9  1  0.22187504  0.23693595  0.02651763  1
  F  F10  1  0.01506092  0.77812496  0.02651763  1
  F  F11  1  0.76306405  0.98493908  0.02651763  1
  F  F12  1  0.42973071  0.11145829  0.85985097  1
  F  F13  1  0.88854171  0.31827242  0.85985097  1
  F  F14  1  0.68172758  0.57026929  0.85985097  1
  F  F15  1  0.44479163  0.09639738  0.30681570  1
  F  F16  1  0.65160575  0.55520837  0.30681570  1
  F  F17  1  0.90360262  0.34839425  0.30681570  1
  F  F18  1  0.90360262  0.55520837  0.80681570  1
  F  F19  1  0.44479163  0.34839425  0.80681570  1
  F  F20  1  0.65160575  0.09639738  0.80681570  1
  F  F21  1  0.88854171  0.57026929  0.35985097  1
  F  F22  1  0.68172758  0.11145829  0.35985097  1
  F  F23  1  0.42973071  0.31827242  0.35985097  1
  F  F24  1  0.09639738  0.44479163  0.19318430  1
  F  F25  1  0.55520837  0.65160575  0.19318430  1
  F  F26  1  0.34839425  0.90360262  0.19318430  1
  F  F27  1  0.11145829  0.42973071  0.64014903  1
  F  F28  1  0.31827242  0.88854171  0.64014903  1
  F  F29  1  0.57026929  0.68172758  0.64014903  1
  F  F30  1  0.57026929  0.88854171  0.14014903  1
  F  F31  1  0.11145829  0.68172758  0.14014903  1
  F  F32  1  0.31827242  0.42973071  0.14014903  1
  F  F33  1  0.55520837  0.90360262  0.69318430  1
  F  F34  1  0.34839425  0.44479163  0.69318430  1
  F  F35  1  0.09639738  0.65160575  0.69318430  1
  F  F36  1  0.36372677  0.07427894  0.33222442  1
  F  F37  1  0.92572106  0.28944783  0.33222442  1
  F  F38  1  0.71055217  0.63627323  0.33222442  1
  F  F39  1  0.07427894  0.36372677  0.16777558  1
  F  F40  1  0.28944783  0.92572106  0.16777558  1
  F  F41  1  0.63627323  0.71055217  0.16777558  1
  F  F42  1  0.63627323  0.92572106  0.66777558  1
  F  F43  1  0.07427894  0.71055217  0.66777558  1
  F  F44  1  0.28944783  0.36372677  0.66777558  1
  F  F45  1  0.92572106  0.63627323  0.83222442  1
  F  F46  1  0.71055217  0.07427894  0.83222442  1
  F  F47  1  0.36372677  0.28944783  0.83222442  1
  F  F48  1  0.03039344  0.40761227  0.66555775  1
  F  F49  1  0.59238773  0.62278116  0.66555775  1
  F  F50  1  0.37721884  0.96960656  0.66555775  1
  F  F51  1  0.74094561  0.69706010  0.50110892  1
  F  F52  1  0.95611450  0.25905439  0.50110892  1
  F  F53  1  0.30293990  0.04388550  0.50110892  1
  F  F54  1  0.30293990  0.25905439  0.00110892  1
  F  F55  1  0.74094561  0.04388550  0.00110892  1
  F  F56  1  0.95611450  0.69706010  0.00110892  1
  F  F57  1  0.59238773  0.96960656  0.16555775  1
  F  F58  1  0.37721884  0.40761227  0.16555775  1
  F  F59  1  0.03039344  0.62278116  0.16555775  1
  F  F60  1  0.69706010  0.74094561  0.99889108  1
  F  F61  1  0.25905439  0.95611450  0.99889108  1
  F  F62  1  0.04388550  0.30293990  0.99889108  1
  F  F63  1  0.40761227  0.03039344  0.83444225  1
  F  F64  1  0.62278116  0.59238773  0.83444225  1
  F  F65  1  0.96960656  0.37721884  0.83444225  1
  F  F66  1  0.96960656  0.59238773  0.33444225  1
  F  F67  1  0.40761227  0.37721884  0.33444225  1
  F  F68  1  0.62278116  0.03039344  0.33444225  1
  F  F69  1  0.25905439  0.30293990  0.49889108  1
  F  F70  1  0.04388550  0.74094561  0.49889108  1
  F  F71  1  0.69706010  0.95611450  0.49889108  1
  F  F72  1  0.91474076  0.15954361  0.35504762  1
  F  F73  1  0.84045639  0.75519716  0.35504762  1
  F  F74  1  0.24480284  0.08525924  0.35504762  1
  F  F75  1  0.15954361  0.91474076  0.14495238  1
  F  F76  1  0.75519716  0.84045639  0.14495238  1
  F  F77  1  0.08525924  0.24480284  0.14495238  1
  F  F78  1  0.08525924  0.84045639  0.64495238  1
  F  F79  1  0.15954361  0.24480284  0.64495238  1
  F  F80  1  0.75519716  0.91474076  0.64495238  1
  F  F81  1  0.84045639  0.08525924  0.85504762  1
  F  F82  1  0.24480284  0.15954361  0.85504762  1
  F  F83  1  0.91474076  0.75519716  0.85504762  1
  F  F84  1  0.58140743  0.49287694  0.68838096  1
  F  F85  1  0.50712306  0.08853049  0.68838096  1
  F  F86  1  0.91146951  0.41859257  0.68838096  1
  F  F87  1  0.82621027  0.24807410  0.47828571  1
  F  F88  1  0.42186383  0.17378973  0.47828571  1
  F  F89  1  0.75192590  0.57813617  0.47828571  1
  F  F90  1  0.75192590  0.17378973  0.97828571  1
  F  F91  1  0.82621027  0.57813617  0.97828571  1
  F  F92  1  0.42186383  0.24807410  0.97828571  1
  F  F93  1  0.50712306  0.41859257  0.18838096  1
  F  F94  1  0.91146951  0.49287694  0.18838096  1
  F  F95  1  0.58140743  0.08853049  0.18838096  1
  F  F96  1  0.24807410  0.82621027  0.02171429  1
  F  F97  1  0.17378973  0.42186383  0.02171429  1
  F  F98  1  0.57813617  0.75192590  0.02171429  1
  F  F99  1  0.49287694  0.58140743  0.81161904  1
  F  F100  1  0.08853049  0.50712306  0.81161904  1
  F  F101  1  0.41859257  0.91146951  0.81161904  1
  F  F102  1  0.41859257  0.50712306  0.31161904  1
  F  F103  1  0.49287694  0.91146951  0.31161904  1
  F  F104  1  0.08853049  0.58140743  0.31161904  1
  F  F105  1  0.17378973  0.75192590  0.52171429  1
  F  F106  1  0.57813617  0.82621027  0.52171429  1
  F  F107  1  0.24807410  0.42186383  0.52171429  1
  Li  Li108  1  0.50000000  0.00000000  -0.00000000  1
  Li  Li109  1  0.00000000  0.50000000  0.00000000  1
  Li  Li110  1  0.50000000  0.50000000  0.00000000  1
  Li  Li111  1  0.00000000  0.50000000  0.50000000  1
  Li  Li112  1  0.50000000  0.00000000  0.50000000  1
  Li  Li113  1  0.50000000  0.50000000  0.50000000  1
  Li  Li114  1  0.16666667  0.33333333  0.33333333  1
  Li  Li115  1  0.66666667  0.83333333  0.33333333  1
  Li  Li116  1  0.16666667  0.83333333  0.33333333  1
  Li  Li117  1  0.66666667  0.83333333  0.83333333  1
  Li  Li118  1  0.16666667  0.33333333  0.83333333  1
  Li  Li119  1  0.16666667  0.83333333  0.83333333  1
  Li  Li120  1  0.83333333  0.66666667  0.66666667  1
  Li  Li121  1  0.33333333  0.16666667  0.66666667  1
  Li  Li122  1  0.83333333  0.16666667  0.66666667  1
  Li  Li123  1  0.33333333  0.16666667  0.16666667  1
  Li  Li124  1  0.83333333  0.66666667  0.16666667  1
  Li  Li125  1  0.83333333  0.16666667  0.16666667  1
  Li  Li126  1  0.15492262  0.82897426  0.96211866  1
  Li  Li127  1  -0.82897426  -0.67405164  0.96211866  1
  Li  Li128  1  0.67405164  -0.15492262  0.96211866  1
  Li  Li129  1  0.82897426  0.15492262  -0.46211866  1
  Li  Li130  1  -0.67405164  -0.82897426  -0.46211866  1
  Li  Li131  1  -0.15492262  0.67405164  -0.46211866  1
  Li  Li132  1  -0.15492262  -0.82897426  -0.96211866  1
  Li  Li133  1  0.82897426  0.67405164  -0.96211866  1
  Li  Li134  1  -0.67405164  0.15492262  -0.96211866  1
  Li  Li135  1  -0.82897426  -0.15492262  1.46211866  1
  Li  Li136  1  0.67405164  0.82897426  1.46211866  1
  Li  Li137  1  0.15492262  -0.67405164  1.46211866  1
  Li  Li138  1  0.82158929  1.16230760  1.29545199  1
  Li  Li139  1  -0.16230760  -0.34071831  1.29545199  1
  Li  Li140  1  1.34071831  0.17841071  1.29545199  1
  Li  Li141  1  1.49564093  0.48825595  -0.12878533  1
  Li  Li142  1  -0.00738498  -0.49564093  -0.12878533  1
  Li  Li143  1  0.51174405  1.00738498  -0.12878533  1
  Li  Li144  1  0.51174405  -0.49564093  -0.62878533  1
  Li  Li145  1  1.49564093  1.00738498  -0.62878533  1
  Li  Li146  1  -0.00738498  0.48825595  -0.62878533  1
  Li  Li147  1  -0.16230760  0.17841071  1.79545199  1
  Li  Li148  1  1.34071831  1.16230760  1.79545199  1
  Li  Li149  1  0.82158929  -0.34071831  1.79545199  1
  Li  Li150  1  0.48825595  1.49564093  1.62878533  1
  Li  Li151  1  -0.49564093  -0.00738498  1.62878533  1
  Li  Li152  1  1.00738498  0.51174405  1.62878533  1
  Li  Li153  1  1.16230760  0.82158929  0.20454801  1
  Li  Li154  1  -0.34071831  -0.16230760  0.20454801  1
  Li  Li155  1  0.17841071  1.34071831  0.20454801  1
  Li  Li156  1  0.17841071  -0.16230760  -0.29545199  1
  Li  Li157  1  1.16230760  1.34071831  -0.29545199  1
  Li  Li158  1  -0.34071831  0.82158929  -0.29545199  1
  Li  Li159  1  -0.49564093  0.51174405  2.12878533  1
  Li  Li160  1  1.00738498  1.49564093  2.12878533  1
  Li  Li161  1  0.48825595  -0.00738498  2.12878533  1
  Li  Li162  1  0.46279523  0.87184734  0.71603706  1
  Li  Li163  1  0.12815266  0.59094789  0.71603706  1
  Li  Li164  1  0.40905211  0.53720477  0.71603706  1
  Li  Li165  1  0.87184734  0.46279523  0.78396294  1
  Li  Li166  1  0.59094789  0.12815266  0.78396294  1
  Li  Li167  1  0.53720477  0.40905211  0.78396294  1
  Li  Li168  1  0.53720477  0.12815266  0.28396294  1
  Li  Li169  1  0.87184734  0.40905211  0.28396294  1
  Li  Li170  1  0.59094789  0.46279523  0.28396294  1
  Li  Li171  1  0.12815266  0.53720477  0.21603706  1
  Li  Li172  1  0.40905211  0.87184734  0.21603706  1
  Li  Li173  1  0.46279523  0.59094789  0.21603706  1
  Li  Li174  1  0.12946189  0.20518067  0.04937039  1
  Li  Li175  1  0.79481933  0.92428122  0.04937039  1
  Li  Li176  1  0.07571878  0.87053811  0.04937039  1
  Li  Li177  1  0.53851401  0.79612856  0.11729628  1
  Li  Li178  1  0.25761455  0.46148599  0.11729628  1
  Li  Li179  1  0.20387144  0.74238545  0.11729628  1
  Li  Li180  1  0.20387144  0.46148599  0.61729628  1
  Li  Li181  1  0.53851401  0.74238545  0.61729628  1
  Li  Li182  1  0.25761455  0.79612856  0.61729628  1
  Li  Li183  1  0.79481933  0.87053811  0.54937039  1
  Li  Li184  1  0.07571878  0.20518067  0.54937039  1
  Li  Li185  1  0.12946189  0.92428122  0.54937039  1
  Li  Li186  1  0.79612856  0.53851401  0.38270372  1
  Li  Li187  1  0.46148599  0.25761455  0.38270372  1
  Li  Li188  1  0.74238545  0.20387144  0.38270372  1
  Li  Li189  1  0.20518067  0.12946189  0.45062961  1
  Li  Li190  1  0.92428122  0.79481933  0.45062961  1
  Li  Li191  1  0.87053811  0.07571878  0.45062961  1
  Li  Li192  1  0.87053811  0.79481933  0.95062961  1
  Li  Li193  1  0.20518067  0.07571878  0.95062961  1
  Li  Li194  1  0.92428122  0.12946189  0.95062961  1
  Li  Li195  1  0.46148599  0.20387144  0.88270372  1
  Li  Li196  1  0.74238545  0.53851401  0.88270372  1
  Li  Li197  1  0.79612856  0.25761455  0.88270372  1
  Li  Li198  1  0.00000000  0.00000000  0.00000000  1
  Li  Li199  1  0.00000000  0.00000000  0.50000000  1
  Li  Li200  1  0.66666667  0.33333333  0.33333333  1
  Li  Li201  1  0.66666667  0.33333333  0.83333333  1
  Li  Li202  1  0.33333333  0.66666667  0.66666667  1
  Li  Li203  1  0.33333333  0.66666667  0.16666667  1
  Li  Li204  1  0.00000000  0.00000000  0.84572122  1
  Li  Li205  1  0.00000000  0.00000000  0.65427878  1
  Li  Li206  1  0.00000000  0.00000000  0.15427878  1
  Li  Li207  1  0.00000000  0.00000000  0.34572122  1
  Li  Li208  1  0.66666667  0.33333333  0.17905455  1
  Li  Li209  1  0.66666667  0.33333333  0.98761211  1
  Li  Li210  1  0.66666667  0.33333333  0.48761211  1
  Li  Li211  1  0.66666667  0.33333333  0.67905455  1
  Li  Li212  1  0.33333333  0.66666667  0.51238789  1
  Li  Li213  1  0.33333333  0.66666667  0.32094545  1
  Li  Li214  1  0.33333333  0.66666667  0.82094545  1
  Li  Li215  1  0.33333333  0.66666667  0.01238789  1
