# generated using pymatgen
data_LiF
_symmetry_space_group_name_H-M   'P 1'
_cell_length_a   15.48567096
_cell_length_b   15.48567096
_cell_length_c   7.08228437
_cell_angle_alpha   90.00000000
_cell_angle_beta   90.00000000
_cell_angle_gamma   90.00000000
_symmetry_Int_Tables_number   1
_chemical_formula_structural   LiF
_chemical_formula_sum   'Li64 F64'
_cell_volume   1698.37432055
_cell_formula_units_Z   64
loop_
 _symmetry_equiv_pos_site_id
 _symmetry_equiv_pos_as_xyz
  1  'x, y, z'
loop_
 _atom_site_type_symbol
 _atom_site_label
 _atom_site_symmetry_multiplicity
 _atom_site_fract_x
 _atom_site_fract_y
 _atom_site_fract_z
 _atom_site_occupancy
  F  F0  1  0.45306118  0.70306118  0.12500000  1
  F  F1  1  0.04693882  0.29693882  0.62500000  1
  F  F2  1  0.54693882  0.20306118  0.37500000  1
  F  F3  1  0.95306118  0.79693882  0.87500000  1
  F  F4  1  0.54693882  0.29693882  0.87500000  1
  F  F5  1  0.95306118  0.70306118  0.37500000  1
  F  F6  1  0.45306118  0.79693882  0.62500000  1
  F  F7  1  0.04693882  0.20306118  0.12500000  1
  F  F8  1  0.95306118  0.20306118  0.62500000  1
  F  F9  1  0.54693882  0.79693882  0.12500000  1
  F  F10  1  0.04693882  0.70306118  0.87500000  1
  F  F11  1  0.45306118  0.29693882  0.37500000  1
  F  F12  1  0.04693882  0.79693882  0.37500000  1
  F  F13  1  0.45306118  0.20306118  0.87500000  1
  F  F14  1  0.95306118  0.29693882  0.12500000  1
  F  F15  1  0.54693882  0.70306118  0.62500000  1
  F  F16  1  0.28137685  0.53137685  0.12500000  1
  F  F17  1  0.21862315  0.46862315  0.62500000  1
  F  F18  1  0.71862315  0.03137685  0.37500000  1
  F  F19  1  0.78137685  0.96862315  0.87500000  1
  F  F20  1  0.71862315  0.46862315  0.87500000  1
  F  F21  1  0.78137685  0.53137685  0.37500000  1
  F  F22  1  0.28137685  0.96862315  0.62500000  1
  F  F23  1  0.21862315  0.03137685  0.12500000  1
  F  F24  1  0.78137685  0.03137685  0.62500000  1
  F  F25  1  0.71862315  0.96862315  0.12500000  1
  F  F26  1  0.21862315  0.53137685  0.87500000  1
  F  F27  1  0.28137685  0.46862315  0.37500000  1
  F  F28  1  0.21862315  0.96862315  0.37500000  1
  F  F29  1  0.28137685  0.03137685  0.87500000  1
  F  F30  1  0.78137685  0.46862315  0.12500000  1
  F  F31  1  0.71862315  0.53137685  0.62500000  1
  F  F32  1  0.00000000  0.25000000  0.20246540  1
  F  F33  1  0.00000000  0.75000000  0.45246540  1
  F  F34  1  0.50000000  0.25000000  0.79753460  1
  F  F35  1  0.50000000  0.75000000  0.54753460  1
  F  F36  1  0.00000000  0.75000000  0.79753460  1
  F  F37  1  0.00000000  0.25000000  0.54753460  1
  F  F38  1  0.50000000  0.75000000  0.20246540  1
  F  F39  1  0.50000000  0.25000000  0.45246540  1
  F  F40  1  0.50000000  0.75000000  0.70246540  1
  F  F41  1  0.50000000  0.25000000  0.95246540  1
  F  F42  1  0.00000000  0.75000000  0.29753460  1
  F  F43  1  0.00000000  0.25000000  0.04753460  1
  F  F44  1  0.50000000  0.25000000  0.29753460  1
  F  F45  1  0.50000000  0.75000000  0.04753460  1
  F  F46  1  0.00000000  0.25000000  0.70246540  1
  F  F47  1  0.00000000  0.75000000  0.95246540  1
  F  F48  1  0.62499676  0.87499676  0.12500000  1
  F  F49  1  0.87500324  0.12500324  0.62500000  1
  F  F50  1  0.37500324  0.37499676  0.37500000  1
  F  F51  1  0.12499676  0.62500324  0.87500000  1
  F  F52  1  0.37500324  0.12500324  0.87500000  1
  F  F53  1  0.12499676  0.87499676  0.37500000  1
  F  F54  1  0.62499676  0.62500324  0.62500000  1
  F  F55  1  0.87500324  0.37499676  0.12500000  1
  F  F56  1  0.12499676  0.37499676  0.62500000  1
  F  F57  1  0.37500324  0.62500324  0.12500000  1
  F  F58  1  0.87500324  0.87499676  0.87500000  1
  F  F59  1  0.62499676  0.12500324  0.37500000  1
  F  F60  1  0.87500324  0.62500324  0.37500000  1
  F  F61  1  0.62499676  0.37499676  0.87500000  1
  F  F62  1  0.12499676  0.12500324  0.12500000  1
  F  F63  1  0.37500324  0.87499676  0.62500000  1
  Li  Li64  1  0.00000000  0.00000000  0.00000000  1
  Li  Li65  1  0.50000000  0.00000000  0.50000000  1
  Li  Li66  1  0.25000000  0.75000000  0.25000000  1
  Li  Li67  1  0.25000000  0.25000000  0.75000000  1
  Li  Li68  1  0.50000000  0.00000000  0.00000000  1
  Li  Li69  1  0.00000000  0.00000000  0.50000000  1
  Li  Li70  1  0.25000000  0.75000000  0.75000000  1
  Li  Li71  1  0.25000000  0.25000000  0.25000000  1
  Li  Li72  1  0.50000000  0.50000000  0.50000000  1
  Li  Li73  1  0.00000000  0.50000000  0.00000000  1
  Li  Li74  1  0.75000000  0.25000000  0.75000000  1
  Li  Li75  1  0.75000000  0.75000000  0.25000000  1
  Li  Li76  1  0.00000000  0.50000000  0.50000000  1
  Li  Li77  1  0.50000000  0.50000000  0.00000000  1
  Li  Li78  1  0.75000000  0.25000000  0.25000000  1
  Li  Li79  1  0.75000000  0.75000000  0.75000000  1
  Li  Li80  1  0.22867569  0.90670070  0.30995138  1
  Li  Li81  1  0.27132431  -0.90670070  0.80995138  1
  Li  Li82  1  -0.65670070  0.97867569  0.55995138  1
  Li  Li83  1  1.15670070  0.02132431  1.05995138  1
  Li  Li84  1  0.27132431  0.90670070  -0.30995138  1
  Li  Li85  1  0.22867569  -0.90670070  0.19004862  1
  Li  Li86  1  1.15670070  0.97867569  0.44004862  1
  Li  Li87  1  -0.65670070  0.02132431  -0.05995138  1
  Li  Li88  1  -0.22867569  -0.90670070  -0.30995138  1
  Li  Li89  1  0.72867569  0.90670070  0.19004862  1
  Li  Li90  1  1.65670070  0.02132431  0.44004862  1
  Li  Li91  1  -0.15670070  0.97867569  -0.05995138  1
  Li  Li92  1  0.72867569  -0.90670070  0.30995138  1
  Li  Li93  1  -0.22867569  0.90670070  0.80995138  1
  Li  Li94  1  -0.15670070  0.02132431  0.55995138  1
  Li  Li95  1  1.65670070  0.97867569  1.05995138  1
  Li  Li96  1  0.72867569  1.40670070  0.80995138  1
  Li  Li97  1  0.77132431  -0.40670070  1.30995138  1
  Li  Li98  1  -0.15670070  1.47867569  1.05995138  1
  Li  Li99  1  1.65670070  0.52132431  1.55995138  1
  Li  Li100  1  0.77132431  1.40670070  0.19004862  1
  Li  Li101  1  0.72867569  -0.40670070  0.69004862  1
  Li  Li102  1  1.65670070  1.47867569  0.94004862  1
  Li  Li103  1  -0.15670070  0.52132431  0.44004862  1
  Li  Li104  1  0.27132431  -0.40670070  0.19004862  1
  Li  Li105  1  1.22867569  1.40670070  0.69004862  1
  Li  Li106  1  2.15670070  0.52132431  0.94004862  1
  Li  Li107  1  0.34329930  1.47867569  0.44004862  1
  Li  Li108  1  1.22867569  -0.40670070  0.80995138  1
  Li  Li109  1  0.27132431  1.40670070  1.30995138  1
  Li  Li110  1  0.34329930  0.52132431  1.05995138  1
  Li  Li111  1  2.15670070  1.47867569  1.55995138  1
  Li  Li112  1  0.88839128  0.13839128  0.12500000  1
  Li  Li113  1  0.61160872  0.86160872  0.62500000  1
  Li  Li114  1  0.11160872  0.63839128  0.37500000  1
  Li  Li115  1  0.38839128  0.36160872  0.87500000  1
  Li  Li116  1  0.11160872  0.86160872  0.87500000  1
  Li  Li117  1  0.38839128  0.13839128  0.37500000  1
  Li  Li118  1  0.88839128  0.36160872  0.62500000  1
  Li  Li119  1  0.61160872  0.63839128  0.12500000  1
  Li  Li120  1  0.38839128  0.63839128  0.62500000  1
  Li  Li121  1  0.11160872  0.36160872  0.12500000  1
  Li  Li122  1  0.61160872  0.13839128  0.87500000  1
  Li  Li123  1  0.88839128  0.86160872  0.37500000  1
  Li  Li124  1  0.61160872  0.36160872  0.37500000  1
  Li  Li125  1  0.88839128  0.63839128  0.87500000  1
  Li  Li126  1  0.38839128  0.86160872  0.12500000  1
  Li  Li127  1  0.11160872  0.13839128  0.62500000  1
