# generated using pymatgen
data_LiF
_symmetry_space_group_name_H-M   'P 1'
_cell_length_a   5.39252155
_cell_length_b   5.39252155
_cell_length_c   8.62448401
_cell_angle_alpha   90.00000000
_cell_angle_beta   90.00000000
_cell_angle_gamma   120.00000000
_symmetry_Int_Tables_number   1
_chemical_formula_structural   LiF
_chemical_formula_sum   'Li17 F17'
_cell_volume   217.19385397
_cell_formula_units_Z   17
loop_
 _symmetry_equiv_pos_site_id
 _symmetry_equiv_pos_as_xyz
  1  'x, y, z'
loop_
 _atom_site_type_symbol
 _atom_site_label
 _atom_site_symmetry_multiplicity
 _atom_site_fract_x
 _atom_site_fract_y
 _atom_site_fract_z
 _atom_site_occupancy
  F  F0  1  0.07041613  0.53818387  0.70391817  1
  F  F1  1  0.46181613  0.53223225  0.70391817  1
  F  F2  1  0.46776775  0.92958387  0.70391817  1
  F  F3  1  0.46181613  0.92958387  0.29608183  1
  F  F4  1  0.46776775  0.53818387  0.29608183  1
  F  F5  1  0.07041613  0.53223225  0.29608183  1
  F  F6  1  0.33333333  0.66666667  0.00000000  1
  F  F7  1  0.98535061  0.15382570  0.65922810  1
  F  F8  1  0.84617430  0.83152491  0.65922810  1
  F  F9  1  0.16847509  0.01464939  0.65922810  1
  F  F10  1  0.84617430  0.01464939  0.34077190  1
  F  F11  1  0.16847509  0.15382570  0.34077190  1
  F  F12  1  0.98535061  0.83152491  0.34077190  1
  F  F13  1  0.86107931  0.13892069  0.50000000  1
  F  F14  1  0.86107931  0.72215861  0.50000000  1
  F  F15  1  0.27784139  0.13892069  0.50000000  1
  F  F16  1  0.00000000  0.00000000  0.00000000  1
  Li  Li17  1  0.00000000  0.00000000  0.50000000  1
  Li  Li18  1  0.66666667  0.33333333  0.00000000  1
  Li  Li19  1  0.33333333  0.66666667  0.25976412  1
  Li  Li20  1  0.33333333  0.66666667  0.74023588  1
  Li  Li21  1  0.40755234  0.32611435  0.16181714  1
  Li  Li22  1  -0.32611435  0.08143799  0.16181714  1
  Li  Li23  1  -0.08143799  -0.40755234  0.16181714  1
  Li  Li24  1  -0.32611435  -0.40755234  -0.16181714  1
  Li  Li25  1  -0.08143799  0.32611435  -0.16181714  1
  Li  Li26  1  0.40755234  0.08143799  -0.16181714  1
  Li  Li27  1  0.66666667  0.33333333  0.50000000  1
  Li  Li28  1  0.27024786  0.98450947  0.03716410  1
  Li  Li29  1  0.01549053  0.28573840  0.03716410  1
  Li  Li30  1  0.71426160  0.72975214  0.03716410  1
  Li  Li31  1  0.01549053  0.72975214  0.96283590  1
  Li  Li32  1  0.71426160  0.98450947  0.96283590  1
  Li  Li33  1  0.27024786  0.28573840  0.96283590  1
