# generated using pymatgen
data_LiF
_symmetry_space_group_name_H-M   'P 1'
_cell_length_a   7.83268711
_cell_length_b   8.83997567
_cell_length_c   8.36535969
_cell_angle_alpha   90.00000000
_cell_angle_beta   90.00000000
_cell_angle_gamma   90.00000000
_symmetry_Int_Tables_number   1
_chemical_formula_structural   LiF
_chemical_formula_sum   'Li24 F24'
_cell_volume   579.22389204
_cell_formula_units_Z   24
loop_
 _symmetry_equiv_pos_site_id
 _symmetry_equiv_pos_as_xyz
  1  'x, y, z'
loop_
 _atom_site_type_symbol
 _atom_site_label
 _atom_site_symmetry_multiplicity
 _atom_site_fract_x
 _atom_site_fract_y
 _atom_site_fract_z
 _atom_site_occupancy
  F  F0  1  0.05367349  0.47463168  0.00000000  1
  F  F1  1  0.94632651  0.52536832  0.00000000  1
  F  F2  1  0.44632651  0.97463168  0.00000000  1
  F  F3  1  0.55367349  0.02536832  0.00000000  1
  F  F4  1  0.18293680  0.11452975  0.14175311  1
  F  F5  1  0.81706320  0.88547025  0.14175311  1
  F  F6  1  0.31706320  0.61452975  0.85824689  1
  F  F7  1  0.68293680  0.38547025  0.85824689  1
  F  F8  1  0.81706320  0.88547025  0.85824689  1
  F  F9  1  0.18293680  0.11452975  0.85824689  1
  F  F10  1  0.68293680  0.38547025  0.14175311  1
  F  F11  1  0.31706320  0.61452975  0.14175311  1
  F  F12  1  0.21027171  0.92123493  0.50000000  1
  F  F13  1  0.78972829  0.07876507  0.50000000  1
  F  F14  1  0.28972829  0.42123493  0.50000000  1
  F  F15  1  0.71027171  0.57876507  0.50000000  1
  F  F16  1  0.00000000  0.00000000  0.00000000  1
  F  F17  1  0.50000000  0.50000000  0.00000000  1
  F  F18  1  0.51741103  0.59159635  0.00000000  1
  F  F19  1  0.48258897  0.40840365  0.00000000  1
  F  F20  1  0.98258897  0.09159635  0.00000000  1
  F  F21  1  0.01741103  0.90840365  0.00000000  1
  F  F22  1  0.00000000  0.00000000  0.50000000  1
  F  F23  1  0.50000000  0.50000000  0.50000000  1
  Li  Li24  1  0.74741704  0.96702474  0.09126476  1
  Li  Li25  1  -0.74741704  -0.96702474  0.09126476  1
  Li  Li26  1  -0.24741704  1.46702474  -0.09126476  1
  Li  Li27  1  1.24741704  -0.46702474  -0.09126476  1
  Li  Li28  1  -0.74741704  -0.96702474  -0.09126476  1
  Li  Li29  1  0.74741704  0.96702474  -0.09126476  1
  Li  Li30  1  1.24741704  -0.46702474  0.09126476  1
  Li  Li31  1  -0.24741704  1.46702474  0.09126476  1
  Li  Li32  1  0.00000000  0.50000000  0.89997956  1
  Li  Li33  1  0.50000000  0.00000000  0.10002044  1
  Li  Li34  1  0.00000000  0.50000000  0.10002044  1
  Li  Li35  1  0.50000000  0.00000000  0.89997956  1
  Li  Li36  1  0.56435243  0.91777047  0.28033335  1
  Li  Li37  1  0.43564757  0.08222953  0.28033335  1
  Li  Li38  1  0.93564757  0.41777047  0.71966665  1
  Li  Li39  1  0.06435243  0.58222953  0.71966665  1
  Li  Li40  1  0.43564757  0.08222953  0.71966665  1
  Li  Li41  1  0.56435243  0.91777047  0.71966665  1
  Li  Li42  1  0.06435243  0.58222953  0.28033335  1
  Li  Li43  1  0.93564757  0.41777047  0.28033335  1
  Li  Li44  1  0.22822785  0.90782305  0.00000000  1
  Li  Li45  1  0.77177215  0.09217695  0.00000000  1
  Li  Li46  1  0.27177215  0.40782305  0.00000000  1
  Li  Li47  1  0.72822785  0.59217695  0.00000000  1
