# generated using pymatgen
data_LiF
_symmetry_space_group_name_H-M   'P 1'
_cell_length_a   2.96408335
_cell_length_b   6.61737417
_cell_length_c   5.99459085
_cell_angle_alpha   90.00000000
_cell_angle_beta   90.00000000
_cell_angle_gamma   90.00000000
_symmetry_Int_Tables_number   1
_chemical_formula_structural   LiF
_chemical_formula_sum   'Li6 F6'
_cell_volume   117.58059393
_cell_formula_units_Z   6
loop_
 _symmetry_equiv_pos_site_id
 _symmetry_equiv_pos_as_xyz
  1  'x, y, z'
loop_
 _atom_site_type_symbol
 _atom_site_label
 _atom_site_symmetry_multiplicity
 _atom_site_fract_x
 _atom_site_fract_y
 _atom_site_fract_z
 _atom_site_occupancy
  F  F0  1  0.00000000  0.00000000  0.66357420  1
  F  F1  1  0.50000000  0.50000000  -0.16357420  1
  F  F2  1  0.00000000  0.00000000  -0.66357420  1
  F  F3  1  0.50000000  0.50000000  1.16357420  1
  F  F4  1  0.00000000  0.50000000  0.50000000  1
  F  F5  1  0.50000000  -0.00000000  0.00000000  1
  Li  Li6  1  0.53876571  0.81462671  -0.00000000  1
  Li  Li7  1  0.46123429  0.18537329  0.00000000  1
  Li  Li8  1  0.96123429  0.31462671  0.50000000  1
  Li  Li9  1  0.03876571  0.68537329  0.50000000  1
  Li  Li10  1  0.00000000  0.00000000  0.00000000  1
  Li  Li11  1  0.50000000  0.50000000  0.50000000  1
