# generated using pymatgen
data_Li2Y2(AsP)3
_symmetry_space_group_name_H-M   'P 1'
_cell_length_a   5.17773150
_cell_length_b   5.13322536
_cell_length_c   7.16923241
_cell_angle_alpha   94.48087242
_cell_angle_beta   99.75840858
_cell_angle_gamma   107.99788362
_symmetry_Int_Tables_number   1
_chemical_formula_structural   Li2Y2(AsP)3
_chemical_formula_sum   'Li2 Y2 As3 P3'
_cell_volume   176.86177711
_cell_formula_units_Z   1
loop_
 _symmetry_equiv_pos_site_id
 _symmetry_equiv_pos_as_xyz
  1  'x, y, z'
loop_
 _atom_site_type_symbol
 _atom_site_label
 _atom_site_symmetry_multiplicity
 _atom_site_fract_x
 _atom_site_fract_y
 _atom_site_fract_z
 _atom_site_occupancy
  P  P0  1  0.00000000  0.00000000  0.00000000  1
  P  P1  1  0.50000000  0.50000000  0.50000000  1
  P  P2  1  0.25000000  0.25000000  0.25000000  1
  As  As3  1  0.75000000  0.25000000  0.00000000  1
  As  As4  1  0.25000000  0.75000000  0.50000000  1
  As  As5  1  0.12842350  0.69389245  0.39172672  1
  Li  Li6  1  0.48862350  0.76474769  0.44630442  1
  Li  Li7  1  0.90441247  0.28241354  0.58245906  1
  Y  Y8  1  0.16661251  0.22798381  0.28213358  1
  Y  Y9  1  0.63814539  0.69351423  0.71668118  1
