# generated using pymatgen
data_LiF
_symmetry_space_group_name_H-M   'P 1'
_cell_length_a   10.82759934
_cell_length_b   8.53209342
_cell_length_c   11.47189033
_cell_angle_alpha   90.00000000
_cell_angle_beta   90.00000000
_cell_angle_gamma   90.00000000
_symmetry_Int_Tables_number   1
_chemical_formula_structural   LiF
_chemical_formula_sum   'Li34 F34'
_cell_volume   1059.79719495
_cell_formula_units_Z   34
loop_
 _symmetry_equiv_pos_site_id
 _symmetry_equiv_pos_as_xyz
  1  'x, y, z'
loop_
 _atom_site_type_symbol
 _atom_site_label
 _atom_site_symmetry_multiplicity
 _atom_site_fract_x
 _atom_site_fract_y
 _atom_site_fract_z
 _atom_site_occupancy
  F  F0  1  0.77468093  0.07890685  0.43921442  1
  F  F1  1  0.22531907  0.92109315  0.43921442  1
  F  F2  1  0.72531907  0.57890685  0.56078558  1
  F  F3  1  0.27468093  0.42109315  0.56078558  1
  F  F4  1  0.22531907  0.92109315  0.56078558  1
  F  F5  1  0.77468093  0.07890685  0.56078558  1
  F  F6  1  0.27468093  0.42109315  0.43921442  1
  F  F7  1  0.72531907  0.57890685  0.43921442  1
  F  F8  1  0.38297897  0.48214038  0.88633692  1
  F  F9  1  0.61702103  0.51785962  0.88633692  1
  F  F10  1  0.11702103  0.98214038  0.11366308  1
  F  F11  1  0.88297897  0.01785962  0.11366308  1
  F  F12  1  0.61702103  0.51785962  0.11366308  1
  F  F13  1  0.38297897  0.48214038  0.11366308  1
  F  F14  1  0.88297897  0.01785962  0.88633692  1
  F  F15  1  0.11702103  0.98214038  0.88633692  1
  F  F16  1  0.00000000  0.00000000  0.00000000  1
  F  F17  1  0.50000000  0.50000000  0.00000000  1
  F  F18  1  0.70015515  0.90099013  -0.00000000  1
  F  F19  1  0.29984485  0.09900987  -0.00000000  1
  F  F20  1  0.79984485  0.40099013  0.00000000  1
  F  F21  1  0.20015515  0.59900987  0.00000000  1
  F  F22  1  0.96460387  0.22460202  0.21796514  1
  F  F23  1  0.03539613  0.77539798  0.21796514  1
  F  F24  1  0.53539613  0.72460202  0.78203486  1
  F  F25  1  0.46460387  0.27539798  0.78203486  1
  F  F26  1  0.03539613  0.77539798  0.78203486  1
  F  F27  1  0.96460387  0.22460202  0.78203486  1
  F  F28  1  0.46460387  0.27539798  0.21796514  1
  F  F29  1  0.53539613  0.72460202  0.21796514  1
  F  F30  1  0.69339977  0.48253229  0.00000000  1
  F  F31  1  0.30660023  0.51746771  0.00000000  1
  F  F32  1  0.80660023  0.98253229  -0.00000000  1
  F  F33  1  0.19339977  0.01746771  0.00000000  1
  Li  Li34  1  0.00000000  0.00000000  0.50000000  1
  Li  Li35  1  0.50000000  0.50000000  0.50000000  1
  Li  Li36  1  0.77361154  0.87741093  0.35072166  1
  Li  Li37  1  -0.77361154  -0.87741093  0.35072166  1
  Li  Li38  1  -0.27361154  1.37741093  -0.35072166  1
  Li  Li39  1  1.27361154  -0.37741093  -0.35072166  1
  Li  Li40  1  -0.77361154  -0.87741093  -0.35072166  1
  Li  Li41  1  0.77361154  0.87741093  -0.35072166  1
  Li  Li42  1  1.27361154  -0.37741093  0.35072166  1
  Li  Li43  1  -0.27361154  1.37741093  0.35072166  1
  Li  Li44  1  0.53168057  0.90768923  0.05886680  1
  Li  Li45  1  0.46831943  0.09231077  0.05886680  1
  Li  Li46  1  0.96831943  0.40768923  0.94113320  1
  Li  Li47  1  0.03168057  0.59231077  0.94113320  1
  Li  Li48  1  0.46831943  0.09231077  0.94113320  1
  Li  Li49  1  0.53168057  0.90768923  0.94113320  1
  Li  Li50  1  0.03168057  0.59231077  0.05886680  1
  Li  Li51  1  0.96831943  0.40768923  0.05886680  1
  Li  Li52  1  0.22596375  0.69073074  0.89394072  1
  Li  Li53  1  0.77403625  0.30926926  0.89394072  1
  Li  Li54  1  0.27403625  0.19073074  0.10605928  1
  Li  Li55  1  0.72596375  0.80926926  0.10605928  1
  Li  Li56  1  0.77403625  0.30926926  0.10605928  1
  Li  Li57  1  0.22596375  0.69073074  0.10605928  1
  Li  Li58  1  0.72596375  0.80926926  0.89394072  1
  Li  Li59  1  0.27403625  0.19073074  0.89394072  1
  Li  Li60  1  0.71081321  0.51015678  0.24843103  1
  Li  Li61  1  0.28918679  0.48984322  0.24843103  1
  Li  Li62  1  0.78918679  0.01015678  0.75156897  1
  Li  Li63  1  0.21081321  0.98984322  0.75156897  1
  Li  Li64  1  0.28918679  0.48984322  0.75156897  1
  Li  Li65  1  0.71081321  0.51015678  0.75156897  1
  Li  Li66  1  0.21081321  0.98984322  0.24843103  1
  Li  Li67  1  0.78918679  0.01015678  0.24843103  1
