# generated using pymatgen
data_LiF
_symmetry_space_group_name_H-M   'P 1'
_cell_length_a   10.51801983
_cell_length_b   10.95954973
_cell_length_c   8.08839476
_cell_angle_alpha   90.00000000
_cell_angle_beta   90.00000000
_cell_angle_gamma   90.00000000
_symmetry_Int_Tables_number   1
_chemical_formula_structural   LiF
_chemical_formula_sum   'Li24 F24'
_cell_volume   932.37160003
_cell_formula_units_Z   24
loop_
 _symmetry_equiv_pos_site_id
 _symmetry_equiv_pos_as_xyz
  1  'x, y, z'
loop_
 _atom_site_type_symbol
 _atom_site_label
 _atom_site_symmetry_multiplicity
 _atom_site_fract_x
 _atom_site_fract_y
 _atom_site_fract_z
 _atom_site_occupancy
  F  F0  1  0.04484842  0.25000000  0.95444248  1
  F  F1  1  0.45515158  0.75000000  0.45444248  1
  F  F2  1  0.95515158  0.75000000  0.04555752  1
  F  F3  1  0.54484842  0.25000000  0.54555752  1
  F  F4  1  0.59036720  0.08951330  0.73545205  1
  F  F5  1  0.90963280  0.91048670  0.23545205  1
  F  F6  1  0.40963280  0.58951330  0.26454795  1
  F  F7  1  0.09036720  0.41048670  0.76454795  1
  F  F8  1  0.40963280  0.91048670  0.26454795  1
  F  F9  1  0.09036720  0.08951330  0.76454795  1
  F  F10  1  0.59036720  0.41048670  0.73545205  1
  F  F11  1  0.90963280  0.58951330  0.23545205  1
  F  F12  1  0.85718571  0.07169396  0.74224820  1
  F  F13  1  0.64281429  0.92830604  0.24224820  1
  F  F14  1  0.14281429  0.57169396  0.25775180  1
  F  F15  1  0.35718571  0.42830604  0.75775180  1
  F  F16  1  0.14281429  0.92830604  0.25775180  1
  F  F17  1  0.35718571  0.07169396  0.75775180  1
  F  F18  1  0.85718571  0.42830604  0.74224820  1
  F  F19  1  0.64281429  0.57169396  0.24224820  1
  F  F20  1  0.00000000  0.00000000  0.50000000  1
  F  F21  1  0.50000000  0.00000000  0.00000000  1
  F  F22  1  0.00000000  0.50000000  0.50000000  1
  F  F23  1  0.50000000  0.50000000  0.00000000  1
  Li  Li24  1  0.80957405  0.25000000  0.60857128  1
  Li  Li25  1  0.69042595  0.75000000  0.10857128  1
  Li  Li26  1  0.19042595  0.75000000  0.39142872  1
  Li  Li27  1  0.30957405  0.25000000  0.89142872  1
  Li  Li28  1  0.00000000  0.00000000  0.00000000  1
  Li  Li29  1  0.50000000  0.00000000  0.50000000  1
  Li  Li30  1  0.00000000  0.50000000  0.00000000  1
  Li  Li31  1  0.50000000  0.50000000  0.50000000  1
  Li  Li32  1  0.23453362  0.25000000  0.24468849  1
  Li  Li33  1  0.26546638  0.75000000  0.74468849  1
  Li  Li34  1  0.76546638  0.75000000  0.75531151  1
  Li  Li35  1  0.73453362  0.25000000  0.25531151  1
  Li  Li36  1  0.32098501  0.25000000  0.08337542  1
  Li  Li37  1  0.17901499  0.75000000  0.58337542  1
  Li  Li38  1  0.67901499  0.75000000  0.91662458  1
  Li  Li39  1  0.82098501  0.25000000  0.41662458  1
  Li  Li40  1  0.69868181  0.35351373  0.52903513  1
  Li  Li41  1  -0.19868181  -0.35351373  1.02903513  1
  Li  Li42  1  -0.69868181  0.85351373  -0.52903513  1
  Li  Li43  1  1.19868181  0.14648627  -0.02903513  1
  Li  Li44  1  -0.69868181  -0.35351373  -0.52903513  1
  Li  Li45  1  1.19868181  0.35351373  -0.02903513  1
  Li  Li46  1  0.69868181  0.14648627  0.52903513  1
  Li  Li47  1  -0.19868181  0.85351373  1.02903513  1
