# generated using pymatgen
data_Li2CaSeF2
_symmetry_space_group_name_H-M   'P 1'
_cell_length_a   5.10195924
_cell_length_b   9.72312778
_cell_length_c   9.87768447
_cell_angle_alpha   90.00000000
_cell_angle_beta   90.00000000
_cell_angle_gamma   90.00000000
_symmetry_Int_Tables_number   1
_chemical_formula_structural   Li2CaSeF2
_chemical_formula_sum   'Li8 Ca4 Se4 F8'
_cell_volume   490.00231000
_cell_formula_units_Z   4
loop_
 _symmetry_equiv_pos_site_id
 _symmetry_equiv_pos_as_xyz
  1  'x, y, z'
loop_
 _atom_site_type_symbol
 _atom_site_label
 _atom_site_symmetry_multiplicity
 _atom_site_fract_x
 _atom_site_fract_y
 _atom_site_fract_z
 _atom_site_occupancy
  Ca  Ca0  1  0.00000000  0.00000000  0.00000000  1
  Ca  Ca1  1  0.50000000  0.00000000  0.50000000  1
  Ca  Ca2  1  0.00000000  0.50000000  0.00000000  1
  Ca  Ca3  1  0.50000000  0.50000000  0.50000000  1
  F  F4  1  0.34255317  0.35465251  0.05798622  1
  F  F5  1  0.15744683  -0.35465251  0.55798622  1
  F  F6  1  -0.34255317  0.85465251  -0.05798622  1
  F  F7  1  0.84255317  0.14534749  0.44201378  1
  F  F8  1  -0.34255317  -0.35465251  -0.05798622  1
  F  F9  1  0.84255317  0.35465251  0.44201378  1
  F  F10  1  0.34255317  0.14534749  0.05798622  1
  F  F11  1  0.15744683  0.85465251  0.55798622  1
  Li  Li12  1  0.50345122  0.58081841  0.18657064  1
  Li  Li13  1  0.99654878  0.41918159  0.68657064  1
  Li  Li14  1  0.49654878  0.08081841  0.81342936  1
  Li  Li15  1  0.00345122  0.91918159  0.31342936  1
  Li  Li16  1  0.49654878  0.41918159  0.81342936  1
  Li  Li17  1  0.00345122  0.58081841  0.31342936  1
  Li  Li18  1  0.50345122  0.91918159  0.18657064  1
  Li  Li19  1  0.99654878  0.08081841  0.68657064  1
  Se  Se20  1  0.09776858  0.25000000  0.80042563  1
  Se  Se21  1  0.40223142  0.75000000  0.30042563  1
  Se  Se22  1  0.90223142  0.75000000  0.19957437  1
  Se  Se23  1  0.59776858  0.25000000  0.69957437  1
