# generated using pymatgen
data_LiF
_symmetry_space_group_name_H-M   'P 1'
_cell_length_a   12.91856975
_cell_length_b   12.91856975
_cell_length_c   6.91611173
_cell_angle_alpha   90.00000000
_cell_angle_beta   90.00000000
_cell_angle_gamma   90.00000000
_symmetry_Int_Tables_number   1
_chemical_formula_structural   LiF
_chemical_formula_sum   'Li45 F45'
_cell_volume   1154.22604340
_cell_formula_units_Z   45
loop_
 _symmetry_equiv_pos_site_id
 _symmetry_equiv_pos_as_xyz
  1  'x, y, z'
loop_
 _atom_site_type_symbol
 _atom_site_label
 _atom_site_symmetry_multiplicity
 _atom_site_fract_x
 _atom_site_fract_y
 _atom_site_fract_z
 _atom_site_occupancy
  F  F0  1  0.60046248  0.60046248  0.33445264  1
  F  F1  1  0.39953752  0.39953752  0.33445264  1
  F  F2  1  0.39953752  0.60046248  0.33445264  1
  F  F3  1  0.60046248  0.39953752  0.33445264  1
  F  F4  1  0.39953752  0.60046248  0.66554736  1
  F  F5  1  0.60046248  0.39953752  0.66554736  1
  F  F6  1  0.60046248  0.60046248  0.66554736  1
  F  F7  1  0.39953752  0.39953752  0.66554736  1
  F  F8  1  0.93911827  0.46661935  0.11148566  1
  F  F9  1  0.06088173  0.53338065  0.11148566  1
  F  F10  1  0.53338065  0.93911827  0.11148566  1
  F  F11  1  0.46661935  0.06088173  0.11148566  1
  F  F12  1  0.06088173  0.46661935  0.88851434  1
  F  F13  1  0.93911827  0.53338065  0.88851434  1
  F  F14  1  0.46661935  0.93911827  0.88851434  1
  F  F15  1  0.53338065  0.06088173  0.88851434  1
  F  F16  1  0.06088173  0.53338065  0.88851434  1
  F  F17  1  0.93911827  0.46661935  0.88851434  1
  F  F18  1  0.46661935  0.06088173  0.88851434  1
  F  F19  1  0.53338065  0.93911827  0.88851434  1
  F  F20  1  0.93911827  0.53338065  0.11148566  1
  F  F21  1  0.06088173  0.46661935  0.11148566  1
  F  F22  1  0.53338065  0.06088173  0.11148566  1
  F  F23  1  0.46661935  0.93911827  0.11148566  1
  F  F24  1  0.93060602  0.18295341  0.11328266  1
  F  F25  1  0.06939398  0.81704659  0.11328266  1
  F  F26  1  0.81704659  0.93060602  0.11328266  1
  F  F27  1  0.18295341  0.06939398  0.11328266  1
  F  F28  1  0.06939398  0.18295341  0.88671734  1
  F  F29  1  0.93060602  0.81704659  0.88671734  1
  F  F30  1  0.18295341  0.93060602  0.88671734  1
  F  F31  1  0.81704659  0.06939398  0.88671734  1
  F  F32  1  0.06939398  0.81704659  0.88671734  1
  F  F33  1  0.93060602  0.18295341  0.88671734  1
  F  F34  1  0.18295341  0.06939398  0.88671734  1
  F  F35  1  0.81704659  0.93060602  0.88671734  1
  F  F36  1  0.93060602  0.81704659  0.11328266  1
  F  F37  1  0.06939398  0.18295341  0.11328266  1
  F  F38  1  0.81704659  0.06939398  0.11328266  1
  F  F39  1  0.18295341  0.93060602  0.11328266  1
  F  F40  1  0.00000000  0.50000000  0.50000000  1
  F  F41  1  0.50000000  0.00000000  0.50000000  1
  F  F42  1  0.00000000  0.00000000  0.83663956  1
  F  F43  1  0.00000000  0.00000000  0.16336044  1
  F  F44  1  0.50000000  0.50000000  0.00000000  1
  Li  Li45  1  0.36807715  0.88613865  0.24685004  1
  Li  Li46  1  -0.36807715  -0.88613865  0.24685004  1
  Li  Li47  1  -0.88613865  0.36807715  0.24685004  1
  Li  Li48  1  0.88613865  -0.36807715  0.24685004  1
  Li  Li49  1  -0.36807715  0.88613865  -0.24685004  1
  Li  Li50  1  0.36807715  -0.88613865  -0.24685004  1
  Li  Li51  1  0.88613865  0.36807715  -0.24685004  1
  Li  Li52  1  -0.88613865  -0.36807715  -0.24685004  1
  Li  Li53  1  -0.36807715  -0.88613865  -0.24685004  1
  Li  Li54  1  0.36807715  0.88613865  -0.24685004  1
  Li  Li55  1  0.88613865  -0.36807715  -0.24685004  1
  Li  Li56  1  -0.88613865  0.36807715  -0.24685004  1
  Li  Li57  1  0.36807715  -0.88613865  0.24685004  1
  Li  Li58  1  -0.36807715  0.88613865  0.24685004  1
  Li  Li59  1  -0.88613865  -0.36807715  0.24685004  1
  Li  Li60  1  0.88613865  0.36807715  0.24685004  1
  Li  Li61  1  0.50000000  0.50000000  0.13858910  1
  Li  Li62  1  0.50000000  0.50000000  0.86141090  1
  Li  Li63  1  0.10744077  0.10744077  0.16473354  1
  Li  Li64  1  0.89255923  0.89255923  0.16473354  1
  Li  Li65  1  0.89255923  0.10744077  0.16473354  1
  Li  Li66  1  0.10744077  0.89255923  0.16473354  1
  Li  Li67  1  0.89255923  0.10744077  0.83526646  1
  Li  Li68  1  0.10744077  0.89255923  0.83526646  1
  Li  Li69  1  0.10744077  0.10744077  0.83526646  1
  Li  Li70  1  0.89255923  0.89255923  0.83526646  1
  Li  Li71  1  0.00000000  0.50000000  0.00000000  1
  Li  Li72  1  0.50000000  0.00000000  0.00000000  1
  Li  Li73  1  0.15677811  0.76644760  0.38533356  1
  Li  Li74  1  0.84322189  0.23355240  0.38533356  1
  Li  Li75  1  0.23355240  0.15677811  0.38533356  1
  Li  Li76  1  0.76644760  0.84322189  0.38533356  1
  Li  Li77  1  0.84322189  0.76644760  0.61466644  1
  Li  Li78  1  0.15677811  0.23355240  0.61466644  1
  Li  Li79  1  0.76644760  0.15677811  0.61466644  1
  Li  Li80  1  0.23355240  0.84322189  0.61466644  1
  Li  Li81  1  0.84322189  0.23355240  0.61466644  1
  Li  Li82  1  0.15677811  0.76644760  0.61466644  1
  Li  Li83  1  0.76644760  0.84322189  0.61466644  1
  Li  Li84  1  0.23355240  0.15677811  0.61466644  1
  Li  Li85  1  0.15677811  0.23355240  0.38533356  1
  Li  Li86  1  0.84322189  0.76644760  0.38533356  1
  Li  Li87  1  0.23355240  0.84322189  0.38533356  1
  Li  Li88  1  0.76644760  0.15677811  0.38533356  1
  Li  Li89  1  0.00000000  0.00000000  0.00000000  1
