# generated using pymatgen
data_LiF
_symmetry_space_group_name_H-M   'P 1'
_cell_length_a   8.68745457
_cell_length_b   11.68692848
_cell_length_c   8.43854437
_cell_angle_alpha   90.00000000
_cell_angle_beta   90.00000000
_cell_angle_gamma   90.00000000
_symmetry_Int_Tables_number   1
_chemical_formula_structural   LiF
_chemical_formula_sum   'Li24 F24'
_cell_volume   856.76254274
_cell_formula_units_Z   24
loop_
 _symmetry_equiv_pos_site_id
 _symmetry_equiv_pos_as_xyz
  1  'x, y, z'
loop_
 _atom_site_type_symbol
 _atom_site_label
 _atom_site_symmetry_multiplicity
 _atom_site_fract_x
 _atom_site_fract_y
 _atom_site_fract_z
 _atom_site_occupancy
  F  F0  1  0.75172297  0.47298287  0.16739676  1
  F  F1  1  0.74827703  0.52701713  0.66739676  1
  F  F2  1  0.24827703  0.97298287  0.83260324  1
  F  F3  1  0.25172297  0.02701713  0.33260324  1
  F  F4  1  0.24827703  0.52701713  0.83260324  1
  F  F5  1  0.25172297  0.47298287  0.33260324  1
  F  F6  1  0.75172297  0.02701713  0.16739676  1
  F  F7  1  0.74827703  0.97298287  0.66739676  1
  F  F8  1  0.88169056  0.43684253  0.57413500  1
  F  F9  1  0.61830944  0.56315747  0.07413500  1
  F  F10  1  0.11830944  0.93684253  0.42586500  1
  F  F11  1  0.38169056  0.06315747  0.92586500  1
  F  F12  1  0.11830944  0.56315747  0.42586500  1
  F  F13  1  0.38169056  0.43684253  0.92586500  1
  F  F14  1  0.88169056  0.06315747  0.57413500  1
  F  F15  1  0.61830944  0.93684253  0.07413500  1
  F  F16  1  0.52759055  0.61973974  0.51636672  1
  F  F17  1  0.97240945  0.38026026  0.01636672  1
  F  F18  1  0.47240945  0.11973974  0.48363328  1
  F  F19  1  0.02759055  0.88026026  0.98363328  1
  F  F20  1  0.47240945  0.38026026  0.48363328  1
  F  F21  1  0.02759055  0.61973974  0.98363328  1
  F  F22  1  0.52759055  0.88026026  0.51636672  1
  F  F23  1  0.97240945  0.11973974  0.01636672  1
  Li  Li24  1  0.00000000  0.00000000  0.50000000  1
  Li  Li25  1  0.50000000  0.00000000  -0.00000000  1
  Li  Li26  1  0.00000000  0.50000000  0.50000000  1
  Li  Li27  1  0.50000000  0.50000000  -0.00000000  1
  Li  Li28  1  0.00000000  0.00000000  0.00000000  1
  Li  Li29  1  0.50000000  0.00000000  0.50000000  1
  Li  Li30  1  0.00000000  0.50000000  0.00000000  1
  Li  Li31  1  0.50000000  0.50000000  0.50000000  1
  Li  Li32  1  0.50245495  0.25000000  0.43770023  1
  Li  Li33  1  0.99754505  0.75000000  0.93770023  1
  Li  Li34  1  0.49754505  0.75000000  0.56229977  1
  Li  Li35  1  0.00245495  0.25000000  0.06229977  1
  Li  Li36  1  0.18672720  0.87486572  0.38769135  1
  Li  Li37  1  0.31327280  -0.87486572  0.88769135  1
  Li  Li38  1  -0.18672720  1.37486572  -0.38769135  1
  Li  Li39  1  0.68672720  -0.37486572  0.11230865  1
  Li  Li40  1  -0.18672720  -0.87486572  -0.38769135  1
  Li  Li41  1  0.68672720  0.87486572  0.11230865  1
  Li  Li42  1  0.18672720  -0.37486572  0.38769135  1
  Li  Li43  1  0.31327280  1.37486572  0.88769135  1
  Li  Li44  1  0.06881735  0.25000000  0.85719996  1
  Li  Li45  1  0.43118265  0.75000000  0.35719996  1
  Li  Li46  1  0.93118265  0.75000000  0.14280004  1
  Li  Li47  1  0.56881735  0.25000000  0.64280004  1
