# generated using pymatgen
data_LiF
_symmetry_space_group_name_H-M   'P 1'
_cell_length_a   8.51604770
_cell_length_b   8.51604770
_cell_length_c   8.08724025
_cell_angle_alpha   90.00000000
_cell_angle_beta   90.00000000
_cell_angle_gamma   120.00000000
_symmetry_Int_Tables_number   1
_chemical_formula_structural   LiF
_chemical_formula_sum   'Li17 F17'
_cell_volume   507.93383947
_cell_formula_units_Z   17
loop_
 _symmetry_equiv_pos_site_id
 _symmetry_equiv_pos_as_xyz
  1  'x, y, z'
loop_
 _atom_site_type_symbol
 _atom_site_label
 _atom_site_symmetry_multiplicity
 _atom_site_fract_x
 _atom_site_fract_y
 _atom_site_fract_z
 _atom_site_occupancy
  F  F0  1  0.28296654  0.00000000  0.58330971  1
  F  F1  1  0.00000000  0.28296654  0.58330971  1
  F  F2  1  0.71703346  0.71703346  0.58330971  1
  F  F3  1  0.28296654  0.00000000  0.41669029  1
  F  F4  1  0.00000000  0.28296654  0.41669029  1
  F  F5  1  0.71703346  0.71703346  0.41669029  1
  F  F6  1  0.71413222  0.00000000  0.00000000  1
  F  F7  1  0.00000000  0.71413222  0.00000000  1
  F  F8  1  0.28586778  0.28586778  -0.00000000  1
  F  F9  1  0.23041789  0.45842591  0.50000000  1
  F  F10  1  0.54157409  0.77199198  0.50000000  1
  F  F11  1  0.22800802  0.76958211  0.50000000  1
  F  F12  1  0.45842591  0.23041789  0.50000000  1
  F  F13  1  0.77199198  0.54157409  0.50000000  1
  F  F14  1  0.76958211  0.22800802  0.50000000  1
  F  F15  1  0.00000000  0.00000000  0.50000000  1
  F  F16  1  0.00000000  0.00000000  0.00000000  1
  Li  Li17  1  0.33333333  0.66666667  0.00000000  1
  Li  Li18  1  0.66666667  0.33333333  0.00000000  1
  Li  Li19  1  0.33333333  0.66666667  0.50000000  1
  Li  Li20  1  0.66666667  0.33333333  0.50000000  1
  Li  Li21  1  0.39097485  0.00000000  -0.00000000  1
  Li  Li22  1  0.00000000  0.39097485  -0.00000000  1
  Li  Li23  1  0.60902515  0.60902515  0.00000000  1
  Li  Li24  1  0.75750704  0.87387268  0.50000000  1
  Li  Li25  1  0.12612732  0.88363435  0.50000000  1
  Li  Li26  1  0.11636565  0.24249296  0.50000000  1
  Li  Li27  1  0.87387268  0.75750704  0.50000000  1
  Li  Li28  1  0.88363435  0.12612732  0.50000000  1
  Li  Li29  1  0.24249296  0.11636565  0.50000000  1
  Li  Li30  1  0.33333333  0.66666667  0.29733646  1
  Li  Li31  1  0.33333333  0.66666667  0.70266354  1
  Li  Li32  1  0.66666667  0.33333333  0.70266354  1
  Li  Li33  1  0.66666667  0.33333333  0.29733646  1
