# generated using pymatgen
data_LiF
_symmetry_space_group_name_H-M   'P 1'
_cell_length_a   7.14763492
_cell_length_b   7.14763492
_cell_length_c   9.13004453
_cell_angle_alpha   90.00000000
_cell_angle_beta   90.00000000
_cell_angle_gamma   120.00000000
_symmetry_Int_Tables_number   1
_chemical_formula_structural   LiF
_chemical_formula_sum   'Li23 F23'
_cell_volume   403.95059450
_cell_formula_units_Z   23
loop_
 _symmetry_equiv_pos_site_id
 _symmetry_equiv_pos_as_xyz
  1  'x, y, z'
loop_
 _atom_site_type_symbol
 _atom_site_label
 _atom_site_symmetry_multiplicity
 _atom_site_fract_x
 _atom_site_fract_y
 _atom_site_fract_z
 _atom_site_occupancy
  F  F0  1  0.66666667  0.33333333  -0.00000000  1
  F  F1  1  0.93522672  0.85466988  0.09849002  1
  F  F2  1  0.14533012  0.08055683  0.09849002  1
  F  F3  1  0.91944317  0.06477328  0.09849002  1
  F  F4  1  0.14533012  0.06477328  0.90150998  1
  F  F5  1  0.91944317  0.85466988  0.90150998  1
  F  F6  1  0.93522672  0.08055683  0.90150998  1
  F  F7  1  0.66666667  0.33333333  0.50000000  1
  F  F8  1  0.16708227  0.79430052  0.83110684  1
  F  F9  1  0.20569948  0.37278175  0.83110684  1
  F  F10  1  0.62721825  0.83291773  0.83110684  1
  F  F11  1  0.20569948  0.83291773  0.16889316  1
  F  F12  1  0.62721825  0.79430052  0.16889316  1
  F  F13  1  0.16708227  0.37278175  0.16889316  1
  F  F14  1  0.33333333  0.66666667  0.50000000  1
  F  F15  1  0.63114287  0.92889523  0.38133703  1
  F  F16  1  0.07110477  0.70224764  0.38133703  1
  F  F17  1  0.29775236  0.36885713  0.38133703  1
  F  F18  1  0.07110477  0.36885713  0.61866297  1
  F  F19  1  0.29775236  0.92889523  0.61866297  1
  F  F20  1  0.63114287  0.70224764  0.61866297  1
  F  F21  1  0.66666667  0.33333333  0.91774504  1
  F  F22  1  0.66666667  0.33333333  0.08225496  1
  Li  Li23  1  0.37643382  0.03196220  0.36712162  1
  Li  Li24  1  -0.03196220  0.34447162  0.36712162  1
  Li  Li25  1  -0.34447162  -0.37643382  0.36712162  1
  Li  Li26  1  -0.03196220  -0.37643382  -0.36712162  1
  Li  Li27  1  -0.34447162  0.03196220  -0.36712162  1
  Li  Li28  1  0.37643382  0.34447162  -0.36712162  1
  Li  Li29  1  0.33333333  0.66666667  -0.00000000  1
  Li  Li30  1  0.83534494  0.16465506  0.50000000  1
  Li  Li31  1  0.83534494  0.67068988  0.50000000  1
  Li  Li32  1  0.32931012  0.16465506  0.50000000  1
  Li  Li33  1  0.51088772  0.39072637  0.82238866  1
  Li  Li34  1  0.60927363  0.12016136  0.82238866  1
  Li  Li35  1  0.87983864  0.48911228  0.82238866  1
  Li  Li36  1  0.60927363  0.48911228  0.17761134  1
  Li  Li37  1  0.87983864  0.39072637  0.17761134  1
  Li  Li38  1  0.51088772  0.12016136  0.17761134  1
  Li  Li39  1  0.00000000  0.00000000  0.00000000  1
  Li  Li40  1  0.81664375  0.18335625  -0.00000000  1
  Li  Li41  1  0.81664375  0.63328751  0.00000000  1
  Li  Li42  1  0.36671249  0.18335625  0.00000000  1
  Li  Li43  1  0.00000000  0.00000000  0.64949925  1
  Li  Li44  1  0.00000000  0.00000000  0.35050075  1
  Li  Li45  1  0.00000000  0.00000000  0.50000000  1
