# generated using pymatgen
data_LiAs4P2Se
_symmetry_space_group_name_H-M   'P 1'
_cell_length_a   4.37635934
_cell_length_b   4.56576613
_cell_length_c   6.13490210
_cell_angle_alpha   95.72632831
_cell_angle_beta   99.98150201
_cell_angle_gamma   107.00844358
_symmetry_Int_Tables_number   1
_chemical_formula_structural   LiAs4P2Se
_chemical_formula_sum   'Li1 As4 P2 Se1'
_cell_volume   113.96500942
_cell_formula_units_Z   1
loop_
 _symmetry_equiv_pos_site_id
 _symmetry_equiv_pos_as_xyz
  1  'x, y, z'
loop_
 _atom_site_type_symbol
 _atom_site_label
 _atom_site_symmetry_multiplicity
 _atom_site_fract_x
 _atom_site_fract_y
 _atom_site_fract_z
 _atom_site_occupancy
  Se  Se0  1  0.00000000  0.00000000  0.00000000  1
  P  P1  1  0.33300000  0.66700000  0.25000000  1
  P  P2  1  0.66700000  0.33300000  0.50000000  1
  As  As3  1  0.00000000  0.00000000  0.75000000  1
  As  As4  1  0.14143193  0.97084279  0.42232337  1
  As  As5  1  0.39133644  0.73248592  0.16451686  1
  As  As6  1  0.33714347  0.03653109  0.59911996  1
  Li  Li7  1  0.06237818  0.74415314  0.56307526  1
