# generated using pymatgen
data_LiCaF3
_symmetry_space_group_name_H-M   'P 1'
_cell_length_a   7.66596624
_cell_length_b   7.66596624
_cell_length_c   25.97542616
_cell_angle_alpha   90.00000000
_cell_angle_beta   90.00000000
_cell_angle_gamma   120.00000000
_symmetry_Int_Tables_number   1
_chemical_formula_structural   LiCaF3
_chemical_formula_sum   'Li18 Ca18 F54'
_cell_volume   1321.98679577
_cell_formula_units_Z   18
loop_
 _symmetry_equiv_pos_site_id
 _symmetry_equiv_pos_as_xyz
  1  'x, y, z'
loop_
 _atom_site_type_symbol
 _atom_site_label
 _atom_site_symmetry_multiplicity
 _atom_site_fract_x
 _atom_site_fract_y
 _atom_site_fract_z
 _atom_site_occupancy
  Ca  Ca0  1  0.22283448  0.41869140  0.00000000  1
  Ca  Ca1  1  0.58130860  0.80414308  0.00000000  1
  Ca  Ca2  1  0.19585692  0.77716552  0.00000000  1
  Ca  Ca3  1  0.41869140  0.22283448  0.00000000  1
  Ca  Ca4  1  0.80414308  0.58130860  0.00000000  1
  Ca  Ca5  1  0.77716552  0.19585692  0.00000000  1
  Ca  Ca6  1  0.66012065  0.00000000  0.43276278  1
  Ca  Ca7  1  0.00000000  0.66012065  0.43276278  1
  Ca  Ca8  1  0.33987935  0.33987935  0.43276278  1
  Ca  Ca9  1  0.66012065  0.00000000  0.56723722  1
  Ca  Ca10  1  0.00000000  0.66012065  0.56723722  1
  Ca  Ca11  1  0.33987935  0.33987935  0.56723722  1
  Ca  Ca12  1  0.42806165  0.00000000  0.42570751  1
  Ca  Ca13  1  0.00000000  0.42806165  0.42570751  1
  Ca  Ca14  1  0.57193835  0.57193835  0.42570751  1
  Ca  Ca15  1  0.42806165  0.00000000  0.57429249  1
  Ca  Ca16  1  0.00000000  0.42806165  0.57429249  1
  Ca  Ca17  1  0.57193835  0.57193835  0.57429249  1
  F  F18  1  0.91198536  0.06936941  0.86496211  1
  F  F19  1  -0.06936941  0.84261595  0.86496211  1
  F  F20  1  -0.84261595  -0.91198536  0.86496211  1
  F  F21  1  0.91198536  0.06936941  -0.86496211  1
  F  F22  1  -0.06936941  0.84261595  -0.86496211  1
  F  F23  1  -0.84261595  -0.91198536  -0.86496211  1
  F  F24  1  0.06936941  0.91198536  -0.86496211  1
  F  F25  1  0.84261595  -0.06936941  -0.86496211  1
  F  F26  1  -0.91198536  -0.84261595  -0.86496211  1
  F  F27  1  0.06936941  0.91198536  0.86496211  1
  F  F28  1  0.84261595  -0.06936941  0.86496211  1
  F  F29  1  -0.91198536  -0.84261595  0.86496211  1
  F  F30  1  0.18227101  0.08437256  0.50000000  1
  F  F31  1  0.91562744  0.09789845  0.50000000  1
  F  F32  1  0.90210155  0.81772899  0.50000000  1
  F  F33  1  0.08437256  0.18227101  0.50000000  1
  F  F34  1  0.09789845  0.91562744  0.50000000  1
  F  F35  1  0.81772899  0.90210155  0.50000000  1
  F  F36  1  0.77055257  0.59085816  0.15764019  1
  F  F37  1  0.40914184  0.17969441  0.15764019  1
  F  F38  1  0.82030559  0.22944743  0.15764019  1
  F  F39  1  0.77055257  0.59085816  0.84235981  1
  F  F40  1  0.40914184  0.17969441  0.84235981  1
  F  F41  1  0.82030559  0.22944743  0.84235981  1
  F  F42  1  0.59085816  0.77055257  0.84235981  1
  F  F43  1  0.17969441  0.40914184  0.84235981  1
  F  F44  1  0.22944743  0.82030559  0.84235981  1
  F  F45  1  0.59085816  0.77055257  0.15764019  1
  F  F46  1  0.17969441  0.40914184  0.15764019  1
  F  F47  1  0.22944743  0.82030559  0.15764019  1
  F  F48  1  0.33333333  0.66666667  0.00000000  1
  F  F49  1  0.66666667  0.33333333  0.00000000  1
  F  F50  1  0.56651920  0.37962341  0.61121766  1
  F  F51  1  0.62037659  0.18689578  0.61121766  1
  F  F52  1  0.81310422  0.43348080  0.61121766  1
  F  F53  1  0.56651920  0.37962341  0.38878234  1
  F  F54  1  0.62037659  0.18689578  0.38878234  1
  F  F55  1  0.81310422  0.43348080  0.38878234  1
  F  F56  1  0.37962341  0.56651920  0.38878234  1
  F  F57  1  0.18689578  0.62037659  0.38878234  1
  F  F58  1  0.43348080  0.81310422  0.38878234  1
  F  F59  1  0.37962341  0.56651920  0.61121766  1
  F  F60  1  0.18689578  0.62037659  0.61121766  1
  F  F61  1  0.43348080  0.81310422  0.61121766  1
  F  F62  1  0.00000000  0.00000000  0.13690514  1
  F  F63  1  0.00000000  0.00000000  0.86309486  1
  F  F64  1  0.00000000  0.00000000  0.37208943  1
  F  F65  1  0.00000000  0.00000000  0.62791057  1
  F  F66  1  0.33333333  0.66666667  0.07595275  1
  F  F67  1  0.33333333  0.66666667  0.92404725  1
  F  F68  1  0.66666667  0.33333333  0.92404725  1
  F  F69  1  0.66666667  0.33333333  0.07595275  1
  F  F70  1  0.33333333  0.66666667  0.50000000  1
  F  F71  1  0.66666667  0.33333333  0.50000000  1
  Li  Li72  1  0.15896073  0.63702156  0.89052427  1
  Li  Li73  1  0.36297844  0.52193917  0.89052427  1
  Li  Li74  1  0.47806083  0.84103927  0.89052427  1
  Li  Li75  1  0.15896073  0.63702156  0.10947573  1
  Li  Li76  1  0.36297844  0.52193917  0.10947573  1
  Li  Li77  1  0.47806083  0.84103927  0.10947573  1
  Li  Li78  1  0.63702156  0.15896073  0.10947573  1
  Li  Li79  1  0.52193917  0.36297844  0.10947573  1
  Li  Li80  1  0.84103927  0.47806083  0.10947573  1
  Li  Li81  1  0.63702156  0.15896073  0.89052427  1
  Li  Li82  1  0.52193917  0.36297844  0.89052427  1
  Li  Li83  1  0.84103927  0.47806083  0.89052427  1
  Li  Li84  1  0.42294379  0.00000000  0.10309339  1
  Li  Li85  1  0.00000000  0.42294379  0.10309339  1
  Li  Li86  1  0.57705621  0.57705621  0.10309339  1
  Li  Li87  1  0.42294379  0.00000000  0.89690661  1
  Li  Li88  1  0.00000000  0.42294379  0.89690661  1
  Li  Li89  1  0.57705621  0.57705621  0.89690661  1
