# generated using pymatgen
data_LiF
_symmetry_space_group_name_H-M   'P 1'
_cell_length_a   15.63513455
_cell_length_b   15.63513455
_cell_length_c   2.33292390
_cell_angle_alpha   90.00000000
_cell_angle_beta   90.00000000
_cell_angle_gamma   120.00000000
_symmetry_Int_Tables_number   1
_chemical_formula_structural   LiF
_chemical_formula_sum   'Li18 F18'
_cell_volume   493.89479633
_cell_formula_units_Z   18
loop_
 _symmetry_equiv_pos_site_id
 _symmetry_equiv_pos_as_xyz
  1  'x, y, z'
loop_
 _atom_site_type_symbol
 _atom_site_label
 _atom_site_symmetry_multiplicity
 _atom_site_fract_x
 _atom_site_fract_y
 _atom_site_fract_z
 _atom_site_occupancy
  F  F0  1  0.78586354  0.00000000  0.00000000  1
  F  F1  1  0.00000000  0.78586354  0.00000000  1
  F  F2  1  0.21413646  0.21413646  0.00000000  1
  F  F3  1  0.00000000  0.00000000  0.00000000  1
  F  F4  1  0.14637873  0.00000000  0.00000000  1
  F  F5  1  0.00000000  0.14637873  0.00000000  1
  F  F6  1  0.85362127  0.85362127  0.00000000  1
  F  F7  1  0.33333333  0.66666667  0.00000000  1
  F  F8  1  0.66666667  0.33333333  0.00000000  1
  F  F9  1  0.25333046  0.53205814  0.00000000  1
  F  F10  1  0.46794186  0.72127231  0.00000000  1
  F  F11  1  0.27872769  0.74666954  0.00000000  1
  F  F12  1  0.53205814  0.25333046  0.00000000  1
  F  F13  1  0.72127231  0.46794186  0.00000000  1
  F  F14  1  0.74666954  0.27872769  0.00000000  1
  F  F15  1  0.44235793  -0.00000000  0.50000000  1
  F  F16  1  0.00000000  0.44235793  0.50000000  1
  F  F17  1  0.55764207  0.55764207  0.50000000  1
  Li  Li18  1  0.73042166  0.15981442  0.00000000  1
  Li  Li19  1  0.84018558  0.57060724  0.00000000  1
  Li  Li20  1  0.42939276  0.26957834  0.00000000  1
  Li  Li21  1  0.15981442  0.73042166  -0.00000000  1
  Li  Li22  1  0.57060724  0.84018558  -0.00000000  1
  Li  Li23  1  0.26957834  0.42939276  0.00000000  1
  Li  Li24  1  0.00000000  0.00000000  0.50000000  1
  Li  Li25  1  0.27067224  0.00000000  0.00000000  1
  Li  Li26  1  0.00000000  0.27067224  0.00000000  1
  Li  Li27  1  0.72932776  0.72932776  0.00000000  1
  Li  Li28  1  0.08593894  0.81412093  0.00000000  1
  Li  Li29  1  0.18587907  0.27181801  0.00000000  1
  Li  Li30  1  0.72818199  0.91406106  0.00000000  1
  Li  Li31  1  0.81412093  0.08593894  0.00000000  1
  Li  Li32  1  0.27181801  0.18587907  0.00000000  1
  Li  Li33  1  0.91406106  0.72818199  -0.00000000  1
  Li  Li34  1  0.33333333  0.66666667  0.50000000  1
  Li  Li35  1  0.66666667  0.33333333  0.50000000  1
