# generated using pymatgen
data_Li2YTe4As2P3
_symmetry_space_group_name_H-M   'P 1'
_cell_length_a   5.40218394
_cell_length_b   5.54587021
_cell_length_c   7.18869672
_cell_angle_alpha   94.76151731
_cell_angle_beta   100.03738823
_cell_angle_gamma   107.51070632
_symmetry_Int_Tables_number   1
_chemical_formula_structural   Li2YTe4As2P3
_chemical_formula_sum   'Li2 Y1 Te4 As2 P3'
_cell_volume   200.13319917
_cell_formula_units_Z   1
loop_
 _symmetry_equiv_pos_site_id
 _symmetry_equiv_pos_as_xyz
  1  'x, y, z'
loop_
 _atom_site_type_symbol
 _atom_site_label
 _atom_site_symmetry_multiplicity
 _atom_site_fract_x
 _atom_site_fract_y
 _atom_site_fract_z
 _atom_site_occupancy
  Te  Te0  1  0.00000000  0.00000000  0.00000000  1
  Te  Te1  1  0.50000000  0.50000000  0.50000000  1
  Te  Te2  1  0.25000000  0.25000000  0.25000000  1
  Te  Te3  1  0.75000000  0.25000000  0.00000000  1
  P  P4  1  0.25000000  0.75000000  0.50000000  1
  P  P5  1  0.30827496  0.69842200  0.67659162  1
  P  P6  1  0.31871252  0.85781567  0.66806112  1
  As  As7  1  0.41883092  0.41980435  0.76276503  1
  As  As8  1  0.96971400  0.24645281  0.90374036  1
  Li  Li9  1  0.49353153  0.74767105  0.27497567  1
  Li  Li10  1  0.27879597  0.83141300  0.51734987  1
  Y  Y11  1  0.65201381  0.11629004  0.87445147  1
