# generated using pymatgen
data_LiF
_symmetry_space_group_name_H-M   'P 1'
_cell_length_a   9.76240999
_cell_length_b   4.75556258
_cell_length_c   4.87881883
_cell_angle_alpha   90.00000000
_cell_angle_beta   90.00000000
_cell_angle_gamma   90.00000000
_symmetry_Int_Tables_number   1
_chemical_formula_structural   LiF
_chemical_formula_sum   'Li8 F8'
_cell_volume   226.50283123
_cell_formula_units_Z   8
loop_
 _symmetry_equiv_pos_site_id
 _symmetry_equiv_pos_as_xyz
  1  'x, y, z'
loop_
 _atom_site_type_symbol
 _atom_site_label
 _atom_site_symmetry_multiplicity
 _atom_site_fract_x
 _atom_site_fract_y
 _atom_site_fract_z
 _atom_site_occupancy
  F  F0  1  0.00000000  0.50000000  0.00000000  1
  F  F1  1  0.50000000  0.00000000  0.50000000  1
  F  F2  1  0.76239414  0.48498572  0.00000000  1
  F  F3  1  0.23760586  0.51501428  0.00000000  1
  F  F4  1  0.73760586  0.98498572  0.50000000  1
  F  F5  1  0.26239414  0.01501428  0.50000000  1
  F  F6  1  0.00000000  0.50000000  0.50000000  1
  F  F7  1  0.50000000  0.00000000  0.00000000  1
  Li  Li8  1  0.68325243  0.06387154  0.70522169  1
  Li  Li9  1  -0.68325243  -0.06387154  0.70522169  1
  Li  Li10  1  -0.18325243  0.56387154  -0.20522169  1
  Li  Li11  1  1.18325243  0.43612846  -0.20522169  1
  Li  Li12  1  -0.68325243  -0.06387154  -0.70522169  1
  Li  Li13  1  0.68325243  0.06387154  -0.70522169  1
  Li  Li14  1  1.18325243  0.43612846  1.20522169  1
  Li  Li15  1  -0.18325243  0.56387154  1.20522169  1
