# generated using pymatgen
data_LiF
_symmetry_space_group_name_H-M   'P 1'
_cell_length_a   3.79935091
_cell_length_b   3.79935091
_cell_length_c   14.06248603
_cell_angle_alpha   90.00000000
_cell_angle_beta   90.00000000
_cell_angle_gamma   120.00000000
_symmetry_Int_Tables_number   1
_chemical_formula_structural   LiF
_chemical_formula_sum   'Li12 F12'
_cell_volume   175.79703647
_cell_formula_units_Z   12
loop_
 _symmetry_equiv_pos_site_id
 _symmetry_equiv_pos_as_xyz
  1  'x, y, z'
loop_
 _atom_site_type_symbol
 _atom_site_label
 _atom_site_symmetry_multiplicity
 _atom_site_fract_x
 _atom_site_fract_y
 _atom_site_fract_z
 _atom_site_occupancy
  F  F0  1  0.33333333  0.66666667  0.89464835  1
  F  F1  1  0.33333333  0.66666667  0.10535165  1
  F  F2  1  0.66666667  0.33333333  0.10535165  1
  F  F3  1  0.66666667  0.33333333  0.89464835  1
  F  F4  1  0.33333333  0.66666667  0.00000000  1
  F  F5  1  0.66666667  0.33333333  0.00000000  1
  F  F6  1  0.00000000  0.00000000  0.42405879  1
  F  F7  1  0.00000000  0.00000000  0.57594121  1
  F  F8  1  0.33333333  0.66666667  0.68855704  1
  F  F9  1  0.33333333  0.66666667  0.31144296  1
  F  F10  1  0.66666667  0.33333333  0.31144296  1
  F  F11  1  0.66666667  0.33333333  0.68855704  1
  Li  Li12  1  0.00000000  0.00000000  0.00000000  1
  Li  Li13  1  0.00000000  0.00000000  0.20849171  1
  Li  Li14  1  0.00000000  0.00000000  0.79150829  1
  Li  Li15  1  0.33481319  0.00000000  0.90808790  1
  Li  Li16  1  0.00000000  0.33481319  0.90808790  1
  Li  Li17  1  -0.33481319  -0.33481319  0.90808790  1
  Li  Li18  1  0.33481319  0.00000000  -0.90808790  1
  Li  Li19  1  0.00000000  0.33481319  -0.90808790  1
  Li  Li20  1  -0.33481319  -0.33481319  -0.90808790  1
  Li  Li21  1  0.59124189  -0.00000000  0.50000000  1
  Li  Li22  1  0.00000000  0.59124189  0.50000000  1
  Li  Li23  1  0.40875811  0.40875811  0.50000000  1
