# generated using pymatgen
data_Li2Y2TiP2O
_symmetry_space_group_name_H-M   'P 1'
_cell_length_a   6.62287564
_cell_length_b   7.33440653
_cell_length_c   7.12226646
_cell_angle_alpha   92.93342254
_cell_angle_beta   96.38838445
_cell_angle_gamma   101.78239248
_symmetry_Int_Tables_number   1
_chemical_formula_structural   Li2Y2TiP2O
_chemical_formula_sum   'Li2 Y2 Ti1 P2 O1'
_cell_volume   335.59839328
_cell_formula_units_Z   1
loop_
 _symmetry_equiv_pos_site_id
 _symmetry_equiv_pos_as_xyz
  1  'x, y, z'
loop_
 _atom_site_type_symbol
 _atom_site_label
 _atom_site_symmetry_multiplicity
 _atom_site_fract_x
 _atom_site_fract_y
 _atom_site_fract_z
 _atom_site_occupancy
  Y  Y0  1  0.00000000  0.00000000  0.00000000  1
  Y  Y1  1  0.50000000  0.50000000  0.50000000  1
  P  P2  1  0.50000000  0.50000000  0.00000000  1
  P  P3  1  0.50000000  0.00000000  0.50000000  1
  Ti  Ti4  1  0.00000000  0.50000000  0.50000000  1
  O  O5  1  0.88125476  0.42975444  0.57055455  1
  Li  Li6  1  0.16329300  0.47236426  0.39927643  1
  Li  Li7  1  0.37660368  0.84179395  0.37175163  1
