# generated using pymatgen
data_Li2Si4Te3F12
_symmetry_space_group_name_H-M   'P 1'
_cell_length_a   11.76110059
_cell_length_b   8.91042062
_cell_length_c   14.98530497
_cell_angle_alpha   90.00000000
_cell_angle_beta   90.00000000
_cell_angle_gamma   90.00000000
_symmetry_Int_Tables_number   1
_chemical_formula_structural   Li2Si4Te3F12
_chemical_formula_sum   'Li8 Si16 Te12 F48'
_cell_volume   1570.40531260
_cell_formula_units_Z   4
loop_
 _symmetry_equiv_pos_site_id
 _symmetry_equiv_pos_as_xyz
  1  'x, y, z'
loop_
 _atom_site_type_symbol
 _atom_site_label
 _atom_site_symmetry_multiplicity
 _atom_site_fract_x
 _atom_site_fract_y
 _atom_site_fract_z
 _atom_site_occupancy
  F  F0  1  0.52950652  0.20774572  0.10410348  1
  F  F1  1  -0.52950652  -0.20774572  0.10410348  1
  F  F2  1  -0.02950652  0.70774572  -0.10410348  1
  F  F3  1  1.02950652  0.29225428  -0.10410348  1
  F  F4  1  -0.52950652  -0.20774572  -0.10410348  1
  F  F5  1  0.52950652  0.20774572  -0.10410348  1
  F  F6  1  1.02950652  0.29225428  0.10410348  1
  F  F7  1  -0.02950652  0.70774572  0.10410348  1
  F  F8  1  0.70432977  0.55855640  0.50000000  1
  F  F9  1  0.29567023  0.44144360  0.50000000  1
  F  F10  1  0.79567023  0.05855640  0.50000000  1
  F  F11  1  0.20432977  0.94144360  0.50000000  1
  F  F12  1  0.75291491  0.31119026  0.21357521  1
  F  F13  1  0.24708509  0.68880974  0.21357521  1
  F  F14  1  0.74708509  0.81119026  0.78642479  1
  F  F15  1  0.25291491  0.18880974  0.78642479  1
  F  F16  1  0.24708509  0.68880974  0.78642479  1
  F  F17  1  0.75291491  0.31119026  0.78642479  1
  F  F18  1  0.25291491  0.18880974  0.21357521  1
  F  F19  1  0.74708509  0.81119026  0.21357521  1
  F  F20  1  0.00000000  0.50000000  0.64078503  1
  F  F21  1  0.50000000  0.00000000  0.35921497  1
  F  F22  1  0.00000000  0.50000000  0.35921497  1
  F  F23  1  0.50000000  0.00000000  0.64078503  1
  F  F24  1  0.37230261  0.71562166  0.07379066  1
  F  F25  1  0.62769739  0.28437834  0.07379066  1
  F  F26  1  0.12769739  0.21562166  0.92620934  1
  F  F27  1  0.87230261  0.78437834  0.92620934  1
  F  F28  1  0.62769739  0.28437834  0.92620934  1
  F  F29  1  0.37230261  0.71562166  0.92620934  1
  F  F30  1  0.87230261  0.78437834  0.07379066  1
  F  F31  1  0.12769739  0.21562166  0.07379066  1
  F  F32  1  0.10865600  0.50597647  0.28378869  1
  F  F33  1  0.89134400  0.49402353  0.28378869  1
  F  F34  1  0.39134400  0.00597647  0.71621131  1
  F  F35  1  0.60865600  0.99402353  0.71621131  1
  F  F36  1  0.89134400  0.49402353  0.71621131  1
  F  F37  1  0.10865600  0.50597647  0.71621131  1
  F  F38  1  0.60865600  0.99402353  0.28378869  1
  F  F39  1  0.39134400  0.00597647  0.28378869  1
  F  F40  1  0.57677053  0.42981435  0.84682852  1
  F  F41  1  0.42322947  0.57018565  0.84682852  1
  F  F42  1  0.92322947  0.92981435  0.15317148  1
  F  F43  1  0.07677053  0.07018565  0.15317148  1
  F  F44  1  0.42322947  0.57018565  0.15317148  1
  F  F45  1  0.57677053  0.42981435  0.15317148  1
  F  F46  1  0.07677053  0.07018565  0.84682852  1
  F  F47  1  0.92322947  0.92981435  0.84682852  1
  Li  Li48  1  0.63498110  0.15713686  -0.00000000  1
  Li  Li49  1  0.36501890  0.84286314  -0.00000000  1
  Li  Li50  1  0.86501890  0.65713686  0.00000000  1
  Li  Li51  1  0.13498110  0.34286314  0.00000000  1
  Li  Li52  1  0.00000000  0.00000000  0.76191392  1
  Li  Li53  1  0.50000000  0.50000000  0.23808608  1
  Li  Li54  1  0.00000000  0.00000000  0.23808608  1
  Li  Li55  1  0.50000000  0.50000000  0.76191392  1
  Si  Si56  1  0.00000000  0.50000000  0.00000000  1
  Si  Si57  1  0.50000000  0.00000000  0.00000000  1
  Si  Si58  1  0.53063580  0.32934364  -0.00000000  1
  Si  Si59  1  0.46936420  0.67065636  0.00000000  1
  Si  Si60  1  0.96936420  0.82934364  0.00000000  1
  Si  Si61  1  0.03063580  0.17065636  -0.00000000  1
  Si  Si62  1  0.00000000  0.50000000  0.15949263  1
  Si  Si63  1  0.50000000  0.00000000  0.84050737  1
  Si  Si64  1  0.00000000  0.50000000  0.84050737  1
  Si  Si65  1  0.50000000  0.00000000  0.15949263  1
  Si  Si66  1  0.00000000  0.50000000  0.50000000  1
  Si  Si67  1  0.50000000  0.00000000  0.50000000  1
  Si  Si68  1  0.00000000  0.00000000  0.00000000  1
  Si  Si69  1  0.50000000  0.50000000  0.00000000  1
  Si  Si70  1  0.00000000  0.00000000  0.50000000  1
  Si  Si71  1  0.50000000  0.50000000  0.50000000  1
  Te  Te72  1  0.44050727  0.30718137  0.24670027  1
  Te  Te73  1  0.55949273  0.69281863  0.24670027  1
  Te  Te74  1  0.05949273  0.80718137  0.75329973  1
  Te  Te75  1  0.94050727  0.19281863  0.75329973  1
  Te  Te76  1  0.55949273  0.69281863  0.75329973  1
  Te  Te77  1  0.44050727  0.30718137  0.75329973  1
  Te  Te78  1  0.94050727  0.19281863  0.24670027  1
  Te  Te79  1  0.05949273  0.80718137  0.24670027  1
  Te  Te80  1  0.96430098  0.36104265  0.00000000  1
  Te  Te81  1  0.03569902  0.63895735  0.00000000  1
  Te  Te82  1  0.53569902  0.86104265  0.00000000  1
  Te  Te83  1  0.46430098  0.13895735  -0.00000000  1
