# generated using pymatgen
data_Li3TiSe2O
_symmetry_space_group_name_H-M   'P 1'
_cell_length_a   5.61520376
_cell_length_b   5.12865071
_cell_length_c   6.68789500
_cell_angle_alpha   103.55023817
_cell_angle_beta   101.12453425
_cell_angle_gamma   99.97114120
_symmetry_Int_Tables_number   1
_chemical_formula_structural   Li3TiSe2O
_chemical_formula_sum   'Li3 Ti1 Se2 O1'
_cell_volume   178.84321437
_cell_formula_units_Z   1
loop_
 _symmetry_equiv_pos_site_id
 _symmetry_equiv_pos_as_xyz
  1  'x, y, z'
loop_
 _atom_site_type_symbol
 _atom_site_label
 _atom_site_symmetry_multiplicity
 _atom_site_fract_x
 _atom_site_fract_y
 _atom_site_fract_z
 _atom_site_occupancy
  Se  Se0  1  0.12500000  0.12500000  0.12500000  1
  Se  Se1  1  0.50000000  0.50000000  0.50000000  1
  Ti  Ti2  1  0.25000000  0.25000000  0.25000000  1
  O  O3  1  0.75000000  0.75000000  0.75000000  1
  Li  Li4  1  0.66683726  0.56905864  0.78726408  1
  Li  Li5  1  0.15827924  0.76262621  0.50617901  1
  Li  Li6  1  0.87622198  0.85574719  0.66088411  1
