# generated using pymatgen
data_LiF
_symmetry_space_group_name_H-M   'P 1'
_cell_length_a   14.31592455
_cell_length_b   14.31592455
_cell_length_c   6.86879336
_cell_angle_alpha   90.00000000
_cell_angle_beta   90.00000000
_cell_angle_gamma   120.00000000
_symmetry_Int_Tables_number   1
_chemical_formula_structural   LiF
_chemical_formula_sum   'Li53 F53'
_cell_volume   1219.12962459
_cell_formula_units_Z   53
loop_
 _symmetry_equiv_pos_site_id
 _symmetry_equiv_pos_as_xyz
  1  'x, y, z'
loop_
 _atom_site_type_symbol
 _atom_site_label
 _atom_site_symmetry_multiplicity
 _atom_site_fract_x
 _atom_site_fract_y
 _atom_site_fract_z
 _atom_site_occupancy
  F  F0  1  0.21872338  0.24844399  0.51191006  1
  F  F1  1  0.75155601  0.97027939  0.51191006  1
  F  F2  1  0.02972061  0.78127662  0.51191006  1
  F  F3  1  0.75155601  0.78127662  0.48808994  1
  F  F4  1  0.02972061  0.24844399  0.48808994  1
  F  F5  1  0.21872338  0.97027939  0.48808994  1
  F  F6  1  0.47060058  0.81092664  0.87702917  1
  F  F7  1  0.18907336  0.65967394  0.87702917  1
  F  F8  1  0.34032606  0.52939942  0.87702917  1
  F  F9  1  0.18907336  0.52939942  0.12297083  1
  F  F10  1  0.34032606  0.81092664  0.12297083  1
  F  F11  1  0.47060058  0.65967394  0.12297083  1
  F  F12  1  0.66666667  0.33333333  0.00000000  1
  F  F13  1  0.36756361  0.97178823  0.18169570  1
  F  F14  1  0.02821177  0.39577537  0.18169570  1
  F  F15  1  0.60422463  0.63243639  0.18169570  1
  F  F16  1  0.02821177  0.63243639  0.81830430  1
  F  F17  1  0.60422463  0.97178823  0.81830430  1
  F  F18  1  0.36756361  0.39577537  0.81830430  1
  F  F19  1  0.04885970  0.88348283  0.32128937  1
  F  F20  1  0.11651717  0.16537686  0.32128937  1
  F  F21  1  0.83462314  0.95114030  0.32128937  1
  F  F22  1  0.11651717  0.95114030  0.67871063  1
  F  F23  1  0.83462314  0.88348283  0.67871063  1
  F  F24  1  0.04885970  0.16537686  0.67871063  1
  F  F25  1  0.80955722  0.63617755  0.45744734  1
  F  F26  1  0.36382245  0.17337967  0.45744734  1
  F  F27  1  0.82662033  0.19044278  0.45744734  1
  F  F28  1  0.36382245  0.19044278  0.54255266  1
  F  F29  1  0.82662033  0.63617755  0.54255266  1
  F  F30  1  0.80955722  0.17337967  0.54255266  1
  F  F31  1  0.51841893  0.87140024  0.64883716  1
  F  F32  1  0.12859976  0.64701869  0.64883716  1
  F  F33  1  0.35298131  0.48158107  0.64883716  1
  F  F34  1  0.12859976  0.48158107  0.35116284  1
  F  F35  1  0.35298131  0.87140024  0.35116284  1
  F  F36  1  0.51841893  0.64701869  0.35116284  1
  F  F37  1  0.65047190  0.59466568  0.66646051  1
  F  F38  1  0.40533432  0.05580622  0.66646051  1
  F  F39  1  0.94419378  0.34952810  0.66646051  1
  F  F40  1  0.40533432  0.34952810  0.33353949  1
  F  F41  1  0.94419378  0.59466568  0.33353949  1
  F  F42  1  0.65047190  0.05580622  0.33353949  1
  F  F43  1  0.09852911  0.83223357  0.82604815  1
  F  F44  1  0.16776643  0.26629555  0.82604815  1
  F  F45  1  0.73370445  0.90147089  0.82604815  1
  F  F46  1  0.16776643  0.90147089  0.17395185  1
  F  F47  1  0.73370445  0.83223357  0.17395185  1
  F  F48  1  0.09852911  0.26629555  0.17395185  1
  F  F49  1  0.23805954  0.76194046  0.00000000  1
  F  F50  1  0.23805954  0.47611907  -0.00000000  1
  F  F51  1  0.52388093  0.76194046  0.00000000  1
  F  F52  1  0.00000000  0.00000000  0.50000000  1
  Li  Li53  1  0.50595867  0.96244652  0.30237116  1
  Li  Li54  1  -0.96244652  -0.45648786  0.30237116  1
  Li  Li55  1  0.45648786  -0.50595867  0.30237116  1
  Li  Li56  1  -0.96244652  -0.50595867  -0.30237116  1
  Li  Li57  1  0.45648786  0.96244652  -0.30237116  1
  Li  Li58  1  0.50595867  -0.45648786  -0.30237116  1
  Li  Li59  1  0.66666667  0.33333333  0.50000000  1
  Li  Li60  1  0.42052956  0.05576610  0.27992248  1
  Li  Li61  1  0.94423390  0.36476346  0.27992248  1
  Li  Li62  1  0.63523654  0.57947044  0.27992248  1
  Li  Li63  1  0.94423390  0.57947044  0.72007752  1
  Li  Li64  1  0.63523654  0.05576610  0.72007752  1
  Li  Li65  1  0.42052956  0.36476346  0.72007752  1
  Li  Li66  1  0.33333333  0.66666667  0.00000000  1
  Li  Li67  1  0.59149065  0.75556670  0.29110457  1
  Li  Li68  1  0.24443330  0.83592395  0.29110457  1
  Li  Li69  1  0.16407605  0.40850935  0.29110457  1
  Li  Li70  1  0.24443330  0.40850935  0.70889543  1
  Li  Li71  1  0.16407605  0.75556670  0.70889543  1
  Li  Li72  1  0.59149065  0.83592395  0.70889543  1
  Li  Li73  1  0.00000000  0.00000000  0.70619456  1
  Li  Li74  1  0.00000000  0.00000000  0.29380544  1
  Li  Li75  1  0.33333333  0.66666667  0.50000000  1
  Li  Li76  1  0.79262842  0.36319365  0.78033873  1
  Li  Li77  1  0.63680635  0.42943476  0.78033873  1
  Li  Li78  1  0.57056524  0.20737158  0.78033873  1
  Li  Li79  1  0.63680635  0.20737158  0.21966127  1
  Li  Li80  1  0.57056524  0.36319365  0.21966127  1
  Li  Li81  1  0.79262842  0.42943476  0.21966127  1
  Li  Li82  1  0.11654541  0.87772196  0.64761523  1
  Li  Li83  1  0.12227804  0.23882345  0.64761523  1
  Li  Li84  1  0.76117655  0.88345459  0.64761523  1
  Li  Li85  1  0.12227804  0.88345459  0.35238477  1
  Li  Li86  1  0.76117655  0.87772196  0.35238477  1
  Li  Li87  1  0.11654541  0.23882345  0.35238477  1
  Li  Li88  1  0.13797502  0.16836271  0.84911376  1
  Li  Li89  1  0.83163729  0.96961231  0.84911376  1
  Li  Li90  1  0.03038769  0.86202498  0.84911376  1
  Li  Li91  1  0.83163729  0.86202498  0.15088624  1
  Li  Li92  1  0.03038769  0.16836271  0.15088624  1
  Li  Li93  1  0.13797502  0.96961231  0.15088624  1
  Li  Li94  1  0.44647337  0.55352663  0.00000000  1
  Li  Li95  1  0.44647337  0.89294674  0.00000000  1
  Li  Li96  1  0.10705326  0.55352663  -0.00000000  1
  Li  Li97  1  0.00000000  0.00000000  0.00000000  1
  Li  Li98  1  0.97529227  0.69751721  0.82039036  1
  Li  Li99  1  0.30248279  0.27777505  0.82039036  1
  Li  Li100  1  0.72222495  0.02470773  0.82039036  1
  Li  Li101  1  0.30248279  0.02470773  0.17960964  1
  Li  Li102  1  0.72222495  0.69751721  0.17960964  1
  Li  Li103  1  0.97529227  0.27777505  0.17960964  1
  Li  Li104  1  0.66666667  0.33333333  0.79935332  1
  Li  Li105  1  0.66666667  0.33333333  0.20064668  1
