# generated using pymatgen
data_LiF
_symmetry_space_group_name_H-M   'P 1'
_cell_length_a   9.62699919
_cell_length_b   9.62699919
_cell_length_c   10.12502446
_cell_angle_alpha   90.00000000
_cell_angle_beta   90.00000000
_cell_angle_gamma   90.00000000
_symmetry_Int_Tables_number   1
_chemical_formula_structural   LiF
_chemical_formula_sum   'Li38 F38'
_cell_volume   938.37828969
_cell_formula_units_Z   38
loop_
 _symmetry_equiv_pos_site_id
 _symmetry_equiv_pos_as_xyz
  1  'x, y, z'
loop_
 _atom_site_type_symbol
 _atom_site_label
 _atom_site_symmetry_multiplicity
 _atom_site_fract_x
 _atom_site_fract_y
 _atom_site_fract_z
 _atom_site_occupancy
  F  F0  1  0.46510503  0.90985563  0.80366954  1
  F  F1  1  0.53489497  0.09014437  0.80366954  1
  F  F2  1  0.09014437  0.46510503  0.80366954  1
  F  F3  1  0.90985563  0.53489497  0.80366954  1
  F  F4  1  0.53489497  0.90985563  0.19633046  1
  F  F5  1  0.46510503  0.09014437  0.19633046  1
  F  F6  1  0.90985563  0.46510503  0.19633046  1
  F  F7  1  0.09014437  0.53489497  0.19633046  1
  F  F8  1  0.53489497  0.09014437  0.19633046  1
  F  F9  1  0.46510503  0.90985563  0.19633046  1
  F  F10  1  0.90985563  0.53489497  0.19633046  1
  F  F11  1  0.09014437  0.46510503  0.19633046  1
  F  F12  1  0.46510503  0.09014437  0.80366954  1
  F  F13  1  0.53489497  0.90985563  0.80366954  1
  F  F14  1  0.09014437  0.53489497  0.80366954  1
  F  F15  1  0.90985563  0.46510503  0.80366954  1
  F  F16  1  0.39606251  0.85239257  0.00000000  1
  F  F17  1  0.60393749  0.14760743  0.00000000  1
  F  F18  1  0.14760743  0.39606251  0.00000000  1
  F  F19  1  0.85239257  0.60393749  -0.00000000  1
  F  F20  1  0.60393749  0.85239257  0.00000000  1
  F  F21  1  0.39606251  0.14760743  0.00000000  1
  F  F22  1  0.85239257  0.39606251  0.00000000  1
  F  F23  1  0.14760743  0.60393749  0.00000000  1
  F  F24  1  0.73495995  0.50000000  0.81016486  1
  F  F25  1  0.26504005  0.50000000  0.81016486  1
  F  F26  1  0.50000000  0.73495995  0.81016486  1
  F  F27  1  0.50000000  0.26504005  0.81016486  1
  F  F28  1  0.26504005  0.50000000  0.18983514  1
  F  F29  1  0.73495995  0.50000000  0.18983514  1
  F  F30  1  0.50000000  0.73495995  0.18983514  1
  F  F31  1  0.50000000  0.26504005  0.18983514  1
  F  F32  1  0.29700456  0.29700456  -0.00000000  1
  F  F33  1  0.70299544  0.70299544  -0.00000000  1
  F  F34  1  0.70299544  0.29700456  -0.00000000  1
  F  F35  1  0.29700456  0.70299544  -0.00000000  1
  F  F36  1  0.00000000  0.00000000  0.77512663  1
  F  F37  1  0.00000000  0.00000000  0.22487337  1
  Li  Li38  1  0.50000000  0.50000000  0.50000000  1
  Li  Li39  1  0.00000000  0.00000000  0.09292462  1
  Li  Li40  1  0.00000000  0.00000000  0.90707538  1
  Li  Li41  1  0.30643485  0.20524723  0.11041187  1
  Li  Li42  1  -0.30643485  -0.20524723  0.11041187  1
  Li  Li43  1  -0.20524723  0.30643485  0.11041187  1
  Li  Li44  1  0.20524723  -0.30643485  0.11041187  1
  Li  Li45  1  -0.30643485  0.20524723  -0.11041187  1
  Li  Li46  1  0.30643485  -0.20524723  -0.11041187  1
  Li  Li47  1  0.20524723  0.30643485  -0.11041187  1
  Li  Li48  1  -0.20524723  -0.30643485  -0.11041187  1
  Li  Li49  1  -0.30643485  -0.20524723  -0.11041187  1
  Li  Li50  1  0.30643485  0.20524723  -0.11041187  1
  Li  Li51  1  0.20524723  -0.30643485  -0.11041187  1
  Li  Li52  1  -0.20524723  0.30643485  -0.11041187  1
  Li  Li53  1  0.30643485  -0.20524723  0.11041187  1
  Li  Li54  1  -0.30643485  0.20524723  0.11041187  1
  Li  Li55  1  -0.20524723  -0.30643485  0.11041187  1
  Li  Li56  1  0.20524723  0.30643485  0.11041187  1
  Li  Li57  1  0.22885352  0.00000000  0.11778320  1
  Li  Li58  1  0.77114648  0.00000000  0.11778320  1
  Li  Li59  1  0.00000000  0.22885352  0.11778320  1
  Li  Li60  1  0.00000000  0.77114648  0.11778320  1
  Li  Li61  1  0.77114648  0.00000000  0.88221680  1
  Li  Li62  1  0.22885352  0.00000000  0.88221680  1
  Li  Li63  1  0.00000000  0.22885352  0.88221680  1
  Li  Li64  1  0.00000000  0.77114648  0.88221680  1
  Li  Li65  1  0.00000000  0.00000000  0.50000000  1
  Li  Li66  1  0.00000000  0.50000000  0.00000000  1
  Li  Li67  1  0.50000000  0.00000000  0.00000000  1
  Li  Li68  1  0.17744347  0.50000000  0.09197248  1
  Li  Li69  1  0.82255653  0.50000000  0.09197248  1
  Li  Li70  1  0.50000000  0.17744347  0.09197248  1
  Li  Li71  1  0.50000000  0.82255653  0.09197248  1
  Li  Li72  1  0.82255653  0.50000000  0.90802752  1
  Li  Li73  1  0.17744347  0.50000000  0.90802752  1
  Li  Li74  1  0.50000000  0.17744347  0.90802752  1
  Li  Li75  1  0.50000000  0.82255653  0.90802752  1
