# generated using pymatgen
data_LiF
_symmetry_space_group_name_H-M   'P 1'
_cell_length_a   2.55412668
_cell_length_b   2.55412668
_cell_length_c   13.39455423
_cell_angle_alpha   90.00000000
_cell_angle_beta   90.00000000
_cell_angle_gamma   120.00000000
_symmetry_Int_Tables_number   1
_chemical_formula_structural   LiF
_chemical_formula_sum   'Li4 F4'
_cell_volume   75.67348983
_cell_formula_units_Z   4
loop_
 _symmetry_equiv_pos_site_id
 _symmetry_equiv_pos_as_xyz
  1  'x, y, z'
loop_
 _atom_site_type_symbol
 _atom_site_label
 _atom_site_symmetry_multiplicity
 _atom_site_fract_x
 _atom_site_fract_y
 _atom_site_fract_z
 _atom_site_occupancy
  F  F0  1  0.00000000  0.00000000  0.58227044  1
  F  F1  1  0.00000000  0.00000000  1.08227044  1
  F  F2  1  0.00000000  0.00000000  -0.58227044  1
  F  F3  1  0.00000000  0.00000000  -0.08227044  1
  Li  Li4  1  0.33333333  0.66666667  0.46849460  1
  Li  Li5  1  0.66666667  0.33333333  0.96849460  1
  Li  Li6  1  0.66666667  0.33333333  0.53150540  1
  Li  Li7  1  0.33333333  0.66666667  0.03150540  1
