# generated using pymatgen
data_LiAlSiSnO6
_symmetry_space_group_name_H-M   'P 1'
_cell_length_a   10.71721014
_cell_length_b   10.71721014
_cell_length_c   13.18662874
_cell_angle_alpha   90.00000000
_cell_angle_beta   90.00000000
_cell_angle_gamma   120.00000000
_symmetry_Int_Tables_number   1
_chemical_formula_structural   LiAlSiSnO6
_chemical_formula_sum   'Li9 Al9 Si9 Sn9 O54'
_cell_volume   1311.68001937
_cell_formula_units_Z   9
loop_
 _symmetry_equiv_pos_site_id
 _symmetry_equiv_pos_as_xyz
  1  'x, y, z'
loop_
 _atom_site_type_symbol
 _atom_site_label
 _atom_site_symmetry_multiplicity
 _atom_site_fract_x
 _atom_site_fract_y
 _atom_site_fract_z
 _atom_site_occupancy
  Al  Al0  1  0.00000000  0.00000000  0.00000000  1
  Al  Al1  1  0.66666667  0.33333333  0.33333333  1
  Al  Al2  1  0.33333333  0.66666667  0.66666667  1
  Al  Al3  1  0.00000000  0.00000000  0.37478792  1
  Al  Al4  1  0.00000000  0.00000000  0.62521208  1
  Al  Al5  1  0.66666667  0.33333333  0.70812125  1
  Al  Al6  1  0.66666667  0.33333333  0.95854541  1
  Al  Al7  1  0.33333333  0.66666667  0.04145459  1
  Al  Al8  1  0.33333333  0.66666667  0.29187875  1
  Li  Li9  1  0.00000000  0.00000000  0.50000000  1
  Li  Li10  1  0.66666667  0.33333333  0.83333333  1
  Li  Li11  1  0.33333333  0.66666667  0.16666667  1
  Li  Li12  1  0.00000000  0.00000000  0.23055206  1
  Li  Li13  1  0.00000000  0.00000000  0.76944794  1
  Li  Li14  1  0.66666667  0.33333333  0.56388540  1
  Li  Li15  1  0.66666667  0.33333333  0.10278127  1
  Li  Li16  1  0.33333333  0.66666667  0.89721873  1
  Li  Li17  1  0.33333333  0.66666667  0.43611460  1
  O  O18  1  0.28671268  0.39180450  0.90890036  1
  O  O19  1  -0.39180450  -0.10509182  0.90890036  1
  O  O20  1  0.10509182  -0.28671268  0.90890036  1
  O  O21  1  0.39180450  0.28671268  -0.90890036  1
  O  O22  1  -0.10509182  -0.39180450  -0.90890036  1
  O  O23  1  -0.28671268  0.10509182  -0.90890036  1
  O  O24  1  -0.28671268  -0.39180450  -0.90890036  1
  O  O25  1  0.39180450  0.10509182  -0.90890036  1
  O  O26  1  -0.10509182  0.28671268  -0.90890036  1
  O  O27  1  -0.39180450  -0.28671268  0.90890036  1
  O  O28  1  0.10509182  0.39180450  0.90890036  1
  O  O29  1  0.28671268  -0.10509182  0.90890036  1
  O  O30  1  0.95337934  0.72513783  1.24223369  1
  O  O31  1  0.27486217  0.22824151  1.24223369  1
  O  O32  1  0.77175849  0.04662066  1.24223369  1
  O  O33  1  1.05847116  0.62004601  -0.57556703  1
  O  O34  1  0.56157485  -0.05847116  -0.57556703  1
  O  O35  1  0.37995399  0.43842515  -0.57556703  1
  O  O36  1  0.37995399  -0.05847116  -0.57556703  1
  O  O37  1  1.05847116  0.43842515  -0.57556703  1
  O  O38  1  0.56157485  0.62004601  -0.57556703  1
  O  O39  1  0.27486217  0.04662066  1.24223369  1
  O  O40  1  0.77175849  0.72513783  1.24223369  1
  O  O41  1  0.95337934  0.22824151  1.24223369  1
  O  O42  1  0.62004601  1.05847116  1.57556703  1
  O  O43  1  -0.05847116  0.56157485  1.57556703  1
  O  O44  1  0.43842515  0.37995399  1.57556703  1
  O  O45  1  0.72513783  0.95337934  -0.24223369  1
  O  O46  1  0.22824151  0.27486217  -0.24223369  1
  O  O47  1  0.04662066  0.77175849  -0.24223369  1
  O  O48  1  0.04662066  0.27486217  -0.24223369  1
  O  O49  1  0.72513783  0.77175849  -0.24223369  1
  O  O50  1  0.22824151  0.95337934  -0.24223369  1
  O  O51  1  -0.05847116  0.37995399  1.57556703  1
  O  O52  1  0.43842515  1.05847116  1.57556703  1
  O  O53  1  0.62004601  0.56157485  1.57556703  1
  O  O54  1  0.46267529  0.53732471  0.54914378  1
  O  O55  1  0.46267529  0.92535058  0.54914378  1
  O  O56  1  0.07464942  0.53732471  0.54914378  1
  O  O57  1  0.53732471  0.46267529  0.45085622  1
  O  O58  1  0.92535058  0.46267529  0.45085622  1
  O  O59  1  0.53732471  0.07464942  0.45085622  1
  O  O60  1  0.12934195  0.87065805  0.88247712  1
  O  O61  1  0.12934195  0.25868391  0.88247712  1
  O  O62  1  0.74131609  0.87065805  0.88247712  1
  O  O63  1  0.20399138  0.79600862  0.78418955  1
  O  O64  1  0.59201724  0.79600862  0.78418955  1
  O  O65  1  0.20399138  0.40798276  0.78418955  1
  O  O66  1  0.79600862  0.20399138  0.21581045  1
  O  O67  1  0.79600862  0.59201724  0.21581045  1
  O  O68  1  0.40798276  0.20399138  0.21581045  1
  O  O69  1  0.87065805  0.12934195  0.11752288  1
  O  O70  1  0.25868391  0.12934195  0.11752288  1
  O  O71  1  0.87065805  0.74131609  0.11752288  1
  Si  Si72  1  0.50000000  0.00000000  0.50000000  1
  Si  Si73  1  0.00000000  0.50000000  0.50000000  1
  Si  Si74  1  0.50000000  0.50000000  0.50000000  1
  Si  Si75  1  0.16666667  0.33333333  0.83333333  1
  Si  Si76  1  0.66666667  0.83333333  0.83333333  1
  Si  Si77  1  0.16666667  0.83333333  0.83333333  1
  Si  Si78  1  0.83333333  0.66666667  0.16666667  1
  Si  Si79  1  0.33333333  0.16666667  0.16666667  1
  Si  Si80  1  0.83333333  0.16666667  0.16666667  1
  Sn  Sn81  1  0.50000000  0.00000000  0.00000000  1
  Sn  Sn82  1  0.00000000  0.50000000  0.00000000  1
  Sn  Sn83  1  0.50000000  0.50000000  0.00000000  1
  Sn  Sn84  1  0.16666667  0.33333333  0.33333333  1
  Sn  Sn85  1  0.66666667  0.83333333  0.33333333  1
  Sn  Sn86  1  0.16666667  0.83333333  0.33333333  1
  Sn  Sn87  1  0.83333333  0.66666667  0.66666667  1
  Sn  Sn88  1  0.33333333  0.16666667  0.66666667  1
  Sn  Sn89  1  0.83333333  0.16666667  0.66666667  1
