# generated using pymatgen
data_LiF
_symmetry_space_group_name_H-M   'P 1'
_cell_length_a   7.65367116
_cell_length_b   7.65367116
_cell_length_c   17.32813062
_cell_angle_alpha   90.00000000
_cell_angle_beta   90.00000000
_cell_angle_gamma   120.00000000
_symmetry_Int_Tables_number   1
_chemical_formula_structural   LiF
_chemical_formula_sum   'Li36 F36'
_cell_volume   879.06692929
_cell_formula_units_Z   36
loop_
 _symmetry_equiv_pos_site_id
 _symmetry_equiv_pos_as_xyz
  1  'x, y, z'
loop_
 _atom_site_type_symbol
 _atom_site_label
 _atom_site_symmetry_multiplicity
 _atom_site_fract_x
 _atom_site_fract_y
 _atom_site_fract_z
 _atom_site_occupancy
  F  F0  1  0.86866226  0.99948402  0.62199582  1
  F  F1  1  -0.99948402  -0.13082176  0.62199582  1
  F  F2  1  0.13082176  -0.86866226  0.62199582  1
  F  F3  1  0.99948402  0.86866226  -0.12199582  1
  F  F4  1  -0.13082176  -0.99948402  -0.12199582  1
  F  F5  1  -0.86866226  0.13082176  -0.12199582  1
  F  F6  1  -0.86866226  -0.99948402  -0.62199582  1
  F  F7  1  0.99948402  0.13082176  -0.62199582  1
  F  F8  1  -0.13082176  0.86866226  -0.62199582  1
  F  F9  1  -0.99948402  -0.86866226  1.12199582  1
  F  F10  1  0.13082176  0.99948402  1.12199582  1
  F  F11  1  0.86866226  -0.13082176  1.12199582  1
  F  F12  1  1.53532893  1.33281735  0.95532915  1
  F  F13  1  -0.33281735  0.20251158  0.95532915  1
  F  F14  1  0.79748842  -0.53532893  0.95532915  1
  F  F15  1  1.66615069  1.20199559  0.21133751  1
  F  F16  1  0.53584491  -0.66615069  0.21133751  1
  F  F17  1  -0.20199559  0.46415509  0.21133751  1
  F  F18  1  -0.20199559  -0.66615069  -0.28866249  1
  F  F19  1  1.66615069  0.46415509  -0.28866249  1
  F  F20  1  0.53584491  1.20199559  -0.28866249  1
  F  F21  1  -0.33281735  -0.53532893  1.45532915  1
  F  F22  1  0.79748842  1.33281735  1.45532915  1
  F  F23  1  1.53532893  0.20251158  1.45532915  1
  F  F24  1  1.20199559  1.66615069  1.28866249  1
  F  F25  1  -0.66615069  0.53584491  1.28866249  1
  F  F26  1  0.46415509  -0.20199559  1.28866249  1
  F  F27  1  1.33281735  1.53532893  0.54467085  1
  F  F28  1  0.20251158  -0.33281735  0.54467085  1
  F  F29  1  -0.53532893  0.79748842  0.54467085  1
  F  F30  1  -0.53532893  -0.33281735  0.04467085  1
  F  F31  1  1.33281735  0.79748842  0.04467085  1
  F  F32  1  0.20251158  1.53532893  0.04467085  1
  F  F33  1  -0.66615069  -0.20199559  1.78866249  1
  F  F34  1  0.46415509  1.66615069  1.78866249  1
  F  F35  1  1.20199559  0.53584491  1.78866249  1
  Li  Li36  1  0.50000000  0.00000000  0.00000000  1
  Li  Li37  1  0.00000000  0.50000000  0.00000000  1
  Li  Li38  1  0.50000000  0.50000000  0.00000000  1
  Li  Li39  1  0.00000000  0.50000000  0.50000000  1
  Li  Li40  1  0.50000000  0.00000000  0.50000000  1
  Li  Li41  1  0.50000000  0.50000000  0.50000000  1
  Li  Li42  1  0.16666667  0.33333333  0.33333333  1
  Li  Li43  1  0.66666667  0.83333333  0.33333333  1
  Li  Li44  1  0.16666667  0.83333333  0.33333333  1
  Li  Li45  1  0.66666667  0.83333333  0.83333333  1
  Li  Li46  1  0.16666667  0.33333333  0.83333333  1
  Li  Li47  1  0.16666667  0.83333333  0.83333333  1
  Li  Li48  1  0.83333333  0.66666667  0.66666667  1
  Li  Li49  1  0.33333333  0.16666667  0.66666667  1
  Li  Li50  1  0.83333333  0.16666667  0.66666667  1
  Li  Li51  1  0.33333333  0.16666667  0.16666667  1
  Li  Li52  1  0.83333333  0.66666667  0.16666667  1
  Li  Li53  1  0.83333333  0.16666667  0.16666667  1
  Li  Li54  1  0.73816701  -0.00000000  0.25000000  1
  Li  Li55  1  0.00000000  0.73816701  0.25000000  1
  Li  Li56  1  0.26183299  0.26183299  0.25000000  1
  Li  Li57  1  0.26183299  -0.00000000  0.75000000  1
  Li  Li58  1  0.00000000  0.26183299  0.75000000  1
  Li  Li59  1  0.73816701  0.73816701  0.75000000  1
  Li  Li60  1  0.40483367  0.33333333  0.58333333  1
  Li  Li61  1  0.66666667  0.07150034  0.58333333  1
  Li  Li62  1  0.92849966  0.59516633  0.58333333  1
  Li  Li63  1  0.92849966  0.33333333  0.08333333  1
  Li  Li64  1  0.66666667  0.59516633  0.08333333  1
  Li  Li65  1  0.40483367  0.07150034  0.08333333  1
  Li  Li66  1  0.07150034  0.66666667  0.91666667  1
  Li  Li67  1  0.33333333  0.40483367  0.91666667  1
  Li  Li68  1  0.59516633  0.92849966  0.91666667  1
  Li  Li69  1  0.59516633  0.66666667  0.41666667  1
  Li  Li70  1  0.33333333  0.92849966  0.41666667  1
  Li  Li71  1  0.07150034  0.40483367  0.41666667  1
