# generated using pymatgen
data_LiF
_symmetry_space_group_name_H-M   'P 1'
_cell_length_a   3.82864027
_cell_length_b   3.82864027
_cell_length_c   9.33344672
_cell_angle_alpha   90.00000000
_cell_angle_beta   90.00000000
_cell_angle_gamma   90.00000000
_symmetry_Int_Tables_number   1
_chemical_formula_structural   LiF
_chemical_formula_sum   'Li9 F9'
_cell_volume   136.81420075
_cell_formula_units_Z   9
loop_
 _symmetry_equiv_pos_site_id
 _symmetry_equiv_pos_as_xyz
  1  'x, y, z'
loop_
 _atom_site_type_symbol
 _atom_site_label
 _atom_site_symmetry_multiplicity
 _atom_site_fract_x
 _atom_site_fract_y
 _atom_site_fract_z
 _atom_site_occupancy
  F  F0  1  0.82607654  0.50000000  0.50000000  1
  F  F1  1  0.17392346  0.50000000  0.50000000  1
  F  F2  1  0.50000000  0.82607654  0.50000000  1
  F  F3  1  0.50000000  0.17392346  0.50000000  1
  F  F4  1  0.00000000  0.00000000  0.50000000  1
  F  F5  1  0.19567057  0.19567057  0.50000000  1
  F  F6  1  0.80432943  0.80432943  0.50000000  1
  F  F7  1  0.80432943  0.19567057  0.50000000  1
  F  F8  1  0.19567057  0.80432943  0.50000000  1
  Li  Li9  1  0.50000000  0.50000000  0.07500799  1
  Li  Li10  1  0.50000000  0.50000000  0.92499201  1
  Li  Li11  1  0.00000000  0.00000000  0.00000000  1
  Li  Li12  1  0.00000000  0.50000000  0.83857507  1
  Li  Li13  1  0.50000000  0.00000000  0.83857507  1
  Li  Li14  1  0.00000000  0.50000000  -0.83857507  1
  Li  Li15  1  0.50000000  0.00000000  -0.83857507  1
  Li  Li16  1  0.00000000  0.00000000  0.32967150  1
  Li  Li17  1  0.00000000  0.00000000  0.67032850  1
