# generated using pymatgen
data_LiF
_symmetry_space_group_name_H-M   'P 1'
_cell_length_a   8.39711606
_cell_length_b   5.28549832
_cell_length_c   11.60634322
_cell_angle_alpha   90.00000000
_cell_angle_beta   90.00000000
_cell_angle_gamma   90.00000000
_symmetry_Int_Tables_number   1
_chemical_formula_structural   LiF
_chemical_formula_sum   'Li28 F28'
_cell_volume   515.12366733
_cell_formula_units_Z   28
loop_
 _symmetry_equiv_pos_site_id
 _symmetry_equiv_pos_as_xyz
  1  'x, y, z'
loop_
 _atom_site_type_symbol
 _atom_site_label
 _atom_site_symmetry_multiplicity
 _atom_site_fract_x
 _atom_site_fract_y
 _atom_site_fract_z
 _atom_site_occupancy
  F  F0  1  0.75426115  0.58539178  0.48791215  1
  F  F1  1  0.74573885  0.41460822  0.98791215  1
  F  F2  1  0.24573885  0.08539178  0.51208785  1
  F  F3  1  0.25426115  0.91460822  0.01208785  1
  F  F4  1  0.24573885  0.41460822  0.51208785  1
  F  F5  1  0.25426115  0.58539178  0.01208785  1
  F  F6  1  0.75426115  0.91460822  0.48791215  1
  F  F7  1  0.74573885  0.08539178  0.98791215  1
  F  F8  1  0.44496092  0.05724404  0.13017193  1
  F  F9  1  0.05503908  0.94275596  0.63017193  1
  F  F10  1  0.55503908  0.55724404  0.86982807  1
  F  F11  1  0.94496092  0.44275596  0.36982807  1
  F  F12  1  0.55503908  0.94275596  0.86982807  1
  F  F13  1  0.94496092  0.05724404  0.36982807  1
  F  F14  1  0.44496092  0.44275596  0.13017193  1
  F  F15  1  0.05503908  0.55724404  0.63017193  1
  F  F16  1  0.48694572  0.25000000  0.82260805  1
  F  F17  1  0.01305428  0.75000000  0.32260805  1
  F  F18  1  0.51305428  0.75000000  0.17739195  1
  F  F19  1  0.98694572  0.25000000  0.67739195  1
  F  F20  1  0.62336046  0.18847319  0.44433049  1
  F  F21  1  0.87663954  0.81152681  0.94433049  1
  F  F22  1  0.37663954  0.68847319  0.55566951  1
  F  F23  1  0.12336046  0.31152681  0.05566951  1
  F  F24  1  0.37663954  0.81152681  0.55566951  1
  F  F25  1  0.12336046  0.18847319  0.05566951  1
  F  F26  1  0.62336046  0.31152681  0.44433049  1
  F  F27  1  0.87663954  0.68847319  0.94433049  1
  Li  Li28  1  0.65764850  0.25000000  0.79213372  1
  Li  Li29  1  0.84235150  0.75000000  0.29213372  1
  Li  Li30  1  0.34235150  0.75000000  0.20786628  1
  Li  Li31  1  0.15764850  0.25000000  0.70786628  1
  Li  Li32  1  0.36727254  0.05056899  0.30087331  1
  Li  Li33  1  0.13272746  -0.05056899  0.80087331  1
  Li  Li34  1  -0.36727254  0.55056899  -0.30087331  1
  Li  Li35  1  0.86727254  0.44943101  0.19912669  1
  Li  Li36  1  -0.36727254  -0.05056899  -0.30087331  1
  Li  Li37  1  0.86727254  0.05056899  0.19912669  1
  Li  Li38  1  0.36727254  0.44943101  0.30087331  1
  Li  Li39  1  0.13272746  0.55056899  0.80087331  1
  Li  Li40  1  0.75455891  0.37616516  0.36415389  1
  Li  Li41  1  0.74544109  0.62383484  0.86415389  1
  Li  Li42  1  0.24544109  0.87616516  0.63584611  1
  Li  Li43  1  0.25455891  0.12383484  0.13584611  1
  Li  Li44  1  0.24544109  0.62383484  0.63584611  1
  Li  Li45  1  0.25455891  0.37616516  0.13584611  1
  Li  Li46  1  0.75455891  0.12383484  0.36415389  1
  Li  Li47  1  0.74544109  0.87616516  0.86415389  1
  Li  Li48  1  0.00000000  0.00000000  0.50000000  1
  Li  Li49  1  0.50000000  0.00000000  0.00000000  1
  Li  Li50  1  0.00000000  0.50000000  0.50000000  1
  Li  Li51  1  0.50000000  0.50000000  -0.00000000  1
  Li  Li52  1  0.00000000  0.00000000  0.00000000  1
  Li  Li53  1  0.50000000  0.00000000  0.50000000  1
  Li  Li54  1  0.00000000  0.50000000  0.00000000  1
  Li  Li55  1  0.50000000  0.50000000  0.50000000  1
