# generated using pymatgen
data_Li2Y2MoP2Se
_symmetry_space_group_name_H-M   'P 1'
_cell_length_a   4.84171887
_cell_length_b   5.10198637
_cell_length_c   6.70484072
_cell_angle_alpha   94.71487638
_cell_angle_beta   99.01421622
_cell_angle_gamma   106.97148751
_symmetry_Int_Tables_number   1
_chemical_formula_structural   Li2Y2MoP2Se
_chemical_formula_sum   'Li2 Y2 Mo1 P2 Se1'
_cell_volume   155.01467935
_cell_formula_units_Z   1
loop_
 _symmetry_equiv_pos_site_id
 _symmetry_equiv_pos_as_xyz
  1  'x, y, z'
loop_
 _atom_site_type_symbol
 _atom_site_label
 _atom_site_symmetry_multiplicity
 _atom_site_fract_x
 _atom_site_fract_y
 _atom_site_fract_z
 _atom_site_occupancy
  Se  Se0  1  0.00000000  0.00000000  0.00000000  1
  Y  Y1  1  0.50000000  0.50000000  0.50000000  1
  Y  Y2  1  0.50000000  0.50000000  0.00000000  1
  P  P3  1  0.50000000  0.00000000  0.50000000  1
  P  P4  1  0.00000000  0.50000000  0.50000000  1
  Mo  Mo5  1  0.04832733  0.11730782  0.07704296  1
  Li  Li6  1  0.21868440  0.00710623  0.29348873  1
  Li  Li7  1  0.42554132  0.14945327  0.34730828  1
