# generated using pymatgen
data_LiF
_symmetry_space_group_name_H-M   'P 1'
_cell_length_a   10.16137217
_cell_length_b   7.55776750
_cell_length_c   9.14045686
_cell_angle_alpha   90.00000000
_cell_angle_beta   90.00000000
_cell_angle_gamma   90.00000000
_symmetry_Int_Tables_number   1
_chemical_formula_structural   LiF
_chemical_formula_sum   'Li24 F24'
_cell_volume   701.96230147
_cell_formula_units_Z   24
loop_
 _symmetry_equiv_pos_site_id
 _symmetry_equiv_pos_as_xyz
  1  'x, y, z'
loop_
 _atom_site_type_symbol
 _atom_site_label
 _atom_site_symmetry_multiplicity
 _atom_site_fract_x
 _atom_site_fract_y
 _atom_site_fract_z
 _atom_site_occupancy
  F  F0  1  0.42693084  0.39322522  0.62725067  1
  F  F1  1  0.07306916  0.60677478  0.12725067  1
  F  F2  1  0.57306916  0.89322522  0.37274933  1
  F  F3  1  0.92693084  0.10677478  0.87274933  1
  F  F4  1  0.57306916  0.60677478  0.37274933  1
  F  F5  1  0.92693084  0.39322522  0.87274933  1
  F  F6  1  0.42693084  0.10677478  0.62725067  1
  F  F7  1  0.07306916  0.89322522  0.12725067  1
  F  F8  1  0.58297156  0.25000000  0.07210381  1
  F  F9  1  0.91702844  0.75000000  0.57210381  1
  F  F10  1  0.41702844  0.75000000  0.92789619  1
  F  F11  1  0.08297156  0.25000000  0.42789619  1
  F  F12  1  0.79881437  0.41637954  0.65891817  1
  F  F13  1  0.70118563  0.58362046  0.15891817  1
  F  F14  1  0.20118563  0.91637954  0.34108183  1
  F  F15  1  0.29881437  0.08362046  0.84108183  1
  F  F16  1  0.20118563  0.58362046  0.34108183  1
  F  F17  1  0.29881437  0.41637954  0.84108183  1
  F  F18  1  0.79881437  0.08362046  0.65891817  1
  F  F19  1  0.70118563  0.91637954  0.15891817  1
  F  F20  1  0.12931595  0.25000000  0.30154395  1
  F  F21  1  0.37068405  0.75000000  0.80154395  1
  F  F22  1  0.87068405  0.75000000  0.69845605  1
  F  F23  1  0.62931595  0.25000000  0.19845605  1
  Li  Li24  1  0.93739746  0.25000000  0.83027199  1
  Li  Li25  1  0.56260254  0.75000000  0.33027199  1
  Li  Li26  1  0.06260254  0.75000000  0.16972801  1
  Li  Li27  1  0.43739746  0.25000000  0.66972801  1
  Li  Li28  1  0.78071322  0.25000000  0.52302226  1
  Li  Li29  1  0.71928678  0.75000000  0.02302226  1
  Li  Li30  1  0.21928678  0.75000000  0.47697774  1
  Li  Li31  1  0.28071322  0.25000000  0.97697774  1
  Li  Li32  1  0.57346627  0.59693037  0.96650885  1
  Li  Li33  1  -0.07346627  -0.59693037  1.46650885  1
  Li  Li34  1  -0.57346627  1.09693037  -0.96650885  1
  Li  Li35  1  1.07346627  -0.09693037  -0.46650885  1
  Li  Li36  1  -0.57346627  -0.59693037  -0.96650885  1
  Li  Li37  1  1.07346627  0.59693037  -0.46650885  1
  Li  Li38  1  0.57346627  -0.09693037  0.96650885  1
  Li  Li39  1  -0.07346627  1.09693037  1.46650885  1
  Li  Li40  1  0.46628594  0.47735417  0.82911756  1
  Li  Li41  1  0.03371406  0.52264583  0.32911756  1
  Li  Li42  1  0.53371406  0.97735417  0.17088244  1
  Li  Li43  1  0.96628594  0.02264583  0.67088244  1
  Li  Li44  1  0.53371406  0.52264583  0.17088244  1
  Li  Li45  1  0.96628594  0.47735417  0.67088244  1
  Li  Li46  1  0.46628594  0.02264583  0.82911756  1
  Li  Li47  1  0.03371406  0.97735417  0.32911756  1
