# generated using pymatgen
data_LiF
_symmetry_space_group_name_H-M   'P 1'
_cell_length_a   9.23290409
_cell_length_b   9.23290409
_cell_length_c   17.16629868
_cell_angle_alpha   90.00000000
_cell_angle_beta   90.00000000
_cell_angle_gamma   120.00000000
_symmetry_Int_Tables_number   1
_chemical_formula_structural   LiF
_chemical_formula_sum   'Li47 F47'
_cell_volume   1267.31315921
_cell_formula_units_Z   47
loop_
 _symmetry_equiv_pos_site_id
 _symmetry_equiv_pos_as_xyz
  1  'x, y, z'
loop_
 _atom_site_type_symbol
 _atom_site_label
 _atom_site_symmetry_multiplicity
 _atom_site_fract_x
 _atom_site_fract_y
 _atom_site_fract_z
 _atom_site_occupancy
  F  F0  1  0.33333333  0.66666667  0.90147149  1
  F  F1  1  0.33333333  0.66666667  0.09852851  1
  F  F2  1  0.74086329  0.22131244  0.84616481  1
  F  F3  1  0.77868756  0.51955085  0.84616481  1
  F  F4  1  0.48044915  0.25913671  0.84616481  1
  F  F5  1  0.77868756  0.25913671  0.15383519  1
  F  F6  1  0.48044915  0.22131244  0.15383519  1
  F  F7  1  0.74086329  0.51955085  0.15383519  1
  F  F8  1  0.23585319  0.53740725  0.72962158  1
  F  F9  1  0.46259275  0.69844594  0.72962158  1
  F  F10  1  0.30155406  0.76414681  0.72962158  1
  F  F11  1  0.46259275  0.76414681  0.27037842  1
  F  F12  1  0.30155406  0.53740725  0.27037842  1
  F  F13  1  0.23585319  0.69844594  0.27037842  1
  F  F14  1  0.22505270  0.06659371  0.22977920  1
  F  F15  1  0.93340629  0.15845899  0.22977920  1
  F  F16  1  0.84154101  0.77494730  0.22977920  1
  F  F17  1  0.93340629  0.77494730  0.77022080  1
  F  F18  1  0.84154101  0.06659371  0.77022080  1
  F  F19  1  0.22505270  0.15845899  0.77022080  1
  F  F20  1  0.00000000  0.00000000  0.65267752  1
  F  F21  1  0.00000000  0.00000000  0.34732248  1
  F  F22  1  0.79551122  0.52122580  0.02829514  1
  F  F23  1  0.47877420  0.27428542  0.02829514  1
  F  F24  1  0.72571458  0.20448878  0.02829514  1
  F  F25  1  0.47877420  0.20448878  0.97170486  1
  F  F26  1  0.72571458  0.52122580  0.97170486  1
  F  F27  1  0.79551122  0.27428542  0.97170486  1
  F  F28  1  0.46849264  0.14674295  0.20816886  1
  F  F29  1  0.85325705  0.32174969  0.20816886  1
  F  F30  1  0.67825031  0.53150736  0.20816886  1
  F  F31  1  0.85325705  0.53150736  0.79183114  1
  F  F32  1  0.67825031  0.14674295  0.79183114  1
  F  F33  1  0.46849264  0.32174969  0.79183114  1
  F  F34  1  0.00000000  0.00000000  0.50000000  1
  F  F35  1  0.70899383  0.68382966  0.69333529  1
  F  F36  1  0.31617034  0.02516417  0.69333529  1
  F  F37  1  0.97483583  0.29100617  0.69333529  1
  F  F38  1  0.31617034  0.29100617  0.30666471  1
  F  F39  1  0.97483583  0.68382966  0.30666471  1
  F  F40  1  0.70899383  0.02516417  0.30666471  1
  F  F41  1  0.00065681  0.21775252  0.86607524  1
  F  F42  1  0.78224748  0.78290429  0.86607524  1
  F  F43  1  0.21709571  0.99934319  0.86607524  1
  F  F44  1  0.78224748  0.99934319  0.13392476  1
  F  F45  1  0.21709571  0.21775252  0.13392476  1
  F  F46  1  0.00065681  0.78290429  0.13392476  1
  Li  Li47  1  0.81223150  0.82304118  0.68244716  1
  Li  Li48  1  -0.82304118  -0.01080968  0.68244716  1
  Li  Li49  1  0.01080968  -0.81223150  0.68244716  1
  Li  Li50  1  -0.82304118  -0.81223150  -0.68244716  1
  Li  Li51  1  0.01080968  0.82304118  -0.68244716  1
  Li  Li52  1  0.81223150  -0.01080968  -0.68244716  1
  Li  Li53  1  0.02840346  0.54972878  0.76349914  1
  Li  Li54  1  0.45027122  0.47867468  0.76349914  1
  Li  Li55  1  0.52132532  0.97159654  0.76349914  1
  Li  Li56  1  0.45027122  0.97159654  0.23650086  1
  Li  Li57  1  0.52132532  0.54972878  0.23650086  1
  Li  Li58  1  0.02840346  0.47867468  0.23650086  1
  Li  Li59  1  0.52124835  0.85382373  0.33238130  1
  Li  Li60  1  0.14617627  0.66742462  0.33238130  1
  Li  Li61  1  0.33257538  0.47875165  0.33238130  1
  Li  Li62  1  0.14617627  0.47875165  0.66761870  1
  Li  Li63  1  0.33257538  0.85382373  0.66761870  1
  Li  Li64  1  0.52124835  0.66742462  0.66761870  1
  Li  Li65  1  0.66666667  0.33333333  -0.00000000  1
  Li  Li66  1  0.33333333  0.66666667  0.00000000  1
  Li  Li67  1  0.33333333  0.66666667  0.39502497  1
  Li  Li68  1  0.33333333  0.66666667  0.60497503  1
  Li  Li69  1  0.00000000  0.00000000  0.04398751  1
  Li  Li70  1  0.00000000  0.00000000  0.95601249  1
  Li  Li71  1  0.68752542  0.09905717  0.72346318  1
  Li  Li72  1  0.90094283  0.58846825  0.72346318  1
  Li  Li73  1  0.41153175  0.31247458  0.72346318  1
  Li  Li74  1  0.90094283  0.31247458  0.27653682  1
  Li  Li75  1  0.41153175  0.09905717  0.27653682  1
  Li  Li76  1  0.68752542  0.58846825  0.27653682  1
  Li  Li77  1  0.83650613  0.16349387  0.00000000  1
  Li  Li78  1  0.83650613  0.67301227  0.00000000  1
  Li  Li79  1  0.32698773  0.16349387  -0.00000000  1
  Li  Li80  1  0.33333333  0.66666667  0.84062031  1
  Li  Li81  1  0.33333333  0.66666667  0.15937969  1
  Li  Li82  1  0.62769524  0.12979974  0.84325672  1
  Li  Li83  1  0.87020026  0.49789549  0.84325672  1
  Li  Li84  1  0.50210451  0.37230476  0.84325672  1
  Li  Li85  1  0.87020026  0.37230476  0.15674328  1
  Li  Li86  1  0.50210451  0.12979974  0.15674328  1
  Li  Li87  1  0.62769524  0.49789549  0.15674328  1
  Li  Li88  1  0.76644406  0.05460863  0.64249645  1
  Li  Li89  1  0.94539137  0.71183543  0.64249645  1
  Li  Li90  1  0.28816457  0.23355594  0.64249645  1
  Li  Li91  1  0.94539137  0.23355594  0.35750355  1
  Li  Li92  1  0.28816457  0.05460863  0.35750355  1
  Li  Li93  1  0.76644406  0.71183543  0.35750355  1
