# generated using pymatgen
data_LiCaF3
_symmetry_space_group_name_H-M   'P 1'
_cell_length_a   11.15684144
_cell_length_b   11.15684144
_cell_length_c   13.75959273
_cell_angle_alpha   90.00000000
_cell_angle_beta   90.00000000
_cell_angle_gamma   120.00000000
_symmetry_Int_Tables_number   1
_chemical_formula_structural   LiCaF3
_chemical_formula_sum   'Li18 Ca18 F54'
_cell_volume   1483.26494633
_cell_formula_units_Z   18
loop_
 _symmetry_equiv_pos_site_id
 _symmetry_equiv_pos_as_xyz
  1  'x, y, z'
loop_
 _atom_site_type_symbol
 _atom_site_label
 _atom_site_symmetry_multiplicity
 _atom_site_fract_x
 _atom_site_fract_y
 _atom_site_fract_z
 _atom_site_occupancy
  Ca  Ca0  1  0.35099419  0.00000000  0.25000000  1
  Ca  Ca1  1  0.00000000  0.35099419  0.25000000  1
  Ca  Ca2  1  0.64900581  0.64900581  0.25000000  1
  Ca  Ca3  1  0.64900581  0.00000000  0.75000000  1
  Ca  Ca4  1  0.00000000  0.64900581  0.75000000  1
  Ca  Ca5  1  0.35099419  0.35099419  0.75000000  1
  Ca  Ca6  1  0.01766086  0.33333333  0.58333333  1
  Ca  Ca7  1  0.66666667  0.68432752  0.58333333  1
  Ca  Ca8  1  0.31567248  0.98233914  0.58333333  1
  Ca  Ca9  1  0.31567248  0.33333333  0.08333333  1
  Ca  Ca10  1  0.66666667  0.98233914  0.08333333  1
  Ca  Ca11  1  0.01766086  0.68432752  0.08333333  1
  Ca  Ca12  1  0.68432752  0.66666667  0.91666667  1
  Ca  Ca13  1  0.33333333  0.01766086  0.91666667  1
  Ca  Ca14  1  0.98233914  0.31567248  0.91666667  1
  Ca  Ca15  1  0.98233914  0.66666667  0.41666667  1
  Ca  Ca16  1  0.33333333  0.31567248  0.41666667  1
  Ca  Ca17  1  0.68432752  0.01766086  0.41666667  1
  F  F18  1  0.84723867  0.00000000  0.25000000  1
  F  F19  1  0.00000000  0.84723867  0.25000000  1
  F  F20  1  0.15276133  0.15276133  0.25000000  1
  F  F21  1  0.15276133  0.00000000  0.75000000  1
  F  F22  1  0.00000000  0.15276133  0.75000000  1
  F  F23  1  0.84723867  0.84723867  0.75000000  1
  F  F24  1  0.51390534  0.33333333  0.58333333  1
  F  F25  1  0.66666667  0.18057201  0.58333333  1
  F  F26  1  0.81942799  0.48609466  0.58333333  1
  F  F27  1  0.81942799  0.33333333  0.08333333  1
  F  F28  1  0.66666667  0.48609466  0.08333333  1
  F  F29  1  0.51390534  0.18057201  0.08333333  1
  F  F30  1  0.18057201  0.66666667  0.91666667  1
  F  F31  1  0.33333333  0.51390534  0.91666667  1
  F  F32  1  0.48609466  0.81942799  0.91666667  1
  F  F33  1  0.48609466  0.66666667  0.41666667  1
  F  F34  1  0.33333333  0.81942799  0.41666667  1
  F  F35  1  0.18057201  0.51390534  0.41666667  1
  F  F36  1  0.31315967  0.54713871  0.04668460  1
  F  F37  1  -0.54713871  -0.23397903  0.04668460  1
  F  F38  1  0.23397903  -0.31315967  0.04668460  1
  F  F39  1  0.54713871  0.31315967  0.45331540  1
  F  F40  1  -0.23397903  -0.54713871  0.45331540  1
  F  F41  1  -0.31315967  0.23397903  0.45331540  1
  F  F42  1  -0.31315967  -0.54713871  -0.04668460  1
  F  F43  1  0.54713871  0.23397903  -0.04668460  1
  F  F44  1  -0.23397903  0.31315967  -0.04668460  1
  F  F45  1  -0.54713871  -0.31315967  0.54668460  1
  F  F46  1  0.23397903  0.54713871  0.54668460  1
  F  F47  1  0.31315967  -0.23397903  0.54668460  1
  F  F48  1  0.97982634  0.88047204  0.38001794  1
  F  F49  1  0.11952796  0.09935430  0.38001794  1
  F  F50  1  0.90064570  0.02017366  0.38001794  1
  F  F51  1  1.21380537  0.64649300  0.78664873  1
  F  F52  1  0.43268763  -0.21380537  0.78664873  1
  F  F53  1  0.35350700  0.56731237  0.78664873  1
  F  F54  1  0.35350700  -0.21380537  0.28664873  1
  F  F55  1  1.21380537  0.56731237  0.28664873  1
  F  F56  1  0.43268763  0.64649300  0.28664873  1
  F  F57  1  0.11952796  0.02017366  0.88001794  1
  F  F58  1  0.90064570  0.88047204  0.88001794  1
  F  F59  1  0.97982634  0.09935430  0.88001794  1
  F  F60  1  0.64649300  1.21380537  0.71335127  1
  F  F61  1  -0.21380537  0.43268763  0.71335127  1
  F  F62  1  0.56731237  0.35350700  0.71335127  1
  F  F63  1  0.88047204  0.97982634  1.11998206  1
  F  F64  1  0.09935430  0.11952796  1.11998206  1
  F  F65  1  0.02017366  0.90064570  1.11998206  1
  F  F66  1  0.02017366  0.11952796  0.61998206  1
  F  F67  1  0.88047204  0.90064570  0.61998206  1
  F  F68  1  0.09935430  0.97982634  0.61998206  1
  F  F69  1  -0.21380537  0.35350700  1.21335127  1
  F  F70  1  0.56731237  1.21380537  1.21335127  1
  F  F71  1  0.64649300  0.43268763  1.21335127  1
  Li  Li72  1  0.50000000  0.00000000  -0.00000000  1
  Li  Li73  1  0.00000000  0.50000000  0.00000000  1
  Li  Li74  1  0.50000000  0.50000000  0.00000000  1
  Li  Li75  1  0.00000000  0.50000000  0.50000000  1
  Li  Li76  1  0.50000000  0.00000000  0.50000000  1
  Li  Li77  1  0.50000000  0.50000000  0.50000000  1
  Li  Li78  1  0.16666667  0.33333333  0.33333333  1
  Li  Li79  1  0.66666667  0.83333333  0.33333333  1
  Li  Li80  1  0.16666667  0.83333333  0.33333333  1
  Li  Li81  1  0.66666667  0.83333333  0.83333333  1
  Li  Li82  1  0.16666667  0.33333333  0.83333333  1
  Li  Li83  1  0.16666667  0.83333333  0.83333333  1
  Li  Li84  1  0.83333333  0.66666667  0.66666667  1
  Li  Li85  1  0.33333333  0.16666667  0.66666667  1
  Li  Li86  1  0.83333333  0.16666667  0.66666667  1
  Li  Li87  1  0.33333333  0.16666667  0.16666667  1
  Li  Li88  1  0.83333333  0.66666667  0.16666667  1
  Li  Li89  1  0.83333333  0.16666667  0.16666667  1
