# generated using pymatgen
data_Li6Te2O
_symmetry_space_group_name_H-M   'P 1'
_cell_length_a   24.78333364
_cell_length_b   8.61229690
_cell_length_c   13.91632517
_cell_angle_alpha   90.00000000
_cell_angle_beta   90.00000000
_cell_angle_gamma   90.00000000
_symmetry_Int_Tables_number   1
_chemical_formula_structural   Li6Te2O
_chemical_formula_sum   'Li96 Te32 O16'
_cell_volume   2970.32030774
_cell_formula_units_Z   16
loop_
 _symmetry_equiv_pos_site_id
 _symmetry_equiv_pos_as_xyz
  1  'x, y, z'
loop_
 _atom_site_type_symbol
 _atom_site_label
 _atom_site_symmetry_multiplicity
 _atom_site_fract_x
 _atom_site_fract_y
 _atom_site_fract_z
 _atom_site_occupancy
  Li  Li0  1  0.93576588  0.25000000  0.82246290  1
  Li  Li1  1  0.56423412  0.75000000  0.32246290  1
  Li  Li2  1  0.06423412  0.75000000  0.17753710  1
  Li  Li3  1  0.43576588  0.25000000  0.67753710  1
  Li  Li4  1  0.57967216  0.25000000  0.76403878  1
  Li  Li5  1  0.92032784  0.75000000  0.26403878  1
  Li  Li6  1  0.42032784  0.75000000  0.23596122  1
  Li  Li7  1  0.07967216  0.25000000  0.73596122  1
  Li  Li8  1  0.71761195  0.25000000  0.85551441  1
  Li  Li9  1  0.78238805  0.75000000  0.35551441  1
  Li  Li10  1  0.28238805  0.75000000  0.14448559  1
  Li  Li11  1  0.21761195  0.25000000  0.64448559  1
  Li  Li12  1  0.36359946  0.25000000  0.58617004  1
  Li  Li13  1  0.13640054  0.75000000  0.08617004  1
  Li  Li14  1  0.63640054  0.75000000  0.41382996  1
  Li  Li15  1  0.86359946  0.25000000  0.91382996  1
  Li  Li16  1  0.32122716  0.25000000  0.16972018  1
  Li  Li17  1  0.17877284  0.75000000  0.66972018  1
  Li  Li18  1  0.67877284  0.75000000  0.83027982  1
  Li  Li19  1  0.82122716  0.25000000  0.33027982  1
  Li  Li20  1  0.05402729  0.61944325  0.06508750  1
  Li  Li21  1  0.44597271  0.38055675  0.56508750  1
  Li  Li22  1  0.94597271  0.11944325  0.93491250  1
  Li  Li23  1  0.55402729  0.88055675  0.43491250  1
  Li  Li24  1  0.94597271  0.38055675  0.93491250  1
  Li  Li25  1  0.55402729  0.61944325  0.43491250  1
  Li  Li26  1  0.05402729  0.88055675  0.06508750  1
  Li  Li27  1  0.44597271  0.11944325  0.56508750  1
  Li  Li28  1  0.58253921  0.25000000  0.35790637  1
  Li  Li29  1  0.91746079  0.75000000  0.85790637  1
  Li  Li30  1  0.41746079  0.75000000  0.64209363  1
  Li  Li31  1  0.08253921  0.25000000  0.14209363  1
  Li  Li32  1  0.57894068  0.66069559  0.87864961  1
  Li  Li33  1  0.92105932  0.33930441  0.37864961  1
  Li  Li34  1  0.42105932  0.16069559  0.12135039  1
  Li  Li35  1  0.07894068  0.83930441  0.62135039  1
  Li  Li36  1  0.42105932  0.33930441  0.12135039  1
  Li  Li37  1  0.07894068  0.66069559  0.62135039  1
  Li  Li38  1  0.57894068  0.83930441  0.87864961  1
  Li  Li39  1  0.92105932  0.16069559  0.37864961  1
  Li  Li40  1  0.48817250  0.34269885  0.43649237  1
  Li  Li41  1  0.01182750  0.65730115  0.93649237  1
  Li  Li42  1  0.51182750  0.84269885  0.56350763  1
  Li  Li43  1  0.98817250  0.15730115  0.06350763  1
  Li  Li44  1  0.51182750  0.65730115  0.56350763  1
  Li  Li45  1  0.98817250  0.34269885  0.06350763  1
  Li  Li46  1  0.48817250  0.15730115  0.43649237  1
  Li  Li47  1  0.01182750  0.84269885  0.93649237  1
  Li  Li48  1  0.51091707  0.25000000  0.55386317  1
  Li  Li49  1  0.98908293  0.75000000  0.05386317  1
  Li  Li50  1  0.48908293  0.75000000  0.44613683  1
  Li  Li51  1  0.01091707  0.25000000  0.94613683  1
  Li  Li52  1  0.28102049  0.51940070  0.70223680  1
  Li  Li53  1  0.21897951  0.48059930  0.20223680  1
  Li  Li54  1  0.71897951  0.01940070  0.29776320  1
  Li  Li55  1  0.78102049  0.98059930  0.79776320  1
  Li  Li56  1  0.71897951  0.48059930  0.29776320  1
  Li  Li57  1  0.78102049  0.51940070  0.79776320  1
  Li  Li58  1  0.28102049  0.98059930  0.70223680  1
  Li  Li59  1  0.21897951  0.01940070  0.20223680  1
  Li  Li60  1  0.38458630  0.48796708  0.15549546  1
  Li  Li61  1  0.11541370  0.51203292  0.65549546  1
  Li  Li62  1  0.61541370  0.98796708  0.84450454  1
  Li  Li63  1  0.88458630  0.01203292  0.34450454  1
  Li  Li64  1  0.61541370  0.51203292  0.84450454  1
  Li  Li65  1  0.88458630  0.48796708  0.34450454  1
  Li  Li66  1  0.38458630  0.01203292  0.15549546  1
  Li  Li67  1  0.11541370  0.98796708  0.65549546  1
  Li  Li68  1  0.33801181  0.83101045  0.86380080  1
  Li  Li69  1  0.16198819  0.16898955  0.36380080  1
  Li  Li70  1  0.66198819  0.33101045  0.13619920  1
  Li  Li71  1  0.83801181  0.66898955  0.63619920  1
  Li  Li72  1  0.66198819  0.16898955  0.13619920  1
  Li  Li73  1  0.83801181  0.83101045  0.63619920  1
  Li  Li74  1  0.33801181  0.66898955  0.86380080  1
  Li  Li75  1  0.16198819  0.33101045  0.36380080  1
  Li  Li76  1  0.34935338  0.06886431  0.39035984  1
  Li  Li77  1  0.15064662  0.93113569  0.89035984  1
  Li  Li78  1  0.65064662  0.56886431  0.60964016  1
  Li  Li79  1  0.84935338  0.43113569  0.10964016  1
  Li  Li80  1  0.65064662  0.93113569  0.60964016  1
  Li  Li81  1  0.84935338  0.06886431  0.10964016  1
  Li  Li82  1  0.34935338  0.43113569  0.39035984  1
  Li  Li83  1  0.15064662  0.56886431  0.89035984  1
  Li  Li84  1  0.98000313  0.85267123  0.80801014  1
  Li  Li85  1  0.51999687  0.14732877  0.30801014  1
  Li  Li86  1  0.01999687  0.35267123  0.19198986  1
  Li  Li87  1  0.48000313  0.64732877  0.69198986  1
  Li  Li88  1  0.01999687  0.14732877  0.19198986  1
  Li  Li89  1  0.48000313  0.85267123  0.69198986  1
  Li  Li90  1  0.98000313  0.64732877  0.80801014  1
  Li  Li91  1  0.51999687  0.35267123  0.30801014  1
  Li  Li92  1  0.00000000  0.00000000  0.00000000  1
  Li  Li93  1  0.50000000  0.00000000  0.50000000  1
  Li  Li94  1  0.00000000  0.50000000  0.00000000  1
  Li  Li95  1  0.50000000  0.50000000  0.50000000  1
  O  O96  1  0.67635558  0.82507151  0.97023493  1
  O  O97  1  0.82364442  0.17492849  0.47023493  1
  O  O98  1  0.32364442  0.32507151  0.02976507  1
  O  O99  1  0.17635558  0.67492849  0.52976507  1
  O  O100  1  0.32364442  0.17492849  0.02976507  1
  O  O101  1  0.17635558  0.82507151  0.52976507  1
  O  O102  1  0.67635558  0.67492849  0.97023493  1
  O  O103  1  0.82364442  0.32507151  0.47023493  1
  O  O104  1  0.75684090  0.25000000  0.58797558  1
  O  O105  1  0.74315910  0.75000000  0.08797558  1
  O  O106  1  0.24315910  0.75000000  0.41202442  1
  O  O107  1  0.25684090  0.25000000  0.91202442  1
  O  O108  1  0.01472381  0.25000000  0.67896181  1
  O  O109  1  0.48527619  0.75000000  0.17896181  1
  O  O110  1  0.98527619  0.75000000  0.32103819  1
  O  O111  1  0.51472381  0.25000000  0.82103819  1
  Te  Te112  1  0.33666196  0.64740330  0.01753680  1
  Te  Te113  1  0.16333804  -0.64740330  0.51753680  1
  Te  Te114  1  -0.33666196  1.14740330  -0.01753680  1
  Te  Te115  1  0.83666196  -0.14740330  0.48246320  1
  Te  Te116  1  -0.33666196  -0.64740330  -0.01753680  1
  Te  Te117  1  0.83666196  0.64740330  0.48246320  1
  Te  Te118  1  0.33666196  -0.14740330  0.01753680  1
  Te  Te119  1  0.16333804  1.14740330  0.51753680  1
  Te  Te120  1  0.00000000  0.00000000  0.50000000  1
  Te  Te121  1  0.50000000  0.00000000  -0.00000000  1
  Te  Te122  1  0.00000000  0.50000000  0.50000000  1
  Te  Te123  1  0.50000000  0.50000000  0.00000000  1
  Te  Te124  1  0.25619488  0.25000000  0.13994855  1
  Te  Te125  1  0.24380512  0.75000000  0.63994855  1
  Te  Te126  1  0.74380512  0.75000000  0.86005145  1
  Te  Te127  1  0.75619488  0.25000000  0.36005145  1
  Te  Te128  1  0.02089931  0.14965344  0.40385248  1
  Te  Te129  1  0.47910069  0.85034656  0.90385248  1
  Te  Te130  1  0.97910069  0.64965344  0.59614752  1
  Te  Te131  1  0.52089931  0.35034656  0.09614752  1
  Te  Te132  1  0.97910069  0.85034656  0.59614752  1
  Te  Te133  1  0.52089931  0.14965344  0.09614752  1
  Te  Te134  1  0.02089931  0.35034656  0.40385248  1
  Te  Te135  1  0.47910069  0.64965344  0.90385248  1
  Te  Te136  1  0.25505383  0.25000000  0.81717222  1
  Te  Te137  1  0.24494617  0.75000000  0.31717222  1
  Te  Te138  1  0.74494617  0.75000000  0.18282778  1
  Te  Te139  1  0.75505383  0.25000000  0.68282778  1
  Te  Te140  1  0.32193447  0.25000000  0.68964137  1
  Te  Te141  1  0.17806553  0.75000000  0.18964137  1
  Te  Te142  1  0.67806553  0.75000000  0.31035863  1
  Te  Te143  1  0.82193447  0.25000000  0.81035863  1
