# generated using pymatgen
data_LiF
_symmetry_space_group_name_H-M   'P 1'
_cell_length_a   9.25837644
_cell_length_b   9.25837644
_cell_length_c   3.24793469
_cell_angle_alpha   90.00000000
_cell_angle_beta   90.00000000
_cell_angle_gamma   120.00000000
_symmetry_Int_Tables_number   1
_chemical_formula_structural   LiF
_chemical_formula_sum   'Li14 F14'
_cell_volume   241.10576211
_cell_formula_units_Z   14
loop_
 _symmetry_equiv_pos_site_id
 _symmetry_equiv_pos_as_xyz
  1  'x, y, z'
loop_
 _atom_site_type_symbol
 _atom_site_label
 _atom_site_symmetry_multiplicity
 _atom_site_fract_x
 _atom_site_fract_y
 _atom_site_fract_z
 _atom_site_occupancy
  F  F0  1  0.00000000  0.00000000  0.79710903  1
  F  F1  1  0.00000000  0.00000000  0.20289097  1
  F  F2  1  0.30920133  0.27948745  0.85860022  1
  F  F3  1  0.72051255  0.02971388  0.85860022  1
  F  F4  1  0.97028612  0.69079867  0.85860022  1
  F  F5  1  0.72051255  0.69079867  0.14139978  1
  F  F6  1  0.97028612  0.27948745  0.14139978  1
  F  F7  1  0.30920133  0.02971388  0.14139978  1
  F  F8  1  0.04151204  0.95842747  0.29540425  1
  F  F9  1  0.04157253  0.08308457  0.29540425  1
  F  F10  1  0.91691543  0.95848796  0.29540425  1
  F  F11  1  0.04157253  0.95848796  0.70459575  1
  F  F12  1  0.91691543  0.95842747  0.70459575  1
  F  F13  1  0.04151204  0.08308457  0.70459575  1
  Li  Li14  1  0.66666667  0.33333333  0.50000000  1
  Li  Li15  1  0.71539553  0.88128544  0.25079475  1
  Li  Li16  1  -0.88128544  -0.16588991  0.25079475  1
  Li  Li17  1  0.16588991  -0.71539553  0.25079475  1
  Li  Li18  1  -0.88128544  -0.71539553  -0.25079475  1
  Li  Li19  1  0.16588991  0.88128544  -0.25079475  1
  Li  Li20  1  0.71539553  -0.16588991  -0.25079475  1
  Li  Li21  1  0.44807135  0.55192865  0.50000000  1
  Li  Li22  1  0.44807135  0.89614269  0.50000000  1
  Li  Li23  1  0.10385731  0.55192865  0.50000000  1
  Li  Li24  1  0.00000000  0.00000000  0.50000000  1
  Li  Li25  1  0.33333333  0.66666667  0.00000000  1
  Li  Li26  1  0.33333333  0.66666667  0.50000000  1
  Li  Li27  1  0.66666667  0.33333333  0.00000000  1
