# generated using pymatgen
data_LiCl
_symmetry_space_group_name_H-M   'P 1'
_cell_length_a   7.11260404
_cell_length_b   7.11260404
_cell_length_c   28.51812961
_cell_angle_alpha   90.00000000
_cell_angle_beta   90.00000000
_cell_angle_gamma   90.00000000
_symmetry_Int_Tables_number   1
_chemical_formula_structural   LiCl
_chemical_formula_sum   'Li32 Cl32'
_cell_volume   1442.70754330
_cell_formula_units_Z   32
loop_
 _symmetry_equiv_pos_site_id
 _symmetry_equiv_pos_as_xyz
  1  'x, y, z'
loop_
 _atom_site_type_symbol
 _atom_site_label
 _atom_site_symmetry_multiplicity
 _atom_site_fract_x
 _atom_site_fract_y
 _atom_site_fract_z
 _atom_site_occupancy
  Cl  Cl0  1  0.87856753  0.23692776  0.33096385  1
  Cl  Cl1  1  -0.37856753  -0.23692776  0.83096385  1
  Cl  Cl2  1  0.01307224  1.62856753  0.58096385  1
  Cl  Cl3  1  0.48692776  -0.62856753  1.08096385  1
  Cl  Cl4  1  -0.37856753  0.23692776  -0.33096385  1
  Cl  Cl5  1  0.87856753  -0.23692776  0.16903615  1
  Cl  Cl6  1  0.48692776  1.62856753  0.41903615  1
  Cl  Cl7  1  0.01307224  -0.62856753  -0.08096385  1
  Cl  Cl8  1  -0.87856753  -0.23692776  -0.33096385  1
  Cl  Cl9  1  1.37856753  0.23692776  0.16903615  1
  Cl  Cl10  1  0.98692776  -0.62856753  0.41903615  1
  Cl  Cl11  1  0.51307224  1.62856753  -0.08096385  1
  Cl  Cl12  1  1.37856753  -0.23692776  0.33096385  1
  Cl  Cl13  1  -0.87856753  0.23692776  0.83096385  1
  Cl  Cl14  1  0.51307224  -0.62856753  0.58096385  1
  Cl  Cl15  1  0.98692776  1.62856753  1.08096385  1
  Cl  Cl16  1  1.37856753  0.73692776  0.83096385  1
  Cl  Cl17  1  0.12143247  0.26307224  1.33096385  1
  Cl  Cl18  1  0.51307224  2.12856753  1.08096385  1
  Cl  Cl19  1  0.98692776  -0.12856753  1.58096385  1
  Cl  Cl20  1  0.12143247  0.73692776  0.16903615  1
  Cl  Cl21  1  1.37856753  0.26307224  0.66903615  1
  Cl  Cl22  1  0.98692776  2.12856753  0.91903615  1
  Cl  Cl23  1  0.51307224  -0.12856753  0.41903615  1
  Cl  Cl24  1  -0.37856753  0.26307224  0.16903615  1
  Cl  Cl25  1  1.87856753  0.73692776  0.66903615  1
  Cl  Cl26  1  1.48692776  -0.12856753  0.91903615  1
  Cl  Cl27  1  1.01307224  2.12856753  0.41903615  1
  Cl  Cl28  1  1.87856753  0.26307224  0.83096385  1
  Cl  Cl29  1  -0.37856753  0.73692776  1.33096385  1
  Cl  Cl30  1  1.01307224  -0.12856753  1.08096385  1
  Cl  Cl31  1  1.48692776  2.12856753  1.58096385  1
  Li  Li32  1  0.00000000  0.25000000  0.12500000  1
  Li  Li33  1  0.00000000  0.75000000  0.37500000  1
  Li  Li34  1  0.00000000  0.75000000  0.87500000  1
  Li  Li35  1  0.00000000  0.25000000  0.62500000  1
  Li  Li36  1  0.50000000  0.75000000  0.62500000  1
  Li  Li37  1  0.50000000  0.25000000  0.87500000  1
  Li  Li38  1  0.50000000  0.25000000  0.37500000  1
  Li  Li39  1  0.50000000  0.75000000  0.12500000  1
  Li  Li40  1  0.00000000  0.00000000  0.00000000  1
  Li  Li41  1  0.50000000  0.00000000  0.50000000  1
  Li  Li42  1  0.25000000  0.75000000  0.25000000  1
  Li  Li43  1  0.25000000  0.25000000  0.75000000  1
  Li  Li44  1  0.50000000  0.00000000  0.00000000  1
  Li  Li45  1  0.00000000  0.00000000  0.50000000  1
  Li  Li46  1  0.25000000  0.75000000  0.75000000  1
  Li  Li47  1  0.25000000  0.25000000  0.25000000  1
  Li  Li48  1  0.50000000  0.50000000  0.50000000  1
  Li  Li49  1  0.00000000  0.50000000  0.00000000  1
  Li  Li50  1  0.75000000  0.25000000  0.75000000  1
  Li  Li51  1  0.75000000  0.75000000  0.25000000  1
  Li  Li52  1  0.00000000  0.50000000  0.50000000  1
  Li  Li53  1  0.50000000  0.50000000  0.00000000  1
  Li  Li54  1  0.75000000  0.25000000  0.25000000  1
  Li  Li55  1  0.75000000  0.75000000  0.75000000  1
  Li  Li56  1  0.00000000  0.25000000  0.37500000  1
  Li  Li57  1  0.00000000  0.75000000  0.62500000  1
  Li  Li58  1  0.50000000  0.25000000  0.62500000  1
  Li  Li59  1  0.50000000  0.75000000  0.37500000  1
  Li  Li60  1  0.50000000  0.75000000  0.87500000  1
  Li  Li61  1  0.50000000  0.25000000  0.12500000  1
  Li  Li62  1  0.00000000  0.75000000  0.12500000  1
  Li  Li63  1  0.00000000  0.25000000  0.87500000  1
