# generated using pymatgen
data_LiAl3As2Se
_symmetry_space_group_name_H-M   'P 1'
_cell_length_a   5.21605687
_cell_length_b   4.87323696
_cell_length_c   7.54919565
_cell_angle_alpha   94.63737971
_cell_angle_beta   100.09924892
_cell_angle_gamma   108.62651122
_symmetry_Int_Tables_number   1
_chemical_formula_structural   LiAl3As2Se
_chemical_formula_sum   'Li1 Al3 As2 Se1'
_cell_volume   177.08808955
_cell_formula_units_Z   1
loop_
 _symmetry_equiv_pos_site_id
 _symmetry_equiv_pos_as_xyz
  1  'x, y, z'
loop_
 _atom_site_type_symbol
 _atom_site_label
 _atom_site_symmetry_multiplicity
 _atom_site_fract_x
 _atom_site_fract_y
 _atom_site_fract_z
 _atom_site_occupancy
  Al  Al0  1  0.12500000  0.12500000  0.12500000  1
  Al  Al1  1  0.50000000  0.50000000  0.50000000  1
  Al  Al2  1  0.25000000  0.25000000  0.25000000  1
  Se  Se3  1  0.75000000  0.75000000  0.75000000  1
  As  As4  1  0.67388771  0.22957004  0.96285505  1
  As  As5  1  0.34388828  0.80597359  0.61154812  1
  Li  Li6  1  0.96953329  0.00374108  0.46625290  1
