# generated using pymatgen
data_LiF
_symmetry_space_group_name_H-M   'P 1'
_cell_length_a   4.29816511
_cell_length_b   4.29816511
_cell_length_c   33.62055220
_cell_angle_alpha   90.00000000
_cell_angle_beta   90.00000000
_cell_angle_gamma   120.00000000
_symmetry_Int_Tables_number   1
_chemical_formula_structural   LiF
_chemical_formula_sum   'Li22 F22'
_cell_volume   537.90014647
_cell_formula_units_Z   22
loop_
 _symmetry_equiv_pos_site_id
 _symmetry_equiv_pos_as_xyz
  1  'x, y, z'
loop_
 _atom_site_type_symbol
 _atom_site_label
 _atom_site_symmetry_multiplicity
 _atom_site_fract_x
 _atom_site_fract_y
 _atom_site_fract_z
 _atom_site_occupancy
  F  F0  1  0.66666667  0.33333333  0.25000000  1
  F  F1  1  0.33333333  0.66666667  0.75000000  1
  F  F2  1  0.00000000  0.00000000  0.97276037  1
  F  F3  1  0.00000000  0.00000000  0.47276037  1
  F  F4  1  0.00000000  0.00000000  0.02723963  1
  F  F5  1  0.00000000  0.00000000  0.52723963  1
  F  F6  1  0.33333333  0.66666667  0.25000000  1
  F  F7  1  0.66666667  0.33333333  0.75000000  1
  F  F8  1  0.00000000  0.00000000  0.08008900  1
  F  F9  1  0.00000000  0.00000000  0.58008900  1
  F  F10  1  0.00000000  0.00000000  0.91991100  1
  F  F11  1  0.00000000  0.00000000  0.41991100  1
  F  F12  1  0.83096820  0.87871090  0.25000000  1
  F  F13  1  0.12128910  0.95225730  0.25000000  1
  F  F14  1  0.04774270  0.16903180  0.25000000  1
  F  F15  1  0.16903180  0.12128910  0.75000000  1
  F  F16  1  0.87871090  0.04774270  0.75000000  1
  F  F17  1  0.95225730  0.83096820  0.75000000  1
  F  F18  1  0.00000000  0.00000000  0.70316942  1
  F  F19  1  0.00000000  0.00000000  0.20316942  1
  F  F20  1  0.00000000  0.00000000  0.29683058  1
  F  F21  1  0.00000000  0.00000000  0.79683058  1
  Li  Li22  1  0.43739299  0.41625418  0.69248928  1
  Li  Li23  1  -0.41625418  0.02113881  0.69248928  1
  Li  Li24  1  -0.02113881  -0.43739299  0.69248928  1
  Li  Li25  1  -0.43739299  -0.41625418  1.19248928  1
  Li  Li26  1  0.41625418  -0.02113881  1.19248928  1
  Li  Li27  1  0.02113881  0.43739299  1.19248928  1
  Li  Li28  1  -0.43739299  -0.41625418  -0.69248928  1
  Li  Li29  1  0.41625418  -0.02113881  -0.69248928  1
  Li  Li30  1  0.02113881  0.43739299  -0.69248928  1
  Li  Li31  1  0.43739299  0.41625418  -0.19248928  1
  Li  Li32  1  -0.41625418  0.02113881  -0.19248928  1
  Li  Li33  1  -0.02113881  -0.43739299  -0.19248928  1
  Li  Li34  1  0.10509874  0.66783405  0.25000000  1
  Li  Li35  1  0.33216595  0.43726469  0.25000000  1
  Li  Li36  1  0.56273531  0.89490126  0.25000000  1
  Li  Li37  1  0.89490126  0.33216595  0.75000000  1
  Li  Li38  1  0.66783405  0.56273531  0.75000000  1
  Li  Li39  1  0.43726469  0.10509874  0.75000000  1
  Li  Li40  1  0.33333333  0.66666667  0.32946447  1
  Li  Li41  1  0.66666667  0.33333333  0.82946447  1
  Li  Li42  1  0.66666667  0.33333333  0.67053553  1
  Li  Li43  1  0.33333333  0.66666667  0.17053553  1
