# generated using pymatgen
data_LiF
_symmetry_space_group_name_H-M   'P 1'
_cell_length_a   12.37853506
_cell_length_b   12.37853506
_cell_length_c   6.75867019
_cell_angle_alpha   90.00000000
_cell_angle_beta   90.00000000
_cell_angle_gamma   120.00000000
_symmetry_Int_Tables_number   1
_chemical_formula_structural   LiF
_chemical_formula_sum   'Li36 F36'
_cell_volume   896.87183897
_cell_formula_units_Z   36
loop_
 _symmetry_equiv_pos_site_id
 _symmetry_equiv_pos_as_xyz
  1  'x, y, z'
loop_
 _atom_site_type_symbol
 _atom_site_label
 _atom_site_symmetry_multiplicity
 _atom_site_fract_x
 _atom_site_fract_y
 _atom_site_fract_z
 _atom_site_occupancy
  F  F0  1  0.50000000  0.00000000  0.00000000  1
  F  F1  1  0.00000000  0.50000000  0.00000000  1
  F  F2  1  0.50000000  0.50000000  0.00000000  1
  F  F3  1  0.00000000  0.50000000  0.50000000  1
  F  F4  1  0.50000000  0.00000000  0.50000000  1
  F  F5  1  0.50000000  0.50000000  0.50000000  1
  F  F6  1  0.16666667  0.33333333  0.33333333  1
  F  F7  1  0.66666667  0.83333333  0.33333333  1
  F  F8  1  0.16666667  0.83333333  0.33333333  1
  F  F9  1  0.66666667  0.83333333  0.83333333  1
  F  F10  1  0.16666667  0.33333333  0.83333333  1
  F  F11  1  0.16666667  0.83333333  0.83333333  1
  F  F12  1  0.83333333  0.66666667  0.66666667  1
  F  F13  1  0.33333333  0.16666667  0.66666667  1
  F  F14  1  0.83333333  0.16666667  0.66666667  1
  F  F15  1  0.33333333  0.16666667  0.16666667  1
  F  F16  1  0.83333333  0.66666667  0.16666667  1
  F  F17  1  0.83333333  0.16666667  0.16666667  1
  F  F18  1  0.43511074  0.00000000  0.25000000  1
  F  F19  1  0.00000000  0.43511074  0.25000000  1
  F  F20  1  0.56488926  0.56488926  0.25000000  1
  F  F21  1  0.56488926  0.00000000  0.75000000  1
  F  F22  1  0.00000000  0.56488926  0.75000000  1
  F  F23  1  0.43511074  0.43511074  0.75000000  1
  F  F24  1  0.10177740  0.33333333  0.58333333  1
  F  F25  1  0.66666667  0.76844407  0.58333333  1
  F  F26  1  0.23155593  0.89822260  0.58333333  1
  F  F27  1  0.23155593  0.33333333  0.08333333  1
  F  F28  1  0.66666667  0.89822260  0.08333333  1
  F  F29  1  0.10177740  0.76844407  0.08333333  1
  F  F30  1  0.76844407  0.66666667  0.91666667  1
  F  F31  1  0.33333333  0.10177740  0.91666667  1
  F  F32  1  0.89822260  0.23155593  0.91666667  1
  F  F33  1  0.89822260  0.66666667  0.41666667  1
  F  F34  1  0.33333333  0.23155593  0.41666667  1
  F  F35  1  0.76844407  0.10177740  0.41666667  1
  Li  Li36  1  0.15450038  0.17950164  0.50433523  1
  Li  Li37  1  -0.17950164  -0.02500126  0.50433523  1
  Li  Li38  1  0.02500126  -0.15450038  0.50433523  1
  Li  Li39  1  0.17950164  0.15450038  -0.00433523  1
  Li  Li40  1  -0.02500126  -0.17950164  -0.00433523  1
  Li  Li41  1  -0.15450038  0.02500126  -0.00433523  1
  Li  Li42  1  -0.15450038  -0.17950164  -0.50433523  1
  Li  Li43  1  0.17950164  0.02500126  -0.50433523  1
  Li  Li44  1  -0.02500126  0.15450038  -0.50433523  1
  Li  Li45  1  -0.17950164  -0.15450038  1.00433523  1
  Li  Li46  1  0.02500126  0.17950164  1.00433523  1
  Li  Li47  1  0.15450038  -0.02500126  1.00433523  1
  Li  Li48  1  0.82116705  0.51283498  0.83766857  1
  Li  Li49  1  0.48716502  0.30833207  0.83766857  1
  Li  Li50  1  0.69166793  0.17883295  0.83766857  1
  Li  Li51  1  0.84616831  0.48783372  0.32899810  1
  Li  Li52  1  0.64166541  0.15383169  0.32899810  1
  Li  Li53  1  0.51216628  0.35833459  0.32899810  1
  Li  Li54  1  0.51216628  0.15383169  -0.17100190  1
  Li  Li55  1  0.84616831  0.35833459  -0.17100190  1
  Li  Li56  1  0.64166541  0.48783372  -0.17100190  1
  Li  Li57  1  0.48716502  0.17883295  1.33766857  1
  Li  Li58  1  0.69166793  0.51283498  1.33766857  1
  Li  Li59  1  0.82116705  0.30833207  1.33766857  1
  Li  Li60  1  0.48783372  0.84616831  1.17100190  1
  Li  Li61  1  0.15383169  0.64166541  1.17100190  1
  Li  Li62  1  0.35833459  0.51216628  1.17100190  1
  Li  Li63  1  0.51283498  0.82116705  0.66233143  1
  Li  Li64  1  0.30833207  0.48716502  0.66233143  1
  Li  Li65  1  0.17883295  0.69166793  0.66233143  1
  Li  Li66  1  0.17883295  0.48716502  0.16233143  1
  Li  Li67  1  0.51283498  0.69166793  0.16233143  1
  Li  Li68  1  0.30833207  0.82116705  0.16233143  1
  Li  Li69  1  0.15383169  0.51216628  1.67100190  1
  Li  Li70  1  0.35833459  0.84616831  1.67100190  1
  Li  Li71  1  0.48783372  0.64166541  1.67100190  1
