# generated using pymatgen
data_LiCu3Sb2(Te2P)2
_symmetry_space_group_name_H-M   'P 1'
_cell_length_a   4.62072466
_cell_length_b   4.67669124
_cell_length_c   6.94353957
_cell_angle_alpha   95.45546579
_cell_angle_beta   101.64542306
_cell_angle_gamma   111.54319423
_symmetry_Int_Tables_number   1
_chemical_formula_structural   LiCu3Sb2(Te2P)2
_chemical_formula_sum   'Li1 Cu3 Sb2 Te4 P2'
_cell_volume   134.31456426
_cell_formula_units_Z   1
loop_
 _symmetry_equiv_pos_site_id
 _symmetry_equiv_pos_as_xyz
  1  'x, y, z'
loop_
 _atom_site_type_symbol
 _atom_site_label
 _atom_site_symmetry_multiplicity
 _atom_site_fract_x
 _atom_site_fract_y
 _atom_site_fract_z
 _atom_site_occupancy
  Te  Te0  1  0.00000000  0.00000000  0.00000000  1
  Te  Te1  1  0.50000000  0.50000000  0.50000000  1
  Te  Te2  1  0.50000000  0.50000000  0.00000000  1
  Te  Te3  1  0.50000000  0.00000000  0.50000000  1
  Cu  Cu4  1  0.00000000  0.50000000  0.50000000  1
  Cu  Cu5  1  0.07477730  0.83044797  0.30655836  1
  Cu  Cu6  1  0.24379988  0.77219835  0.59570597  1
  P  P7  1  0.89994843  0.05491146  0.84663665  1
  P  P8  1  0.97893525  0.53889972  0.91593217  1
  Li  Li9  1  0.71841662  0.95553065  0.89736014  1
  Sb  Sb10  1  0.22334492  0.56117319  0.73978776  1
  Sb  Sb11  1  0.60513884  0.28193397  0.23965754  1
