# generated using pymatgen
data_Li2Ca3F8
_symmetry_space_group_name_H-M   'P 1'
_cell_length_a   12.45561201
_cell_length_b   12.45561201
_cell_length_c   13.71601507
_cell_angle_alpha   90.00000000
_cell_angle_beta   90.00000000
_cell_angle_gamma   120.00000000
_symmetry_Int_Tables_number   1
_chemical_formula_structural   Li2Ca3F8
_chemical_formula_sum   'Li16 Ca24 F64'
_cell_volume   1842.84465865
_cell_formula_units_Z   8
loop_
 _symmetry_equiv_pos_site_id
 _symmetry_equiv_pos_as_xyz
  1  'x, y, z'
loop_
 _atom_site_type_symbol
 _atom_site_label
 _atom_site_symmetry_multiplicity
 _atom_site_fract_x
 _atom_site_fract_y
 _atom_site_fract_z
 _atom_site_occupancy
  Ca  Ca0  1  0.94756416  0.15032554  0.29044025  1
  Ca  Ca1  1  0.84967446  0.79723862  0.29044025  1
  Ca  Ca2  1  0.20276138  0.05243584  0.29044025  1
  Ca  Ca3  1  0.84967446  0.05243584  0.70955975  1
  Ca  Ca4  1  0.20276138  0.15032554  0.70955975  1
  Ca  Ca5  1  0.94756416  0.79723862  0.70955975  1
  Ca  Ca6  1  0.13026822  0.48526793  0.79770361  1
  Ca  Ca7  1  0.51473207  0.64500029  0.79770361  1
  Ca  Ca8  1  0.35499971  0.86973178  0.79770361  1
  Ca  Ca9  1  0.51473207  0.86973178  0.20229639  1
  Ca  Ca10  1  0.35499971  0.48526793  0.20229639  1
  Ca  Ca11  1  0.13026822  0.64500029  0.20229639  1
  Ca  Ca12  1  0.33160282  0.28243642  0.62887049  1
  Ca  Ca13  1  0.71756358  0.04916640  0.62887049  1
  Ca  Ca14  1  0.95083360  0.66839718  0.62887049  1
  Ca  Ca15  1  0.71756358  0.66839718  0.37112951  1
  Ca  Ca16  1  0.95083360  0.28243642  0.37112951  1
  Ca  Ca17  1  0.33160282  0.04916640  0.37112951  1
  Ca  Ca18  1  0.51156453  0.06371416  0.89760135  1
  Ca  Ca19  1  0.93628584  0.44785037  0.89760135  1
  Ca  Ca20  1  0.55214963  0.48843547  0.89760135  1
  Ca  Ca21  1  0.93628584  0.48843547  0.10239865  1
  Ca  Ca22  1  0.55214963  0.06371416  0.10239865  1
  Ca  Ca23  1  0.51156453  0.44785037  0.10239865  1
  F  F24  1  0.33333333  0.66666667  0.84129372  1
  F  F25  1  0.33333333  0.66666667  0.15870628  1
  F  F26  1  0.19148290  0.68811413  0.03602141  1
  F  F27  1  -0.68811413  -0.49663123  0.03602141  1
  F  F28  1  0.49663123  -0.19148290  0.03602141  1
  F  F29  1  -0.68811413  -0.19148290  -0.03602141  1
  F  F30  1  0.49663123  0.68811413  -0.03602141  1
  F  F31  1  0.19148290  -0.49663123  -0.03602141  1
  F  F32  1  0.00000000  0.00000000  0.30806850  1
  F  F33  1  0.00000000  0.00000000  0.69193150  1
  F  F34  1  0.26404825  0.73595175  0.00000000  1
  F  F35  1  0.26404825  0.52809650  0.00000000  1
  F  F36  1  0.47190350  0.73595175  0.00000000  1
  F  F37  1  0.73749551  0.22647466  0.70185626  1
  F  F38  1  0.77352534  0.51102085  0.70185626  1
  F  F39  1  0.48897915  0.26250449  0.70185626  1
  F  F40  1  0.77352534  0.26250449  0.29814374  1
  F  F41  1  0.48897915  0.22647466  0.29814374  1
  F  F42  1  0.73749551  0.51102085  0.29814374  1
  F  F43  1  0.33737660  0.23369129  0.83671964  1
  F  F44  1  0.76630871  0.10368532  0.83671964  1
  F  F45  1  0.89631468  0.66262340  0.83671964  1
  F  F46  1  0.76630871  0.66262340  0.16328036  1
  F  F47  1  0.89631468  0.23369129  0.16328036  1
  F  F48  1  0.33737660  0.10368532  0.16328036  1
  F  F49  1  0.00000000  0.00000000  0.50000000  1
  F  F50  1  0.95818721  0.04181279  0.50000000  1
  F  F51  1  0.95818721  0.91637441  0.50000000  1
  F  F52  1  0.08362559  0.04181279  0.50000000  1
  F  F53  1  0.32074865  0.35688322  0.53514012  1
  F  F54  1  0.64311678  0.96386542  0.53514012  1
  F  F55  1  0.03613458  0.67925135  0.53514012  1
  F  F56  1  0.64311678  0.67925135  0.46485988  1
  F  F57  1  0.03613458  0.35688322  0.46485988  1
  F  F58  1  0.32074865  0.96386542  0.46485988  1
  F  F59  1  0.08169647  0.17459418  0.78733674  1
  F  F60  1  0.82540582  0.90710228  0.78733674  1
  F  F61  1  0.09289772  0.91830353  0.78733674  1
  F  F62  1  0.82540582  0.91830353  0.21266326  1
  F  F63  1  0.09289772  0.17459418  0.21266326  1
  F  F64  1  0.08169647  0.90710228  0.21266326  1
  F  F65  1  0.46197395  0.18488708  0.33212649  1
  F  F66  1  0.81511292  0.27708687  0.33212649  1
  F  F67  1  0.72291313  0.53802605  0.33212649  1
  F  F68  1  0.81511292  0.53802605  0.66787351  1
  F  F69  1  0.72291313  0.18488708  0.66787351  1
  F  F70  1  0.46197395  0.27708687  0.66787351  1
  F  F71  1  0.00000000  0.00000000  0.00000000  1
  F  F72  1  0.43462569  0.49775511  0.97816618  1
  F  F73  1  0.50224489  0.93687058  0.97816618  1
  F  F74  1  0.06312942  0.56537431  0.97816618  1
  F  F75  1  0.50224489  0.56537431  0.02183382  1
  F  F76  1  0.06312942  0.49775511  0.02183382  1
  F  F77  1  0.43462569  0.93687058  0.02183382  1
  F  F78  1  0.33333333  0.66666667  0.00000000  1
  F  F79  1  0.66666667  0.33333333  0.50000000  1
  F  F80  1  0.01359742  0.41784772  0.09753478  1
  F  F81  1  0.58215228  0.59574969  0.09753478  1
  F  F82  1  0.40425031  0.98640258  0.09753478  1
  F  F83  1  0.58215228  0.98640258  0.90246522  1
  F  F84  1  0.40425031  0.41784772  0.90246522  1
  F  F85  1  0.01359742  0.59574969  0.90246522  1
  F  F86  1  0.33333333  0.66666667  0.76208058  1
  F  F87  1  0.33333333  0.66666667  0.23791942  1
  Li  Li88  1  0.42740272  0.06614399  0.57879013  1
  Li  Li89  1  0.93385601  0.36125873  0.57879013  1
  Li  Li90  1  0.63874127  0.57259728  0.57879013  1
  Li  Li91  1  0.93385601  0.57259728  0.42120987  1
  Li  Li92  1  0.63874127  0.06614399  0.42120987  1
  Li  Li93  1  0.42740272  0.36125873  0.42120987  1
  Li  Li94  1  0.22585729  0.81744744  0.45404595  1
  Li  Li95  1  0.18255256  0.40840986  0.45404595  1
  Li  Li96  1  0.59159014  0.77414271  0.45404595  1
  Li  Li97  1  0.18255256  0.77414271  0.54595405  1
  Li  Li98  1  0.59159014  0.81744744  0.54595405  1
  Li  Li99  1  0.22585729  0.40840986  0.54595405  1
  Li  Li100  1  0.04608536  0.95391464  0.00000000  1
  Li  Li101  1  0.04608536  0.09217071  0.00000000  1
  Li  Li102  1  0.90782929  0.95391464  0.00000000  1
  Li  Li103  1  0.66666667  0.33333333  0.00000000  1
