# generated using pymatgen
data_Li3Y2P3Se
_symmetry_space_group_name_H-M   'P 1'
_cell_length_a   5.57865081
_cell_length_b   5.85255898
_cell_length_c   6.91377273
_cell_angle_alpha   93.24663876
_cell_angle_beta   95.33534304
_cell_angle_gamma   100.31926555
_symmetry_Int_Tables_number   1
_chemical_formula_structural   Li3Y2P3Se
_chemical_formula_sum   'Li3 Y2 P3 Se1'
_cell_volume   220.49726152
_cell_formula_units_Z   1
loop_
 _symmetry_equiv_pos_site_id
 _symmetry_equiv_pos_as_xyz
  1  'x, y, z'
loop_
 _atom_site_type_symbol
 _atom_site_label
 _atom_site_symmetry_multiplicity
 _atom_site_fract_x
 _atom_site_fract_y
 _atom_site_fract_z
 _atom_site_occupancy
  Se  Se0  1  0.12500000  0.00000000  0.25000000  1
  P  P1  1  0.00000000  0.00000000  0.00000000  1
  P  P2  1  0.37500000  0.00000000  0.25000000  1
  P  P3  1  0.25000000  0.25000000  0.25000000  1
  Li  Li4  1  0.00000000  0.25000000  0.12500000  1
  Li  Li5  1  0.14966787  0.60534514  0.76347289  1
  Li  Li6  1  0.90088781  0.26734884  0.00001245  1
  Y  Y7  1  0.74700820  0.63091079  0.58368960  1
  Y  Y8  1  0.12939643  0.69734352  0.38879187  1
