# generated using pymatgen
data_LiF
_symmetry_space_group_name_H-M   'P 1'
_cell_length_a   12.67424067
_cell_length_b   14.44622680
_cell_length_c   6.55179144
_cell_angle_alpha   90.00000000
_cell_angle_beta   90.00000000
_cell_angle_gamma   90.00000000
_symmetry_Int_Tables_number   1
_chemical_formula_structural   LiF
_chemical_formula_sum   'Li44 F44'
_cell_volume   1199.59996019
_cell_formula_units_Z   44
loop_
 _symmetry_equiv_pos_site_id
 _symmetry_equiv_pos_as_xyz
  1  'x, y, z'
loop_
 _atom_site_type_symbol
 _atom_site_label
 _atom_site_symmetry_multiplicity
 _atom_site_fract_x
 _atom_site_fract_y
 _atom_site_fract_z
 _atom_site_occupancy
  F  F0  1  0.52910193  0.00194661  0.18167235  1
  F  F1  1  0.47089807  0.99805339  0.18167235  1
  F  F2  1  0.97089807  0.50194661  0.81832765  1
  F  F3  1  0.02910193  0.49805339  0.81832765  1
  F  F4  1  0.47089807  0.99805339  0.81832765  1
  F  F5  1  0.52910193  0.00194661  0.81832765  1
  F  F6  1  0.02910193  0.49805339  0.18167235  1
  F  F7  1  0.97089807  0.50194661  0.18167235  1
  F  F8  1  0.86089451  0.86757462  0.66592411  1
  F  F9  1  0.13910549  0.13242538  0.66592411  1
  F  F10  1  0.63910549  0.36757462  0.33407589  1
  F  F11  1  0.36089451  0.63242538  0.33407589  1
  F  F12  1  0.13910549  0.13242538  0.33407589  1
  F  F13  1  0.86089451  0.86757462  0.33407589  1
  F  F14  1  0.36089451  0.63242538  0.66592411  1
  F  F15  1  0.63910549  0.36757462  0.66592411  1
  F  F16  1  0.70475967  0.39487740  0.57225589  1
  F  F17  1  0.29524033  0.60512260  0.57225589  1
  F  F18  1  0.79524033  0.89487740  0.42774411  1
  F  F19  1  0.20475967  0.10512260  0.42774411  1
  F  F20  1  0.29524033  0.60512260  0.42774411  1
  F  F21  1  0.70475967  0.39487740  0.42774411  1
  F  F22  1  0.20475967  0.10512260  0.57225589  1
  F  F23  1  0.79524033  0.89487740  0.57225589  1
  F  F24  1  0.05127973  0.60890221  0.50000000  1
  F  F25  1  0.94872027  0.39109779  0.50000000  1
  F  F26  1  0.44872027  0.10890221  0.50000000  1
  F  F27  1  0.55127973  0.89109779  0.50000000  1
  F  F28  1  0.65613035  0.21968120  0.83907816  1
  F  F29  1  0.34386965  0.78031880  0.83907816  1
  F  F30  1  0.84386965  0.71968120  0.16092184  1
  F  F31  1  0.15613035  0.28031880  0.16092184  1
  F  F32  1  0.34386965  0.78031880  0.16092184  1
  F  F33  1  0.65613035  0.21968120  0.16092184  1
  F  F34  1  0.15613035  0.28031880  0.83907816  1
  F  F35  1  0.84386965  0.71968120  0.83907816  1
  F  F36  1  0.25349055  0.21958044  0.92517902  1
  F  F37  1  0.74650945  0.78041956  0.92517902  1
  F  F38  1  0.24650945  0.71958044  0.07482098  1
  F  F39  1  0.75349055  0.28041956  0.07482098  1
  F  F40  1  0.74650945  0.78041956  0.07482098  1
  F  F41  1  0.25349055  0.21958044  0.07482098  1
  F  F42  1  0.75349055  0.28041956  0.92517902  1
  F  F43  1  0.24650945  0.71958044  0.92517902  1
  Li  Li44  1  0.00000000  0.50000000  0.00000000  1
  Li  Li45  1  0.50000000  0.00000000  0.00000000  1
  Li  Li46  1  0.62782868  0.12193138  0.00000000  1
  Li  Li47  1  0.37217132  0.87806862  0.00000000  1
  Li  Li48  1  0.87217132  0.62193138  0.00000000  1
  Li  Li49  1  0.12782868  0.37806862  0.00000000  1
  Li  Li50  1  0.00000000  0.00000000  0.00000000  1
  Li  Li51  1  0.50000000  0.50000000  0.00000000  1
  Li  Li52  1  0.74170177  0.07448454  0.80048281  1
  Li  Li53  1  -0.74170177  -0.07448454  0.80048281  1
  Li  Li54  1  -0.24170177  0.57448454  -0.80048281  1
  Li  Li55  1  1.24170177  0.42551546  -0.80048281  1
  Li  Li56  1  -0.74170177  -0.07448454  -0.80048281  1
  Li  Li57  1  0.74170177  0.07448454  -0.80048281  1
  Li  Li58  1  1.24170177  0.42551546  0.80048281  1
  Li  Li59  1  -0.24170177  0.57448454  0.80048281  1
  Li  Li60  1  0.82102952  0.44999063  0.80978694  1
  Li  Li61  1  0.17897048  0.55000937  0.80978694  1
  Li  Li62  1  0.67897048  0.94999063  0.19021306  1
  Li  Li63  1  0.32102952  0.05000937  0.19021306  1
  Li  Li64  1  0.17897048  0.55000937  0.19021306  1
  Li  Li65  1  0.82102952  0.44999063  0.19021306  1
  Li  Li66  1  0.32102952  0.05000937  0.80978694  1
  Li  Li67  1  0.67897048  0.94999063  0.80978694  1
  Li  Li68  1  0.61178700  0.15394180  0.77454887  1
  Li  Li69  1  0.38821300  0.84605820  0.77454887  1
  Li  Li70  1  0.88821300  0.65394180  0.22545113  1
  Li  Li71  1  0.11178700  0.34605820  0.22545113  1
  Li  Li72  1  0.38821300  0.84605820  0.22545113  1
  Li  Li73  1  0.61178700  0.15394180  0.22545113  1
  Li  Li74  1  0.11178700  0.34605820  0.77454887  1
  Li  Li75  1  0.88821300  0.65394180  0.77454887  1
  Li  Li76  1  0.40517170  0.97244359  0.50000000  1
  Li  Li77  1  0.59482830  0.02755641  0.50000000  1
  Li  Li78  1  0.09482830  0.47244359  0.50000000  1
  Li  Li79  1  0.90517170  0.52755641  0.50000000  1
  Li  Li80  1  0.09524701  0.81613586  0.84482644  1
  Li  Li81  1  0.90475299  0.18386414  0.84482644  1
  Li  Li82  1  0.40475299  0.31613586  0.15517356  1
  Li  Li83  1  0.59524701  0.68386414  0.15517356  1
  Li  Li84  1  0.90475299  0.18386414  0.15517356  1
  Li  Li85  1  0.09524701  0.81613586  0.15517356  1
  Li  Li86  1  0.59524701  0.68386414  0.84482644  1
  Li  Li87  1  0.40475299  0.31613586  0.84482644  1
