# generated using pymatgen
data_LiAs4PSe
_symmetry_space_group_name_H-M   'P 1'
_cell_length_a   4.47910331
_cell_length_b   4.60314225
_cell_length_c   5.76864409
_cell_angle_alpha   94.91434587
_cell_angle_beta   96.71089006
_cell_angle_gamma   102.45952925
_symmetry_Int_Tables_number   1
_chemical_formula_structural   LiAs4PSe
_chemical_formula_sum   'Li1 As4 P1 Se1'
_cell_volume   114.58436140
_cell_formula_units_Z   1
loop_
 _symmetry_equiv_pos_site_id
 _symmetry_equiv_pos_as_xyz
  1  'x, y, z'
loop_
 _atom_site_type_symbol
 _atom_site_label
 _atom_site_symmetry_multiplicity
 _atom_site_fract_x
 _atom_site_fract_y
 _atom_site_fract_z
 _atom_site_occupancy
  Se  Se0  1  0.12500000  0.00000000  0.25000000  1
  P  P1  1  0.00000000  0.00000000  0.00000000  1
  As  As2  1  0.37500000  0.00000000  0.25000000  1
  As  As3  1  0.25000000  0.25000000  0.25000000  1
  As  As4  1  0.00000000  0.25000000  0.12500000  1
  As  As5  1  0.00741749  0.24552995  0.22196341  1
  Li  Li6  1  0.43626321  0.45174482  0.23321216  1
