# generated using pymatgen
data_LiF
_symmetry_space_group_name_H-M   'P 1'
_cell_length_a   9.56505224
_cell_length_b   8.10077428
_cell_length_c   6.90407862
_cell_angle_alpha   90.00000000
_cell_angle_beta   90.00000000
_cell_angle_gamma   90.00000000
_symmetry_Int_Tables_number   1
_chemical_formula_structural   LiF
_chemical_formula_sum   'Li24 F24'
_cell_volume   534.95789996
_cell_formula_units_Z   24
loop_
 _symmetry_equiv_pos_site_id
 _symmetry_equiv_pos_as_xyz
  1  'x, y, z'
loop_
 _atom_site_type_symbol
 _atom_site_label
 _atom_site_symmetry_multiplicity
 _atom_site_fract_x
 _atom_site_fract_y
 _atom_site_fract_z
 _atom_site_occupancy
  F  F0  1  0.31019041  0.33343295  0.30702048  1
  F  F1  1  0.68980959  0.66656705  0.30702048  1
  F  F2  1  0.18980959  0.83343295  0.69297952  1
  F  F3  1  0.81019041  0.16656705  0.69297952  1
  F  F4  1  0.68980959  0.66656705  0.69297952  1
  F  F5  1  0.31019041  0.33343295  0.69297952  1
  F  F6  1  0.81019041  0.16656705  0.30702048  1
  F  F7  1  0.18980959  0.83343295  0.30702048  1
  F  F8  1  0.96680816  0.38668992  0.00000000  1
  F  F9  1  0.03319184  0.61331008  0.00000000  1
  F  F10  1  0.53319184  0.88668992  0.00000000  1
  F  F11  1  0.46680816  0.11331008  -0.00000000  1
  F  F12  1  0.00000000  0.00000000  0.71485070  1
  F  F13  1  0.50000000  0.50000000  0.28514930  1
  F  F14  1  0.00000000  0.00000000  0.28514930  1
  F  F15  1  0.50000000  0.50000000  0.71485070  1
  F  F16  1  0.36718887  0.51669502  0.72458136  1
  F  F17  1  0.63281113  0.48330498  0.72458136  1
  F  F18  1  0.13281113  0.01669502  0.27541864  1
  F  F19  1  0.86718887  0.98330498  0.27541864  1
  F  F20  1  0.63281113  0.48330498  0.27541864  1
  F  F21  1  0.36718887  0.51669502  0.27541864  1
  F  F22  1  0.86718887  0.98330498  0.72458136  1
  F  F23  1  0.13281113  0.01669502  0.72458136  1
  Li  Li24  1  0.00000000  0.00000000  0.86213197  1
  Li  Li25  1  0.50000000  0.50000000  0.13786803  1
  Li  Li26  1  0.00000000  0.00000000  0.13786803  1
  Li  Li27  1  0.50000000  0.50000000  0.86213197  1
  Li  Li28  1  0.70843279  0.35605675  0.29387894  1
  Li  Li29  1  -0.70843279  -0.35605675  0.29387894  1
  Li  Li30  1  -0.20843279  0.85605675  -0.29387894  1
  Li  Li31  1  1.20843279  0.14394325  -0.29387894  1
  Li  Li32  1  -0.70843279  -0.35605675  -0.29387894  1
  Li  Li33  1  0.70843279  0.35605675  -0.29387894  1
  Li  Li34  1  1.20843279  0.14394325  0.29387894  1
  Li  Li35  1  -0.20843279  0.85605675  0.29387894  1
  Li  Li36  1  0.00000000  0.00000000  0.50000000  1
  Li  Li37  1  0.50000000  0.50000000  0.50000000  1
  Li  Li38  1  0.00000000  0.50000000  0.70845029  1
  Li  Li39  1  0.50000000  -0.00000000  0.29154971  1
  Li  Li40  1  0.00000000  0.50000000  0.29154971  1
  Li  Li41  1  0.50000000  -0.00000000  0.70845029  1
  Li  Li42  1  0.33194242  0.47925264  0.50000000  1
  Li  Li43  1  0.66805758  0.52074736  0.50000000  1
  Li  Li44  1  0.16805758  0.97925264  0.50000000  1
  Li  Li45  1  0.83194242  0.02074736  0.50000000  1
  Li  Li46  1  0.00000000  0.50000000  0.00000000  1
  Li  Li47  1  0.50000000  -0.00000000  0.00000000  1
