# generated using pymatgen
data_Li2Y2AsP3Se2
_symmetry_space_group_name_H-M   'P 1'
_cell_length_a   4.40761933
_cell_length_b   4.66063608
_cell_length_c   6.75254600
_cell_angle_alpha   95.79694093
_cell_angle_beta   102.07436020
_cell_angle_gamma   110.61035026
_symmetry_Int_Tables_number   1
_chemical_formula_structural   Li2Y2AsP3Se2
_chemical_formula_sum   'Li2 Y2 As1 P3 Se2'
_cell_volume   124.62993034
_cell_formula_units_Z   1
loop_
 _symmetry_equiv_pos_site_id
 _symmetry_equiv_pos_as_xyz
  1  'x, y, z'
loop_
 _atom_site_type_symbol
 _atom_site_label
 _atom_site_symmetry_multiplicity
 _atom_site_fract_x
 _atom_site_fract_y
 _atom_site_fract_z
 _atom_site_occupancy
  Se  Se0  1  0.00000000  0.00000000  0.00000000  1
  Se  Se1  1  0.50000000  0.50000000  0.50000000  1
  P  P2  1  0.25000000  0.25000000  0.25000000  1
  P  P3  1  0.75000000  0.25000000  0.00000000  1
  P  P4  1  0.25000000  0.75000000  0.50000000  1
  As  As5  1  0.54098258  0.63547895  0.18935556  1
  Li  Li6  1  0.08111941  0.68012721  0.51169758  1
  Li  Li7  1  0.69047495  0.50910412  0.61074025  1
  Y  Y8  1  0.90687347  0.87965782  0.21558933  1
  Y  Y9  1  0.45513853  0.19922705  0.79676576  1
