# generated using pymatgen
data_Li2Y2P3Se2
_symmetry_space_group_name_H-M   'P 1'
_cell_length_a   4.72701097
_cell_length_b   4.97818355
_cell_length_c   7.00994577
_cell_angle_alpha   95.22366340
_cell_angle_beta   101.37605290
_cell_angle_gamma   110.98137977
_symmetry_Int_Tables_number   1
_chemical_formula_structural   Li2Y2P3Se2
_chemical_formula_sum   'Li2 Y2 P3 Se2'
_cell_volume   148.62059269
_cell_formula_units_Z   1
loop_
 _symmetry_equiv_pos_site_id
 _symmetry_equiv_pos_as_xyz
  1  'x, y, z'
loop_
 _atom_site_type_symbol
 _atom_site_label
 _atom_site_symmetry_multiplicity
 _atom_site_fract_x
 _atom_site_fract_y
 _atom_site_fract_z
 _atom_site_occupancy
  Y  Y0  1  0.00000000  0.00000000  0.00000000  1
  Y  Y1  1  0.50000000  0.50000000  0.50000000  1
  P  P2  1  0.50000000  0.50000000  0.00000000  1
  P  P3  1  0.50000000  0.00000000  0.50000000  1
  P  P4  1  0.00000000  0.50000000  0.50000000  1
  Se  Se5  1  0.57317705  0.77521022  0.89555348  1
  Se  Se6  1  0.66329489  0.15979312  0.07623748  1
  Li  Li7  1  0.64128036  0.76682505  0.36475137  1
  Li  Li8  1  0.85930208  0.94457856  0.56884705  1
