# generated using pymatgen
data_LiF
_symmetry_space_group_name_H-M   'P 1'
_cell_length_a   5.36527359
_cell_length_b   5.36527359
_cell_length_c   38.08698304
_cell_angle_alpha   90.00000000
_cell_angle_beta   90.00000000
_cell_angle_gamma   90.00000000
_symmetry_Int_Tables_number   1
_chemical_formula_structural   LiF
_chemical_formula_sum   'Li36 F36'
_cell_volume   1096.37801505
_cell_formula_units_Z   36
loop_
 _symmetry_equiv_pos_site_id
 _symmetry_equiv_pos_as_xyz
  1  'x, y, z'
loop_
 _atom_site_type_symbol
 _atom_site_label
 _atom_site_symmetry_multiplicity
 _atom_site_fract_x
 _atom_site_fract_y
 _atom_site_fract_z
 _atom_site_occupancy
  F  F0  1  0.50000000  0.50000000  0.82528068  1
  F  F1  1  0.50000000  0.50000000  0.17471932  1
  F  F2  1  0.00000000  0.00000000  0.53016179  1
  F  F3  1  0.00000000  0.00000000  0.46983821  1
  F  F4  1  0.65258305  0.50000000  0.44893511  1
  F  F5  1  0.34741695  0.50000000  0.44893511  1
  F  F6  1  0.50000000  0.65258305  0.44893511  1
  F  F7  1  0.50000000  0.34741695  0.44893511  1
  F  F8  1  0.34741695  0.50000000  0.55106489  1
  F  F9  1  0.65258305  0.50000000  0.55106489  1
  F  F10  1  0.50000000  0.65258305  0.55106489  1
  F  F11  1  0.50000000  0.34741695  0.55106489  1
  F  F12  1  0.44682775  0.21394552  0.61886296  1
  F  F13  1  -0.44682775  -0.21394552  0.61886296  1
  F  F14  1  -0.21394552  0.44682775  0.61886296  1
  F  F15  1  0.21394552  -0.44682775  0.61886296  1
  F  F16  1  -0.44682775  0.21394552  -0.61886296  1
  F  F17  1  0.44682775  -0.21394552  -0.61886296  1
  F  F18  1  0.21394552  0.44682775  -0.61886296  1
  F  F19  1  -0.21394552  -0.44682775  -0.61886296  1
  F  F20  1  -0.44682775  -0.21394552  -0.61886296  1
  F  F21  1  0.44682775  0.21394552  -0.61886296  1
  F  F22  1  0.21394552  -0.44682775  -0.61886296  1
  F  F23  1  -0.21394552  0.44682775  -0.61886296  1
  F  F24  1  0.44682775  -0.21394552  0.61886296  1
  F  F25  1  -0.44682775  0.21394552  0.61886296  1
  F  F26  1  -0.21394552  -0.44682775  0.61886296  1
  F  F27  1  0.21394552  0.44682775  0.61886296  1
  F  F28  1  0.82190149  0.31140591  -0.00000000  1
  F  F29  1  0.17809851  0.68859409  -0.00000000  1
  F  F30  1  0.68859409  0.82190149  -0.00000000  1
  F  F31  1  0.31140591  0.17809851  -0.00000000  1
  F  F32  1  0.17809851  0.31140591  -0.00000000  1
  F  F33  1  0.82190149  0.68859409  -0.00000000  1
  F  F34  1  0.31140591  0.82190149  -0.00000000  1
  F  F35  1  0.68859409  0.17809851  -0.00000000  1
  Li  Li36  1  0.14078050  0.14078050  0.45215517  1
  Li  Li37  1  0.85921950  0.85921950  0.45215517  1
  Li  Li38  1  0.85921950  0.14078050  0.45215517  1
  Li  Li39  1  0.14078050  0.85921950  0.45215517  1
  Li  Li40  1  0.85921950  0.14078050  0.54784483  1
  Li  Li41  1  0.14078050  0.85921950  0.54784483  1
  Li  Li42  1  0.14078050  0.14078050  0.54784483  1
  Li  Li43  1  0.85921950  0.85921950  0.54784483  1
  Li  Li44  1  0.00000000  0.00000000  0.07011875  1
  Li  Li45  1  0.00000000  0.00000000  0.92988125  1
  Li  Li46  1  0.19039080  0.36310284  0.35252844  1
  Li  Li47  1  0.80960920  0.63689716  0.35252844  1
  Li  Li48  1  0.63689716  0.19039080  0.35252844  1
  Li  Li49  1  0.36310284  0.80960920  0.35252844  1
  Li  Li50  1  0.80960920  0.36310284  0.64747156  1
  Li  Li51  1  0.19039080  0.63689716  0.64747156  1
  Li  Li52  1  0.36310284  0.19039080  0.64747156  1
  Li  Li53  1  0.63689716  0.80960920  0.64747156  1
  Li  Li54  1  0.80960920  0.63689716  0.64747156  1
  Li  Li55  1  0.19039080  0.36310284  0.64747156  1
  Li  Li56  1  0.36310284  0.80960920  0.64747156  1
  Li  Li57  1  0.63689716  0.19039080  0.64747156  1
  Li  Li58  1  0.19039080  0.63689716  0.35252844  1
  Li  Li59  1  0.80960920  0.36310284  0.35252844  1
  Li  Li60  1  0.63689716  0.80960920  0.35252844  1
  Li  Li61  1  0.36310284  0.19039080  0.35252844  1
  Li  Li62  1  0.00000000  0.50000000  0.96888599  1
  Li  Li63  1  0.50000000  0.00000000  0.96888599  1
  Li  Li64  1  0.00000000  0.50000000  0.03111401  1
  Li  Li65  1  0.50000000  0.00000000  0.03111401  1
  Li  Li66  1  0.74209388  -0.00000000  -0.00000000  1
  Li  Li67  1  0.25790612  -0.00000000  -0.00000000  1
  Li  Li68  1  0.00000000  0.74209388  -0.00000000  1
  Li  Li69  1  0.00000000  0.25790612  -0.00000000  1
  Li  Li70  1  0.00000000  0.50000000  0.50000000  1
  Li  Li71  1  0.50000000  0.00000000  0.50000000  1
