# generated using pymatgen
data_LiF
_symmetry_space_group_name_H-M   'P 1'
_cell_length_a   9.43822129
_cell_length_b   9.37860963
_cell_length_c   9.05205277
_cell_angle_alpha   90.00000000
_cell_angle_beta   90.00000000
_cell_angle_gamma   90.00000000
_symmetry_Int_Tables_number   1
_chemical_formula_structural   LiF
_chemical_formula_sum   'Li24 F24'
_cell_volume   801.26411274
_cell_formula_units_Z   24
loop_
 _symmetry_equiv_pos_site_id
 _symmetry_equiv_pos_as_xyz
  1  'x, y, z'
loop_
 _atom_site_type_symbol
 _atom_site_label
 _atom_site_symmetry_multiplicity
 _atom_site_fract_x
 _atom_site_fract_y
 _atom_site_fract_z
 _atom_site_occupancy
  F  F0  1  0.63420359  0.60113150  0.37912130  1
  F  F1  1  0.36579641  0.39886850  0.37912130  1
  F  F2  1  0.86579641  0.10113150  0.62087870  1
  F  F3  1  0.13420359  0.89886850  0.62087870  1
  F  F4  1  0.36579641  0.39886850  0.62087870  1
  F  F5  1  0.63420359  0.60113150  0.62087870  1
  F  F6  1  0.13420359  0.89886850  0.37912130  1
  F  F7  1  0.86579641  0.10113150  0.37912130  1
  F  F8  1  0.00000000  0.50000000  0.21909995  1
  F  F9  1  0.50000000  0.00000000  0.78090005  1
  F  F10  1  0.00000000  0.50000000  0.78090005  1
  F  F11  1  0.50000000  0.00000000  0.21909995  1
  F  F12  1  0.83099020  0.54127290  0.50000000  1
  F  F13  1  0.16900980  0.45872710  0.50000000  1
  F  F14  1  0.66900980  0.04127290  0.50000000  1
  F  F15  1  0.33099020  0.95872710  0.50000000  1
  F  F16  1  0.49889219  0.88085368  0.10372405  1
  F  F17  1  0.50110781  0.11914632  0.10372405  1
  F  F18  1  0.00110781  0.38085368  0.89627595  1
  F  F19  1  0.99889219  0.61914632  0.89627595  1
  F  F20  1  0.50110781  0.11914632  0.89627595  1
  F  F21  1  0.49889219  0.88085368  0.89627595  1
  F  F22  1  0.99889219  0.61914632  0.10372405  1
  F  F23  1  0.00110781  0.38085368  0.10372405  1
  Li  Li24  1  0.00000000  0.00000000  0.62483533  1
  Li  Li25  1  0.50000000  0.50000000  0.37516467  1
  Li  Li26  1  0.00000000  0.00000000  0.37516467  1
  Li  Li27  1  0.50000000  0.50000000  0.62483533  1
  Li  Li28  1  0.00000000  0.00000000  0.14516524  1
  Li  Li29  1  0.50000000  0.50000000  0.85483476  1
  Li  Li30  1  0.00000000  0.00000000  0.85483476  1
  Li  Li31  1  0.50000000  0.50000000  0.14516524  1
  Li  Li32  1  0.00000000  0.50000000  0.00000000  1
  Li  Li33  1  0.50000000  0.00000000  0.00000000  1
  Li  Li34  1  0.79056269  0.69550316  0.78695967  1
  Li  Li35  1  -0.79056269  -0.69550316  0.78695967  1
  Li  Li36  1  -0.29056269  1.19550316  -0.78695967  1
  Li  Li37  1  1.29056269  -0.19550316  -0.78695967  1
  Li  Li38  1  -0.79056269  -0.69550316  -0.78695967  1
  Li  Li39  1  0.79056269  0.69550316  -0.78695967  1
  Li  Li40  1  1.29056269  -0.19550316  0.78695967  1
  Li  Li41  1  -0.29056269  1.19550316  0.78695967  1
  Li  Li42  1  0.00000000  0.50000000  0.62913002  1
  Li  Li43  1  0.50000000  0.00000000  0.37086998  1
  Li  Li44  1  0.00000000  0.50000000  0.37086998  1
  Li  Li45  1  0.50000000  0.00000000  0.62913002  1
  Li  Li46  1  0.00000000  0.00000000  0.00000000  1
  Li  Li47  1  0.50000000  0.50000000  -0.00000000  1
