# generated using pymatgen
data_Li2Y2P3
_symmetry_space_group_name_H-M   'P 1'
_cell_length_a   4.04238652
_cell_length_b   4.22563117
_cell_length_c   6.72751765
_cell_angle_alpha   96.42476129
_cell_angle_beta   103.99179440
_cell_angle_gamma   115.80571262
_symmetry_Int_Tables_number   1
_chemical_formula_structural   Li2Y2P3
_chemical_formula_sum   'Li2 Y2 P3'
_cell_volume   97.23636327
_cell_formula_units_Z   1
loop_
 _symmetry_equiv_pos_site_id
 _symmetry_equiv_pos_as_xyz
  1  'x, y, z'
loop_
 _atom_site_type_symbol
 _atom_site_label
 _atom_site_symmetry_multiplicity
 _atom_site_fract_x
 _atom_site_fract_y
 _atom_site_fract_z
 _atom_site_occupancy
  P  P0  1  0.00000000  0.00000000  0.00000000  1
  P  P1  1  0.33300000  0.66700000  0.25000000  1
  P  P2  1  0.66700000  0.33300000  0.50000000  1
  Li  Li3  1  0.00000000  0.00000000  0.75000000  1
  Li  Li4  1  0.53116528  0.75386268  0.52763230  1
  Y  Y5  1  0.25465503  0.53122949  0.33779916  1
  Y  Y6  1  0.16357091  0.32789119  0.58984148  1
