# generated using pymatgen
data_Li2YAs4P3Se
_symmetry_space_group_name_H-M   'P 1'
_cell_length_a   5.76957203
_cell_length_b   5.82384819
_cell_length_c   7.47200751
_cell_angle_alpha   93.97512830
_cell_angle_beta   98.87914437
_cell_angle_gamma   106.23473347
_symmetry_Int_Tables_number   1
_chemical_formula_structural   Li2YAs4P3Se
_chemical_formula_sum   'Li2 Y1 As4 P3 Se1'
_cell_volume   236.48743705
_cell_formula_units_Z   1
loop_
 _symmetry_equiv_pos_site_id
 _symmetry_equiv_pos_as_xyz
  1  'x, y, z'
loop_
 _atom_site_type_symbol
 _atom_site_label
 _atom_site_symmetry_multiplicity
 _atom_site_fract_x
 _atom_site_fract_y
 _atom_site_fract_z
 _atom_site_occupancy
  Y  Y0  1  0.12500000  0.00000000  0.25000000  1
  P  P1  1  0.00000000  0.00000000  0.00000000  1
  P  P2  1  0.37500000  0.00000000  0.25000000  1
  P  P3  1  0.25000000  0.25000000  0.25000000  1
  Se  Se4  1  0.00000000  0.25000000  0.12500000  1
  As  As5  1  0.39334037  0.12933022  0.48007241  1
  As  As6  1  0.81674502  0.36615206  0.01708689  1
  As  As7  1  0.87209878  0.45036130  0.30826843  1
  As  As8  1  0.22774110  0.47516134  0.28432104  1
  Li  Li9  1  0.81598044  0.46348922  0.85387179  1
  Li  Li10  1  0.88423422  0.64007533  0.17277690  1
