# generated using pymatgen
data_Li3BO3
_symmetry_space_group_name_H-M   'P 1'
_cell_length_a   18.78465253
_cell_length_b   18.78465253
_cell_length_c   17.07819465
_cell_angle_alpha   90.00000000
_cell_angle_beta   90.00000000
_cell_angle_gamma   120.00000000
_symmetry_Int_Tables_number   1
_chemical_formula_structural   Li3BO3
_chemical_formula_sum   'Li108 B36 O108'
_cell_volume   5218.89937316
_cell_formula_units_Z   36
loop_
 _symmetry_equiv_pos_site_id
 _symmetry_equiv_pos_as_xyz
  1  'x, y, z'
loop_
 _atom_site_type_symbol
 _atom_site_label
 _atom_site_symmetry_multiplicity
 _atom_site_fract_x
 _atom_site_fract_y
 _atom_site_fract_z
 _atom_site_occupancy
  B  B0  1  0.51495367  0.33979849  0.76893007  1
  B  B1  1  0.66020151  0.17515519  0.76893007  1
  B  B2  1  0.82484481  0.48504633  0.76893007  1
  B  B3  1  0.33979849  0.51495367  0.73106993  1
  B  B4  1  0.17515519  0.66020151  0.73106993  1
  B  B5  1  0.48504633  0.82484481  0.73106993  1
  B  B6  1  0.48504633  0.66020151  0.23106993  1
  B  B7  1  0.33979849  0.82484481  0.23106993  1
  B  B8  1  0.17515519  0.51495367  0.23106993  1
  B  B9  1  0.66020151  0.48504633  0.26893007  1
  B  B10  1  0.82484481  0.33979849  0.26893007  1
  B  B11  1  0.51495367  0.17515519  0.26893007  1
  B  B12  1  0.18162034  0.67313182  0.10226341  1
  B  B13  1  0.32686818  0.50848852  0.10226341  1
  B  B14  1  0.49151148  0.81837966  0.10226341  1
  B  B15  1  0.00646515  0.84828700  0.06440326  1
  B  B16  1  0.84182185  0.99353485  0.06440326  1
  B  B17  1  0.15171300  0.15817815  0.06440326  1
  B  B18  1  0.15171300  0.99353485  0.56440326  1
  B  B19  1  0.00646515  0.15817815  0.56440326  1
  B  B20  1  0.84182185  0.84828700  0.56440326  1
  B  B21  1  0.32686818  0.81837966  0.60226341  1
  B  B22  1  0.49151148  0.67313182  0.60226341  1
  B  B23  1  0.18162034  0.50848852  0.60226341  1
  B  B24  1  0.84828700  0.00646515  0.43559674  1
  B  B25  1  0.99353485  0.84182185  0.43559674  1
  B  B26  1  0.15817815  0.15171300  0.43559674  1
  B  B27  1  0.67313182  0.18162034  0.39773659  1
  B  B28  1  0.50848852  0.32686818  0.39773659  1
  B  B29  1  0.81837966  0.49151148  0.39773659  1
  B  B30  1  0.81837966  0.32686818  0.89773659  1
  B  B31  1  0.67313182  0.49151148  0.89773659  1
  B  B32  1  0.50848852  0.18162034  0.89773659  1
  B  B33  1  0.99353485  0.15171300  0.93559674  1
  B  B34  1  0.15817815  0.00646515  0.93559674  1
  B  B35  1  0.84828700  0.84182185  0.93559674  1
  Li  Li36  1  0.79588042  0.24798091  0.21404545  1
  Li  Li37  1  -0.24798091  0.54789951  0.21404545  1
  Li  Li38  1  -0.54789951  -0.79588042  0.21404545  1
  Li  Li39  1  0.24798091  0.79588042  0.28595455  1
  Li  Li40  1  0.54789951  -0.24798091  0.28595455  1
  Li  Li41  1  -0.79588042  -0.54789951  0.28595455  1
  Li  Li42  1  -0.79588042  -0.24798091  -0.21404545  1
  Li  Li43  1  0.24798091  -0.54789951  -0.21404545  1
  Li  Li44  1  0.54789951  0.79588042  -0.21404545  1
  Li  Li45  1  -0.24798091  -0.79588042  0.71404545  1
  Li  Li46  1  -0.54789951  0.24798091  0.71404545  1
  Li  Li47  1  0.79588042  0.54789951  0.71404545  1
  Li  Li48  1  1.46254708  0.58131424  0.54737878  1
  Li  Li49  1  0.41868576  0.88123284  0.54737878  1
  Li  Li50  1  0.11876716  -0.46254708  0.54737878  1
  Li  Li51  1  0.91464757  1.12921375  0.61928789  1
  Li  Li52  1  1.21456617  0.08535243  0.61928789  1
  Li  Li53  1  -0.12921375  -0.21456617  0.61928789  1
  Li  Li54  1  -0.12921375  0.08535243  0.11928789  1
  Li  Li55  1  0.91464757  -0.21456617  0.11928789  1
  Li  Li56  1  1.21456617  1.12921375  0.11928789  1
  Li  Li57  1  0.41868576  -0.46254708  1.04737878  1
  Li  Li58  1  0.11876716  0.58131424  1.04737878  1
  Li  Li59  1  1.46254708  0.88123284  1.04737878  1
  Li  Li60  1  1.12921375  0.91464757  0.88071211  1
  Li  Li61  1  0.08535243  1.21456617  0.88071211  1
  Li  Li62  1  -0.21456617  -0.12921375  0.88071211  1
  Li  Li63  1  0.58131424  1.46254708  0.95262122  1
  Li  Li64  1  0.88123284  0.41868576  0.95262122  1
  Li  Li65  1  -0.46254708  0.11876716  0.95262122  1
  Li  Li66  1  -0.46254708  0.41868576  0.45262122  1
  Li  Li67  1  0.58131424  0.11876716  0.45262122  1
  Li  Li68  1  0.88123284  1.46254708  0.45262122  1
  Li  Li69  1  0.08535243  -0.12921375  1.38071211  1
  Li  Li70  1  -0.21456617  0.91464757  1.38071211  1
  Li  Li71  1  1.12921375  1.21456617  1.38071211  1
  Li  Li72  1  0.88059477  0.00000000  0.25000000  1
  Li  Li73  1  0.00000000  0.88059477  0.25000000  1
  Li  Li74  1  0.11940523  0.11940523  0.25000000  1
  Li  Li75  1  0.11940523  0.00000000  0.75000000  1
  Li  Li76  1  0.00000000  0.11940523  0.75000000  1
  Li  Li77  1  0.88059477  0.88059477  0.75000000  1
  Li  Li78  1  0.54726143  0.33333333  0.58333333  1
  Li  Li79  1  0.66666667  0.21392810  0.58333333  1
  Li  Li80  1  0.78607190  0.45273857  0.58333333  1
  Li  Li81  1  0.78607190  0.33333333  0.08333333  1
  Li  Li82  1  0.66666667  0.45273857  0.08333333  1
  Li  Li83  1  0.54726143  0.21392810  0.08333333  1
  Li  Li84  1  0.21392810  0.66666667  0.91666667  1
  Li  Li85  1  0.33333333  0.54726143  0.91666667  1
  Li  Li86  1  0.45273857  0.78607190  0.91666667  1
  Li  Li87  1  0.45273857  0.66666667  0.41666667  1
  Li  Li88  1  0.33333333  0.78607190  0.41666667  1
  Li  Li89  1  0.21392810  0.54726143  0.41666667  1
  Li  Li90  1  0.00000000  0.00000000  0.00000000  1
  Li  Li91  1  0.00000000  0.00000000  0.50000000  1
  Li  Li92  1  0.66666667  0.33333333  0.33333333  1
  Li  Li93  1  0.66666667  0.33333333  0.83333333  1
  Li  Li94  1  0.33333333  0.66666667  0.66666667  1
  Li  Li95  1  0.33333333  0.66666667  0.16666667  1
  Li  Li96  1  0.09503070  0.29554342  0.60194283  1
  Li  Li97  1  0.70445658  0.79948728  0.60194283  1
  Li  Li98  1  0.20051272  0.90496930  0.60194283  1
  Li  Li99  1  0.29554342  0.09503070  0.89805717  1
  Li  Li100  1  0.79948728  0.70445658  0.89805717  1
  Li  Li101  1  0.90496930  0.20051272  0.89805717  1
  Li  Li102  1  0.90496930  0.70445658  0.39805717  1
  Li  Li103  1  0.29554342  0.20051272  0.39805717  1
  Li  Li104  1  0.79948728  0.09503070  0.39805717  1
  Li  Li105  1  0.70445658  0.90496930  0.10194283  1
  Li  Li106  1  0.20051272  0.29554342  0.10194283  1
  Li  Li107  1  0.09503070  0.79948728  0.10194283  1
  Li  Li108  1  0.76169737  0.62887676  0.93527616  1
  Li  Li109  1  0.37112324  0.13282061  0.93527616  1
  Li  Li110  1  0.86717939  0.23830263  0.93527616  1
  Li  Li111  1  0.96221009  0.42836404  0.23139050  1
  Li  Li112  1  0.46615395  0.03778991  0.23139050  1
  Li  Li113  1  0.57163596  0.53384605  0.23139050  1
  Li  Li114  1  0.57163596  0.03778991  0.73139050  1
  Li  Li115  1  0.96221009  0.53384605  0.73139050  1
  Li  Li116  1  0.46615395  0.42836404  0.73139050  1
  Li  Li117  1  0.37112324  0.23830263  0.43527616  1
  Li  Li118  1  0.86717939  0.62887676  0.43527616  1
  Li  Li119  1  0.76169737  0.13282061  0.43527616  1
  Li  Li120  1  0.42836404  0.96221009  0.26860950  1
  Li  Li121  1  0.03778991  0.46615395  0.26860950  1
  Li  Li122  1  0.53384605  0.57163596  0.26860950  1
  Li  Li123  1  0.62887676  0.76169737  0.56472384  1
  Li  Li124  1  0.13282061  0.37112324  0.56472384  1
  Li  Li125  1  0.23830263  0.86717939  0.56472384  1
  Li  Li126  1  0.23830263  0.37112324  0.06472384  1
  Li  Li127  1  0.62887676  0.86717939  0.06472384  1
  Li  Li128  1  0.13282061  0.76169737  0.06472384  1
  Li  Li129  1  0.03778991  0.57163596  0.76860950  1
  Li  Li130  1  0.53384605  0.96221009  0.76860950  1
  Li  Li131  1  0.42836404  0.46615395  0.76860950  1
  Li  Li132  1  0.00000000  0.00000000  0.57639064  1
  Li  Li133  1  0.00000000  0.00000000  0.92360936  1
  Li  Li134  1  0.00000000  0.00000000  0.42360936  1
  Li  Li135  1  0.00000000  0.00000000  0.07639064  1
  Li  Li136  1  0.66666667  0.33333333  0.90972397  1
  Li  Li137  1  0.66666667  0.33333333  0.25694270  1
  Li  Li138  1  0.66666667  0.33333333  0.75694270  1
  Li  Li139  1  0.66666667  0.33333333  0.40972397  1
  Li  Li140  1  0.33333333  0.66666667  0.24305730  1
  Li  Li141  1  0.33333333  0.66666667  0.59027603  1
  Li  Li142  1  0.33333333  0.66666667  0.09027603  1
  Li  Li143  1  0.33333333  0.66666667  0.74305730  1
  O  O144  1  0.53119659  0.74687686  0.02087562  1
  O  O145  1  0.25312314  0.78431973  0.02087562  1
  O  O146  1  0.21568027  0.46880341  0.02087562  1
  O  O147  1  0.74687686  0.53119659  0.47912438  1
  O  O148  1  0.78431973  0.25312314  0.47912438  1
  O  O149  1  0.46880341  0.21568027  0.47912438  1
  O  O150  1  0.46880341  0.25312314  0.97912438  1
  O  O151  1  0.74687686  0.21568027  0.97912438  1
  O  O152  1  0.78431973  0.53119659  0.97912438  1
  O  O153  1  0.25312314  0.46880341  0.52087562  1
  O  O154  1  0.21568027  0.74687686  0.52087562  1
  O  O155  1  0.53119659  0.78431973  0.52087562  1
  O  O156  1  0.19786326  0.08021020  0.35420895  1
  O  O157  1  0.91978980  0.11765306  0.35420895  1
  O  O158  1  0.88234694  0.80213674  0.35420895  1
  O  O159  1  0.41354353  0.86452993  0.81245771  1
  O  O160  1  0.45098640  0.58645647  0.81245771  1
  O  O161  1  0.13547007  0.54901360  0.81245771  1
  O  O162  1  0.13547007  0.58645647  0.31245771  1
  O  O163  1  0.41354353  0.54901360  0.31245771  1
  O  O164  1  0.45098640  0.86452993  0.31245771  1
  O  O165  1  0.91978980  0.80213674  0.85420895  1
  O  O166  1  0.88234694  0.08021020  0.85420895  1
  O  O167  1  0.19786326  0.11765306  0.85420895  1
  O  O168  1  0.86452993  0.41354353  0.68754229  1
  O  O169  1  0.58645647  0.45098640  0.68754229  1
  O  O170  1  0.54901360  0.13547007  0.68754229  1
  O  O171  1  0.08021020  0.19786326  0.14579105  1
  O  O172  1  0.11765306  0.91978980  0.14579105  1
  O  O173  1  0.80213674  0.88234694  0.14579105  1
  O  O174  1  0.80213674  0.91978980  0.64579105  1
  O  O175  1  0.08021020  0.88234694  0.64579105  1
  O  O176  1  0.11765306  0.19786326  0.64579105  1
  O  O177  1  0.58645647  0.13547007  0.18754229  1
  O  O178  1  0.54901360  0.41354353  0.18754229  1
  O  O179  1  0.86452993  0.45098640  0.18754229  1
  O  O180  1  0.29237729  0.92390069  0.54812408  1
  O  O181  1  0.07609931  0.36847660  0.54812408  1
  O  O182  1  0.63152340  0.70762271  0.54812408  1
  O  O183  1  0.92390069  0.29237729  0.95187592  1
  O  O184  1  0.36847660  0.07609931  0.95187592  1
  O  O185  1  0.70762271  0.63152340  0.95187592  1
  O  O186  1  0.70762271  0.07609931  0.45187592  1
  O  O187  1  0.92390069  0.63152340  0.45187592  1
  O  O188  1  0.36847660  0.29237729  0.45187592  1
  O  O189  1  0.07609931  0.70762271  0.04812408  1
  O  O190  1  0.63152340  0.92390069  0.04812408  1
  O  O191  1  0.29237729  0.36847660  0.04812408  1
  O  O192  1  0.95904396  0.25723402  0.88145741  1
  O  O193  1  0.74276598  0.70180994  0.88145741  1
  O  O194  1  0.29819006  0.04095604  0.88145741  1
  O  O195  1  0.59056735  0.62571062  0.28520926  1
  O  O196  1  0.03514327  0.40943265  0.28520926  1
  O  O197  1  0.37428938  0.96485673  0.28520926  1
  O  O198  1  0.37428938  0.40943265  0.78520926  1
  O  O199  1  0.59056735  0.96485673  0.78520926  1
  O  O200  1  0.03514327  0.62571062  0.78520926  1
  O  O201  1  0.74276598  0.04095604  0.38145741  1
  O  O202  1  0.29819006  0.25723402  0.38145741  1
  O  O203  1  0.95904396  0.70180994  0.38145741  1
  O  O204  1  0.62571062  0.59056735  0.21479074  1
  O  O205  1  0.40943265  0.03514327  0.21479074  1
  O  O206  1  0.96485673  0.37428938  0.21479074  1
  O  O207  1  0.25723402  0.95904396  0.61854259  1
  O  O208  1  0.70180994  0.74276598  0.61854259  1
  O  O209  1  0.04095604  0.29819006  0.61854259  1
  O  O210  1  0.04095604  0.74276598  0.11854259  1
  O  O211  1  0.25723402  0.29819006  0.11854259  1
  O  O212  1  0.70180994  0.95904396  0.11854259  1
  O  O213  1  0.40943265  0.37428938  0.71479074  1
  O  O214  1  0.96485673  0.59056735  0.71479074  1
  O  O215  1  0.62571062  0.03514327  0.71479074  1
  O  O216  1  0.02230830  0.00000000  0.25000000  1
  O  O217  1  0.00000000  0.02230830  0.25000000  1
  O  O218  1  0.97769170  0.97769170  0.25000000  1
  O  O219  1  0.97769170  0.00000000  0.75000000  1
  O  O220  1  0.00000000  0.97769170  0.75000000  1
  O  O221  1  0.02230830  0.02230830  0.75000000  1
  O  O222  1  0.68897496  0.33333333  0.58333333  1
  O  O223  1  0.66666667  0.35564163  0.58333333  1
  O  O224  1  0.64435837  0.31102504  0.58333333  1
  O  O225  1  0.64435837  0.33333333  0.08333333  1
  O  O226  1  0.66666667  0.31102504  0.08333333  1
  O  O227  1  0.68897496  0.35564163  0.08333333  1
  O  O228  1  0.35564163  0.66666667  0.91666667  1
  O  O229  1  0.33333333  0.68897496  0.91666667  1
  O  O230  1  0.31102504  0.64435837  0.91666667  1
  O  O231  1  0.31102504  0.66666667  0.41666667  1
  O  O232  1  0.33333333  0.64435837  0.41666667  1
  O  O233  1  0.35564163  0.68897496  0.41666667  1
  O  O234  1  0.50000000  0.00000000  0.00000000  1
  O  O235  1  0.00000000  0.50000000  0.00000000  1
  O  O236  1  0.50000000  0.50000000  0.00000000  1
  O  O237  1  0.00000000  0.50000000  0.50000000  1
  O  O238  1  0.50000000  0.00000000  0.50000000  1
  O  O239  1  0.50000000  0.50000000  0.50000000  1
  O  O240  1  0.16666667  0.33333333  0.33333333  1
  O  O241  1  0.66666667  0.83333333  0.33333333  1
  O  O242  1  0.16666667  0.83333333  0.33333333  1
  O  O243  1  0.66666667  0.83333333  0.83333333  1
  O  O244  1  0.16666667  0.33333333  0.83333333  1
  O  O245  1  0.16666667  0.83333333  0.83333333  1
  O  O246  1  0.83333333  0.66666667  0.66666667  1
  O  O247  1  0.33333333  0.16666667  0.66666667  1
  O  O248  1  0.83333333  0.16666667  0.66666667  1
  O  O249  1  0.33333333  0.16666667  0.16666667  1
  O  O250  1  0.83333333  0.66666667  0.16666667  1
  O  O251  1  0.83333333  0.16666667  0.16666667  1
