# generated using pymatgen
data_LiF
_symmetry_space_group_name_H-M   'P 1'
_cell_length_a   8.29784364
_cell_length_b   6.22426051
_cell_length_c   7.38725672
_cell_angle_alpha   90.00000000
_cell_angle_beta   90.00000000
_cell_angle_gamma   90.00000000
_symmetry_Int_Tables_number   1
_chemical_formula_structural   LiF
_chemical_formula_sum   'Li24 F24'
_cell_volume   381.53659543
_cell_formula_units_Z   24
loop_
 _symmetry_equiv_pos_site_id
 _symmetry_equiv_pos_as_xyz
  1  'x, y, z'
loop_
 _atom_site_type_symbol
 _atom_site_label
 _atom_site_symmetry_multiplicity
 _atom_site_fract_x
 _atom_site_fract_y
 _atom_site_fract_z
 _atom_site_occupancy
  F  F0  1  0.00000000  0.00000000  0.16431242  1
  F  F1  1  0.50000000  0.50000000  0.83568758  1
  F  F2  1  0.00000000  0.00000000  0.83568758  1
  F  F3  1  0.50000000  0.50000000  0.16431242  1
  F  F4  1  0.93330574  0.52003749  0.31300723  1
  F  F5  1  -0.93330574  -0.52003749  0.31300723  1
  F  F6  1  -0.43330574  1.02003749  -0.31300723  1
  F  F7  1  1.43330574  -0.02003749  -0.31300723  1
  F  F8  1  -0.93330574  -0.52003749  -0.31300723  1
  F  F9  1  0.93330574  0.52003749  -0.31300723  1
  F  F10  1  1.43330574  -0.02003749  0.31300723  1
  F  F11  1  -0.43330574  1.02003749  0.31300723  1
  F  F12  1  0.00000000  0.00000000  0.06547654  1
  F  F13  1  0.50000000  0.50000000  0.93452346  1
  F  F14  1  0.00000000  0.00000000  0.93452346  1
  F  F15  1  0.50000000  0.50000000  0.06547654  1
  F  F16  1  0.96543857  0.70104900  0.10093522  1
  F  F17  1  0.03456143  0.29895100  0.10093522  1
  F  F18  1  0.53456143  0.20104900  0.89906478  1
  F  F19  1  0.46543857  0.79895100  0.89906478  1
  F  F20  1  0.03456143  0.29895100  0.89906478  1
  F  F21  1  0.96543857  0.70104900  0.89906478  1
  F  F22  1  0.46543857  0.79895100  0.10093522  1
  F  F23  1  0.53456143  0.20104900  0.10093522  1
  Li  Li24  1  0.00000000  0.00000000  0.50000000  1
  Li  Li25  1  0.50000000  0.50000000  0.50000000  1
  Li  Li26  1  0.78057570  0.87520147  0.28709266  1
  Li  Li27  1  0.21942430  0.12479853  0.28709266  1
  Li  Li28  1  0.71942430  0.37520147  0.71290734  1
  Li  Li29  1  0.28057570  0.62479853  0.71290734  1
  Li  Li30  1  0.21942430  0.12479853  0.71290734  1
  Li  Li31  1  0.78057570  0.87520147  0.71290734  1
  Li  Li32  1  0.28057570  0.62479853  0.28709266  1
  Li  Li33  1  0.71942430  0.37520147  0.28709266  1
  Li  Li34  1  0.56946734  0.84017145  0.71951192  1
  Li  Li35  1  0.43053266  0.15982855  0.71951192  1
  Li  Li36  1  0.93053266  0.34017145  0.28048808  1
  Li  Li37  1  0.06946734  0.65982855  0.28048808  1
  Li  Li38  1  0.43053266  0.15982855  0.28048808  1
  Li  Li39  1  0.56946734  0.84017145  0.28048808  1
  Li  Li40  1  0.06946734  0.65982855  0.71951192  1
  Li  Li41  1  0.93053266  0.34017145  0.71951192  1
  Li  Li42  1  0.00000000  0.50000000  -0.00000000  1
  Li  Li43  1  0.50000000  -0.00000000  0.00000000  1
  Li  Li44  1  0.83790919  0.78653994  0.50000000  1
  Li  Li45  1  0.16209081  0.21346006  0.50000000  1
  Li  Li46  1  0.66209081  0.28653994  0.50000000  1
  Li  Li47  1  0.33790919  0.71346006  0.50000000  1
