# generated using pymatgen
data_LiF
_symmetry_space_group_name_H-M   'P 1'
_cell_length_a   6.40658495
_cell_length_b   6.40658495
_cell_length_c   25.35868579
_cell_angle_alpha   90.00000000
_cell_angle_beta   90.00000000
_cell_angle_gamma   120.00000000
_symmetry_Int_Tables_number   1
_chemical_formula_structural   LiF
_chemical_formula_sum   'Li36 F36'
_cell_volume   901.38547019
_cell_formula_units_Z   36
loop_
 _symmetry_equiv_pos_site_id
 _symmetry_equiv_pos_as_xyz
  1  'x, y, z'
loop_
 _atom_site_type_symbol
 _atom_site_label
 _atom_site_symmetry_multiplicity
 _atom_site_fract_x
 _atom_site_fract_y
 _atom_site_fract_z
 _atom_site_occupancy
  F  F0  1  0.88131726  0.04268048  0.04230871  1
  F  F1  1  -0.04268048  0.83863678  0.04230871  1
  F  F2  1  -0.83863678  -0.88131726  0.04230871  1
  F  F3  1  -0.88131726  -0.04268048  0.54230871  1
  F  F4  1  0.04268048  -0.83863678  0.54230871  1
  F  F5  1  0.83863678  0.88131726  0.54230871  1
  F  F6  1  -0.88131726  -0.04268048  -0.04230871  1
  F  F7  1  0.04268048  -0.83863678  -0.04230871  1
  F  F8  1  0.83863678  0.88131726  -0.04230871  1
  F  F9  1  0.88131726  0.04268048  0.45769129  1
  F  F10  1  -0.04268048  0.83863678  0.45769129  1
  F  F11  1  -0.83863678  -0.88131726  0.45769129  1
  F  F12  1  0.27148825  0.09861131  0.94661213  1
  F  F13  1  0.90138869  0.17287694  0.94661213  1
  F  F14  1  0.82712306  0.72851175  0.94661213  1
  F  F15  1  0.72851175  0.90138869  0.44661213  1
  F  F16  1  0.09861131  0.82712306  0.44661213  1
  F  F17  1  0.17287694  0.27148825  0.44661213  1
  F  F18  1  0.72851175  0.90138869  0.05338787  1
  F  F19  1  0.09861131  0.82712306  0.05338787  1
  F  F20  1  0.17287694  0.27148825  0.05338787  1
  F  F21  1  0.27148825  0.09861131  0.55338787  1
  F  F22  1  0.90138869  0.17287694  0.55338787  1
  F  F23  1  0.82712306  0.72851175  0.55338787  1
  F  F24  1  0.72427507  0.69002493  0.20347531  1
  F  F25  1  0.30997507  0.03425014  0.20347531  1
  F  F26  1  0.96574986  0.27572493  0.20347531  1
  F  F27  1  0.27572493  0.30997507  0.70347531  1
  F  F28  1  0.69002493  0.96574986  0.70347531  1
  F  F29  1  0.03425014  0.72427507  0.70347531  1
  F  F30  1  0.27572493  0.30997507  0.79652469  1
  F  F31  1  0.69002493  0.96574986  0.79652469  1
  F  F32  1  0.03425014  0.72427507  0.79652469  1
  F  F33  1  0.72427507  0.69002493  0.29652469  1
  F  F34  1  0.30997507  0.03425014  0.29652469  1
  F  F35  1  0.96574986  0.27572493  0.29652469  1
  Li  Li36  1  0.33333333  0.66666667  0.57480184  1
  Li  Li37  1  0.66666667  0.33333333  0.07480184  1
  Li  Li38  1  0.66666667  0.33333333  0.42519816  1
  Li  Li39  1  0.33333333  0.66666667  0.92519816  1
  Li  Li40  1  0.95232382  0.46903672  0.47435282  1
  Li  Li41  1  0.53096328  0.48328710  0.47435282  1
  Li  Li42  1  0.51671290  0.04767618  0.47435282  1
  Li  Li43  1  0.04767618  0.53096328  0.97435282  1
  Li  Li44  1  0.46903672  0.51671290  0.97435282  1
  Li  Li45  1  0.48328710  0.95232382  0.97435282  1
  Li  Li46  1  0.04767618  0.53096328  0.52564718  1
  Li  Li47  1  0.46903672  0.51671290  0.52564718  1
  Li  Li48  1  0.48328710  0.95232382  0.52564718  1
  Li  Li49  1  0.95232382  0.46903672  0.02564718  1
  Li  Li50  1  0.53096328  0.48328710  0.02564718  1
  Li  Li51  1  0.51671290  0.04767618  0.02564718  1
  Li  Li52  1  0.46364011  0.24737613  0.91590959  1
  Li  Li53  1  0.75262387  0.21626398  0.91590959  1
  Li  Li54  1  0.78373602  0.53635989  0.91590959  1
  Li  Li55  1  0.53635989  0.75262387  0.41590959  1
  Li  Li56  1  0.24737613  0.78373602  0.41590959  1
  Li  Li57  1  0.21626398  0.46364011  0.41590959  1
  Li  Li58  1  0.53635989  0.75262387  0.08409041  1
  Li  Li59  1  0.24737613  0.78373602  0.08409041  1
  Li  Li60  1  0.21626398  0.46364011  0.08409041  1
  Li  Li61  1  0.46364011  0.24737613  0.58409041  1
  Li  Li62  1  0.75262387  0.21626398  0.58409041  1
  Li  Li63  1  0.78373602  0.53635989  0.58409041  1
  Li  Li64  1  0.33333333  0.66666667  0.25000000  1
  Li  Li65  1  0.66666667  0.33333333  0.75000000  1
  Li  Li66  1  0.00000000  0.00000000  0.43984871  1
  Li  Li67  1  0.00000000  0.00000000  0.93984871  1
  Li  Li68  1  0.00000000  0.00000000  0.56015129  1
  Li  Li69  1  0.00000000  0.00000000  0.06015129  1
  Li  Li70  1  0.66666667  0.33333333  0.25000000  1
  Li  Li71  1  0.33333333  0.66666667  0.75000000  1
