# generated using pymatgen
data_LiCu3P
_symmetry_space_group_name_H-M   'P 1'
_cell_length_a   4.64333197
_cell_length_b   4.80573121
_cell_length_c   6.34952870
_cell_angle_alpha   94.87807594
_cell_angle_beta   98.69826028
_cell_angle_gamma   106.57410842
_symmetry_Int_Tables_number   1
_chemical_formula_structural   LiCu3P
_chemical_formula_sum   'Li1 Cu3 P1'
_cell_volume   133.00430148
_cell_formula_units_Z   1
loop_
 _symmetry_equiv_pos_site_id
 _symmetry_equiv_pos_as_xyz
  1  'x, y, z'
loop_
 _atom_site_type_symbol
 _atom_site_label
 _atom_site_symmetry_multiplicity
 _atom_site_fract_x
 _atom_site_fract_y
 _atom_site_fract_z
 _atom_site_occupancy
  Cu  Cu0  1  0.00000000  0.00000000  0.00000000  1
  Cu  Cu1  1  0.33300000  0.66700000  0.25000000  1
  Cu  Cu2  1  0.66700000  0.33300000  0.50000000  1
  P  P3  1  0.00000000  0.00000000  0.75000000  1
  Li  Li4  1  0.55292239  0.44344326  0.54374411  1
