# generated using pymatgen
data_LiF
_symmetry_space_group_name_H-M   'P 1'
_cell_length_a   10.87133983
_cell_length_b   10.87133983
_cell_length_c   9.26095012
_cell_angle_alpha   90.00000000
_cell_angle_beta   90.00000000
_cell_angle_gamma   90.00000000
_symmetry_Int_Tables_number   1
_chemical_formula_structural   LiF
_chemical_formula_sum   'Li64 F64'
_cell_volume   1094.51492539
_cell_formula_units_Z   64
loop_
 _symmetry_equiv_pos_site_id
 _symmetry_equiv_pos_as_xyz
  1  'x, y, z'
loop_
 _atom_site_type_symbol
 _atom_site_label
 _atom_site_symmetry_multiplicity
 _atom_site_fract_x
 _atom_site_fract_y
 _atom_site_fract_z
 _atom_site_occupancy
  F  F0  1  0.66222434  0.23059027  0.04646607  1
  F  F1  1  -0.16222434  -0.23059027  0.54646607  1
  F  F2  1  0.01940973  1.41222434  0.29646607  1
  F  F3  1  0.48059027  -0.41222434  0.79646607  1
  F  F4  1  -0.16222434  0.23059027  -0.04646607  1
  F  F5  1  0.66222434  -0.23059027  0.45353393  1
  F  F6  1  0.48059027  1.41222434  0.70353393  1
  F  F7  1  0.01940973  -0.41222434  0.20353393  1
  F  F8  1  -0.66222434  -0.23059027  -0.04646607  1
  F  F9  1  1.16222434  0.23059027  0.45353393  1
  F  F10  1  0.98059027  -0.41222434  0.70353393  1
  F  F11  1  0.51940973  1.41222434  0.20353393  1
  F  F12  1  1.16222434  -0.23059027  0.04646607  1
  F  F13  1  -0.66222434  0.23059027  0.54646607  1
  F  F14  1  0.51940973  -0.41222434  0.29646607  1
  F  F15  1  0.98059027  1.41222434  0.79646607  1
  F  F16  1  1.16222434  0.73059027  0.54646607  1
  F  F17  1  0.33777566  0.26940973  1.04646607  1
  F  F18  1  0.51940973  1.91222434  0.79646607  1
  F  F19  1  0.98059027  0.08777566  1.29646607  1
  F  F20  1  0.33777566  0.73059027  0.45353393  1
  F  F21  1  1.16222434  0.26940973  0.95353393  1
  F  F22  1  0.98059027  1.91222434  1.20353393  1
  F  F23  1  0.51940973  0.08777566  0.70353393  1
  F  F24  1  -0.16222434  0.26940973  0.45353393  1
  F  F25  1  1.66222434  0.73059027  0.95353393  1
  F  F26  1  1.48059027  0.08777566  1.20353393  1
  F  F27  1  1.01940973  1.91222434  0.70353393  1
  F  F28  1  1.66222434  0.26940973  0.54646607  1
  F  F29  1  -0.16222434  0.73059027  1.04646607  1
  F  F30  1  1.01940973  0.08777566  0.79646607  1
  F  F31  1  1.48059027  1.91222434  1.29646607  1
  F  F32  1  0.11332037  0.84383947  0.21317588  1
  F  F33  1  0.38667963  0.15616053  0.71317588  1
  F  F34  1  0.40616053  0.86332037  0.46317588  1
  F  F35  1  0.09383947  0.13667963  0.96317588  1
  F  F36  1  0.38667963  0.84383947  0.78682412  1
  F  F37  1  0.11332037  0.15616053  0.28682412  1
  F  F38  1  0.09383947  0.86332037  0.53682412  1
  F  F39  1  0.40616053  0.13667963  0.03682412  1
  F  F40  1  0.88667963  0.15616053  0.78682412  1
  F  F41  1  0.61332037  0.84383947  0.28682412  1
  F  F42  1  0.59383947  0.13667963  0.53682412  1
  F  F43  1  0.90616053  0.86332037  0.03682412  1
  F  F44  1  0.61332037  0.15616053  0.21317588  1
  F  F45  1  0.88667963  0.84383947  0.71317588  1
  F  F46  1  0.90616053  0.13667963  0.46317588  1
  F  F47  1  0.59383947  0.86332037  0.96317588  1
  F  F48  1  0.61332037  0.34383947  0.71317588  1
  F  F49  1  0.88667963  0.65616053  0.21317588  1
  F  F50  1  0.90616053  0.36332037  0.96317588  1
  F  F51  1  0.59383947  0.63667963  0.46317588  1
  F  F52  1  0.88667963  0.34383947  0.28682412  1
  F  F53  1  0.61332037  0.65616053  0.78682412  1
  F  F54  1  0.59383947  0.36332037  0.03682412  1
  F  F55  1  0.90616053  0.63667963  0.53682412  1
  F  F56  1  0.38667963  0.65616053  0.28682412  1
  F  F57  1  0.11332037  0.34383947  0.78682412  1
  F  F58  1  0.09383947  0.63667963  0.03682412  1
  F  F59  1  0.40616053  0.36332037  0.53682412  1
  F  F60  1  0.11332037  0.65616053  0.71317588  1
  F  F61  1  0.38667963  0.34383947  0.21317588  1
  F  F62  1  0.40616053  0.63667963  0.96317588  1
  F  F63  1  0.09383947  0.36332037  0.46317588  1
  Li  Li64  1  0.33700415  0.58700415  0.12500000  1
  Li  Li65  1  0.16299585  0.41299585  0.62500000  1
  Li  Li66  1  0.66299585  0.08700415  0.37500000  1
  Li  Li67  1  0.83700415  0.91299585  0.87500000  1
  Li  Li68  1  0.66299585  0.41299585  0.87500000  1
  Li  Li69  1  0.83700415  0.58700415  0.37500000  1
  Li  Li70  1  0.33700415  0.91299585  0.62500000  1
  Li  Li71  1  0.16299585  0.08700415  0.12500000  1
  Li  Li72  1  0.83700415  0.08700415  0.62500000  1
  Li  Li73  1  0.66299585  0.91299585  0.12500000  1
  Li  Li74  1  0.16299585  0.58700415  0.87500000  1
  Li  Li75  1  0.33700415  0.41299585  0.37500000  1
  Li  Li76  1  0.16299585  0.91299585  0.37500000  1
  Li  Li77  1  0.33700415  0.08700415  0.87500000  1
  Li  Li78  1  0.83700415  0.41299585  0.12500000  1
  Li  Li79  1  0.66299585  0.58700415  0.62500000  1
  Li  Li80  1  0.00000000  0.00000000  0.00000000  1
  Li  Li81  1  0.50000000  0.00000000  0.50000000  1
  Li  Li82  1  0.25000000  0.75000000  0.25000000  1
  Li  Li83  1  0.25000000  0.25000000  0.75000000  1
  Li  Li84  1  0.50000000  0.00000000  0.00000000  1
  Li  Li85  1  0.00000000  0.00000000  0.50000000  1
  Li  Li86  1  0.25000000  0.75000000  0.75000000  1
  Li  Li87  1  0.25000000  0.25000000  0.25000000  1
  Li  Li88  1  0.50000000  0.50000000  0.50000000  1
  Li  Li89  1  0.00000000  0.50000000  0.00000000  1
  Li  Li90  1  0.75000000  0.25000000  0.75000000  1
  Li  Li91  1  0.75000000  0.75000000  0.25000000  1
  Li  Li92  1  0.00000000  0.50000000  0.50000000  1
  Li  Li93  1  0.50000000  0.50000000  0.00000000  1
  Li  Li94  1  0.75000000  0.25000000  0.25000000  1
  Li  Li95  1  0.75000000  0.75000000  0.75000000  1
  Li  Li96  1  0.00000000  0.25000000  0.12500000  1
  Li  Li97  1  0.00000000  0.75000000  0.37500000  1
  Li  Li98  1  0.00000000  0.75000000  0.87500000  1
  Li  Li99  1  0.00000000  0.25000000  0.62500000  1
  Li  Li100  1  0.50000000  0.75000000  0.62500000  1
  Li  Li101  1  0.50000000  0.25000000  0.87500000  1
  Li  Li102  1  0.50000000  0.25000000  0.37500000  1
  Li  Li103  1  0.50000000  0.75000000  0.12500000  1
  Li  Li104  1  0.54662347  0.00000000  0.25000000  1
  Li  Li105  1  0.95337653  0.00000000  0.75000000  1
  Li  Li106  1  0.25000000  0.29662347  0.50000000  1
  Li  Li107  1  0.25000000  0.70337653  0.00000000  1
  Li  Li108  1  0.45337653  0.00000000  0.75000000  1
  Li  Li109  1  0.04662347  0.00000000  0.25000000  1
  Li  Li110  1  0.75000000  0.70337653  0.50000000  1
  Li  Li111  1  0.75000000  0.29662347  0.00000000  1
  Li  Li112  1  0.04662347  0.50000000  0.75000000  1
  Li  Li113  1  0.45337653  0.50000000  0.25000000  1
  Li  Li114  1  0.75000000  0.79662347  0.00000000  1
  Li  Li115  1  0.75000000  0.20337653  0.50000000  1
  Li  Li116  1  0.95337653  0.50000000  0.25000000  1
  Li  Li117  1  0.54662347  0.50000000  0.75000000  1
  Li  Li118  1  0.25000000  0.20337653  0.00000000  1
  Li  Li119  1  0.25000000  0.79662347  0.50000000  1
  Li  Li120  1  0.00000000  0.25000000  0.37500000  1
  Li  Li121  1  0.00000000  0.75000000  0.62500000  1
  Li  Li122  1  0.50000000  0.25000000  0.62500000  1
  Li  Li123  1  0.50000000  0.75000000  0.37500000  1
  Li  Li124  1  0.50000000  0.75000000  0.87500000  1
  Li  Li125  1  0.50000000  0.25000000  0.12500000  1
  Li  Li126  1  0.00000000  0.75000000  0.12500000  1
  Li  Li127  1  0.00000000  0.25000000  0.87500000  1
