# generated using pymatgen
data_LiF
_symmetry_space_group_name_H-M   'P 1'
_cell_length_a   15.45775051
_cell_length_b   10.10731507
_cell_length_c   4.53729507
_cell_angle_alpha   90.00000000
_cell_angle_beta   90.00000000
_cell_angle_gamma   90.00000000
_symmetry_Int_Tables_number   1
_chemical_formula_structural   LiF
_chemical_formula_sum   'Li24 F24'
_cell_volume   708.89044232
_cell_formula_units_Z   24
loop_
 _symmetry_equiv_pos_site_id
 _symmetry_equiv_pos_as_xyz
  1  'x, y, z'
loop_
 _atom_site_type_symbol
 _atom_site_label
 _atom_site_symmetry_multiplicity
 _atom_site_fract_x
 _atom_site_fract_y
 _atom_site_fract_z
 _atom_site_occupancy
  F  F0  1  0.56625953  0.39369371  0.43862918  1
  F  F1  1  0.93374047  0.60630629  0.93862918  1
  F  F2  1  0.43374047  0.89369371  0.56137082  1
  F  F3  1  0.06625953  0.10630629  0.06137082  1
  F  F4  1  0.43374047  0.60630629  0.56137082  1
  F  F5  1  0.06625953  0.39369371  0.06137082  1
  F  F6  1  0.56625953  0.10630629  0.43862918  1
  F  F7  1  0.93374047  0.89369371  0.93862918  1
  F  F8  1  0.64313985  0.58168014  0.29973724  1
  F  F9  1  0.85686015  0.41831986  0.79973724  1
  F  F10  1  0.35686015  0.08168014  0.70026276  1
  F  F11  1  0.14313985  0.91831986  0.20026276  1
  F  F12  1  0.35686015  0.41831986  0.70026276  1
  F  F13  1  0.14313985  0.58168014  0.20026276  1
  F  F14  1  0.64313985  0.91831986  0.29973724  1
  F  F15  1  0.85686015  0.08168014  0.79973724  1
  F  F16  1  0.63612231  0.17628295  0.16720734  1
  F  F17  1  0.86387769  0.82371705  0.66720734  1
  F  F18  1  0.36387769  0.67628295  0.83279266  1
  F  F19  1  0.13612231  0.32371705  0.33279266  1
  F  F20  1  0.36387769  0.82371705  0.83279266  1
  F  F21  1  0.13612231  0.17628295  0.33279266  1
  F  F22  1  0.63612231  0.32371705  0.16720734  1
  F  F23  1  0.86387769  0.67628295  0.66720734  1
  Li  Li24  1  0.25748625  0.25000000  0.91615548  1
  Li  Li25  1  0.24251375  0.75000000  0.41615548  1
  Li  Li26  1  0.74251375  0.75000000  0.08384452  1
  Li  Li27  1  0.75748625  0.25000000  0.58384452  1
  Li  Li28  1  0.29205433  0.25000000  0.20782172  1
  Li  Li29  1  0.20794567  0.75000000  0.70782172  1
  Li  Li30  1  0.70794567  0.75000000  0.79217828  1
  Li  Li31  1  0.79205433  0.25000000  0.29217828  1
  Li  Li32  1  0.68576707  0.25000000  0.19541957  1
  Li  Li33  1  0.81423293  0.75000000  0.69541957  1
  Li  Li34  1  0.31423293  0.75000000  0.80458043  1
  Li  Li35  1  0.18576707  0.25000000  0.30458043  1
  Li  Li36  1  0.21770997  0.86710853  0.51481842  1
  Li  Li37  1  0.28229003  -0.86710853  1.01481842  1
  Li  Li38  1  -0.21770997  1.36710853  -0.51481842  1
  Li  Li39  1  0.71770997  -0.36710853  -0.01481842  1
  Li  Li40  1  -0.21770997  -0.86710853  -0.51481842  1
  Li  Li41  1  0.71770997  0.86710853  -0.01481842  1
  Li  Li42  1  0.21770997  -0.36710853  0.51481842  1
  Li  Li43  1  0.28229003  1.36710853  1.01481842  1
  Li  Li44  1  0.00000000  0.00000000  0.00000000  1
  Li  Li45  1  0.50000000  0.00000000  0.50000000  1
  Li  Li46  1  0.00000000  0.50000000  0.00000000  1
  Li  Li47  1  0.50000000  0.50000000  0.50000000  1
