# generated using pymatgen
data_LiF
_symmetry_space_group_name_H-M   'P 1'
_cell_length_a   14.00921234
_cell_length_b   6.74022240
_cell_length_c   3.22785272
_cell_angle_alpha   90.00000000
_cell_angle_beta   90.00000000
_cell_angle_gamma   90.00000000
_symmetry_Int_Tables_number   1
_chemical_formula_structural   LiF
_chemical_formula_sum   'Li8 F8'
_cell_volume   304.79066060
_cell_formula_units_Z   8
loop_
 _symmetry_equiv_pos_site_id
 _symmetry_equiv_pos_as_xyz
  1  'x, y, z'
loop_
 _atom_site_type_symbol
 _atom_site_label
 _atom_site_symmetry_multiplicity
 _atom_site_fract_x
 _atom_site_fract_y
 _atom_site_fract_z
 _atom_site_occupancy
  F  F0  1  0.92424256  0.41692790  -0.00000000  1
  F  F1  1  -0.92424256  -0.41692790  0.00000000  1
  F  F2  1  -0.42424256  0.91692790  0.50000000  1
  F  F3  1  1.42424256  0.08307210  0.50000000  1
  F  F4  1  0.50026693  0.71797124  0.00000000  1
  F  F5  1  0.49973307  0.28202876  -0.00000000  1
  F  F6  1  0.99973307  0.21797124  0.50000000  1
  F  F7  1  0.00026693  0.78202876  0.50000000  1
  Li  Li8  1  0.29904823  0.19465220  -0.00000000  1
  Li  Li9  1  0.70095177  0.80534780  -0.00000000  1
  Li  Li10  1  0.20095177  0.69465220  0.50000000  1
  Li  Li11  1  0.79904823  0.30534780  0.50000000  1
  Li  Li12  1  0.00000000  0.50000000  0.29274247  1
  Li  Li13  1  0.50000000  0.00000000  0.20725753  1
  Li  Li14  1  0.00000000  0.50000000  0.70725753  1
  Li  Li15  1  0.50000000  0.00000000  0.79274247  1
