# generated using pymatgen
data_SrLiOF
_symmetry_space_group_name_H-M   'P 1'
_cell_length_a   15.93178690
_cell_length_b   15.54953900
_cell_length_c   10.12082492
_cell_angle_alpha   90.00000000
_cell_angle_beta   90.00000000
_cell_angle_gamma   90.00000000
_symmetry_Int_Tables_number   1
_chemical_formula_structural   SrLiOF
_chemical_formula_sum   'Sr32 Li32 O32 F32'
_cell_volume   2507.25160873
_cell_formula_units_Z   32
loop_
 _symmetry_equiv_pos_site_id
 _symmetry_equiv_pos_as_xyz
  1  'x, y, z'
loop_
 _atom_site_type_symbol
 _atom_site_label
 _atom_site_symmetry_multiplicity
 _atom_site_fract_x
 _atom_site_fract_y
 _atom_site_fract_z
 _atom_site_occupancy
  F  F0  1  0.12500000  0.12500000  0.80739054  1
  F  F1  1  0.62500000  0.12500000  0.94260946  1
  F  F2  1  0.87500000  0.87500000  0.19260946  1
  F  F3  1  0.37500000  0.87500000  0.05739054  1
  F  F4  1  0.12500000  0.62500000  0.30739054  1
  F  F5  1  0.62500000  0.62500000  0.44260946  1
  F  F6  1  0.87500000  0.37500000  0.69260946  1
  F  F7  1  0.37500000  0.37500000  0.55739054  1
  F  F8  1  0.62500000  0.12500000  0.30739054  1
  F  F9  1  0.12500000  0.12500000  0.44260946  1
  F  F10  1  0.37500000  0.87500000  0.69260946  1
  F  F11  1  0.87500000  0.87500000  0.55739054  1
  F  F12  1  0.62500000  0.62500000  0.80739054  1
  F  F13  1  0.12500000  0.62500000  0.94260946  1
  F  F14  1  0.37500000  0.37500000  0.19260946  1
  F  F15  1  0.87500000  0.37500000  0.05739054  1
  F  F16  1  0.12500000  0.12500000  0.36072888  1
  F  F17  1  0.62500000  0.12500000  0.38927112  1
  F  F18  1  0.87500000  0.87500000  0.63927112  1
  F  F19  1  0.37500000  0.87500000  0.61072888  1
  F  F20  1  0.12500000  0.62500000  0.86072888  1
  F  F21  1  0.62500000  0.62500000  0.88927112  1
  F  F22  1  0.87500000  0.37500000  0.13927112  1
  F  F23  1  0.37500000  0.37500000  0.11072888  1
  F  F24  1  0.62500000  0.12500000  0.86072888  1
  F  F25  1  0.12500000  0.12500000  0.88927112  1
  F  F26  1  0.37500000  0.87500000  0.13927112  1
  F  F27  1  0.87500000  0.87500000  0.11072888  1
  F  F28  1  0.62500000  0.62500000  0.36072888  1
  F  F29  1  0.12500000  0.62500000  0.38927112  1
  F  F30  1  0.37500000  0.37500000  0.63927112  1
  F  F31  1  0.87500000  0.37500000  0.61072888  1
  Li  Li32  1  0.25117012  0.35402808  0.19435494  1
  Li  Li33  1  0.49882988  0.39597192  0.19435494  1
  Li  Li34  1  0.49882988  0.35402808  0.55564506  1
  Li  Li35  1  0.25117012  0.39597192  0.55564506  1
  Li  Li36  1  -0.25117012  -0.35402808  -0.19435494  1
  Li  Li37  1  0.50117012  0.60402808  -0.19435494  1
  Li  Li38  1  0.50117012  -0.35402808  0.44435494  1
  Li  Li39  1  -0.25117012  0.60402808  0.44435494  1
  Li  Li40  1  0.25117012  0.85402808  0.69435494  1
  Li  Li41  1  0.49882988  0.89597192  0.69435494  1
  Li  Li42  1  0.49882988  0.85402808  1.05564506  1
  Li  Li43  1  0.25117012  0.89597192  1.05564506  1
  Li  Li44  1  -0.25117012  0.14597192  0.30564506  1
  Li  Li45  1  0.50117012  1.10402808  0.30564506  1
  Li  Li46  1  0.50117012  0.14597192  0.94435494  1
  Li  Li47  1  -0.25117012  1.10402808  0.94435494  1
  Li  Li48  1  0.75117012  0.35402808  0.69435494  1
  Li  Li49  1  0.99882988  0.39597192  0.69435494  1
  Li  Li50  1  0.99882988  0.35402808  1.05564506  1
  Li  Li51  1  0.75117012  0.39597192  1.05564506  1
  Li  Li52  1  0.24882988  -0.35402808  0.30564506  1
  Li  Li53  1  1.00117012  0.60402808  0.30564506  1
  Li  Li54  1  1.00117012  -0.35402808  0.94435494  1
  Li  Li55  1  0.24882988  0.60402808  0.94435494  1
  Li  Li56  1  0.75117012  0.85402808  0.19435494  1
  Li  Li57  1  0.99882988  0.89597192  0.19435494  1
  Li  Li58  1  0.99882988  0.85402808  0.55564506  1
  Li  Li59  1  0.75117012  0.89597192  0.55564506  1
  Li  Li60  1  0.24882988  0.14597192  -0.19435494  1
  Li  Li61  1  1.00117012  1.10402808  -0.19435494  1
  Li  Li62  1  1.00117012  0.14597192  0.44435494  1
  Li  Li63  1  0.24882988  1.10402808  0.44435494  1
  O  O64  1  0.97078384  0.72548842  0.12026712  1
  O  O65  1  0.77921616  0.02451158  0.12026712  1
  O  O66  1  0.77921616  0.72548842  0.62973288  1
  O  O67  1  0.97078384  0.02451158  0.62973288  1
  O  O68  1  0.02921616  0.27451158  0.87973288  1
  O  O69  1  0.22078384  0.97548842  0.87973288  1
  O  O70  1  0.22078384  0.27451158  0.37026712  1
  O  O71  1  0.02921616  0.97548842  0.37026712  1
  O  O72  1  0.97078384  0.22548842  0.62026712  1
  O  O73  1  0.77921616  0.52451158  0.62026712  1
  O  O74  1  0.77921616  0.22548842  0.12973288  1
  O  O75  1  0.97078384  0.52451158  0.12973288  1
  O  O76  1  0.02921616  0.77451158  0.37973288  1
  O  O77  1  0.22078384  0.47548842  0.37973288  1
  O  O78  1  0.22078384  0.77451158  0.87026712  1
  O  O79  1  0.02921616  0.47548842  0.87026712  1
  O  O80  1  0.47078384  0.72548842  0.62026712  1
  O  O81  1  0.27921616  0.02451158  0.62026712  1
  O  O82  1  0.27921616  0.72548842  0.12973288  1
  O  O83  1  0.47078384  0.02451158  0.12973288  1
  O  O84  1  0.52921616  0.27451158  0.37973288  1
  O  O85  1  0.72078384  0.97548842  0.37973288  1
  O  O86  1  0.72078384  0.27451158  0.87026712  1
  O  O87  1  0.52921616  0.97548842  0.87026712  1
  O  O88  1  0.47078384  0.22548842  0.12026712  1
  O  O89  1  0.27921616  0.52451158  0.12026712  1
  O  O90  1  0.27921616  0.22548842  0.62973288  1
  O  O91  1  0.47078384  0.52451158  0.62973288  1
  O  O92  1  0.52921616  0.77451158  0.87973288  1
  O  O93  1  0.72078384  0.47548842  0.87973288  1
  O  O94  1  0.72078384  0.77451158  0.37026712  1
  O  O95  1  0.52921616  0.47548842  0.37026712  1
  Sr  Sr96  1  0.12500000  0.12500000  0.12500000  1
  Sr  Sr97  1  0.87500000  0.87500000  0.87500000  1
  Sr  Sr98  1  0.12500000  0.62500000  0.62500000  1
  Sr  Sr99  1  0.87500000  0.37500000  0.37500000  1
  Sr  Sr100  1  0.62500000  0.12500000  0.62500000  1
  Sr  Sr101  1  0.37500000  0.87500000  0.37500000  1
  Sr  Sr102  1  0.62500000  0.62500000  0.12500000  1
  Sr  Sr103  1  0.37500000  0.37500000  0.87500000  1
  Sr  Sr104  1  0.12500000  0.33091293  0.12500000  1
  Sr  Sr105  1  0.62500000  0.41908707  0.12500000  1
  Sr  Sr106  1  0.87500000  0.66908707  0.87500000  1
  Sr  Sr107  1  0.37500000  0.58091293  0.87500000  1
  Sr  Sr108  1  0.12500000  0.83091293  0.62500000  1
  Sr  Sr109  1  0.62500000  0.91908707  0.62500000  1
  Sr  Sr110  1  0.87500000  0.16908707  0.37500000  1
  Sr  Sr111  1  0.37500000  0.08091293  0.37500000  1
  Sr  Sr112  1  0.62500000  0.33091293  0.62500000  1
  Sr  Sr113  1  0.12500000  0.41908707  0.62500000  1
  Sr  Sr114  1  0.37500000  0.66908707  0.37500000  1
  Sr  Sr115  1  0.87500000  0.58091293  0.37500000  1
  Sr  Sr116  1  0.62500000  0.83091293  0.12500000  1
  Sr  Sr117  1  0.12500000  0.91908707  0.12500000  1
  Sr  Sr118  1  0.37500000  0.16908707  0.87500000  1
  Sr  Sr119  1  0.87500000  0.08091293  0.87500000  1
  Sr  Sr120  1  0.12500000  0.12500000  0.62500000  1
  Sr  Sr121  1  0.87500000  0.87500000  0.37500000  1
  Sr  Sr122  1  0.12500000  0.62500000  0.12500000  1
  Sr  Sr123  1  0.87500000  0.37500000  0.87500000  1
  Sr  Sr124  1  0.62500000  0.12500000  0.12500000  1
  Sr  Sr125  1  0.37500000  0.87500000  0.87500000  1
  Sr  Sr126  1  0.62500000  0.62500000  0.62500000  1
  Sr  Sr127  1  0.37500000  0.37500000  0.37500000  1
