# generated using pymatgen
data_LiF
_symmetry_space_group_name_H-M   'P 1'
_cell_length_a   8.17771658
_cell_length_b   11.39580183
_cell_length_c   8.76605863
_cell_angle_alpha   90.00000000
_cell_angle_beta   90.00000000
_cell_angle_gamma   90.00000000
_symmetry_Int_Tables_number   1
_chemical_formula_structural   LiF
_chemical_formula_sum   'Li24 F24'
_cell_volume   816.92335899
_cell_formula_units_Z   24
loop_
 _symmetry_equiv_pos_site_id
 _symmetry_equiv_pos_as_xyz
  1  'x, y, z'
loop_
 _atom_site_type_symbol
 _atom_site_label
 _atom_site_symmetry_multiplicity
 _atom_site_fract_x
 _atom_site_fract_y
 _atom_site_fract_z
 _atom_site_occupancy
  F  F0  1  0.11443846  0.09179717  0.58135623  1
  F  F1  1  -0.11443846  -0.09179717  0.58135623  1
  F  F2  1  0.38556154  0.59179717  -0.58135623  1
  F  F3  1  0.61443846  0.40820283  -0.58135623  1
  F  F4  1  -0.11443846  -0.09179717  -0.58135623  1
  F  F5  1  0.11443846  0.09179717  -0.58135623  1
  F  F6  1  0.61443846  0.40820283  0.58135623  1
  F  F7  1  0.38556154  0.59179717  0.58135623  1
  F  F8  1  0.16864645  0.08041521  0.84910472  1
  F  F9  1  0.83135355  0.91958479  0.84910472  1
  F  F10  1  0.33135355  0.58041521  0.15089528  1
  F  F11  1  0.66864645  0.41958479  0.15089528  1
  F  F12  1  0.83135355  0.91958479  0.15089528  1
  F  F13  1  0.16864645  0.08041521  0.15089528  1
  F  F14  1  0.66864645  0.41958479  0.84910472  1
  F  F15  1  0.33135355  0.58041521  0.84910472  1
  F  F16  1  0.00000000  0.00000000  0.50000000  1
  F  F17  1  0.50000000  0.50000000  0.50000000  1
  F  F18  1  0.00000000  0.50000000  0.72602323  1
  F  F19  1  0.50000000  0.00000000  0.27397677  1
  F  F20  1  0.00000000  0.50000000  0.27397677  1
  F  F21  1  0.50000000  0.00000000  0.72602323  1
  F  F22  1  0.00000000  0.50000000  0.00000000  1
  F  F23  1  0.50000000  0.00000000  0.00000000  1
  Li  Li24  1  0.20000454  0.28638588  0.20820726  1
  Li  Li25  1  0.79999546  0.71361412  0.20820726  1
  Li  Li26  1  0.29999546  0.78638588  0.79179274  1
  Li  Li27  1  0.70000454  0.21361412  0.79179274  1
  Li  Li28  1  0.79999546  0.71361412  0.79179274  1
  Li  Li29  1  0.20000454  0.28638588  0.79179274  1
  Li  Li30  1  0.70000454  0.21361412  0.20820726  1
  Li  Li31  1  0.29999546  0.78638588  0.20820726  1
  Li  Li32  1  0.55550525  0.44470201  0.83274385  1
  Li  Li33  1  0.44449475  0.55529799  0.83274385  1
  Li  Li34  1  0.94449475  0.94470201  0.16725615  1
  Li  Li35  1  0.05550525  0.05529799  0.16725615  1
  Li  Li36  1  0.44449475  0.55529799  0.16725615  1
  Li  Li37  1  0.55550525  0.44470201  0.16725615  1
  Li  Li38  1  0.05550525  0.05529799  0.83274385  1
  Li  Li39  1  0.94449475  0.94470201  0.83274385  1
  Li  Li40  1  0.00000000  0.00000000  0.00000000  1
  Li  Li41  1  0.50000000  0.50000000  -0.00000000  1
  Li  Li42  1  0.82902326  0.15423585  0.00000000  1
  Li  Li43  1  0.17097674  0.84576415  0.00000000  1
  Li  Li44  1  0.67097674  0.65423585  0.00000000  1
  Li  Li45  1  0.32902326  0.34576415  0.00000000  1
  Li  Li46  1  0.00000000  0.50000000  0.50000000  1
  Li  Li47  1  0.50000000  0.00000000  0.50000000  1
