# generated using pymatgen
data_Li2Y2P3Se2
_symmetry_space_group_name_H-M   'P 1'
_cell_length_a   4.83400520
_cell_length_b   5.08374065
_cell_length_c   7.04591466
_cell_angle_alpha   95.03367999
_cell_angle_beta   100.96230854
_cell_angle_gamma   110.21829194
_symmetry_Int_Tables_number   1
_chemical_formula_structural   Li2Y2P3Se2
_chemical_formula_sum   'Li2 Y2 P3 Se2'
_cell_volume   157.28934162
_cell_formula_units_Z   1
loop_
 _symmetry_equiv_pos_site_id
 _symmetry_equiv_pos_as_xyz
  1  'x, y, z'
loop_
 _atom_site_type_symbol
 _atom_site_label
 _atom_site_symmetry_multiplicity
 _atom_site_fract_x
 _atom_site_fract_y
 _atom_site_fract_z
 _atom_site_occupancy
  P  P0  1  0.12500000  0.00000000  0.25000000  1
  P  P1  1  0.00000000  0.00000000  0.00000000  1
  P  P2  1  0.37500000  0.00000000  0.25000000  1
  Se  Se3  1  0.25000000  0.25000000  0.25000000  1
  Se  Se4  1  0.00000000  0.25000000  0.12500000  1
  Li  Li5  1  0.99422193  0.70479058  0.39957932  1
  Li  Li6  1  0.47689036  0.86813413  0.13026271  1
  Y  Y7  1  0.05900901  0.09213701  0.41920610  1
  Y  Y8  1  0.28960006  0.68975026  0.06531859  1
