# generated using pymatgen
data_LiF
_symmetry_space_group_name_H-M   'P 1'
_cell_length_a   6.46214062
_cell_length_b   6.46214062
_cell_length_c   17.52554189
_cell_angle_alpha   90.00000000
_cell_angle_beta   90.00000000
_cell_angle_gamma   120.00000000
_symmetry_Int_Tables_number   1
_chemical_formula_structural   LiF
_chemical_formula_sum   'Li16 F16'
_cell_volume   633.80388284
_cell_formula_units_Z   16
loop_
 _symmetry_equiv_pos_site_id
 _symmetry_equiv_pos_as_xyz
  1  'x, y, z'
loop_
 _atom_site_type_symbol
 _atom_site_label
 _atom_site_symmetry_multiplicity
 _atom_site_fract_x
 _atom_site_fract_y
 _atom_site_fract_z
 _atom_site_occupancy
  F  F0  1  0.66666667  0.33333333  -0.00000000  1
  F  F1  1  0.09533722  0.70940607  0.08801266  1
  F  F2  1  0.29059393  0.38593114  0.08801266  1
  F  F3  1  0.61406886  0.90466278  0.08801266  1
  F  F4  1  0.29059393  0.90466278  0.91198734  1
  F  F5  1  0.61406886  0.70940607  0.91198734  1
  F  F6  1  0.09533722  0.38593114  0.91198734  1
  F  F7  1  0.47451641  0.47769840  0.11524468  1
  F  F8  1  0.52230160  0.99681802  0.11524468  1
  F  F9  1  0.00318198  0.52548359  0.11524468  1
  F  F10  1  0.52230160  0.52548359  0.88475532  1
  F  F11  1  0.00318198  0.47769840  0.88475532  1
  F  F12  1  0.47451641  0.99681802  0.88475532  1
  F  F13  1  0.14098403  0.85901597  -0.00000000  1
  F  F14  1  0.14098403  0.28196805  -0.00000000  1
  F  F15  1  0.71803195  0.85901597  0.00000000  1
  Li  Li16  1  0.21709051  0.78290949  0.50000000  1
  Li  Li17  1  0.21709051  0.43418101  0.50000000  1
  Li  Li18  1  0.56581899  0.78290949  0.50000000  1
  Li  Li19  1  0.85293112  0.28357531  0.15340952  1
  Li  Li20  1  -0.28357531  0.56935581  0.15340952  1
  Li  Li21  1  -0.56935581  -0.85293112  0.15340952  1
  Li  Li22  1  -0.28357531  -0.85293112  -0.15340952  1
  Li  Li23  1  -0.56935581  0.28357531  -0.15340952  1
  Li  Li24  1  0.85293112  0.56935581  -0.15340952  1
  Li  Li25  1  0.83185032  0.94911962  0.74749811  1
  Li  Li26  1  0.05088038  0.88273070  0.74749811  1
  Li  Li27  1  0.11726930  0.16814968  0.74749811  1
  Li  Li28  1  0.05088038  0.16814968  0.25250189  1
  Li  Li29  1  0.11726930  0.94911962  0.25250189  1
  Li  Li30  1  0.83185032  0.88273070  0.25250189  1
  Li  Li31  1  0.66666667  0.33333333  0.50000000  1
