# generated using pymatgen
data_LiF
_symmetry_space_group_name_H-M   'P 1'
_cell_length_a   12.92476210
_cell_length_b   9.49203701
_cell_length_c   5.54213607
_cell_angle_alpha   90.00000000
_cell_angle_beta   90.00000000
_cell_angle_gamma   90.00000000
_symmetry_Int_Tables_number   1
_chemical_formula_structural   LiF
_chemical_formula_sum   'Li24 F24'
_cell_volume   679.92211105
_cell_formula_units_Z   24
loop_
 _symmetry_equiv_pos_site_id
 _symmetry_equiv_pos_as_xyz
  1  'x, y, z'
loop_
 _atom_site_type_symbol
 _atom_site_label
 _atom_site_symmetry_multiplicity
 _atom_site_fract_x
 _atom_site_fract_y
 _atom_site_fract_z
 _atom_site_occupancy
  F  F0  1  0.40087363  0.04052607  0.88095847  1
  F  F1  1  0.09912637  0.95947393  0.38095847  1
  F  F2  1  0.59912637  0.54052607  0.11904153  1
  F  F3  1  0.90087363  0.45947393  0.61904153  1
  F  F4  1  0.59912637  0.95947393  0.11904153  1
  F  F5  1  0.90087363  0.04052607  0.61904153  1
  F  F6  1  0.40087363  0.45947393  0.88095847  1
  F  F7  1  0.09912637  0.54052607  0.38095847  1
  F  F8  1  0.22343767  0.64158506  0.56187105  1
  F  F9  1  0.27656233  0.35841494  0.06187105  1
  F  F10  1  0.77656233  0.14158506  0.43812895  1
  F  F11  1  0.72343767  0.85841494  0.93812895  1
  F  F12  1  0.77656233  0.35841494  0.43812895  1
  F  F13  1  0.72343767  0.64158506  0.93812895  1
  F  F14  1  0.22343767  0.85841494  0.56187105  1
  F  F15  1  0.27656233  0.14158506  0.06187105  1
  F  F16  1  0.82539998  0.05909125  0.09813088  1
  F  F17  1  0.67460002  0.94090875  0.59813088  1
  F  F18  1  0.17460002  0.55909125  0.90186912  1
  F  F19  1  0.32539998  0.44090875  0.40186912  1
  F  F20  1  0.17460002  0.94090875  0.90186912  1
  F  F21  1  0.32539998  0.05909125  0.40186912  1
  F  F22  1  0.82539998  0.44090875  0.09813088  1
  F  F23  1  0.67460002  0.55909125  0.59813088  1
  Li  Li24  1  0.94957887  0.11921998  0.09220660  1
  Li  Li25  1  -0.44957887  -0.11921998  0.59220660  1
  Li  Li26  1  -0.94957887  0.61921998  -0.09220660  1
  Li  Li27  1  1.44957887  0.38078002  0.40779340  1
  Li  Li28  1  -0.94957887  -0.11921998  -0.09220660  1
  Li  Li29  1  1.44957887  0.11921998  0.40779340  1
  Li  Li30  1  0.94957887  0.38078002  0.09220660  1
  Li  Li31  1  -0.44957887  0.61921998  0.59220660  1
  Li  Li32  1  0.00000000  0.00000000  0.50000000  1
  Li  Li33  1  0.50000000  0.00000000  0.00000000  1
  Li  Li34  1  0.00000000  0.50000000  0.50000000  1
  Li  Li35  1  0.50000000  0.50000000  0.00000000  1
  Li  Li36  1  0.22734772  0.25000000  0.24417200  1
  Li  Li37  1  0.27265228  0.75000000  0.74417200  1
  Li  Li38  1  0.77265228  0.75000000  0.75582800  1
  Li  Li39  1  0.72734772  0.25000000  0.25582800  1
  Li  Li40  1  0.33861354  0.25000000  0.01196159  1
  Li  Li41  1  0.16138646  0.75000000  0.51196159  1
  Li  Li42  1  0.66138646  0.75000000  0.98803841  1
  Li  Li43  1  0.83861354  0.25000000  0.48803841  1
  Li  Li44  1  0.00000000  0.00000000  0.00000000  1
  Li  Li45  1  0.50000000  0.00000000  0.50000000  1
  Li  Li46  1  0.00000000  0.50000000  0.00000000  1
  Li  Li47  1  0.50000000  0.50000000  0.50000000  1
