# generated using pymatgen
data_LiF
_symmetry_space_group_name_H-M   'P 1'
_cell_length_a   5.26673801
_cell_length_b   4.88342688
_cell_length_c   7.71212432
_cell_angle_alpha   90.00000000
_cell_angle_beta   90.00000000
_cell_angle_gamma   90.00000000
_symmetry_Int_Tables_number   1
_chemical_formula_structural   LiF
_chemical_formula_sum   'Li8 F8'
_cell_volume   198.35375509
_cell_formula_units_Z   8
loop_
 _symmetry_equiv_pos_site_id
 _symmetry_equiv_pos_as_xyz
  1  'x, y, z'
loop_
 _atom_site_type_symbol
 _atom_site_label
 _atom_site_symmetry_multiplicity
 _atom_site_fract_x
 _atom_site_fract_y
 _atom_site_fract_z
 _atom_site_occupancy
  F  F0  1  0.51520803  0.94129129  0.25606279  1
  F  F1  1  -0.51520803  -0.94129129  0.25606279  1
  F  F2  1  -0.01520803  1.44129129  0.24393721  1
  F  F3  1  1.01520803  -0.44129129  0.24393721  1
  F  F4  1  -0.51520803  -0.94129129  -0.25606279  1
  F  F5  1  0.51520803  0.94129129  -0.25606279  1
  F  F6  1  1.01520803  -0.44129129  0.75606279  1
  F  F7  1  -0.01520803  1.44129129  0.75606279  1
  Li  Li8  1  0.25447268  0.64855906  0.40131012  1
  Li  Li9  1  0.74552732  0.35144094  0.40131012  1
  Li  Li10  1  0.24552732  0.14855906  0.09868988  1
  Li  Li11  1  0.75447268  0.85144094  0.09868988  1
  Li  Li12  1  0.74552732  0.35144094  0.59868988  1
  Li  Li13  1  0.25447268  0.64855906  0.59868988  1
  Li  Li14  1  0.75447268  0.85144094  0.90131012  1
  Li  Li15  1  0.24552732  0.14855906  0.90131012  1
