# generated using pymatgen
data_LiF
_symmetry_space_group_name_H-M   'P 1'
_cell_length_a   7.18850437
_cell_length_b   7.18850437
_cell_length_c   7.18850437
_cell_angle_alpha   90.00000000
_cell_angle_beta   90.00000000
_cell_angle_gamma   90.00000000
_symmetry_Int_Tables_number   1
_chemical_formula_structural   LiF
_chemical_formula_sum   'Li16 F16'
_cell_volume   371.46305224
_cell_formula_units_Z   16
loop_
 _symmetry_equiv_pos_site_id
 _symmetry_equiv_pos_as_xyz
  1  'x, y, z'
loop_
 _atom_site_type_symbol
 _atom_site_label
 _atom_site_symmetry_multiplicity
 _atom_site_fract_x
 _atom_site_fract_y
 _atom_site_fract_z
 _atom_site_occupancy
  F  F0  1  0.17410426  0.17410426  0.17410426  1
  F  F1  1  0.32589574  0.82589574  0.67410426  1
  F  F2  1  0.82589574  0.67410426  0.32589574  1
  F  F3  1  0.67410426  0.32589574  0.82589574  1
  F  F4  1  0.92410426  0.42410426  0.07589574  1
  F  F5  1  0.57589574  0.57589574  0.57589574  1
  F  F6  1  0.42410426  0.07589574  0.92410426  1
  F  F7  1  0.07589574  0.92410426  0.42410426  1
  F  F8  1  0.67410426  0.67410426  0.67410426  1
  F  F9  1  0.82589574  0.32589574  0.17410426  1
  F  F10  1  0.32589574  0.17410426  0.82589574  1
  F  F11  1  0.17410426  0.82589574  0.32589574  1
  F  F12  1  0.42410426  0.92410426  0.57589574  1
  F  F13  1  0.07589574  0.07589574  0.07589574  1
  F  F14  1  0.92410426  0.57589574  0.42410426  1
  F  F15  1  0.57589574  0.42410426  0.92410426  1
  Li  Li16  1  0.46728868  0.46728868  0.46728868  1
  Li  Li17  1  0.03271132  -0.46728868  0.96728868  1
  Li  Li18  1  -0.46728868  0.96728868  0.03271132  1
  Li  Li19  1  0.96728868  0.03271132  -0.46728868  1
  Li  Li20  1  1.21728868  0.71728868  -0.21728868  1
  Li  Li21  1  0.28271132  0.28271132  0.28271132  1
  Li  Li22  1  0.71728868  -0.21728868  1.21728868  1
  Li  Li23  1  -0.21728868  1.21728868  0.71728868  1
  Li  Li24  1  0.96728868  0.96728868  0.96728868  1
  Li  Li25  1  0.53271132  0.03271132  1.46728868  1
  Li  Li26  1  0.03271132  1.46728868  0.53271132  1
  Li  Li27  1  1.46728868  0.53271132  0.03271132  1
  Li  Li28  1  1.71728868  1.21728868  0.28271132  1
  Li  Li29  1  0.78271132  0.78271132  0.78271132  1
  Li  Li30  1  1.21728868  0.28271132  1.71728868  1
  Li  Li31  1  0.28271132  1.71728868  1.21728868  1
