# generated using pymatgen
data_LiF
_symmetry_space_group_name_H-M   'P 1'
_cell_length_a   13.44118956
_cell_length_b   13.44118956
_cell_length_c   5.72873512
_cell_angle_alpha   90.00000000
_cell_angle_beta   90.00000000
_cell_angle_gamma   120.00000000
_symmetry_Int_Tables_number   1
_chemical_formula_structural   LiF
_chemical_formula_sum   'Li42 F42'
_cell_volume   896.32350541
_cell_formula_units_Z   42
loop_
 _symmetry_equiv_pos_site_id
 _symmetry_equiv_pos_as_xyz
  1  'x, y, z'
loop_
 _atom_site_type_symbol
 _atom_site_label
 _atom_site_symmetry_multiplicity
 _atom_site_fract_x
 _atom_site_fract_y
 _atom_site_fract_z
 _atom_site_occupancy
  F  F0  1  0.66513387  0.89654439  0.35592762  1
  F  F1  1  0.10345561  0.76858948  0.35592762  1
  F  F2  1  0.23141052  0.33486613  0.35592762  1
  F  F3  1  0.10345561  0.33486613  0.64407238  1
  F  F4  1  0.23141052  0.89654439  0.64407238  1
  F  F5  1  0.66513387  0.76858948  0.64407238  1
  F  F6  1  0.67580400  0.48360325  0.21728851  1
  F  F7  1  0.51639675  0.19220075  0.21728851  1
  F  F8  1  0.80779925  0.32419600  0.21728851  1
  F  F9  1  0.51639675  0.32419600  0.78271149  1
  F  F10  1  0.80779925  0.48360325  0.78271149  1
  F  F11  1  0.67580400  0.19220075  0.78271149  1
  F  F12  1  0.33331895  0.01975122  0.17513974  1
  F  F13  1  0.98024878  0.31356773  0.17513974  1
  F  F14  1  0.68643227  0.66668105  0.17513974  1
  F  F15  1  0.98024878  0.66668105  0.82486026  1
  F  F16  1  0.68643227  0.01975122  0.82486026  1
  F  F17  1  0.33331895  0.31356773  0.82486026  1
  F  F18  1  0.25616910  0.74383090  0.50000000  1
  F  F19  1  0.25616910  0.51233821  0.50000000  1
  F  F20  1  0.48766179  0.74383090  0.50000000  1
  F  F21  1  0.23584849  0.94143448  0.85338603  1
  F  F22  1  0.05856552  0.29441401  0.85338603  1
  F  F23  1  0.70558599  0.76415151  0.85338603  1
  F  F24  1  0.05856552  0.76415151  0.14661397  1
  F  F25  1  0.70558599  0.94143448  0.14661397  1
  F  F26  1  0.23584849  0.29441401  0.14661397  1
  F  F27  1  0.57437213  0.18857754  0.52262396  1
  F  F28  1  0.81142246  0.38579459  0.52262396  1
  F  F29  1  0.61420541  0.42562787  0.52262396  1
  F  F30  1  0.81142246  0.42562787  0.47737604  1
  F  F31  1  0.61420541  0.18857754  0.47737604  1
  F  F32  1  0.57437213  0.38579459  0.47737604  1
  F  F33  1  0.86961446  0.51198586  0.99460471  1
  F  F34  1  0.48801414  0.35762860  0.99460471  1
  F  F35  1  0.64237140  0.13038554  0.99460471  1
  F  F36  1  0.48801414  0.13038554  0.00539529  1
  F  F37  1  0.64237140  0.51198586  0.00539529  1
  F  F38  1  0.86961446  0.35762860  0.00539529  1
  F  F39  1  0.28971596  0.71028404  0.50000000  1
  F  F40  1  0.28971596  0.57943191  0.50000000  1
  F  F41  1  0.42056809  0.71028404  0.50000000  1
  Li  Li42  1  0.41564317  0.58435683  0.00000000  1
  Li  Li43  1  0.41564317  0.83128633  0.00000000  1
  Li  Li44  1  0.16871367  0.58435683  -0.00000000  1
  Li  Li45  1  0.66666667  0.33333333  -0.00000000  1
  Li  Li46  1  0.55268730  0.91206699  0.08313197  1
  Li  Li47  1  -0.91206699  -0.35937970  0.08313197  1
  Li  Li48  1  0.35937970  -0.55268730  0.08313197  1
  Li  Li49  1  -0.91206699  -0.55268730  -0.08313197  1
  Li  Li50  1  0.35937970  0.91206699  -0.08313197  1
  Li  Li51  1  0.55268730  -0.35937970  -0.08313197  1
  Li  Li52  1  0.92230888  0.34742836  0.82054551  1
  Li  Li53  1  0.65257164  0.57488052  0.82054551  1
  Li  Li54  1  0.42511948  0.07769112  0.82054551  1
  Li  Li55  1  0.65257164  0.07769112  0.17945449  1
  Li  Li56  1  0.42511948  0.34742836  0.17945449  1
  Li  Li57  1  0.92230888  0.57488052  0.17945449  1
  Li  Li58  1  0.86319857  0.76329601  0.75010892  1
  Li  Li59  1  0.23670399  0.09990256  0.75010892  1
  Li  Li60  1  0.90009744  0.13680143  0.75010892  1
  Li  Li61  1  0.23670399  0.13680143  0.24989108  1
  Li  Li62  1  0.90009744  0.76329601  0.24989108  1
  Li  Li63  1  0.86319857  0.09990256  0.24989108  1
  Li  Li64  1  0.33333333  0.66666667  0.50000000  1
  Li  Li65  1  0.00000000  0.00000000  0.50000000  1
  Li  Li66  1  0.41096987  0.94225783  0.42782084  1
  Li  Li67  1  0.05774217  0.46871204  0.42782084  1
  Li  Li68  1  0.53128796  0.58903013  0.42782084  1
  Li  Li69  1  0.05774217  0.58903013  0.57217916  1
  Li  Li70  1  0.53128796  0.94225783  0.57217916  1
  Li  Li71  1  0.41096987  0.46871204  0.57217916  1
  Li  Li72  1  0.00000000  0.00000000  0.00000000  1
  Li  Li73  1  0.66666667  0.33333333  0.64533867  1
  Li  Li74  1  0.66666667  0.33333333  0.35466133  1
  Li  Li75  1  0.80799491  0.92537973  0.68390085  1
  Li  Li76  1  0.07462027  0.88261518  0.68390085  1
  Li  Li77  1  0.11738482  0.19200509  0.68390085  1
  Li  Li78  1  0.07462027  0.19200509  0.31609915  1
  Li  Li79  1  0.11738482  0.92537973  0.31609915  1
  Li  Li80  1  0.80799491  0.88261518  0.31609915  1
  Li  Li81  1  0.06420380  0.93579620  0.50000000  1
  Li  Li82  1  0.06420380  0.12840760  0.50000000  1
  Li  Li83  1  0.87159240  0.93579620  0.50000000  1
