# generated using pymatgen
data_LiTe2SeF
_symmetry_space_group_name_H-M   'P 1'
_cell_length_a   8.07536965
_cell_length_b   8.12705537
_cell_length_c   8.02769092
_cell_angle_alpha   90.00000000
_cell_angle_beta   90.00000000
_cell_angle_gamma   90.00000000
_symmetry_Int_Tables_number   1
_chemical_formula_structural   LiTe2SeF
_chemical_formula_sum   'Li2 Te4 Se2 F2'
_cell_volume   526.84913665
_cell_formula_units_Z   2
loop_
 _symmetry_equiv_pos_site_id
 _symmetry_equiv_pos_as_xyz
  1  'x, y, z'
loop_
 _atom_site_type_symbol
 _atom_site_label
 _atom_site_symmetry_multiplicity
 _atom_site_fract_x
 _atom_site_fract_y
 _atom_site_fract_z
 _atom_site_occupancy
  Se  Se0  1  0.00000000  0.00000000  0.00000000  1
  Se  Se1  1  0.33300000  0.66700000  0.25000000  1
  Te  Te2  1  0.66700000  0.33300000  0.50000000  1
  Te  Te3  1  0.00000000  0.00000000  0.75000000  1
  Te  Te4  1  0.97426592  0.54437989  0.60874506  1
  Te  Te5  1  0.16602213  0.62017562  0.31209986  1
  F  F6  1  0.44005325  0.22545057  0.39174447  1
  F  F7  1  0.84774714  0.51326919  0.23624503  1
  Li  Li8  1  0.31240500  0.15700949  0.70738127  1
  Li  Li9  1  0.37412721  0.57751082  0.87260937  1
