# generated using pymatgen
data_K6Li4TeSe4
_symmetry_space_group_name_H-M   'P 1'
_cell_length_a   23.00031044
_cell_length_b   23.00031044
_cell_length_c   23.00031044
_cell_angle_alpha   90.00000000
_cell_angle_beta   90.00000000
_cell_angle_gamma   90.00000000
_symmetry_Int_Tables_number   1
_chemical_formula_structural   K6Li4TeSe4
_chemical_formula_sum   'K144 Li96 Te24 Se96'
_cell_volume   12167.49267408
_cell_formula_units_Z   24
loop_
 _symmetry_equiv_pos_site_id
 _symmetry_equiv_pos_as_xyz
  1  'x, y, z'
loop_
 _atom_site_type_symbol
 _atom_site_label
 _atom_site_symmetry_multiplicity
 _atom_site_fract_x
 _atom_site_fract_y
 _atom_site_fract_z
 _atom_site_occupancy
  K  K0  1  0.00000000  0.88426894  0.24546031  1
  K  K1  1  0.00000000  -0.88426894  0.24546031  1
  K  K2  1  0.00000000  0.88426894  -0.24546031  1
  K  K3  1  0.00000000  -0.88426894  -0.24546031  1
  K  K4  1  0.24546031  0.00000000  0.88426894  1
  K  K5  1  0.24546031  0.00000000  -0.88426894  1
  K  K6  1  -0.24546031  0.00000000  0.88426894  1
  K  K7  1  -0.24546031  0.00000000  -0.88426894  1
  K  K8  1  0.88426894  0.24546031  0.00000000  1
  K  K9  1  -0.88426894  0.24546031  0.00000000  1
  K  K10  1  0.88426894  -0.24546031  0.00000000  1
  K  K11  1  -0.88426894  -0.24546031  0.00000000  1
  K  K12  1  0.88426894  0.00000000  -0.24546031  1
  K  K13  1  -0.88426894  0.00000000  -0.24546031  1
  K  K14  1  0.88426894  0.00000000  0.24546031  1
  K  K15  1  -0.88426894  0.00000000  0.24546031  1
  K  K16  1  0.00000000  0.24546031  -0.88426894  1
  K  K17  1  0.00000000  0.24546031  0.88426894  1
  K  K18  1  0.00000000  -0.24546031  -0.88426894  1
  K  K19  1  0.00000000  -0.24546031  0.88426894  1
  K  K20  1  0.24546031  0.88426894  0.00000000  1
  K  K21  1  0.24546031  -0.88426894  0.00000000  1
  K  K22  1  -0.24546031  0.88426894  0.00000000  1
  K  K23  1  -0.24546031  -0.88426894  0.00000000  1
  K  K24  1  0.00000000  1.38426894  0.74546031  1
  K  K25  1  0.00000000  -0.38426894  0.74546031  1
  K  K26  1  0.00000000  1.38426894  0.25453969  1
  K  K27  1  0.00000000  -0.38426894  0.25453969  1
  K  K28  1  0.24546031  0.50000000  1.38426894  1
  K  K29  1  0.24546031  0.50000000  -0.38426894  1
  K  K30  1  -0.24546031  0.50000000  1.38426894  1
  K  K31  1  -0.24546031  0.50000000  -0.38426894  1
  K  K32  1  0.88426894  0.74546031  0.50000000  1
  K  K33  1  -0.88426894  0.74546031  0.50000000  1
  K  K34  1  0.88426894  0.25453969  0.50000000  1
  K  K35  1  -0.88426894  0.25453969  0.50000000  1
  K  K36  1  0.88426894  0.50000000  0.25453969  1
  K  K37  1  -0.88426894  0.50000000  0.25453969  1
  K  K38  1  0.88426894  0.50000000  0.74546031  1
  K  K39  1  -0.88426894  0.50000000  0.74546031  1
  K  K40  1  0.00000000  0.74546031  -0.38426894  1
  K  K41  1  0.00000000  0.74546031  1.38426894  1
  K  K42  1  0.00000000  0.25453969  -0.38426894  1
  K  K43  1  0.00000000  0.25453969  1.38426894  1
  K  K44  1  0.24546031  1.38426894  0.50000000  1
  K  K45  1  0.24546031  -0.38426894  0.50000000  1
  K  K46  1  -0.24546031  1.38426894  0.50000000  1
  K  K47  1  -0.24546031  -0.38426894  0.50000000  1
  K  K48  1  0.50000000  0.88426894  0.74546031  1
  K  K49  1  0.50000000  -0.88426894  0.74546031  1
  K  K50  1  0.50000000  0.88426894  0.25453969  1
  K  K51  1  0.50000000  -0.88426894  0.25453969  1
  K  K52  1  0.74546031  -0.00000000  1.38426894  1
  K  K53  1  0.74546031  -0.00000000  -0.38426894  1
  K  K54  1  0.25453969  0.00000000  1.38426894  1
  K  K55  1  0.25453969  0.00000000  -0.38426894  1
  K  K56  1  1.38426894  0.24546031  0.50000000  1
  K  K57  1  -0.38426894  0.24546031  0.50000000  1
  K  K58  1  1.38426894  -0.24546031  0.50000000  1
  K  K59  1  -0.38426894  -0.24546031  0.50000000  1
  K  K60  1  1.38426894  -0.00000000  0.25453969  1
  K  K61  1  -0.38426894  0.00000000  0.25453969  1
  K  K62  1  1.38426894  -0.00000000  0.74546031  1
  K  K63  1  -0.38426894  0.00000000  0.74546031  1
  K  K64  1  0.50000000  0.24546031  -0.38426894  1
  K  K65  1  0.50000000  0.24546031  1.38426894  1
  K  K66  1  0.50000000  -0.24546031  -0.38426894  1
  K  K67  1  0.50000000  -0.24546031  1.38426894  1
  K  K68  1  0.74546031  0.88426894  0.50000000  1
  K  K69  1  0.74546031  -0.88426894  0.50000000  1
  K  K70  1  0.25453969  0.88426894  0.50000000  1
  K  K71  1  0.25453969  -0.88426894  0.50000000  1
  K  K72  1  0.50000000  1.38426894  0.24546031  1
  K  K73  1  0.50000000  -0.38426894  0.24546031  1
  K  K74  1  0.50000000  1.38426894  -0.24546031  1
  K  K75  1  0.50000000  -0.38426894  -0.24546031  1
  K  K76  1  0.74546031  0.50000000  0.88426894  1
  K  K77  1  0.74546031  0.50000000  -0.88426894  1
  K  K78  1  0.25453969  0.50000000  0.88426894  1
  K  K79  1  0.25453969  0.50000000  -0.88426894  1
  K  K80  1  1.38426894  0.74546031  -0.00000000  1
  K  K81  1  -0.38426894  0.74546031  -0.00000000  1
  K  K82  1  1.38426894  0.25453969  -0.00000000  1
  K  K83  1  -0.38426894  0.25453969  0.00000000  1
  K  K84  1  1.38426894  0.50000000  -0.24546031  1
  K  K85  1  -0.38426894  0.50000000  -0.24546031  1
  K  K86  1  1.38426894  0.50000000  0.24546031  1
  K  K87  1  -0.38426894  0.50000000  0.24546031  1
  K  K88  1  0.50000000  0.74546031  -0.88426894  1
  K  K89  1  0.50000000  0.74546031  0.88426894  1
  K  K90  1  0.50000000  0.25453969  -0.88426894  1
  K  K91  1  0.50000000  0.25453969  0.88426894  1
  K  K92  1  0.74546031  1.38426894  0.00000000  1
  K  K93  1  0.74546031  -0.38426894  -0.00000000  1
  K  K94  1  0.25453969  1.38426894  0.00000000  1
  K  K95  1  0.25453969  -0.38426894  0.00000000  1
  K  K96  1  0.00000000  0.32531562  0.32531562  1
  K  K97  1  0.00000000  0.67468438  0.32531562  1
  K  K98  1  0.00000000  0.32531562  0.67468438  1
  K  K99  1  0.00000000  0.67468438  0.67468438  1
  K  K100  1  0.32531562  0.00000000  0.32531562  1
  K  K101  1  0.32531562  0.00000000  0.67468438  1
  K  K102  1  0.67468438  -0.00000000  0.32531562  1
  K  K103  1  0.67468438  -0.00000000  0.67468438  1
  K  K104  1  0.32531562  0.32531562  -0.00000000  1
  K  K105  1  0.67468438  0.32531562  0.00000000  1
  K  K106  1  0.32531562  0.67468438  0.00000000  1
  K  K107  1  0.67468438  0.67468438  -0.00000000  1
  K  K108  1  0.00000000  0.82531562  0.82531562  1
  K  K109  1  0.00000000  0.17468438  0.82531562  1
  K  K110  1  0.00000000  0.82531562  0.17468438  1
  K  K111  1  0.00000000  0.17468438  0.17468438  1
  K  K112  1  0.32531562  0.50000000  0.82531562  1
  K  K113  1  0.32531562  0.50000000  0.17468438  1
  K  K114  1  0.67468438  0.50000000  0.82531562  1
  K  K115  1  0.67468438  0.50000000  0.17468438  1
  K  K116  1  0.32531562  0.82531562  0.50000000  1
  K  K117  1  0.67468438  0.82531562  0.50000000  1
  K  K118  1  0.32531562  0.17468438  0.50000000  1
  K  K119  1  0.67468438  0.17468438  0.50000000  1
  K  K120  1  0.50000000  0.32531562  0.82531562  1
  K  K121  1  0.50000000  0.67468438  0.82531562  1
  K  K122  1  0.50000000  0.32531562  0.17468438  1
  K  K123  1  0.50000000  0.67468438  0.17468438  1
  K  K124  1  0.82531562  0.00000000  0.82531562  1
  K  K125  1  0.82531562  0.00000000  0.17468438  1
  K  K126  1  0.17468438  0.00000000  0.82531562  1
  K  K127  1  0.17468438  0.00000000  0.17468438  1
  K  K128  1  0.82531562  0.32531562  0.50000000  1
  K  K129  1  0.17468438  0.32531562  0.50000000  1
  K  K130  1  0.82531562  0.67468438  0.50000000  1
  K  K131  1  0.17468438  0.67468438  0.50000000  1
  K  K132  1  0.50000000  0.82531562  0.32531562  1
  K  K133  1  0.50000000  0.17468438  0.32531562  1
  K  K134  1  0.50000000  0.82531562  0.67468438  1
  K  K135  1  0.50000000  0.17468438  0.67468438  1
  K  K136  1  0.82531562  0.50000000  0.32531562  1
  K  K137  1  0.82531562  0.50000000  0.67468438  1
  K  K138  1  0.17468438  0.50000000  0.32531562  1
  K  K139  1  0.17468438  0.50000000  0.67468438  1
  K  K140  1  0.82531562  0.82531562  0.00000000  1
  K  K141  1  0.17468438  0.82531562  0.00000000  1
  K  K142  1  0.82531562  0.17468438  0.00000000  1
  K  K143  1  0.17468438  0.17468438  0.00000000  1
  Li  Li144  1  0.00000000  0.25000000  0.25000000  1
  Li  Li145  1  0.00000000  0.75000000  0.25000000  1
  Li  Li146  1  0.25000000  0.00000000  0.25000000  1
  Li  Li147  1  0.25000000  0.00000000  0.75000000  1
  Li  Li148  1  0.25000000  0.25000000  0.00000000  1
  Li  Li149  1  0.75000000  0.25000000  -0.00000000  1
  Li  Li150  1  0.00000000  0.75000000  0.75000000  1
  Li  Li151  1  0.00000000  0.25000000  0.75000000  1
  Li  Li152  1  0.25000000  0.50000000  0.75000000  1
  Li  Li153  1  0.25000000  0.50000000  0.25000000  1
  Li  Li154  1  0.25000000  0.75000000  0.50000000  1
  Li  Li155  1  0.75000000  0.75000000  0.50000000  1
  Li  Li156  1  0.50000000  0.25000000  0.75000000  1
  Li  Li157  1  0.50000000  0.75000000  0.75000000  1
  Li  Li158  1  0.75000000  0.00000000  0.75000000  1
  Li  Li159  1  0.75000000  0.00000000  0.25000000  1
  Li  Li160  1  0.75000000  0.25000000  0.50000000  1
  Li  Li161  1  0.25000000  0.25000000  0.50000000  1
  Li  Li162  1  0.50000000  0.75000000  0.25000000  1
  Li  Li163  1  0.50000000  0.25000000  0.25000000  1
  Li  Li164  1  0.75000000  0.50000000  0.25000000  1
  Li  Li165  1  0.75000000  0.50000000  0.75000000  1
  Li  Li166  1  0.75000000  0.75000000  0.00000000  1
  Li  Li167  1  0.25000000  0.75000000  0.00000000  1
  Li  Li168  1  0.00000000  0.40093055  0.40093055  1
  Li  Li169  1  0.00000000  0.59906945  0.40093055  1
  Li  Li170  1  0.00000000  0.40093055  0.59906945  1
  Li  Li171  1  0.00000000  0.59906945  0.59906945  1
  Li  Li172  1  0.40093055  0.00000000  0.40093055  1
  Li  Li173  1  0.40093055  0.00000000  0.59906945  1
  Li  Li174  1  0.59906945  -0.00000000  0.40093055  1
  Li  Li175  1  0.59906945  -0.00000000  0.59906945  1
  Li  Li176  1  0.40093055  0.40093055  0.00000000  1
  Li  Li177  1  0.59906945  0.40093055  0.00000000  1
  Li  Li178  1  0.40093055  0.59906945  0.00000000  1
  Li  Li179  1  0.59906945  0.59906945  -0.00000000  1
  Li  Li180  1  0.00000000  0.90093055  0.90093055  1
  Li  Li181  1  0.00000000  0.09906945  0.90093055  1
  Li  Li182  1  0.00000000  0.90093055  0.09906945  1
  Li  Li183  1  0.00000000  0.09906945  0.09906945  1
  Li  Li184  1  0.40093055  0.50000000  0.90093055  1
  Li  Li185  1  0.40093055  0.50000000  0.09906945  1
  Li  Li186  1  0.59906945  0.50000000  0.90093055  1
  Li  Li187  1  0.59906945  0.50000000  0.09906945  1
  Li  Li188  1  0.40093055  0.90093055  0.50000000  1
  Li  Li189  1  0.59906945  0.90093055  0.50000000  1
  Li  Li190  1  0.40093055  0.09906945  0.50000000  1
  Li  Li191  1  0.59906945  0.09906945  0.50000000  1
  Li  Li192  1  0.50000000  0.40093055  0.90093055  1
  Li  Li193  1  0.50000000  0.59906945  0.90093055  1
  Li  Li194  1  0.50000000  0.40093055  0.09906945  1
  Li  Li195  1  0.50000000  0.59906945  0.09906945  1
  Li  Li196  1  0.90093055  -0.00000000  0.90093055  1
  Li  Li197  1  0.90093055  -0.00000000  0.09906945  1
  Li  Li198  1  0.09906945  0.00000000  0.90093055  1
  Li  Li199  1  0.09906945  0.00000000  0.09906945  1
  Li  Li200  1  0.90093055  0.40093055  0.50000000  1
  Li  Li201  1  0.09906945  0.40093055  0.50000000  1
  Li  Li202  1  0.90093055  0.59906945  0.50000000  1
  Li  Li203  1  0.09906945  0.59906945  0.50000000  1
  Li  Li204  1  0.50000000  0.90093055  0.40093055  1
  Li  Li205  1  0.50000000  0.09906945  0.40093055  1
  Li  Li206  1  0.50000000  0.90093055  0.59906945  1
  Li  Li207  1  0.50000000  0.09906945  0.59906945  1
  Li  Li208  1  0.90093055  0.50000000  0.40093055  1
  Li  Li209  1  0.90093055  0.50000000  0.59906945  1
  Li  Li210  1  0.09906945  0.50000000  0.40093055  1
  Li  Li211  1  0.09906945  0.50000000  0.59906945  1
  Li  Li212  1  0.90093055  0.90093055  -0.00000000  1
  Li  Li213  1  0.09906945  0.90093055  0.00000000  1
  Li  Li214  1  0.90093055  0.09906945  -0.00000000  1
  Li  Li215  1  0.09906945  0.09906945  0.00000000  1
  Li  Li216  1  0.57731873  0.00000000  0.00000000  1
  Li  Li217  1  0.42268127  0.00000000  -0.00000000  1
  Li  Li218  1  0.00000000  0.57731873  0.00000000  1
  Li  Li219  1  0.00000000  0.42268127  0.00000000  1
  Li  Li220  1  0.00000000  0.00000000  0.57731873  1
  Li  Li221  1  0.00000000  0.00000000  0.42268127  1
  Li  Li222  1  0.57731873  0.50000000  0.50000000  1
  Li  Li223  1  0.42268127  0.50000000  0.50000000  1
  Li  Li224  1  0.00000000  0.07731873  0.50000000  1
  Li  Li225  1  0.00000000  0.92268127  0.50000000  1
  Li  Li226  1  0.00000000  0.50000000  0.07731873  1
  Li  Li227  1  0.00000000  0.50000000  0.92268127  1
  Li  Li228  1  0.07731873  0.00000000  0.50000000  1
  Li  Li229  1  0.92268127  0.00000000  0.50000000  1
  Li  Li230  1  0.50000000  0.57731873  0.50000000  1
  Li  Li231  1  0.50000000  0.42268127  0.50000000  1
  Li  Li232  1  0.50000000  0.00000000  0.07731873  1
  Li  Li233  1  0.50000000  0.00000000  0.92268127  1
  Li  Li234  1  0.07731873  0.50000000  0.00000000  1
  Li  Li235  1  0.92268127  0.50000000  0.00000000  1
  Li  Li236  1  0.50000000  0.07731873  0.00000000  1
  Li  Li237  1  0.50000000  0.92268127  0.00000000  1
  Li  Li238  1  0.50000000  0.50000000  0.57731873  1
  Li  Li239  1  0.50000000  0.50000000  0.42268127  1
  Se  Se240  1  0.50000000  0.55999663  0.55999663  1
  Se  Se241  1  0.50000000  0.44000337  0.55999663  1
  Se  Se242  1  0.50000000  0.55999663  0.44000337  1
  Se  Se243  1  0.50000000  0.44000337  0.44000337  1
  Se  Se244  1  0.55999663  0.50000000  0.55999663  1
  Se  Se245  1  0.55999663  0.50000000  0.44000337  1
  Se  Se246  1  0.44000337  0.50000000  0.55999663  1
  Se  Se247  1  0.44000337  0.50000000  0.44000337  1
  Se  Se248  1  0.55999663  0.55999663  0.50000000  1
  Se  Se249  1  0.44000337  0.55999663  0.50000000  1
  Se  Se250  1  0.55999663  0.44000337  0.50000000  1
  Se  Se251  1  0.44000337  0.44000337  0.50000000  1
  Se  Se252  1  0.50000000  0.05999663  0.05999663  1
  Se  Se253  1  0.50000000  0.94000337  0.05999663  1
  Se  Se254  1  0.50000000  0.05999663  0.94000337  1
  Se  Se255  1  0.50000000  0.94000337  0.94000337  1
  Se  Se256  1  0.55999663  -0.00000000  0.05999663  1
  Se  Se257  1  0.55999663  -0.00000000  0.94000337  1
  Se  Se258  1  0.44000337  0.00000000  0.05999663  1
  Se  Se259  1  0.44000337  0.00000000  0.94000337  1
  Se  Se260  1  0.55999663  0.05999663  -0.00000000  1
  Se  Se261  1  0.44000337  0.05999663  0.00000000  1
  Se  Se262  1  0.55999663  0.94000337  0.00000000  1
  Se  Se263  1  0.44000337  0.94000337  0.00000000  1
  Se  Se264  1  0.00000000  0.55999663  0.05999663  1
  Se  Se265  1  0.00000000  0.44000337  0.05999663  1
  Se  Se266  1  0.00000000  0.55999663  0.94000337  1
  Se  Se267  1  0.00000000  0.44000337  0.94000337  1
  Se  Se268  1  0.05999663  0.50000000  0.05999663  1
  Se  Se269  1  0.05999663  0.50000000  0.94000337  1
  Se  Se270  1  0.94000337  0.50000000  0.05999663  1
  Se  Se271  1  0.94000337  0.50000000  0.94000337  1
  Se  Se272  1  0.05999663  0.55999663  -0.00000000  1
  Se  Se273  1  0.94000337  0.55999663  0.00000000  1
  Se  Se274  1  0.05999663  0.44000337  0.00000000  1
  Se  Se275  1  0.94000337  0.44000337  -0.00000000  1
  Se  Se276  1  0.00000000  0.05999663  0.55999663  1
  Se  Se277  1  0.00000000  0.94000337  0.55999663  1
  Se  Se278  1  0.00000000  0.05999663  0.44000337  1
  Se  Se279  1  0.00000000  0.94000337  0.44000337  1
  Se  Se280  1  0.05999663  0.00000000  0.55999663  1
  Se  Se281  1  0.05999663  0.00000000  0.44000337  1
  Se  Se282  1  0.94000337  0.00000000  0.55999663  1
  Se  Se283  1  0.94000337  0.00000000  0.44000337  1
  Se  Se284  1  0.05999663  0.05999663  0.50000000  1
  Se  Se285  1  0.94000337  0.05999663  0.50000000  1
  Se  Se286  1  0.05999663  0.94000337  0.50000000  1
  Se  Se287  1  0.94000337  0.94000337  0.50000000  1
  Se  Se288  1  0.00000000  0.00000000  0.00000000  1
  Se  Se289  1  0.00000000  0.50000000  0.50000000  1
  Se  Se290  1  0.50000000  0.00000000  0.50000000  1
  Se  Se291  1  0.50000000  0.50000000  0.00000000  1
  Se  Se292  1  0.25000000  0.25000000  0.25000000  1
  Se  Se293  1  0.25000000  0.25000000  0.75000000  1
  Se  Se294  1  0.25000000  0.75000000  0.75000000  1
  Se  Se295  1  0.25000000  0.75000000  0.25000000  1
  Se  Se296  1  0.75000000  0.25000000  0.75000000  1
  Se  Se297  1  0.75000000  0.25000000  0.25000000  1
  Se  Se298  1  0.75000000  0.75000000  0.25000000  1
  Se  Se299  1  0.75000000  0.75000000  0.75000000  1
  Se  Se300  1  0.92948847  0.92948847  0.92948847  1
  Se  Se301  1  0.07051153  0.07051153  0.92948847  1
  Se  Se302  1  0.07051153  0.92948847  0.07051153  1
  Se  Se303  1  0.92948847  0.07051153  0.07051153  1
  Se  Se304  1  0.92948847  0.92948847  0.07051153  1
  Se  Se305  1  0.07051153  0.07051153  0.07051153  1
  Se  Se306  1  0.92948847  0.07051153  0.92948847  1
  Se  Se307  1  0.07051153  0.92948847  0.92948847  1
  Se  Se308  1  0.92948847  0.42948847  0.42948847  1
  Se  Se309  1  0.07051153  0.57051153  0.42948847  1
  Se  Se310  1  0.07051153  0.42948847  0.57051153  1
  Se  Se311  1  0.92948847  0.57051153  0.57051153  1
  Se  Se312  1  0.92948847  0.42948847  0.57051153  1
  Se  Se313  1  0.07051153  0.57051153  0.57051153  1
  Se  Se314  1  0.92948847  0.57051153  0.42948847  1
  Se  Se315  1  0.07051153  0.42948847  0.42948847  1
  Se  Se316  1  0.42948847  0.92948847  0.42948847  1
  Se  Se317  1  0.57051153  0.07051153  0.42948847  1
  Se  Se318  1  0.57051153  0.92948847  0.57051153  1
  Se  Se319  1  0.42948847  0.07051153  0.57051153  1
  Se  Se320  1  0.42948847  0.92948847  0.57051153  1
  Se  Se321  1  0.57051153  0.07051153  0.57051153  1
  Se  Se322  1  0.42948847  0.07051153  0.42948847  1
  Se  Se323  1  0.57051153  0.92948847  0.42948847  1
  Se  Se324  1  0.42948847  0.42948847  0.92948847  1
  Se  Se325  1  0.57051153  0.57051153  0.92948847  1
  Se  Se326  1  0.57051153  0.42948847  0.07051153  1
  Se  Se327  1  0.42948847  0.57051153  0.07051153  1
  Se  Se328  1  0.42948847  0.42948847  0.07051153  1
  Se  Se329  1  0.57051153  0.57051153  0.07051153  1
  Se  Se330  1  0.42948847  0.57051153  0.92948847  1
  Se  Se331  1  0.57051153  0.42948847  0.92948847  1
  Se  Se332  1  0.50000000  0.50000000  0.50000000  1
  Se  Se333  1  0.50000000  0.00000000  0.00000000  1
  Se  Se334  1  0.00000000  0.50000000  0.00000000  1
  Se  Se335  1  0.00000000  0.00000000  0.50000000  1
  Te  Te336  1  0.09047699  0.00000000  0.00000000  1
  Te  Te337  1  0.90952301  0.00000000  0.00000000  1
  Te  Te338  1  0.00000000  0.09047699  0.00000000  1
  Te  Te339  1  0.00000000  0.90952301  0.00000000  1
  Te  Te340  1  0.00000000  0.00000000  0.09047699  1
  Te  Te341  1  0.00000000  0.00000000  0.90952301  1
  Te  Te342  1  0.09047699  0.50000000  0.50000000  1
  Te  Te343  1  0.90952301  0.50000000  0.50000000  1
  Te  Te344  1  0.00000000  0.59047699  0.50000000  1
  Te  Te345  1  0.00000000  0.40952301  0.50000000  1
  Te  Te346  1  0.00000000  0.50000000  0.59047699  1
  Te  Te347  1  0.00000000  0.50000000  0.40952301  1
  Te  Te348  1  0.59047699  0.00000000  0.50000000  1
  Te  Te349  1  0.40952301  -0.00000000  0.50000000  1
  Te  Te350  1  0.50000000  0.09047699  0.50000000  1
  Te  Te351  1  0.50000000  0.90952301  0.50000000  1
  Te  Te352  1  0.50000000  0.00000000  0.59047699  1
  Te  Te353  1  0.50000000  0.00000000  0.40952301  1
  Te  Te354  1  0.59047699  0.50000000  -0.00000000  1
  Te  Te355  1  0.40952301  0.50000000  0.00000000  1
  Te  Te356  1  0.50000000  0.59047699  -0.00000000  1
  Te  Te357  1  0.50000000  0.40952301  0.00000000  1
  Te  Te358  1  0.50000000  0.50000000  0.09047699  1
  Te  Te359  1  0.50000000  0.50000000  0.90952301  1
