# generated using pymatgen
data_LiF
_symmetry_space_group_name_H-M   'P 1'
_cell_length_a   11.35430836
_cell_length_b   11.35430836
_cell_length_c   12.32082552
_cell_angle_alpha   90.00000000
_cell_angle_beta   90.00000000
_cell_angle_gamma   120.00000000
_symmetry_Int_Tables_number   1
_chemical_formula_structural   LiF
_chemical_formula_sum   'Li48 F48'
_cell_volume   1375.59886458
_cell_formula_units_Z   48
loop_
 _symmetry_equiv_pos_site_id
 _symmetry_equiv_pos_as_xyz
  1  'x, y, z'
loop_
 _atom_site_type_symbol
 _atom_site_label
 _atom_site_symmetry_multiplicity
 _atom_site_fract_x
 _atom_site_fract_y
 _atom_site_fract_z
 _atom_site_occupancy
  F  F0  1  0.00000000  0.00000000  0.25000000  1
  F  F1  1  0.00000000  0.00000000  0.75000000  1
  F  F2  1  0.06264973  0.25246428  0.68984706  1
  F  F3  1  -0.25246428  -0.18981455  0.68984706  1
  F  F4  1  0.18981455  -0.06264973  0.68984706  1
  F  F5  1  -0.06264973  -0.25246428  1.18984706  1
  F  F6  1  0.25246428  0.18981455  1.18984706  1
  F  F7  1  -0.18981455  0.06264973  1.18984706  1
  F  F8  1  -0.06264973  -0.25246428  -0.68984706  1
  F  F9  1  0.25246428  0.18981455  -0.68984706  1
  F  F10  1  -0.18981455  0.06264973  -0.68984706  1
  F  F11  1  0.06264973  0.25246428  -0.18984706  1
  F  F12  1  -0.25246428  -0.18981455  -0.18984706  1
  F  F13  1  0.18981455  -0.06264973  -0.18984706  1
  F  F14  1  0.33333333  0.66666667  0.25000000  1
  F  F15  1  0.66666667  0.33333333  0.75000000  1
  F  F16  1  0.03284637  0.47654552  0.86997267  1
  F  F17  1  0.52345448  0.55630086  0.86997267  1
  F  F18  1  0.44369914  0.96715363  0.86997267  1
  F  F19  1  0.96715363  0.52345448  0.36997267  1
  F  F20  1  0.47654552  0.44369914  0.36997267  1
  F  F21  1  0.55630086  0.03284637  0.36997267  1
  F  F22  1  0.96715363  0.52345448  0.13002733  1
  F  F23  1  0.47654552  0.44369914  0.13002733  1
  F  F24  1  0.55630086  0.03284637  0.13002733  1
  F  F25  1  0.03284637  0.47654552  0.63002733  1
  F  F26  1  0.52345448  0.55630086  0.63002733  1
  F  F27  1  0.44369914  0.96715363  0.63002733  1
  F  F28  1  0.52465129  0.95994316  0.25000000  1
  F  F29  1  0.04005684  0.56470813  0.25000000  1
  F  F30  1  0.43529187  0.47534871  0.25000000  1
  F  F31  1  0.47534871  0.04005684  0.75000000  1
  F  F32  1  0.95994316  0.43529187  0.75000000  1
  F  F33  1  0.56470813  0.52465129  0.75000000  1
  F  F34  1  0.64209436  0.11092942  0.41590964  1
  F  F35  1  0.88907058  0.53116494  0.41590964  1
  F  F36  1  0.46883506  0.35790564  0.41590964  1
  F  F37  1  0.35790564  0.88907058  0.91590964  1
  F  F38  1  0.11092942  0.46883506  0.91590964  1
  F  F39  1  0.53116494  0.64209436  0.91590964  1
  F  F40  1  0.35790564  0.88907058  0.58409036  1
  F  F41  1  0.11092942  0.46883506  0.58409036  1
  F  F42  1  0.53116494  0.64209436  0.58409036  1
  F  F43  1  0.64209436  0.11092942  0.08409036  1
  F  F44  1  0.88907058  0.53116494  0.08409036  1
  F  F45  1  0.46883506  0.35790564  0.08409036  1
  F  F46  1  0.66666667  0.33333333  0.25000000  1
  F  F47  1  0.33333333  0.66666667  0.75000000  1
  Li  Li48  1  0.00000000  0.00000000  0.34613254  1
  Li  Li49  1  0.00000000  0.00000000  0.84613254  1
  Li  Li50  1  0.00000000  0.00000000  0.65386746  1
  Li  Li51  1  0.00000000  0.00000000  0.15386746  1
  Li  Li52  1  0.62591119  0.61105642  0.58691823  1
  Li  Li53  1  0.38894358  0.01485477  0.58691823  1
  Li  Li54  1  0.98514523  0.37408881  0.58691823  1
  Li  Li55  1  0.37408881  0.38894358  0.08691823  1
  Li  Li56  1  0.61105642  0.98514523  0.08691823  1
  Li  Li57  1  0.01485477  0.62591119  0.08691823  1
  Li  Li58  1  0.37408881  0.38894358  0.41308177  1
  Li  Li59  1  0.61105642  0.98514523  0.41308177  1
  Li  Li60  1  0.01485477  0.62591119  0.41308177  1
  Li  Li61  1  0.62591119  0.61105642  0.91308177  1
  Li  Li62  1  0.38894358  0.01485477  0.91308177  1
  Li  Li63  1  0.98514523  0.37408881  0.91308177  1
  Li  Li64  1  0.77649448  0.01590632  0.43287395  1
  Li  Li65  1  0.98409368  0.76058816  0.43287395  1
  Li  Li66  1  0.23941184  0.22350552  0.43287395  1
  Li  Li67  1  0.22350552  0.98409368  0.93287395  1
  Li  Li68  1  0.01590632  0.23941184  0.93287395  1
  Li  Li69  1  0.76058816  0.77649448  0.93287395  1
  Li  Li70  1  0.22350552  0.98409368  0.56712605  1
  Li  Li71  1  0.01590632  0.23941184  0.56712605  1
  Li  Li72  1  0.76058816  0.77649448  0.56712605  1
  Li  Li73  1  0.77649448  0.01590632  0.06712605  1
  Li  Li74  1  0.98409368  0.76058816  0.06712605  1
  Li  Li75  1  0.23941184  0.22350552  0.06712605  1
  Li  Li76  1  0.50000000  0.00000000  0.00000000  1
  Li  Li77  1  0.00000000  0.50000000  0.00000000  1
  Li  Li78  1  0.50000000  0.50000000  0.00000000  1
  Li  Li79  1  0.50000000  0.00000000  0.50000000  1
  Li  Li80  1  0.00000000  0.50000000  0.50000000  1
  Li  Li81  1  0.50000000  0.50000000  0.50000000  1
  Li  Li82  1  0.00000000  0.00000000  0.00000000  1
  Li  Li83  1  0.00000000  0.00000000  0.50000000  1
  Li  Li84  1  0.66385588  0.54166153  0.84514632  1
  Li  Li85  1  0.45833847  0.12219435  0.84514632  1
  Li  Li86  1  0.87780565  0.33614412  0.84514632  1
  Li  Li87  1  0.33614412  0.45833847  0.34514632  1
  Li  Li88  1  0.54166153  0.87780565  0.34514632  1
  Li  Li89  1  0.12219435  0.66385588  0.34514632  1
  Li  Li90  1  0.33614412  0.45833847  0.15485368  1
  Li  Li91  1  0.54166153  0.87780565  0.15485368  1
  Li  Li92  1  0.12219435  0.66385588  0.15485368  1
  Li  Li93  1  0.66385588  0.54166153  0.65485368  1
  Li  Li94  1  0.45833847  0.12219435  0.65485368  1
  Li  Li95  1  0.87780565  0.33614412  0.65485368  1
