# generated using pymatgen
data_LiY2Cu3(As2P)2
_symmetry_space_group_name_H-M   'P 1'
_cell_length_a   4.37706902
_cell_length_b   4.57530137
_cell_length_c   6.53447143
_cell_angle_alpha   95.40405492
_cell_angle_beta   101.05918573
_cell_angle_gamma   110.54884141
_symmetry_Int_Tables_number   1
_chemical_formula_structural   LiY2Cu3(As2P)2
_chemical_formula_sum   'Li1 Y2 Cu3 As4 P2'
_cell_volume   118.38831874
_cell_formula_units_Z   1
loop_
 _symmetry_equiv_pos_site_id
 _symmetry_equiv_pos_as_xyz
  1  'x, y, z'
loop_
 _atom_site_type_symbol
 _atom_site_label
 _atom_site_symmetry_multiplicity
 _atom_site_fract_x
 _atom_site_fract_y
 _atom_site_fract_z
 _atom_site_occupancy
  Cu  Cu0  1  0.00000000  0.00000000  0.00000000  1
  Cu  Cu1  1  0.50000000  0.50000000  0.50000000  1
  Cu  Cu2  1  0.25000000  0.25000000  0.25000000  1
  Y  Y3  1  0.75000000  0.25000000  0.00000000  1
  Y  Y4  1  0.25000000  0.75000000  0.50000000  1
  P  P5  1  0.75993551  0.29152147  0.18967967  1
  P  P6  1  0.85340891  0.26210091  0.43659755  1
  As  As7  1  0.13556546  0.46227553  0.57314734  1
  As  As8  1  0.89686118  0.25822295  0.10349639  1
  As  As9  1  0.58935580  0.63808002  0.97214702  1
  As  As10  1  0.04142378  0.44551659  0.61603462  1
  Li  Li11  1  0.09554749  0.53619025  0.60306750  1
