# generated using pymatgen
data_LiF
_symmetry_space_group_name_H-M   'P 1'
_cell_length_a   10.40885593
_cell_length_b   10.59236002
_cell_length_c   5.75949750
_cell_angle_alpha   90.00000000
_cell_angle_beta   90.00000000
_cell_angle_gamma   90.00000000
_symmetry_Int_Tables_number   1
_chemical_formula_structural   LiF
_chemical_formula_sum   'Li24 F24'
_cell_volume   635.00964997
_cell_formula_units_Z   24
loop_
 _symmetry_equiv_pos_site_id
 _symmetry_equiv_pos_as_xyz
  1  'x, y, z'
loop_
 _atom_site_type_symbol
 _atom_site_label
 _atom_site_symmetry_multiplicity
 _atom_site_fract_x
 _atom_site_fract_y
 _atom_site_fract_z
 _atom_site_occupancy
  F  F0  1  0.12303158  0.45734914  0.18902796  1
  F  F1  1  0.37696842  0.54265086  0.68902796  1
  F  F2  1  0.87696842  0.95734914  0.81097204  1
  F  F3  1  0.62303158  0.04265086  0.31097204  1
  F  F4  1  0.87696842  0.54265086  0.81097204  1
  F  F5  1  0.62303158  0.45734914  0.31097204  1
  F  F6  1  0.12303158  0.04265086  0.18902796  1
  F  F7  1  0.37696842  0.95734914  0.68902796  1
  F  F8  1  0.09606048  0.53293247  0.41047771  1
  F  F9  1  0.40393952  0.46706753  0.91047771  1
  F  F10  1  0.90393952  0.03293247  0.58952229  1
  F  F11  1  0.59606048  0.96706753  0.08952229  1
  F  F12  1  0.90393952  0.46706753  0.58952229  1
  F  F13  1  0.59606048  0.53293247  0.08952229  1
  F  F14  1  0.09606048  0.96706753  0.41047771  1
  F  F15  1  0.40393952  0.03293247  0.91047771  1
  F  F16  1  0.01110030  0.32645909  0.51067363  1
  F  F17  1  0.48889970  0.67354091  0.01067363  1
  F  F18  1  0.98889970  0.82645909  0.48932637  1
  F  F19  1  0.51110030  0.17354091  0.98932637  1
  F  F20  1  0.98889970  0.67354091  0.48932637  1
  F  F21  1  0.51110030  0.32645909  0.98932637  1
  F  F22  1  0.01110030  0.17354091  0.51067363  1
  F  F23  1  0.48889970  0.82645909  0.01067363  1
  Li  Li24  1  0.22574213  0.90766942  0.32926186  1
  Li  Li25  1  0.27425787  -0.90766942  0.82926186  1
  Li  Li26  1  -0.22574213  1.40766942  -0.32926186  1
  Li  Li27  1  0.72574213  -0.40766942  0.17073814  1
  Li  Li28  1  -0.22574213  -0.90766942  -0.32926186  1
  Li  Li29  1  0.72574213  0.90766942  0.17073814  1
  Li  Li30  1  0.22574213  -0.40766942  0.32926186  1
  Li  Li31  1  0.27425787  1.40766942  0.82926186  1
  Li  Li32  1  0.00000000  0.00000000  0.00000000  1
  Li  Li33  1  0.50000000  0.00000000  0.50000000  1
  Li  Li34  1  0.00000000  0.50000000  0.00000000  1
  Li  Li35  1  0.50000000  0.50000000  0.50000000  1
  Li  Li36  1  0.84939446  0.97898231  0.38791612  1
  Li  Li37  1  0.65060554  0.02101769  0.88791612  1
  Li  Li38  1  0.15060554  0.47898231  0.61208388  1
  Li  Li39  1  0.34939446  0.52101769  0.11208388  1
  Li  Li40  1  0.15060554  0.02101769  0.61208388  1
  Li  Li41  1  0.34939446  0.97898231  0.11208388  1
  Li  Li42  1  0.84939446  0.52101769  0.38791612  1
  Li  Li43  1  0.65060554  0.47898231  0.88791612  1
  Li  Li44  1  0.00000000  0.00000000  0.50000000  1
  Li  Li45  1  0.50000000  0.00000000  0.00000000  1
  Li  Li46  1  0.00000000  0.50000000  0.50000000  1
  Li  Li47  1  0.50000000  0.50000000  0.00000000  1
