# generated using pymatgen
data_SrLiOF
_symmetry_space_group_name_H-M   'P 1'
_cell_length_a   13.65141612
_cell_length_b   13.65141612
_cell_length_c   13.65141612
_cell_angle_alpha   90.00000000
_cell_angle_beta   90.00000000
_cell_angle_gamma   90.00000000
_symmetry_Int_Tables_number   1
_chemical_formula_structural   SrLiOF
_chemical_formula_sum   'Sr32 Li32 O32 F32'
_cell_volume   2544.09377105
_cell_formula_units_Z   32
loop_
 _symmetry_equiv_pos_site_id
 _symmetry_equiv_pos_as_xyz
  1  'x, y, z'
loop_
 _atom_site_type_symbol
 _atom_site_label
 _atom_site_symmetry_multiplicity
 _atom_site_fract_x
 _atom_site_fract_y
 _atom_site_fract_z
 _atom_site_occupancy
  F  F0  1  0.06754276  0.06754276  0.06754276  1
  F  F1  1  0.43245724  0.93245724  0.56754276  1
  F  F2  1  0.93245724  0.56754276  0.43245724  1
  F  F3  1  0.56754276  0.43245724  0.93245724  1
  F  F4  1  0.81754276  0.31754276  0.18245724  1
  F  F5  1  0.68245724  0.68245724  0.68245724  1
  F  F6  1  0.31754276  0.18245724  0.81754276  1
  F  F7  1  0.18245724  0.81754276  0.31754276  1
  F  F8  1  0.56754276  0.56754276  0.56754276  1
  F  F9  1  0.93245724  0.43245724  0.06754276  1
  F  F10  1  0.43245724  0.06754276  0.93245724  1
  F  F11  1  0.06754276  0.93245724  0.43245724  1
  F  F12  1  0.31754276  0.81754276  0.68245724  1
  F  F13  1  0.18245724  0.18245724  0.18245724  1
  F  F14  1  0.81754276  0.68245724  0.31754276  1
  F  F15  1  0.68245724  0.31754276  0.81754276  1
  F  F16  1  0.00300557  0.00300557  0.00300557  1
  F  F17  1  0.49699443  0.99699443  0.50300557  1
  F  F18  1  0.99699443  0.50300557  0.49699443  1
  F  F19  1  0.50300557  0.49699443  0.99699443  1
  F  F20  1  0.75300557  0.25300557  0.24699443  1
  F  F21  1  0.74699443  0.74699443  0.74699443  1
  F  F22  1  0.25300557  0.24699443  0.75300557  1
  F  F23  1  0.24699443  0.75300557  0.25300557  1
  F  F24  1  0.50300557  0.50300557  0.50300557  1
  F  F25  1  0.99699443  0.49699443  0.00300557  1
  F  F26  1  0.49699443  0.00300557  0.99699443  1
  F  F27  1  0.00300557  0.99699443  0.49699443  1
  F  F28  1  0.25300557  0.75300557  0.74699443  1
  F  F29  1  0.24699443  0.24699443  0.24699443  1
  F  F30  1  0.75300557  0.74699443  0.25300557  1
  F  F31  1  0.74699443  0.25300557  0.75300557  1
  Li  Li32  1  0.12500000  0.30431804  0.55431804  1
  Li  Li33  1  0.37500000  -0.30431804  1.05431804  1
  Li  Li34  1  0.87500000  0.80431804  -0.05431804  1
  Li  Li35  1  0.62500000  0.19568196  0.44568196  1
  Li  Li36  1  0.55431804  0.12500000  0.30431804  1
  Li  Li37  1  1.05431804  0.37500000  -0.30431804  1
  Li  Li38  1  -0.05431804  0.87500000  0.80431804  1
  Li  Li39  1  0.44568196  0.62500000  0.19568196  1
  Li  Li40  1  0.30431804  0.55431804  0.12500000  1
  Li  Li41  1  -0.30431804  1.05431804  0.37500000  1
  Li  Li42  1  0.80431804  -0.05431804  0.87500000  1
  Li  Li43  1  0.19568196  0.44568196  0.62500000  1
  Li  Li44  1  0.62500000  0.80431804  1.05431804  1
  Li  Li45  1  0.87500000  0.19568196  1.55431804  1
  Li  Li46  1  1.37500000  1.30431804  0.44568196  1
  Li  Li47  1  1.12500000  0.69568196  0.94568196  1
  Li  Li48  1  1.05431804  0.62500000  0.80431804  1
  Li  Li49  1  1.55431804  0.87500000  0.19568196  1
  Li  Li50  1  0.44568196  1.37500000  1.30431804  1
  Li  Li51  1  0.94568196  1.12500000  0.69568196  1
  Li  Li52  1  0.80431804  1.05431804  0.62500000  1
  Li  Li53  1  0.19568196  1.55431804  0.87500000  1
  Li  Li54  1  1.30431804  0.44568196  1.37500000  1
  Li  Li55  1  0.69568196  0.94568196  1.12500000  1
  Li  Li56  1  0.87500000  0.87500000  0.87500000  1
  Li  Li57  1  0.62500000  0.12500000  0.37500000  1
  Li  Li58  1  0.12500000  0.37500000  0.62500000  1
  Li  Li59  1  0.37500000  0.62500000  0.12500000  1
  Li  Li60  1  0.37500000  0.37500000  0.37500000  1
  Li  Li61  1  0.12500000  0.62500000  0.87500000  1
  Li  Li62  1  0.62500000  0.87500000  0.12500000  1
  Li  Li63  1  0.87500000  0.12500000  0.62500000  1
  O  O64  1  0.28913432  0.28913432  0.28913432  1
  O  O65  1  0.21086568  0.71086568  0.78913432  1
  O  O66  1  0.71086568  0.78913432  0.21086568  1
  O  O67  1  0.78913432  0.21086568  0.71086568  1
  O  O68  1  0.03913432  0.53913432  0.96086568  1
  O  O69  1  0.46086568  0.46086568  0.46086568  1
  O  O70  1  0.53913432  0.96086568  0.03913432  1
  O  O71  1  0.96086568  0.03913432  0.53913432  1
  O  O72  1  0.78913432  0.78913432  0.78913432  1
  O  O73  1  0.71086568  0.21086568  0.28913432  1
  O  O74  1  0.21086568  0.28913432  0.71086568  1
  O  O75  1  0.28913432  0.71086568  0.21086568  1
  O  O76  1  0.53913432  0.03913432  0.46086568  1
  O  O77  1  0.96086568  0.96086568  0.96086568  1
  O  O78  1  0.03913432  0.46086568  0.53913432  1
  O  O79  1  0.46086568  0.53913432  0.03913432  1
  O  O80  1  0.53149737  0.53149737  0.53149737  1
  O  O81  1  0.96850263  0.46850263  0.03149737  1
  O  O82  1  0.46850263  0.03149737  0.96850263  1
  O  O83  1  0.03149737  0.96850263  0.46850263  1
  O  O84  1  0.28149737  0.78149737  0.71850263  1
  O  O85  1  0.21850263  0.21850263  0.21850263  1
  O  O86  1  0.78149737  0.71850263  0.28149737  1
  O  O87  1  0.71850263  0.28149737  0.78149737  1
  O  O88  1  0.03149737  0.03149737  0.03149737  1
  O  O89  1  0.46850263  0.96850263  0.53149737  1
  O  O90  1  0.96850263  0.53149737  0.46850263  1
  O  O91  1  0.53149737  0.46850263  0.96850263  1
  O  O92  1  0.78149737  0.28149737  0.21850263  1
  O  O93  1  0.71850263  0.71850263  0.71850263  1
  O  O94  1  0.28149737  0.21850263  0.78149737  1
  O  O95  1  0.21850263  0.78149737  0.28149737  1
  Sr  Sr96  1  0.12500000  0.12500000  0.12500000  1
  Sr  Sr97  1  0.37500000  0.87500000  0.62500000  1
  Sr  Sr98  1  0.87500000  0.62500000  0.37500000  1
  Sr  Sr99  1  0.62500000  0.37500000  0.87500000  1
  Sr  Sr100  1  0.62500000  0.62500000  0.62500000  1
  Sr  Sr101  1  0.87500000  0.37500000  0.12500000  1
  Sr  Sr102  1  0.37500000  0.12500000  0.87500000  1
  Sr  Sr103  1  0.12500000  0.87500000  0.37500000  1
  Sr  Sr104  1  0.62500000  0.00000000  0.25000000  1
  Sr  Sr105  1  0.87500000  -0.00000000  0.75000000  1
  Sr  Sr106  1  0.25000000  0.62500000  0.00000000  1
  Sr  Sr107  1  0.75000000  0.87500000  -0.00000000  1
  Sr  Sr108  1  0.00000000  0.25000000  0.62500000  1
  Sr  Sr109  1  0.00000000  0.75000000  0.87500000  1
  Sr  Sr110  1  0.12500000  0.50000000  0.75000000  1
  Sr  Sr111  1  0.37500000  0.50000000  0.25000000  1
  Sr  Sr112  1  0.75000000  0.12500000  0.50000000  1
  Sr  Sr113  1  0.25000000  0.37500000  0.50000000  1
  Sr  Sr114  1  0.50000000  0.75000000  0.12500000  1
  Sr  Sr115  1  0.50000000  0.25000000  0.37500000  1
  Sr  Sr116  1  0.12500000  0.00000000  0.25000000  1
  Sr  Sr117  1  0.37500000  -0.00000000  0.75000000  1
  Sr  Sr118  1  0.25000000  0.12500000  -0.00000000  1
  Sr  Sr119  1  0.75000000  0.37500000  -0.00000000  1
  Sr  Sr120  1  0.00000000  0.25000000  0.12500000  1
  Sr  Sr121  1  0.00000000  0.75000000  0.37500000  1
  Sr  Sr122  1  0.62500000  0.50000000  0.75000000  1
  Sr  Sr123  1  0.87500000  0.50000000  0.25000000  1
  Sr  Sr124  1  0.75000000  0.62500000  0.50000000  1
  Sr  Sr125  1  0.25000000  0.87500000  0.50000000  1
  Sr  Sr126  1  0.50000000  0.75000000  0.62500000  1
  Sr  Sr127  1  0.50000000  0.25000000  0.87500000  1
