# generated using pymatgen
data_Li4TeF2
_symmetry_space_group_name_H-M   'P 1'
_cell_length_a   18.70857869
_cell_length_b   18.70857869
_cell_length_c   5.59397103
_cell_angle_alpha   90.00000000
_cell_angle_beta   90.00000000
_cell_angle_gamma   120.00000000
_symmetry_Int_Tables_number   1
_chemical_formula_structural   Li4TeF2
_chemical_formula_sum   'Li96 Te24 F48'
_cell_volume   1695.63524306
_cell_formula_units_Z   24
loop_
 _symmetry_equiv_pos_site_id
 _symmetry_equiv_pos_as_xyz
  1  'x, y, z'
loop_
 _atom_site_type_symbol
 _atom_site_label
 _atom_site_symmetry_multiplicity
 _atom_site_fract_x
 _atom_site_fract_y
 _atom_site_fract_z
 _atom_site_occupancy
  F  F0  1  0.12509463  0.25018926  0.11475693  1
  F  F1  1  0.74981074  0.87490537  0.11475693  1
  F  F2  1  0.12509463  0.87490537  0.11475693  1
  F  F3  1  0.87490537  0.74981074  0.61475693  1
  F  F4  1  0.25018926  0.12509463  0.61475693  1
  F  F5  1  0.87490537  0.12509463  0.61475693  1
  F  F6  1  0.25018926  0.12509463  0.88524307  1
  F  F7  1  0.87490537  0.74981074  0.88524307  1
  F  F8  1  0.87490537  0.12509463  0.88524307  1
  F  F9  1  0.74981074  0.87490537  0.38524307  1
  F  F10  1  0.12509463  0.25018926  0.38524307  1
  F  F11  1  0.12509463  0.87490537  0.38524307  1
  F  F12  1  0.00000000  0.00000000  0.00000000  1
  F  F13  1  0.00000000  0.00000000  0.50000000  1
  F  F14  1  0.43006812  0.86013623  0.55307164  1
  F  F15  1  0.13986377  0.56993188  0.55307164  1
  F  F16  1  0.43006812  0.56993188  0.55307164  1
  F  F17  1  0.56993188  0.13986377  0.05307164  1
  F  F18  1  0.86013623  0.43006812  0.05307164  1
  F  F19  1  0.56993188  0.43006812  0.05307164  1
  F  F20  1  0.86013623  0.43006812  0.44692836  1
  F  F21  1  0.56993188  0.13986377  0.44692836  1
  F  F22  1  0.56993188  0.43006812  0.44692836  1
  F  F23  1  0.13986377  0.56993188  0.94692836  1
  F  F24  1  0.43006812  0.86013623  0.94692836  1
  F  F25  1  0.43006812  0.56993188  0.94692836  1
  F  F26  1  0.93875007  0.87750013  0.62908851  1
  F  F27  1  0.12249987  0.06124993  0.62908851  1
  F  F28  1  0.93875007  0.06124993  0.62908851  1
  F  F29  1  0.06124993  0.12249987  0.12908851  1
  F  F30  1  0.87750013  0.93875007  0.12908851  1
  F  F31  1  0.06124993  0.93875007  0.12908851  1
  F  F32  1  0.87750013  0.93875007  0.37091149  1
  F  F33  1  0.06124993  0.12249987  0.37091149  1
  F  F34  1  0.06124993  0.93875007  0.37091149  1
  F  F35  1  0.12249987  0.06124993  0.87091149  1
  F  F36  1  0.93875007  0.87750013  0.87091149  1
  F  F37  1  0.93875007  0.06124993  0.87091149  1
  F  F38  1  0.50000000  0.00000000  0.00000000  1
  F  F39  1  0.00000000  0.50000000  -0.00000000  1
  F  F40  1  0.50000000  0.50000000  0.00000000  1
  F  F41  1  0.50000000  0.00000000  0.50000000  1
  F  F42  1  0.00000000  0.50000000  0.50000000  1
  F  F43  1  0.50000000  0.50000000  0.50000000  1
  F  F44  1  0.33333333  0.66666667  0.25000000  1
  F  F45  1  0.66666667  0.33333333  0.75000000  1
  F  F46  1  0.33333333  0.66666667  0.75000000  1
  F  F47  1  0.66666667  0.33333333  0.25000000  1
  Li  Li48  1  0.70319236  0.76051012  0.25000000  1
  Li  Li49  1  0.23948988  0.94268224  0.25000000  1
  Li  Li50  1  0.05731776  0.29680764  0.25000000  1
  Li  Li51  1  0.29680764  0.23948988  0.75000000  1
  Li  Li52  1  0.76051012  0.05731776  0.75000000  1
  Li  Li53  1  0.94268224  0.70319236  0.75000000  1
  Li  Li54  1  0.76051012  0.70319236  0.75000000  1
  Li  Li55  1  0.94268224  0.23948988  0.75000000  1
  Li  Li56  1  0.29680764  0.05731776  0.75000000  1
  Li  Li57  1  0.23948988  0.29680764  0.25000000  1
  Li  Li58  1  0.05731776  0.76051012  0.25000000  1
  Li  Li59  1  0.70319236  0.94268224  0.25000000  1
  Li  Li60  1  0.83103829  0.82911018  0.25000000  1
  Li  Li61  1  0.17088982  0.00192811  0.25000000  1
  Li  Li62  1  0.99807189  0.16896171  0.25000000  1
  Li  Li63  1  0.16896171  0.17088982  0.75000000  1
  Li  Li64  1  0.82911018  0.99807189  0.75000000  1
  Li  Li65  1  0.00192811  0.83103829  0.75000000  1
  Li  Li66  1  0.82911018  0.83103829  0.75000000  1
  Li  Li67  1  0.00192811  0.17088982  0.75000000  1
  Li  Li68  1  0.16896171  0.99807189  0.75000000  1
  Li  Li69  1  0.17088982  0.16896171  0.25000000  1
  Li  Li70  1  0.99807189  0.82911018  0.25000000  1
  Li  Li71  1  0.83103829  0.00192811  0.25000000  1
  Li  Li72  1  0.29654184  0.77742975  0.52282733  1
  Li  Li73  1  -0.77742975  -0.48088791  0.52282733  1
  Li  Li74  1  0.48088791  -0.29654184  0.52282733  1
  Li  Li75  1  -0.29654184  -0.77742975  1.02282733  1
  Li  Li76  1  0.77742975  0.48088791  1.02282733  1
  Li  Li77  1  -0.48088791  0.29654184  1.02282733  1
  Li  Li78  1  0.77742975  0.29654184  -0.52282733  1
  Li  Li79  1  -0.48088791  -0.77742975  -0.52282733  1
  Li  Li80  1  -0.29654184  0.48088791  -0.52282733  1
  Li  Li81  1  -0.77742975  -0.29654184  -0.02282733  1
  Li  Li82  1  0.48088791  0.77742975  -0.02282733  1
  Li  Li83  1  0.29654184  -0.48088791  -0.02282733  1
  Li  Li84  1  -0.29654184  -0.77742975  -0.52282733  1
  Li  Li85  1  0.77742975  0.48088791  -0.52282733  1
  Li  Li86  1  -0.48088791  0.29654184  -0.52282733  1
  Li  Li87  1  0.29654184  0.77742975  -0.02282733  1
  Li  Li88  1  -0.77742975  -0.48088791  -0.02282733  1
  Li  Li89  1  0.48088791  -0.29654184  -0.02282733  1
  Li  Li90  1  -0.77742975  -0.29654184  0.52282733  1
  Li  Li91  1  0.48088791  0.77742975  0.52282733  1
  Li  Li92  1  0.29654184  -0.48088791  0.52282733  1
  Li  Li93  1  0.77742975  0.29654184  1.02282733  1
  Li  Li94  1  -0.48088791  -0.77742975  1.02282733  1
  Li  Li95  1  -0.29654184  0.48088791  1.02282733  1
  Li  Li96  1  0.54968606  0.89467129  0.63271390  1
  Li  Li97  1  0.10532871  0.65501477  0.63271390  1
  Li  Li98  1  0.34498523  0.45031394  0.63271390  1
  Li  Li99  1  0.45031394  0.10532871  0.13271390  1
  Li  Li100  1  0.89467129  0.34498523  0.13271390  1
  Li  Li101  1  0.65501477  0.54968606  0.13271390  1
  Li  Li102  1  0.89467129  0.54968606  0.36728610  1
  Li  Li103  1  0.65501477  0.10532871  0.36728610  1
  Li  Li104  1  0.45031394  0.34498523  0.36728610  1
  Li  Li105  1  0.10532871  0.45031394  0.86728610  1
  Li  Li106  1  0.34498523  0.89467129  0.86728610  1
  Li  Li107  1  0.54968606  0.65501477  0.86728610  1
  Li  Li108  1  0.45031394  0.10532871  0.36728610  1
  Li  Li109  1  0.89467129  0.34498523  0.36728610  1
  Li  Li110  1  0.65501477  0.54968606  0.36728610  1
  Li  Li111  1  0.54968606  0.89467129  0.86728610  1
  Li  Li112  1  0.10532871  0.65501477  0.86728610  1
  Li  Li113  1  0.34498523  0.45031394  0.86728610  1
  Li  Li114  1  0.10532871  0.45031394  0.63271390  1
  Li  Li115  1  0.34498523  0.89467129  0.63271390  1
  Li  Li116  1  0.54968606  0.65501477  0.63271390  1
  Li  Li117  1  0.89467129  0.54968606  0.13271390  1
  Li  Li118  1  0.65501477  0.10532871  0.13271390  1
  Li  Li119  1  0.45031394  0.34498523  0.13271390  1
  Li  Li120  1  0.93600412  0.70901169  0.07947627  1
  Li  Li121  1  0.29098831  0.22699243  0.07947627  1
  Li  Li122  1  0.77300757  0.06399588  0.07947627  1
  Li  Li123  1  0.06399588  0.29098831  0.57947627  1
  Li  Li124  1  0.70901169  0.77300757  0.57947627  1
  Li  Li125  1  0.22699243  0.93600412  0.57947627  1
  Li  Li126  1  0.70901169  0.93600412  0.92052373  1
  Li  Li127  1  0.22699243  0.29098831  0.92052373  1
  Li  Li128  1  0.06399588  0.77300757  0.92052373  1
  Li  Li129  1  0.29098831  0.06399588  0.42052373  1
  Li  Li130  1  0.77300757  0.70901169  0.42052373  1
  Li  Li131  1  0.93600412  0.22699243  0.42052373  1
  Li  Li132  1  0.06399588  0.29098831  0.92052373  1
  Li  Li133  1  0.70901169  0.77300757  0.92052373  1
  Li  Li134  1  0.22699243  0.93600412  0.92052373  1
  Li  Li135  1  0.93600412  0.70901169  0.42052373  1
  Li  Li136  1  0.29098831  0.22699243  0.42052373  1
  Li  Li137  1  0.77300757  0.06399588  0.42052373  1
  Li  Li138  1  0.29098831  0.06399588  0.07947627  1
  Li  Li139  1  0.77300757  0.70901169  0.07947627  1
  Li  Li140  1  0.93600412  0.22699243  0.07947627  1
  Li  Li141  1  0.70901169  0.93600412  0.57947627  1
  Li  Li142  1  0.22699243  0.29098831  0.57947627  1
  Li  Li143  1  0.06399588  0.77300757  0.57947627  1
  Te  Te144  1  0.21502360  0.52348890  0.25000000  1
  Te  Te145  1  0.47651110  0.69153470  0.25000000  1
  Te  Te146  1  0.30846530  0.78497640  0.25000000  1
  Te  Te147  1  0.78497640  0.47651110  0.75000000  1
  Te  Te148  1  0.52348890  0.30846530  0.75000000  1
  Te  Te149  1  0.69153470  0.21502360  0.75000000  1
  Te  Te150  1  0.52348890  0.21502360  0.75000000  1
  Te  Te151  1  0.69153470  0.47651110  0.75000000  1
  Te  Te152  1  0.78497640  0.30846530  0.75000000  1
  Te  Te153  1  0.47651110  0.78497640  0.25000000  1
  Te  Te154  1  0.30846530  0.52348890  0.25000000  1
  Te  Te155  1  0.21502360  0.69153470  0.25000000  1
  Te  Te156  1  0.46772629  0.93545257  0.25000000  1
  Te  Te157  1  0.06454743  0.53227371  0.25000000  1
  Te  Te158  1  0.46772629  0.53227371  0.25000000  1
  Te  Te159  1  0.53227371  0.06454743  0.75000000  1
  Te  Te160  1  0.93545257  0.46772629  0.75000000  1
  Te  Te161  1  0.53227371  0.46772629  0.75000000  1
  Te  Te162  1  0.74607386  0.49214772  0.25000000  1
  Te  Te163  1  0.50785228  0.25392614  0.25000000  1
  Te  Te164  1  0.74607386  0.25392614  0.25000000  1
  Te  Te165  1  0.25392614  0.50785228  0.75000000  1
  Te  Te166  1  0.49214772  0.74607386  0.75000000  1
  Te  Te167  1  0.25392614  0.74607386  0.75000000  1
