# generated using pymatgen
data_Li2MoP2Se
_symmetry_space_group_name_H-M   'P 1'
_cell_length_a   4.39625253
_cell_length_b   4.65493769
_cell_length_c   6.63475019
_cell_angle_alpha   95.59057101
_cell_angle_beta   101.06894827
_cell_angle_gamma   109.98227508
_symmetry_Int_Tables_number   1
_chemical_formula_structural   Li2MoP2Se
_chemical_formula_sum   'Li2 Mo1 P2 Se1'
_cell_volume   123.25588683
_cell_formula_units_Z   1
loop_
 _symmetry_equiv_pos_site_id
 _symmetry_equiv_pos_as_xyz
  1  'x, y, z'
loop_
 _atom_site_type_symbol
 _atom_site_label
 _atom_site_symmetry_multiplicity
 _atom_site_fract_x
 _atom_site_fract_y
 _atom_site_fract_z
 _atom_site_occupancy
  Se  Se0  1  0.00000000  0.00000000  0.00000000  1
  P  P1  1  0.50000000  0.50000000  0.50000000  1
  P  P2  1  0.50000000  0.50000000  0.00000000  1
  Mo  Mo3  1  0.50000000  0.00000000  0.50000000  1
  Li  Li4  1  0.00000000  0.50000000  0.50000000  1
  Li  Li5  1  0.81797073  0.14529879  0.98449017  1
