# generated using pymatgen
data_Li2Si4Te3F12
_symmetry_space_group_name_H-M   'P 1'
_cell_length_a   10.82348174
_cell_length_b   18.14214664
_cell_length_c   6.88254765
_cell_angle_alpha   90.00000000
_cell_angle_beta   90.00000000
_cell_angle_gamma   90.00000000
_symmetry_Int_Tables_number   1
_chemical_formula_structural   Li2Si4Te3F12
_chemical_formula_sum   'Li8 Si16 Te12 F48'
_cell_volume   1351.46526739
_cell_formula_units_Z   4
loop_
 _symmetry_equiv_pos_site_id
 _symmetry_equiv_pos_as_xyz
  1  'x, y, z'
loop_
 _atom_site_type_symbol
 _atom_site_label
 _atom_site_symmetry_multiplicity
 _atom_site_fract_x
 _atom_site_fract_y
 _atom_site_fract_z
 _atom_site_occupancy
  F  F0  1  0.32159156  0.43424099  -0.00000000  1
  F  F1  1  0.67840844  0.56575901  0.00000000  1
  F  F2  1  0.17840844  0.93424099  0.50000000  1
  F  F3  1  0.82159156  0.06575901  0.50000000  1
  F  F4  1  0.27658305  0.75403000  0.00000000  1
  F  F5  1  0.72341695  0.24597000  0.00000000  1
  F  F6  1  0.22341695  0.25403000  0.50000000  1
  F  F7  1  0.77658305  0.74597000  0.50000000  1
  F  F8  1  0.71375512  0.02358805  0.74741867  1
  F  F9  1  0.28624488  0.97641195  0.74741867  1
  F  F10  1  0.78624488  0.52358805  0.75258133  1
  F  F11  1  0.21375512  0.47641195  0.75258133  1
  F  F12  1  0.28624488  0.97641195  0.25258133  1
  F  F13  1  0.71375512  0.02358805  0.25258133  1
  F  F14  1  0.21375512  0.47641195  0.24741867  1
  F  F15  1  0.78624488  0.52358805  0.24741867  1
  F  F16  1  0.69341339  0.08437054  0.75965059  1
  F  F17  1  0.30658661  0.91562946  0.75965059  1
  F  F18  1  0.80658661  0.58437054  0.74034941  1
  F  F19  1  0.19341339  0.41562946  0.74034941  1
  F  F20  1  0.30658661  0.91562946  0.24034941  1
  F  F21  1  0.69341339  0.08437054  0.24034941  1
  F  F22  1  0.19341339  0.41562946  0.25965059  1
  F  F23  1  0.80658661  0.58437054  0.25965059  1
  F  F24  1  0.84520159  0.73855260  0.39190851  1
  F  F25  1  0.15479841  0.26144740  0.39190851  1
  F  F26  1  0.65479841  0.23855260  0.10809149  1
  F  F27  1  0.34520159  0.76144740  0.10809149  1
  F  F28  1  0.15479841  0.26144740  0.60809149  1
  F  F29  1  0.84520159  0.73855260  0.60809149  1
  F  F30  1  0.34520159  0.76144740  0.89190851  1
  F  F31  1  0.65479841  0.23855260  0.89190851  1
  F  F32  1  0.34399812  0.71408621  0.16547401  1
  F  F33  1  0.65600188  0.28591379  0.16547401  1
  F  F34  1  0.15600188  0.21408621  0.33452599  1
  F  F35  1  0.84399812  0.78591379  0.33452599  1
  F  F36  1  0.65600188  0.28591379  0.83452599  1
  F  F37  1  0.34399812  0.71408621  0.83452599  1
  F  F38  1  0.84399812  0.78591379  0.66547401  1
  F  F39  1  0.15600188  0.21408621  0.66547401  1
  F  F40  1  0.00000000  0.00000000  0.39919998  1
  F  F41  1  0.50000000  0.50000000  0.10080002  1
  F  F42  1  0.00000000  0.00000000  0.60080002  1
  F  F43  1  0.50000000  0.50000000  0.89919998  1
  F  F44  1  0.08074893  0.51980247  0.00000000  1
  F  F45  1  0.91925107  0.48019753  0.00000000  1
  F  F46  1  0.41925107  0.01980247  0.50000000  1
  F  F47  1  0.58074893  0.98019753  0.50000000  1
  Li  Li48  1  0.78385601  0.68558649  0.00000000  1
  Li  Li49  1  0.21614399  0.31441351  0.00000000  1
  Li  Li50  1  0.71614399  0.18558649  0.50000000  1
  Li  Li51  1  0.28385601  0.81441351  0.50000000  1
  Li  Li52  1  0.00000000  0.50000000  0.17170583  1
  Li  Li53  1  0.50000000  -0.00000000  0.32829417  1
  Li  Li54  1  0.00000000  0.50000000  0.82829417  1
  Li  Li55  1  0.50000000  -0.00000000  0.67170583  1
  Si  Si56  1  0.00000000  0.50000000  0.50000000  1
  Si  Si57  1  0.50000000  -0.00000000  0.00000000  1
  Si  Si58  1  0.99587072  0.17931787  0.00000000  1
  Si  Si59  1  0.00412928  0.82068213  0.00000000  1
  Si  Si60  1  0.50412928  0.67931787  0.50000000  1
  Si  Si61  1  0.49587072  0.32068213  0.50000000  1
  Si  Si62  1  0.03506147  0.71158368  0.13469576  1
  Si  Si63  1  -0.03506147  -0.71158368  0.13469576  1
  Si  Si64  1  0.46493853  1.21158368  0.36530424  1
  Si  Si65  1  0.53506147  -0.21158368  0.36530424  1
  Si  Si66  1  -0.03506147  -0.71158368  -0.13469576  1
  Si  Si67  1  0.03506147  0.71158368  -0.13469576  1
  Si  Si68  1  0.53506147  -0.21158368  0.63469576  1
  Si  Si69  1  0.46493853  1.21158368  0.63469576  1
  Si  Si70  1  0.00000000  0.00000000  0.00000000  1
  Si  Si71  1  0.50000000  0.50000000  0.50000000  1
  Te  Te72  1  0.29823849  0.86751250  0.00000000  1
  Te  Te73  1  0.70176151  0.13248750  -0.00000000  1
  Te  Te74  1  0.20176151  0.36751250  0.50000000  1
  Te  Te75  1  0.79823849  0.63248750  0.50000000  1
  Te  Te76  1  0.55190639  0.34972980  0.68719507  1
  Te  Te77  1  0.44809361  0.65027020  0.68719507  1
  Te  Te78  1  0.94809361  0.84972980  0.81280493  1
  Te  Te79  1  0.05190639  0.15027020  0.81280493  1
  Te  Te80  1  0.44809361  0.65027020  0.31280493  1
  Te  Te81  1  0.55190639  0.34972980  0.31280493  1
  Te  Te82  1  0.05190639  0.15027020  0.18719507  1
  Te  Te83  1  0.94809361  0.84972980  0.18719507  1
