# generated using pymatgen
data_Li2TiO
_symmetry_space_group_name_H-M   'P 1'
_cell_length_a   3.48706457
_cell_length_b   3.45824789
_cell_length_c   6.23579256
_cell_angle_alpha   96.51235458
_cell_angle_beta   102.18549370
_cell_angle_gamma   101.12814475
_symmetry_Int_Tables_number   1
_chemical_formula_structural   Li2TiO
_chemical_formula_sum   'Li2 Ti1 O1'
_cell_volume   71.18424932
_cell_formula_units_Z   1
loop_
 _symmetry_equiv_pos_site_id
 _symmetry_equiv_pos_as_xyz
  1  'x, y, z'
loop_
 _atom_site_type_symbol
 _atom_site_label
 _atom_site_symmetry_multiplicity
 _atom_site_fract_x
 _atom_site_fract_y
 _atom_site_fract_z
 _atom_site_occupancy
  Li  Li0  1  0.00000000  0.00000000  0.00000000  1
  Li  Li1  1  0.50000000  0.50000000  0.50000000  1
  O  O2  1  0.50000000  0.50000000  0.00000000  1
  Ti  Ti3  1  0.50000000  0.00000000  0.50000000  1
