# generated using pymatgen
data_LiF
_symmetry_space_group_name_H-M   'P 1'
_cell_length_a   8.22337226
_cell_length_b   6.02300300
_cell_length_c   4.51490629
_cell_angle_alpha   90.00000000
_cell_angle_beta   90.00000000
_cell_angle_gamma   90.00000000
_symmetry_Int_Tables_number   1
_chemical_formula_structural   LiF
_chemical_formula_sum   'Li6 F6'
_cell_volume   223.62058060
_cell_formula_units_Z   6
loop_
 _symmetry_equiv_pos_site_id
 _symmetry_equiv_pos_as_xyz
  1  'x, y, z'
loop_
 _atom_site_type_symbol
 _atom_site_label
 _atom_site_symmetry_multiplicity
 _atom_site_fract_x
 _atom_site_fract_y
 _atom_site_fract_z
 _atom_site_occupancy
  F  F0  1  0.09922693  0.66929026  0.00000000  1
  F  F1  1  -0.09922693  -0.66929026  -0.00000000  1
  F  F2  1  0.40077307  1.16929026  0.50000000  1
  F  F3  1  0.59922693  -0.16929026  0.50000000  1
  F  F4  1  0.00000000  0.50000000  0.00000000  1
  F  F5  1  0.50000000  -0.00000000  0.50000000  1
  Li  Li6  1  0.00000000  0.00000000  0.50000000  1
  Li  Li7  1  0.50000000  0.50000000  0.00000000  1
  Li  Li8  1  0.01881981  0.78171118  0.00000000  1
  Li  Li9  1  0.98118019  0.21828882  0.00000000  1
  Li  Li10  1  0.48118019  0.28171118  0.50000000  1
  Li  Li11  1  0.51881981  0.71828882  0.50000000  1
