# generated using pymatgen
data_Li3Y2(PSe)2
_symmetry_space_group_name_H-M   'P 1'
_cell_length_a   5.18414094
_cell_length_b   5.21063195
_cell_length_c   6.94514461
_cell_angle_alpha   94.36732118
_cell_angle_beta   99.51111758
_cell_angle_gamma   107.54179341
_symmetry_Int_Tables_number   1
_chemical_formula_structural   Li3Y2(PSe)2
_chemical_formula_sum   'Li3 Y2 P2 Se2'
_cell_volume   174.83393594
_cell_formula_units_Z   1
loop_
 _symmetry_equiv_pos_site_id
 _symmetry_equiv_pos_as_xyz
  1  'x, y, z'
loop_
 _atom_site_type_symbol
 _atom_site_label
 _atom_site_symmetry_multiplicity
 _atom_site_fract_x
 _atom_site_fract_y
 _atom_site_fract_z
 _atom_site_occupancy
  Se  Se0  1  0.12500000  0.12500000  0.12500000  1
  Se  Se1  1  0.50000000  0.50000000  0.50000000  1
  P  P2  1  0.25000000  0.25000000  0.25000000  1
  P  P3  1  0.75000000  0.75000000  0.75000000  1
  Li  Li4  1  0.63894828  0.23870293  0.29827665  1
  Li  Li5  1  0.47454836  0.62687414  0.06723465  1
  Li  Li6  1  0.25159104  0.66682259  0.50929992  1
  Y  Y7  1  0.90311003  0.92689863  0.85069517  1
  Y  Y8  1  0.80792724  0.07690646  0.70008073  1
