# generated using pymatgen
data_LiCaF3
_symmetry_space_group_name_H-M   'P 1'
_cell_length_a   10.32806931
_cell_length_b   9.28359001
_cell_length_c   15.62588205
_cell_angle_alpha   90.00000000
_cell_angle_beta   90.00000000
_cell_angle_gamma   90.00000000
_symmetry_Int_Tables_number   1
_chemical_formula_structural   LiCaF3
_chemical_formula_sum   'Li18 Ca18 F54'
_cell_volume   1498.23396333
_cell_formula_units_Z   18
loop_
 _symmetry_equiv_pos_site_id
 _symmetry_equiv_pos_as_xyz
  1  'x, y, z'
loop_
 _atom_site_type_symbol
 _atom_site_label
 _atom_site_symmetry_multiplicity
 _atom_site_fract_x
 _atom_site_fract_y
 _atom_site_fract_z
 _atom_site_occupancy
  Ca  Ca0  1  0.40462361  0.15835252  -0.00000000  1
  Ca  Ca1  1  0.59537639  0.84164748  -0.00000000  1
  Ca  Ca2  1  0.09537639  0.65835252  0.00000000  1
  Ca  Ca3  1  0.90462361  0.34164748  -0.00000000  1
  Ca  Ca4  1  0.37532539  0.41493784  0.43579343  1
  Ca  Ca5  1  -0.37532539  -0.41493784  0.43579343  1
  Ca  Ca6  1  0.12467461  0.91493784  -0.43579343  1
  Ca  Ca7  1  0.87532539  0.08506216  -0.43579343  1
  Ca  Ca8  1  -0.37532539  -0.41493784  -0.43579343  1
  Ca  Ca9  1  0.37532539  0.41493784  -0.43579343  1
  Ca  Ca10  1  0.87532539  0.08506216  0.43579343  1
  Ca  Ca11  1  0.12467461  0.91493784  0.43579343  1
  Ca  Ca12  1  0.00000000  0.50000000  0.63007417  1
  Ca  Ca13  1  0.50000000  0.00000000  0.36992583  1
  Ca  Ca14  1  0.00000000  0.50000000  0.36992583  1
  Ca  Ca15  1  0.50000000  0.00000000  0.63007417  1
  Ca  Ca16  1  0.00000000  0.00000000  0.50000000  1
  Ca  Ca17  1  0.50000000  0.50000000  0.50000000  1
  F  F18  1  0.53030653  0.84753394  0.24151432  1
  F  F19  1  0.46969347  0.15246606  0.24151432  1
  F  F20  1  0.96969347  0.34753394  0.75848568  1
  F  F21  1  0.03030653  0.65246606  0.75848568  1
  F  F22  1  0.46969347  0.15246606  0.75848568  1
  F  F23  1  0.53030653  0.84753394  0.75848568  1
  F  F24  1  0.03030653  0.65246606  0.24151432  1
  F  F25  1  0.96969347  0.34753394  0.24151432  1
  F  F26  1  0.00758328  0.87677607  0.42004577  1
  F  F27  1  0.99241672  0.12322393  0.42004577  1
  F  F28  1  0.49241672  0.37677607  0.57995423  1
  F  F29  1  0.50758328  0.62322393  0.57995423  1
  F  F30  1  0.99241672  0.12322393  0.57995423  1
  F  F31  1  0.00758328  0.87677607  0.57995423  1
  F  F32  1  0.50758328  0.62322393  0.42004577  1
  F  F33  1  0.49241672  0.37677607  0.42004577  1
  F  F34  1  0.60852910  0.15780584  0.42126424  1
  F  F35  1  0.39147090  0.84219416  0.42126424  1
  F  F36  1  0.89147090  0.65780584  0.57873576  1
  F  F37  1  0.10852910  0.34219416  0.57873576  1
  F  F38  1  0.39147090  0.84219416  0.57873576  1
  F  F39  1  0.60852910  0.15780584  0.57873576  1
  F  F40  1  0.10852910  0.34219416  0.42126424  1
  F  F41  1  0.89147090  0.65780584  0.42126424  1
  F  F42  1  0.32837666  0.98521146  0.54312370  1
  F  F43  1  0.67162334  0.01478854  0.54312370  1
  F  F44  1  0.17162334  0.48521146  0.45687630  1
  F  F45  1  0.82837666  0.51478854  0.45687630  1
  F  F46  1  0.67162334  0.01478854  0.45687630  1
  F  F47  1  0.32837666  0.98521146  0.45687630  1
  F  F48  1  0.82837666  0.51478854  0.54312370  1
  F  F49  1  0.17162334  0.48521146  0.54312370  1
  F  F50  1  0.00000000  0.00000000  0.00000000  1
  F  F51  1  0.50000000  0.50000000  0.00000000  1
  F  F52  1  0.81506511  0.04682805  0.74297399  1
  F  F53  1  0.18493489  0.95317195  0.74297399  1
  F  F54  1  0.68493489  0.54682805  0.25702601  1
  F  F55  1  0.31506511  0.45317195  0.25702601  1
  F  F56  1  0.18493489  0.95317195  0.25702601  1
  F  F57  1  0.81506511  0.04682805  0.25702601  1
  F  F58  1  0.31506511  0.45317195  0.74297399  1
  F  F59  1  0.68493489  0.54682805  0.74297399  1
  F  F60  1  0.19693510  0.39940297  0.14091428  1
  F  F61  1  0.80306490  0.60059703  0.14091428  1
  F  F62  1  0.30306490  0.89940297  0.85908572  1
  F  F63  1  0.69693510  0.10059703  0.85908572  1
  F  F64  1  0.80306490  0.60059703  0.85908572  1
  F  F65  1  0.19693510  0.39940297  0.85908572  1
  F  F66  1  0.69693510  0.10059703  0.14091428  1
  F  F67  1  0.30306490  0.89940297  0.14091428  1
  F  F68  1  0.00000000  0.00000000  0.83381976  1
  F  F69  1  0.50000000  0.50000000  0.16618024  1
  F  F70  1  0.00000000  0.00000000  0.16618024  1
  F  F71  1  0.50000000  0.50000000  0.83381976  1
  Li  Li72  1  0.73063054  0.88228345  0.50000000  1
  Li  Li73  1  0.26936946  0.11771655  0.50000000  1
  Li  Li74  1  0.76936946  0.38228345  0.50000000  1
  Li  Li75  1  0.23063054  0.61771655  0.50000000  1
  Li  Li76  1  0.00000000  0.00000000  0.24646697  1
  Li  Li77  1  0.50000000  0.50000000  0.75353303  1
  Li  Li78  1  0.00000000  0.00000000  0.75353303  1
  Li  Li79  1  0.50000000  0.50000000  0.24646697  1
  Li  Li80  1  0.88017875  0.61961088  0.93399562  1
  Li  Li81  1  0.11982125  0.38038912  0.93399562  1
  Li  Li82  1  0.61982125  0.11961088  0.06600438  1
  Li  Li83  1  0.38017875  0.88038912  0.06600438  1
  Li  Li84  1  0.11982125  0.38038912  0.06600438  1
  Li  Li85  1  0.88017875  0.61961088  0.06600438  1
  Li  Li86  1  0.38017875  0.88038912  0.93399562  1
  Li  Li87  1  0.61982125  0.11961088  0.93399562  1
  Li  Li88  1  0.00000000  0.50000000  0.00000000  1
  Li  Li89  1  0.50000000  0.00000000  -0.00000000  1
