# generated using pymatgen
data_LiF
_symmetry_space_group_name_H-M   'P 1'
_cell_length_a   8.66362124
_cell_length_b   8.66362124
_cell_length_c   17.16709537
_cell_angle_alpha   90.00000000
_cell_angle_beta   90.00000000
_cell_angle_gamma   90.00000000
_symmetry_Int_Tables_number   1
_chemical_formula_structural   LiF
_chemical_formula_sum   'Li64 F64'
_cell_volume   1288.53356119
_cell_formula_units_Z   64
loop_
 _symmetry_equiv_pos_site_id
 _symmetry_equiv_pos_as_xyz
  1  'x, y, z'
loop_
 _atom_site_type_symbol
 _atom_site_label
 _atom_site_symmetry_multiplicity
 _atom_site_fract_x
 _atom_site_fract_y
 _atom_site_fract_z
 _atom_site_occupancy
  F  F0  1  0.50182192  0.87670700  0.71732637  1
  F  F1  1  0.99817808  0.12329300  0.21732637  1
  F  F2  1  0.37329300  0.25182192  0.96732637  1
  F  F3  1  0.12670700  0.74817808  0.46732637  1
  F  F4  1  0.99817808  0.87670700  0.28267363  1
  F  F5  1  0.50182192  0.12329300  0.78267363  1
  F  F6  1  0.12670700  0.25182192  0.03267363  1
  F  F7  1  0.37329300  0.74817808  0.53267363  1
  F  F8  1  0.49817808  0.12329300  0.28267363  1
  F  F9  1  0.00182192  0.87670700  0.78267363  1
  F  F10  1  0.62670700  0.74817808  0.03267363  1
  F  F11  1  0.87329300  0.25182192  0.53267363  1
  F  F12  1  0.00182192  0.12329300  0.71732637  1
  F  F13  1  0.49817808  0.87670700  0.21732637  1
  F  F14  1  0.87329300  0.74817808  0.96732637  1
  F  F15  1  0.62670700  0.25182192  0.46732637  1
  F  F16  1  0.00182192  0.37670700  0.21732637  1
  F  F17  1  0.49817808  0.62329300  0.71732637  1
  F  F18  1  0.87329300  0.75182192  0.46732637  1
  F  F19  1  0.62670700  0.24817808  0.96732637  1
  F  F20  1  0.49817808  0.37670700  0.78267363  1
  F  F21  1  0.00182192  0.62329300  0.28267363  1
  F  F22  1  0.62670700  0.75182192  0.53267363  1
  F  F23  1  0.87329300  0.24817808  0.03267363  1
  F  F24  1  0.99817808  0.62329300  0.78267363  1
  F  F25  1  0.50182192  0.37670700  0.28267363  1
  F  F26  1  0.12670700  0.24817808  0.53267363  1
  F  F27  1  0.37329300  0.75182192  0.03267363  1
  F  F28  1  0.50182192  0.62329300  0.21732637  1
  F  F29  1  0.99817808  0.37670700  0.71732637  1
  F  F30  1  0.37329300  0.24817808  0.46732637  1
  F  F31  1  0.12670700  0.75182192  0.96732637  1
  F  F32  1  0.35362501  0.19638217  0.73419959  1
  F  F33  1  0.14637499  0.80361783  0.23419959  1
  F  F34  1  0.05361783  0.10362501  0.98419959  1
  F  F35  1  0.44638217  0.89637499  0.48419959  1
  F  F36  1  0.14637499  0.19638217  0.26580041  1
  F  F37  1  0.35362501  0.80361783  0.76580041  1
  F  F38  1  0.44638217  0.10362501  0.01580041  1
  F  F39  1  0.05361783  0.89637499  0.51580041  1
  F  F40  1  0.64637499  0.80361783  0.26580041  1
  F  F41  1  0.85362501  0.19638217  0.76580041  1
  F  F42  1  0.94638217  0.89637499  0.01580041  1
  F  F43  1  0.55361783  0.10362501  0.51580041  1
  F  F44  1  0.85362501  0.80361783  0.73419959  1
  F  F45  1  0.64637499  0.19638217  0.23419959  1
  F  F46  1  0.55361783  0.89637499  0.98419959  1
  F  F47  1  0.94638217  0.10362501  0.48419959  1
  F  F48  1  0.85362501  0.69638217  0.23419959  1
  F  F49  1  0.64637499  0.30361783  0.73419959  1
  F  F50  1  0.55361783  0.60362501  0.48419959  1
  F  F51  1  0.94638217  0.39637499  0.98419959  1
  F  F52  1  0.64637499  0.69638217  0.76580041  1
  F  F53  1  0.85362501  0.30361783  0.26580041  1
  F  F54  1  0.94638217  0.60362501  0.51580041  1
  F  F55  1  0.55361783  0.39637499  0.01580041  1
  F  F56  1  0.14637499  0.30361783  0.76580041  1
  F  F57  1  0.35362501  0.69638217  0.26580041  1
  F  F58  1  0.44638217  0.39637499  0.51580041  1
  F  F59  1  0.05361783  0.60362501  0.01580041  1
  F  F60  1  0.35362501  0.30361783  0.23419959  1
  F  F61  1  0.14637499  0.69638217  0.73419959  1
  F  F62  1  0.05361783  0.39637499  0.48419959  1
  F  F63  1  0.44638217  0.60362501  0.98419959  1
  Li  Li64  1  0.12347156  0.37347156  0.12500000  1
  Li  Li65  1  0.37652844  0.62652844  0.62500000  1
  Li  Li66  1  0.87652844  0.87347156  0.37500000  1
  Li  Li67  1  0.62347156  0.12652844  0.87500000  1
  Li  Li68  1  0.87652844  0.62652844  0.87500000  1
  Li  Li69  1  0.62347156  0.37347156  0.37500000  1
  Li  Li70  1  0.12347156  0.12652844  0.62500000  1
  Li  Li71  1  0.37652844  0.87347156  0.12500000  1
  Li  Li72  1  0.62347156  0.87347156  0.62500000  1
  Li  Li73  1  0.87652844  0.12652844  0.12500000  1
  Li  Li74  1  0.37652844  0.37347156  0.87500000  1
  Li  Li75  1  0.12347156  0.62652844  0.37500000  1
  Li  Li76  1  0.37652844  0.12652844  0.37500000  1
  Li  Li77  1  0.12347156  0.87347156  0.87500000  1
  Li  Li78  1  0.62347156  0.62652844  0.12500000  1
  Li  Li79  1  0.87652844  0.37347156  0.62500000  1
  Li  Li80  1  0.35460573  0.28504784  0.54646669  1
  Li  Li81  1  0.14539427  -0.28504784  1.04646669  1
  Li  Li82  1  -0.03504784  1.10460573  0.79646669  1
  Li  Li83  1  0.53504784  -0.10460573  1.29646669  1
  Li  Li84  1  0.14539427  0.28504784  -0.54646669  1
  Li  Li85  1  0.35460573  -0.28504784  -0.04646669  1
  Li  Li86  1  0.53504784  1.10460573  0.20353331  1
  Li  Li87  1  -0.03504784  -0.10460573  -0.29646669  1
  Li  Li88  1  -0.35460573  -0.28504784  -0.54646669  1
  Li  Li89  1  0.85460573  0.28504784  -0.04646669  1
  Li  Li90  1  1.03504784  -0.10460573  0.20353331  1
  Li  Li91  1  0.46495216  1.10460573  -0.29646669  1
  Li  Li92  1  0.85460573  -0.28504784  0.54646669  1
  Li  Li93  1  -0.35460573  0.28504784  1.04646669  1
  Li  Li94  1  0.46495216  -0.10460573  0.79646669  1
  Li  Li95  1  1.03504784  1.10460573  1.29646669  1
  Li  Li96  1  0.85460573  0.78504784  1.04646669  1
  Li  Li97  1  0.64539427  0.21495216  1.54646669  1
  Li  Li98  1  0.46495216  1.60460573  1.29646669  1
  Li  Li99  1  1.03504784  0.39539427  1.79646669  1
  Li  Li100  1  0.64539427  0.78504784  -0.04646669  1
  Li  Li101  1  0.85460573  0.21495216  0.45353331  1
  Li  Li102  1  1.03504784  1.60460573  0.70353331  1
  Li  Li103  1  0.46495216  0.39539427  0.20353331  1
  Li  Li104  1  0.14539427  0.21495216  -0.04646669  1
  Li  Li105  1  1.35460573  0.78504784  0.45353331  1
  Li  Li106  1  1.53504784  0.39539427  0.70353331  1
  Li  Li107  1  0.96495216  1.60460573  0.20353331  1
  Li  Li108  1  1.35460573  0.21495216  1.04646669  1
  Li  Li109  1  0.14539427  0.78504784  1.54646669  1
  Li  Li110  1  0.96495216  0.39539427  1.29646669  1
  Li  Li111  1  1.53504784  1.60460573  1.79646669  1
  Li  Li112  1  0.60096813  -0.00000000  0.25000000  1
  Li  Li113  1  0.89903187  0.00000000  0.75000000  1
  Li  Li114  1  0.25000000  0.35096813  0.50000000  1
  Li  Li115  1  0.25000000  0.64903187  0.00000000  1
  Li  Li116  1  0.39903187  0.00000000  0.75000000  1
  Li  Li117  1  0.10096813  -0.00000000  0.25000000  1
  Li  Li118  1  0.75000000  0.64903187  0.50000000  1
  Li  Li119  1  0.75000000  0.35096813  -0.00000000  1
  Li  Li120  1  0.10096813  0.50000000  0.75000000  1
  Li  Li121  1  0.39903187  0.50000000  0.25000000  1
  Li  Li122  1  0.75000000  0.85096813  -0.00000000  1
  Li  Li123  1  0.75000000  0.14903187  0.50000000  1
  Li  Li124  1  0.89903187  0.50000000  0.25000000  1
  Li  Li125  1  0.60096813  0.50000000  0.75000000  1
  Li  Li126  1  0.25000000  0.14903187  -0.00000000  1
  Li  Li127  1  0.25000000  0.85096813  0.50000000  1
