# generated using pymatgen
data_LiYSe2(NF)2
_symmetry_space_group_name_H-M   'P 1'
_cell_length_a   5.33512059
_cell_length_b   4.97386435
_cell_length_c   7.52467081
_cell_angle_alpha   94.77062211
_cell_angle_beta   100.38942316
_cell_angle_gamma   109.16169296
_symmetry_Int_Tables_number   1
_chemical_formula_structural   LiYSe2(NF)2
_chemical_formula_sum   'Li2 Y2 Se4 N4 F4'
_cell_volume   183.33005448
_cell_formula_units_Z   2
loop_
 _symmetry_equiv_pos_site_id
 _symmetry_equiv_pos_as_xyz
  1  'x, y, z'
loop_
 _atom_site_type_symbol
 _atom_site_label
 _atom_site_symmetry_multiplicity
 _atom_site_fract_x
 _atom_site_fract_y
 _atom_site_fract_z
 _atom_site_occupancy
  Se  Se0  1  0.00000000  0.00000000  0.00000000  1
  Se  Se1  1  0.50000000  0.50000000  0.50000000  1
  Se  Se2  1  0.25000000  0.25000000  0.25000000  1
  Se  Se3  1  0.75000000  0.25000000  0.00000000  1
  F  F4  1  0.25000000  0.75000000  0.50000000  1
  F  F5  1  0.45688673  0.76330519  0.15577897  1
  F  F6  1  0.38262372  0.36682276  0.38469896  1
  F  F7  1  0.45233095  0.10980439  0.17986334  1
  N  N8  1  0.78201196  0.43777201  0.41216003  1
  N  N9  1  0.03943094  0.63301858  0.37961410  1
  N  N10  1  0.46956941  0.96224570  0.72953416  1
  N  N11  1  0.98330714  0.25845434  0.39105049  1
  Y  Y12  1  0.71164016  0.22091954  0.05427902  1
  Y  Y13  1  0.20375352  0.46180243  0.86560848  1
  Li  Li14  1  0.83010707  0.58638426  0.75265233  1
  Li  Li15  1  0.68869997  0.28852420  0.51522085  1
