# generated using pymatgen
data_LiF
_symmetry_space_group_name_H-M   'P 1'
_cell_length_a   5.45042992
_cell_length_b   9.10678738
_cell_length_c   7.56421538
_cell_angle_alpha   90.00000000
_cell_angle_beta   90.00000000
_cell_angle_gamma   90.00000000
_symmetry_Int_Tables_number   1
_chemical_formula_structural   LiF
_chemical_formula_sum   'Li16 F16'
_cell_volume   375.45668635
_cell_formula_units_Z   16
loop_
 _symmetry_equiv_pos_site_id
 _symmetry_equiv_pos_as_xyz
  1  'x, y, z'
loop_
 _atom_site_type_symbol
 _atom_site_label
 _atom_site_symmetry_multiplicity
 _atom_site_fract_x
 _atom_site_fract_y
 _atom_site_fract_z
 _atom_site_occupancy
  F  F0  1  0.94203080  0.25000000  0.57209631  1
  F  F1  1  0.55796920  0.75000000  0.07209631  1
  F  F2  1  0.05796920  0.75000000  0.42790369  1
  F  F3  1  0.44203080  0.25000000  0.92790369  1
  F  F4  1  0.00000000  0.00000000  0.50000000  1
  F  F5  1  0.50000000  0.00000000  0.00000000  1
  F  F6  1  0.00000000  0.50000000  0.50000000  1
  F  F7  1  0.50000000  0.50000000  0.00000000  1
  F  F8  1  0.11140056  0.38042115  0.58625013  1
  F  F9  1  0.38859944  0.61957885  0.08625013  1
  F  F10  1  0.88859944  0.88042115  0.41374987  1
  F  F11  1  0.61140056  0.11957885  0.91374987  1
  F  F12  1  0.88859944  0.61957885  0.41374987  1
  F  F13  1  0.61140056  0.38042115  0.91374987  1
  F  F14  1  0.11140056  0.11957885  0.58625013  1
  F  F15  1  0.38859944  0.88042115  0.08625013  1
  Li  Li16  1  0.96870367  0.06030001  0.25573268  1
  Li  Li17  1  -0.46870367  -0.06030001  0.75573268  1
  Li  Li18  1  -0.96870367  0.56030001  -0.25573268  1
  Li  Li19  1  1.46870367  0.43969999  0.24426732  1
  Li  Li20  1  -0.96870367  -0.06030001  -0.25573268  1
  Li  Li21  1  1.46870367  0.06030001  0.24426732  1
  Li  Li22  1  0.96870367  0.43969999  0.25573268  1
  Li  Li23  1  -0.46870367  0.56030001  0.75573268  1
  Li  Li24  1  0.98831536  0.57051035  0.10407901  1
  Li  Li25  1  0.51168464  0.42948965  0.60407901  1
  Li  Li26  1  0.01168464  0.07051035  0.89592099  1
  Li  Li27  1  0.48831536  0.92948965  0.39592099  1
  Li  Li28  1  0.01168464  0.42948965  0.89592099  1
  Li  Li29  1  0.48831536  0.57051035  0.39592099  1
  Li  Li30  1  0.98831536  0.92948965  0.10407901  1
  Li  Li31  1  0.51168464  0.07051035  0.60407901  1
