# generated using pymatgen
data_Li2Y2As4P2Se
_symmetry_space_group_name_H-M   'P 1'
_cell_length_a   5.38062794
_cell_length_b   5.54126562
_cell_length_c   7.00557016
_cell_angle_alpha   93.90689322
_cell_angle_beta   97.90368191
_cell_angle_gamma   104.74407740
_symmetry_Int_Tables_number   1
_chemical_formula_structural   Li2Y2As4P2Se
_chemical_formula_sum   'Li2 Y2 As4 P2 Se1'
_cell_volume   198.91486665
_cell_formula_units_Z   1
loop_
 _symmetry_equiv_pos_site_id
 _symmetry_equiv_pos_as_xyz
  1  'x, y, z'
loop_
 _atom_site_type_symbol
 _atom_site_label
 _atom_site_symmetry_multiplicity
 _atom_site_fract_x
 _atom_site_fract_y
 _atom_site_fract_z
 _atom_site_occupancy
  Se  Se0  1  0.00000000  0.00000000  0.00000000  1
  P  P1  1  0.50000000  0.50000000  0.50000000  1
  P  P2  1  0.50000000  0.50000000  0.00000000  1
  As  As3  1  0.50000000  0.00000000  0.50000000  1
  As  As4  1  0.00000000  0.50000000  0.50000000  1
  As  As5  1  0.79268132  0.93182827  0.90751025  1
  As  As6  1  0.93039641  0.76016460  0.75126152  1
  Li  Li7  1  0.32507514  0.66181281  0.42039405  1
  Li  Li8  1  0.42264953  0.42629541  0.51410391  1
  Y  Y9  1  0.01403976  0.56222309  0.82968428  1
  Y  Y10  1  0.91002623  0.01833360  0.40539964  1
