# generated using pymatgen
data_Li2MoP3Se
_symmetry_space_group_name_H-M   'P 1'
_cell_length_a   4.69030044
_cell_length_b   5.07996819
_cell_length_c   6.33765462
_cell_angle_alpha   92.68377360
_cell_angle_beta   97.30066564
_cell_angle_gamma   102.53764602
_symmetry_Int_Tables_number   1
_chemical_formula_structural   Li2MoP3Se
_chemical_formula_sum   'Li2 Mo1 P3 Se1'
_cell_volume   145.77630085
_cell_formula_units_Z   1
loop_
 _symmetry_equiv_pos_site_id
 _symmetry_equiv_pos_as_xyz
  1  'x, y, z'
loop_
 _atom_site_type_symbol
 _atom_site_label
 _atom_site_symmetry_multiplicity
 _atom_site_fract_x
 _atom_site_fract_y
 _atom_site_fract_z
 _atom_site_occupancy
  Se  Se0  1  0.00000000  0.00000000  0.00000000  1
  P  P1  1  0.50000000  0.50000000  0.50000000  1
  P  P2  1  0.25000000  0.25000000  0.25000000  1
  P  P3  1  0.75000000  0.25000000  0.00000000  1
  Mo  Mo4  1  0.25000000  0.75000000  0.50000000  1
  Li  Li5  1  0.56281754  0.87693049  0.95719198  1
  Li  Li6  1  0.19286692  0.96215558  0.24859121  1
