# generated using pymatgen
data_Li2P(OF3)2
_symmetry_space_group_name_H-M   'P 1'
_cell_length_a   7.87130937
_cell_length_b   6.91192683
_cell_length_c   8.73512644
_cell_angle_alpha   90.00000000
_cell_angle_beta   90.00000000
_cell_angle_gamma   90.00000000
_symmetry_Int_Tables_number   1
_chemical_formula_structural   Li2P(OF3)2
_chemical_formula_sum   'Li2 P1 O2 F6'
_cell_volume   475.24254130
_cell_formula_units_Z   1
loop_
 _symmetry_equiv_pos_site_id
 _symmetry_equiv_pos_as_xyz
  1  'x, y, z'
loop_
 _atom_site_type_symbol
 _atom_site_label
 _atom_site_symmetry_multiplicity
 _atom_site_fract_x
 _atom_site_fract_y
 _atom_site_fract_z
 _atom_site_occupancy
  F  F0  1  0.00000000  0.00000000  0.00000000  1
  F  F1  1  0.33300000  0.66700000  0.25000000  1
  F  F2  1  0.66700000  0.33300000  0.50000000  1
  F  F3  1  0.00000000  0.00000000  0.75000000  1
  F  F4  1  0.26110219  0.28984949  0.07573095  1
  F  F5  1  0.44068675  0.73955080  0.15372449  1
  P  P6  1  0.39792043  0.89537418  0.03878116  1
  O  O7  1  0.36165020  0.69541220  0.95849626  1
  O  O8  1  0.72646923  0.39831262  0.30518870  1
  Li  Li9  1  0.15458744  0.00310085  0.00136304  1
  Li  Li10  1  0.27812730  0.05094077  0.68347035  1
