# generated using pymatgen
data_LiYSbAs2P
_symmetry_space_group_name_H-M   'P 1'
_cell_length_a   4.93963603
_cell_length_b   5.04025198
_cell_length_c   6.89243290
_cell_angle_alpha   94.75978259
_cell_angle_beta   100.10683147
_cell_angle_gamma   108.71199717
_symmetry_Int_Tables_number   1
_chemical_formula_structural   LiYSbAs2P
_chemical_formula_sum   'Li2 Y2 Sb2 As4 P2'
_cell_volume   158.21359380
_cell_formula_units_Z   2
loop_
 _symmetry_equiv_pos_site_id
 _symmetry_equiv_pos_as_xyz
  1  'x, y, z'
loop_
 _atom_site_type_symbol
 _atom_site_label
 _atom_site_symmetry_multiplicity
 _atom_site_fract_x
 _atom_site_fract_y
 _atom_site_fract_z
 _atom_site_occupancy
  P  P0  1  0.12500000  0.00000000  0.25000000  1
  P  P1  1  0.00000000  0.00000000  0.00000000  1
  As  As2  1  0.37500000  0.00000000  0.25000000  1
  As  As3  1  0.25000000  0.25000000  0.25000000  1
  As  As4  1  0.00000000  0.25000000  0.12500000  1
  As  As5  1  0.84290416  0.11504899  0.33735191  1
  Li  Li6  1  0.74945590  0.42796354  0.62840916  1
  Li  Li7  1  0.85147532  0.73163991  0.09815869  1
  Y  Y8  1  0.16245015  0.03210293  0.63780170  1
  Y  Y9  1  0.30161963  0.35116407  0.05973386  1
  Sb  Sb10  1  0.00459383  0.75675892  0.50116282  1
  Sb  Sb11  1  0.72430855  0.58353360  0.87519536  1
