# generated using pymatgen
data_Li4TeF2
_symmetry_space_group_name_H-M   'P 1'
_cell_length_a   11.35349658
_cell_length_b   11.35349658
_cell_length_c   21.46977467
_cell_angle_alpha   90.00000000
_cell_angle_beta   90.00000000
_cell_angle_gamma   120.00000000
_symmetry_Int_Tables_number   1
_chemical_formula_structural   Li4TeF2
_chemical_formula_sum   'Li96 Te24 F48'
_cell_volume   2396.72046979
_cell_formula_units_Z   24
loop_
 _symmetry_equiv_pos_site_id
 _symmetry_equiv_pos_as_xyz
  1  'x, y, z'
loop_
 _atom_site_type_symbol
 _atom_site_label
 _atom_site_symmetry_multiplicity
 _atom_site_fract_x
 _atom_site_fract_y
 _atom_site_fract_z
 _atom_site_occupancy
  F  F0  1  0.71159698  0.71452242  0.13139973  1
  F  F1  1  -0.71452242  -0.00292544  0.13139973  1
  F  F2  1  0.00292544  -0.71159698  0.13139973  1
  F  F3  1  0.71452242  0.71159698  0.36860027  1
  F  F4  1  -0.00292544  -0.71452242  0.36860027  1
  F  F5  1  -0.71159698  0.00292544  0.36860027  1
  F  F6  1  -0.71159698  -0.71452242  -0.13139973  1
  F  F7  1  0.71452242  0.00292544  -0.13139973  1
  F  F8  1  -0.00292544  0.71159698  -0.13139973  1
  F  F9  1  -0.71452242  -0.71159698  0.63139973  1
  F  F10  1  0.00292544  0.71452242  0.63139973  1
  F  F11  1  0.71159698  -0.00292544  0.63139973  1
  F  F12  1  1.37826365  1.04785576  0.46473306  1
  F  F13  1  -0.04785576  0.33040789  0.46473306  1
  F  F14  1  0.66959211  -0.37826365  0.46473306  1
  F  F15  1  1.38118909  1.04493031  0.70193360  1
  F  F16  1  0.66374122  -0.38118909  0.70193360  1
  F  F17  1  -0.04493031  0.33625878  0.70193360  1
  F  F18  1  -0.04493031  -0.38118909  0.20193360  1
  F  F19  1  1.38118909  0.33625878  0.20193360  1
  F  F20  1  0.66374122  1.04493031  0.20193360  1
  F  F21  1  -0.04785576  -0.37826365  0.96473306  1
  F  F22  1  0.66959211  1.04785576  0.96473306  1
  F  F23  1  1.37826365  0.33040789  0.96473306  1
  F  F24  1  1.04493031  1.38118909  0.79806640  1
  F  F25  1  -0.38118909  0.66374122  0.79806640  1
  F  F26  1  0.33625878  -0.04493031  0.79806640  1
  F  F27  1  1.04785576  1.37826365  1.03526694  1
  F  F28  1  0.33040789  -0.04785576  1.03526694  1
  F  F29  1  -0.37826365  0.66959211  1.03526694  1
  F  F30  1  -0.37826365  -0.04785576  0.53526694  1
  F  F31  1  1.04785576  0.66959211  0.53526694  1
  F  F32  1  0.33040789  1.37826365  0.53526694  1
  F  F33  1  -0.38118909  -0.04493031  1.29806640  1
  F  F34  1  0.33625878  1.38118909  1.29806640  1
  F  F35  1  1.04493031  0.66374122  1.29806640  1
  F  F36  1  0.00000000  0.00000000  0.69460934  1
  F  F37  1  0.00000000  0.00000000  0.80539066  1
  F  F38  1  0.00000000  0.00000000  0.30539066  1
  F  F39  1  0.00000000  0.00000000  0.19460934  1
  F  F40  1  0.66666667  0.33333333  0.02794267  1
  F  F41  1  0.66666667  0.33333333  0.13872400  1
  F  F42  1  0.66666667  0.33333333  0.63872400  1
  F  F43  1  0.66666667  0.33333333  0.52794267  1
  F  F44  1  0.33333333  0.66666667  0.36127600  1
  F  F45  1  0.33333333  0.66666667  0.47205733  1
  F  F46  1  0.33333333  0.66666667  0.97205733  1
  F  F47  1  0.33333333  0.66666667  0.86127600  1
  Li  Li48  1  0.00000000  0.00000000  0.00000000  1
  Li  Li49  1  0.00000000  0.00000000  0.50000000  1
  Li  Li50  1  0.66666667  0.33333333  0.33333333  1
  Li  Li51  1  0.66666667  0.33333333  0.83333333  1
  Li  Li52  1  0.33333333  0.66666667  0.66666667  1
  Li  Li53  1  0.33333333  0.66666667  0.16666667  1
  Li  Li54  1  0.56738795  0.61193321  0.83319472  1
  Li  Li55  1  0.38806679  0.95545474  0.83319472  1
  Li  Li56  1  0.04454526  0.43261205  0.83319472  1
  Li  Li57  1  0.61193321  0.56738795  0.66680528  1
  Li  Li58  1  0.95545474  0.38806679  0.66680528  1
  Li  Li59  1  0.43261205  0.04454526  0.66680528  1
  Li  Li60  1  0.43261205  0.38806679  0.16680528  1
  Li  Li61  1  0.61193321  0.04454526  0.16680528  1
  Li  Li62  1  0.95545474  0.56738795  0.16680528  1
  Li  Li63  1  0.38806679  0.43261205  0.33319472  1
  Li  Li64  1  0.04454526  0.61193321  0.33319472  1
  Li  Li65  1  0.56738795  0.95545474  0.33319472  1
  Li  Li66  1  0.23405462  0.94526655  0.16652806  1
  Li  Li67  1  0.05473345  0.28878807  0.16652806  1
  Li  Li68  1  0.71121193  0.76594538  0.16652806  1
  Li  Li69  1  0.27859988  0.90072129  0.00013861  1
  Li  Li70  1  0.62212141  0.72140012  0.00013861  1
  Li  Li71  1  0.09927871  0.37787859  0.00013861  1
  Li  Li72  1  0.09927871  0.72140012  0.50013861  1
  Li  Li73  1  0.27859988  0.37787859  0.50013861  1
  Li  Li74  1  0.62212141  0.90072129  0.50013861  1
  Li  Li75  1  0.05473345  0.76594538  0.66652806  1
  Li  Li76  1  0.71121193  0.94526655  0.66652806  1
  Li  Li77  1  0.23405462  0.28878807  0.66652806  1
  Li  Li78  1  0.90072129  0.27859988  0.49986139  1
  Li  Li79  1  0.72140012  0.62212141  0.49986139  1
  Li  Li80  1  0.37787859  0.09927871  0.49986139  1
  Li  Li81  1  0.94526655  0.23405462  0.33347194  1
  Li  Li82  1  0.28878807  0.05473345  0.33347194  1
  Li  Li83  1  0.76594538  0.71121193  0.33347194  1
  Li  Li84  1  0.76594538  0.05473345  0.83347194  1
  Li  Li85  1  0.94526655  0.71121193  0.83347194  1
  Li  Li86  1  0.28878807  0.23405462  0.83347194  1
  Li  Li87  1  0.72140012  0.09927871  0.99986139  1
  Li  Li88  1  0.37787859  0.27859988  0.99986139  1
  Li  Li89  1  0.90072129  0.62212141  0.99986139  1
  Li  Li90  1  0.43790719  -0.00000000  0.25000000  1
  Li  Li91  1  0.00000000  0.43790719  0.25000000  1
  Li  Li92  1  0.56209281  0.56209281  0.25000000  1
  Li  Li93  1  0.56209281  0.00000000  0.75000000  1
  Li  Li94  1  0.00000000  0.56209281  0.75000000  1
  Li  Li95  1  0.43790719  0.43790719  0.75000000  1
  Li  Li96  1  0.10457386  0.33333333  0.58333333  1
  Li  Li97  1  0.66666667  0.77124052  0.58333333  1
  Li  Li98  1  0.22875948  0.89542614  0.58333333  1
  Li  Li99  1  0.22875948  0.33333333  0.08333333  1
  Li  Li100  1  0.66666667  0.89542614  0.08333333  1
  Li  Li101  1  0.10457386  0.77124052  0.08333333  1
  Li  Li102  1  0.77124052  0.66666667  0.91666667  1
  Li  Li103  1  0.33333333  0.10457386  0.91666667  1
  Li  Li104  1  0.89542614  0.22875948  0.91666667  1
  Li  Li105  1  0.89542614  0.66666667  0.41666667  1
  Li  Li106  1  0.33333333  0.22875948  0.41666667  1
  Li  Li107  1  0.77124052  0.10457386  0.41666667  1
  Li  Li108  1  0.16391668  0.62091032  0.02198001  1
  Li  Li109  1  0.37908968  0.54300636  0.02198001  1
  Li  Li110  1  0.45699364  0.83608332  0.02198001  1
  Li  Li111  1  0.62091032  0.16391668  0.47801999  1
  Li  Li112  1  0.54300636  0.37908968  0.47801999  1
  Li  Li113  1  0.83608332  0.45699364  0.47801999  1
  Li  Li114  1  0.83608332  0.37908968  0.97801999  1
  Li  Li115  1  0.62091032  0.45699364  0.97801999  1
  Li  Li116  1  0.54300636  0.16391668  0.97801999  1
  Li  Li117  1  0.37908968  0.83608332  0.52198001  1
  Li  Li118  1  0.45699364  0.62091032  0.52198001  1
  Li  Li119  1  0.16391668  0.54300636  0.52198001  1
  Li  Li120  1  0.83058335  0.95424366  0.35531335  1
  Li  Li121  1  0.04575634  0.87633970  0.35531335  1
  Li  Li122  1  0.12366030  0.16941665  0.35531335  1
  Li  Li123  1  0.28757699  0.49725002  0.81135332  1
  Li  Li124  1  0.20967303  0.71242301  0.81135332  1
  Li  Li125  1  0.50274998  0.79032697  0.81135332  1
  Li  Li126  1  0.50274998  0.71242301  0.31135332  1
  Li  Li127  1  0.28757699  0.79032697  0.31135332  1
  Li  Li128  1  0.20967303  0.49725002  0.31135332  1
  Li  Li129  1  0.04575634  0.16941665  0.85531335  1
  Li  Li130  1  0.12366030  0.95424366  0.85531335  1
  Li  Li131  1  0.83058335  0.87633970  0.85531335  1
  Li  Li132  1  0.49725002  0.28757699  0.68864668  1
  Li  Li133  1  0.71242301  0.20967303  0.68864668  1
  Li  Li134  1  0.79032697  0.50274998  0.68864668  1
  Li  Li135  1  0.95424366  0.83058335  0.14468665  1
  Li  Li136  1  0.87633970  0.04575634  0.14468665  1
  Li  Li137  1  0.16941665  0.12366030  0.14468665  1
  Li  Li138  1  0.16941665  0.04575634  0.64468665  1
  Li  Li139  1  0.95424366  0.12366030  0.64468665  1
  Li  Li140  1  0.87633970  0.83058335  0.64468665  1
  Li  Li141  1  0.71242301  0.50274998  0.18864668  1
  Li  Li142  1  0.79032697  0.28757699  0.18864668  1
  Li  Li143  1  0.49725002  0.20967303  0.18864668  1
  Te  Te144  1  0.50000000  0.00000000  0.00000000  1
  Te  Te145  1  0.00000000  0.50000000  0.00000000  1
  Te  Te146  1  0.50000000  0.50000000  0.00000000  1
  Te  Te147  1  0.00000000  0.50000000  0.50000000  1
  Te  Te148  1  0.50000000  0.00000000  0.50000000  1
  Te  Te149  1  0.50000000  0.50000000  0.50000000  1
  Te  Te150  1  0.16666667  0.33333333  0.33333333  1
  Te  Te151  1  0.66666667  0.83333333  0.33333333  1
  Te  Te152  1  0.16666667  0.83333333  0.33333333  1
  Te  Te153  1  0.66666667  0.83333333  0.83333333  1
  Te  Te154  1  0.16666667  0.33333333  0.83333333  1
  Te  Te155  1  0.16666667  0.83333333  0.83333333  1
  Te  Te156  1  0.83333333  0.66666667  0.66666667  1
  Te  Te157  1  0.33333333  0.16666667  0.66666667  1
  Te  Te158  1  0.83333333  0.16666667  0.66666667  1
  Te  Te159  1  0.33333333  0.16666667  0.16666667  1
  Te  Te160  1  0.83333333  0.66666667  0.16666667  1
  Te  Te161  1  0.83333333  0.16666667  0.16666667  1
  Te  Te162  1  0.00000000  0.00000000  0.25000000  1
  Te  Te163  1  0.00000000  0.00000000  0.75000000  1
  Te  Te164  1  0.66666667  0.33333333  0.58333333  1
  Te  Te165  1  0.66666667  0.33333333  0.08333333  1
  Te  Te166  1  0.33333333  0.66666667  0.91666667  1
  Te  Te167  1  0.33333333  0.66666667  0.41666667  1
