# generated using pymatgen
data_LiP2Se
_symmetry_space_group_name_H-M   'P 1'
_cell_length_a   4.54979485
_cell_length_b   4.75546960
_cell_length_c   6.52902358
_cell_angle_alpha   95.19065318
_cell_angle_beta   99.96774892
_cell_angle_gamma   108.75293907
_symmetry_Int_Tables_number   1
_chemical_formula_structural   LiP2Se
_chemical_formula_sum   'Li1 P2 Se1'
_cell_volume   130.11924413
_cell_formula_units_Z   1
loop_
 _symmetry_equiv_pos_site_id
 _symmetry_equiv_pos_as_xyz
  1  'x, y, z'
loop_
 _atom_site_type_symbol
 _atom_site_label
 _atom_site_symmetry_multiplicity
 _atom_site_fract_x
 _atom_site_fract_y
 _atom_site_fract_z
 _atom_site_occupancy
  Se  Se0  1  0.00000000  0.00000000  0.00000000  1
  P  P1  1  0.50000000  0.50000000  0.50000000  1
  P  P2  1  0.25000000  0.25000000  0.25000000  1
  Li  Li3  1  0.75000000  0.25000000  0.00000000  1
