# generated using pymatgen
data_LiF
_symmetry_space_group_name_H-M   'P 1'
_cell_length_a   4.29561968
_cell_length_b   9.23863081
_cell_length_c   14.28542777
_cell_angle_alpha   90.00000000
_cell_angle_beta   90.00000000
_cell_angle_gamma   90.00000000
_symmetry_Int_Tables_number   1
_chemical_formula_structural   LiF
_chemical_formula_sum   'Li24 F24'
_cell_volume   566.92640501
_cell_formula_units_Z   24
loop_
 _symmetry_equiv_pos_site_id
 _symmetry_equiv_pos_as_xyz
  1  'x, y, z'
loop_
 _atom_site_type_symbol
 _atom_site_label
 _atom_site_symmetry_multiplicity
 _atom_site_fract_x
 _atom_site_fract_y
 _atom_site_fract_z
 _atom_site_occupancy
  F  F0  1  0.74109397  0.25000000  0.25261215  1
  F  F1  1  0.75890603  0.75000000  0.75261215  1
  F  F2  1  0.25890603  0.75000000  0.74738785  1
  F  F3  1  0.24109397  0.25000000  0.24738785  1
  F  F4  1  0.00000000  0.00000000  0.50000000  1
  F  F5  1  0.50000000  0.00000000  0.00000000  1
  F  F6  1  0.00000000  0.50000000  0.50000000  1
  F  F7  1  0.50000000  0.50000000  0.00000000  1
  F  F8  1  0.84345268  0.96990529  0.37481390  1
  F  F9  1  0.65654732  0.03009471  0.87481390  1
  F  F10  1  0.15654732  0.46990529  0.62518610  1
  F  F11  1  0.34345268  0.53009471  0.12518610  1
  F  F12  1  0.15654732  0.03009471  0.62518610  1
  F  F13  1  0.34345268  0.96990529  0.12518610  1
  F  F14  1  0.84345268  0.53009471  0.37481390  1
  F  F15  1  0.65654732  0.46990529  0.87481390  1
  F  F16  1  0.50685578  0.29049475  0.09574861  1
  F  F17  1  0.99314422  0.70950525  0.59574861  1
  F  F18  1  0.49314422  0.79049475  0.90425139  1
  F  F19  1  0.00685578  0.20950525  0.40425139  1
  F  F20  1  0.49314422  0.70950525  0.90425139  1
  F  F21  1  0.00685578  0.29049475  0.40425139  1
  F  F22  1  0.50685578  0.20950525  0.09574861  1
  F  F23  1  0.99314422  0.79049475  0.59574861  1
  Li  Li24  1  0.24899635  0.25000000  0.55525616  1
  Li  Li25  1  0.25100365  0.75000000  0.05525616  1
  Li  Li26  1  0.75100365  0.75000000  0.44474384  1
  Li  Li27  1  0.74899635  0.25000000  0.94474384  1
  Li  Li28  1  0.81003900  0.83762360  0.78858303  1
  Li  Li29  1  -0.31003900  -0.83762360  1.28858303  1
  Li  Li30  1  -0.81003900  1.33762360  -0.78858303  1
  Li  Li31  1  1.31003900  -0.33762360  -0.28858303  1
  Li  Li32  1  -0.81003900  -0.83762360  -0.78858303  1
  Li  Li33  1  1.31003900  0.83762360  -0.28858303  1
  Li  Li34  1  0.81003900  -0.33762360  0.78858303  1
  Li  Li35  1  -0.31003900  1.33762360  1.28858303  1
  Li  Li36  1  0.61406906  0.25000000  0.70626739  1
  Li  Li37  1  0.88593094  0.75000000  0.20626739  1
  Li  Li38  1  0.38593094  0.75000000  0.29373261  1
  Li  Li39  1  0.11406906  0.25000000  0.79373261  1
  Li  Li40  1  0.64364828  0.82899410  0.22811249  1
  Li  Li41  1  0.85635172  0.17100590  0.72811249  1
  Li  Li42  1  0.35635172  0.32899410  0.77188751  1
  Li  Li43  1  0.14364828  0.67100590  0.27188751  1
  Li  Li44  1  0.35635172  0.17100590  0.77188751  1
  Li  Li45  1  0.14364828  0.82899410  0.27188751  1
  Li  Li46  1  0.64364828  0.67100590  0.22811249  1
  Li  Li47  1  0.85635172  0.32899410  0.72811249  1
