# generated using pymatgen
data_LiF
_symmetry_space_group_name_H-M   'P 1'
_cell_length_a   8.06906973
_cell_length_b   6.05606705
_cell_length_c   8.46450011
_cell_angle_alpha   90.00000000
_cell_angle_beta   90.00000000
_cell_angle_gamma   90.00000000
_symmetry_Int_Tables_number   1
_chemical_formula_structural   LiF
_chemical_formula_sum   'Li20 F20'
_cell_volume   413.63326563
_cell_formula_units_Z   20
loop_
 _symmetry_equiv_pos_site_id
 _symmetry_equiv_pos_as_xyz
  1  'x, y, z'
loop_
 _atom_site_type_symbol
 _atom_site_label
 _atom_site_symmetry_multiplicity
 _atom_site_fract_x
 _atom_site_fract_y
 _atom_site_fract_z
 _atom_site_occupancy
  F  F0  1  0.81011360  0.69376114  0.43303463  1
  F  F1  1  -0.81011360  -0.69376114  0.43303463  1
  F  F2  1  -0.31011360  1.19376114  -0.43303463  1
  F  F3  1  1.31011360  -0.19376114  -0.43303463  1
  F  F4  1  -0.81011360  -0.69376114  -0.43303463  1
  F  F5  1  0.81011360  0.69376114  -0.43303463  1
  F  F6  1  1.31011360  -0.19376114  0.43303463  1
  F  F7  1  -0.31011360  1.19376114  0.43303463  1
  F  F8  1  0.18595213  0.34525253  0.06260155  1
  F  F9  1  0.81404787  0.65474747  0.06260155  1
  F  F10  1  0.31404787  0.84525253  0.93739845  1
  F  F11  1  0.68595213  0.15474747  0.93739845  1
  F  F12  1  0.81404787  0.65474747  0.93739845  1
  F  F13  1  0.18595213  0.34525253  0.93739845  1
  F  F14  1  0.68595213  0.15474747  0.06260155  1
  F  F15  1  0.31404787  0.84525253  0.06260155  1
  F  F16  1  0.00000000  0.50000000  0.00000000  1
  F  F17  1  0.50000000  0.00000000  0.00000000  1
  F  F18  1  0.00000000  0.50000000  0.50000000  1
  F  F19  1  0.50000000  0.00000000  0.50000000  1
  Li  Li20  1  0.00000000  0.50000000  0.33483034  1
  Li  Li21  1  0.50000000  0.00000000  0.66516966  1
  Li  Li22  1  0.00000000  0.50000000  0.66516966  1
  Li  Li23  1  0.50000000  0.00000000  0.33483034  1
  Li  Li24  1  0.94344034  0.15807339  0.19389087  1
  Li  Li25  1  0.05655966  0.84192661  0.19389087  1
  Li  Li26  1  0.55655966  0.65807339  0.80610913  1
  Li  Li27  1  0.44344034  0.34192661  0.80610913  1
  Li  Li28  1  0.05655966  0.84192661  0.80610913  1
  Li  Li29  1  0.94344034  0.15807339  0.80610913  1
  Li  Li30  1  0.44344034  0.34192661  0.19389087  1
  Li  Li31  1  0.55655966  0.65807339  0.19389087  1
  Li  Li32  1  0.76444276  0.52366111  0.00000000  1
  Li  Li33  1  0.23555724  0.47633889  0.00000000  1
  Li  Li34  1  0.73555724  0.02366111  0.00000000  1
  Li  Li35  1  0.26444276  0.97633889  -0.00000000  1
  Li  Li36  1  0.00000000  0.00000000  0.00000000  1
  Li  Li37  1  0.50000000  0.50000000  0.00000000  1
  Li  Li38  1  0.00000000  0.00000000  0.50000000  1
  Li  Li39  1  0.50000000  0.50000000  0.50000000  1
