# generated using pymatgen
data_Li4TeF2
_symmetry_space_group_name_H-M   'P 1'
_cell_length_a   9.36007826
_cell_length_b   9.36007826
_cell_length_c   36.63962598
_cell_angle_alpha   90.00000000
_cell_angle_beta   90.00000000
_cell_angle_gamma   120.00000000
_symmetry_Int_Tables_number   1
_chemical_formula_structural   Li4TeF2
_chemical_formula_sum   'Li96 Te24 F48'
_cell_volume   2779.97329086
_cell_formula_units_Z   24
loop_
 _symmetry_equiv_pos_site_id
 _symmetry_equiv_pos_as_xyz
  1  'x, y, z'
loop_
 _atom_site_type_symbol
 _atom_site_label
 _atom_site_symmetry_multiplicity
 _atom_site_fract_x
 _atom_site_fract_y
 _atom_site_fract_z
 _atom_site_occupancy
  F  F0  1  0.04339291  -0.00000000  0.27134590  1
  F  F1  1  0.00000000  0.04339291  0.27134590  1
  F  F2  1  0.95660709  0.95660709  0.27134590  1
  F  F3  1  0.04339291  -0.00000000  0.72865410  1
  F  F4  1  0.00000000  0.04339291  0.72865410  1
  F  F5  1  0.95660709  0.95660709  0.72865410  1
  F  F6  1  0.33333333  0.66666667  0.61219173  1
  F  F7  1  0.33333333  0.66666667  0.38780827  1
  F  F8  1  0.66666667  0.33333333  0.38780827  1
  F  F9  1  0.66666667  0.33333333  0.61219173  1
  F  F10  1  0.90779517  0.62854406  0.41457155  1
  F  F11  1  -0.62854406  0.27925111  0.41457155  1
  F  F12  1  -0.27925111  -0.90779517  0.41457155  1
  F  F13  1  0.90779517  0.62854406  -0.41457155  1
  F  F14  1  -0.62854406  0.27925111  -0.41457155  1
  F  F15  1  -0.27925111  -0.90779517  -0.41457155  1
  F  F16  1  0.62854406  0.90779517  -0.41457155  1
  F  F17  1  0.27925111  -0.62854406  -0.41457155  1
  F  F18  1  -0.90779517  -0.27925111  -0.41457155  1
  F  F19  1  0.62854406  0.90779517  0.41457155  1
  F  F20  1  0.27925111  -0.62854406  0.41457155  1
  F  F21  1  -0.90779517  -0.27925111  0.41457155  1
  F  F22  1  0.80819320  -0.00000000  0.48043717  1
  F  F23  1  0.00000000  0.80819320  0.48043717  1
  F  F24  1  0.19180680  0.19180680  0.48043717  1
  F  F25  1  0.80819320  -0.00000000  0.51956283  1
  F  F26  1  0.00000000  0.80819320  0.51956283  1
  F  F27  1  0.19180680  0.19180680  0.51956283  1
  F  F28  1  0.08311217  0.82225959  0.59342188  1
  F  F29  1  0.17774041  0.26085258  0.59342188  1
  F  F30  1  0.73914742  0.91688783  0.59342188  1
  F  F31  1  0.08311217  0.82225959  0.40657812  1
  F  F32  1  0.17774041  0.26085258  0.40657812  1
  F  F33  1  0.73914742  0.91688783  0.40657812  1
  F  F34  1  0.82225959  0.08311217  0.40657812  1
  F  F35  1  0.26085258  0.17774041  0.40657812  1
  F  F36  1  0.91688783  0.73914742  0.40657812  1
  F  F37  1  0.82225959  0.08311217  0.59342188  1
  F  F38  1  0.26085258  0.17774041  0.59342188  1
  F  F39  1  0.91688783  0.73914742  0.59342188  1
  F  F40  1  0.33333333  0.66666667  0.50000000  1
  F  F41  1  0.66666667  0.33333333  0.50000000  1
  F  F42  1  0.23421979  -0.00000000  0.67284574  1
  F  F43  1  0.00000000  0.23421979  0.67284574  1
  F  F44  1  0.76578021  0.76578021  0.67284574  1
  F  F45  1  0.23421979  -0.00000000  0.32715426  1
  F  F46  1  0.00000000  0.23421979  0.32715426  1
  F  F47  1  0.76578021  0.76578021  0.32715426  1
  Li  Li48  1  0.13759244  0.00000000  0.13303120  1
  Li  Li49  1  0.00000000  0.13759244  0.13303120  1
  Li  Li50  1  0.86240756  0.86240756  0.13303120  1
  Li  Li51  1  0.13759244  0.00000000  0.86696880  1
  Li  Li52  1  0.00000000  0.13759244  0.86696880  1
  Li  Li53  1  0.86240756  0.86240756  0.86696880  1
  Li  Li54  1  0.12956667  0.55677492  0.30676702  1
  Li  Li55  1  0.44322508  0.57279175  0.30676702  1
  Li  Li56  1  0.42720825  0.87043333  0.30676702  1
  Li  Li57  1  0.12956667  0.55677492  0.69323298  1
  Li  Li58  1  0.44322508  0.57279175  0.69323298  1
  Li  Li59  1  0.42720825  0.87043333  0.69323298  1
  Li  Li60  1  0.55677492  0.12956667  0.69323298  1
  Li  Li61  1  0.57279175  0.44322508  0.69323298  1
  Li  Li62  1  0.87043333  0.42720825  0.69323298  1
  Li  Li63  1  0.55677492  0.12956667  0.30676702  1
  Li  Li64  1  0.57279175  0.44322508  0.30676702  1
  Li  Li65  1  0.87043333  0.42720825  0.30676702  1
  Li  Li66  1  0.24846999  0.41438160  0.63719963  1
  Li  Li67  1  0.58561840  0.83408838  0.63719963  1
  Li  Li68  1  0.16591162  0.75153001  0.63719963  1
  Li  Li69  1  0.24846999  0.41438160  0.36280037  1
  Li  Li70  1  0.58561840  0.83408838  0.36280037  1
  Li  Li71  1  0.16591162  0.75153001  0.36280037  1
  Li  Li72  1  0.41438160  0.24846999  0.36280037  1
  Li  Li73  1  0.83408838  0.58561840  0.36280037  1
  Li  Li74  1  0.75153001  0.16591162  0.36280037  1
  Li  Li75  1  0.41438160  0.24846999  0.63719963  1
  Li  Li76  1  0.83408838  0.58561840  0.63719963  1
  Li  Li77  1  0.75153001  0.16591162  0.63719963  1
  Li  Li78  1  0.33333333  0.66666667  -0.00000000  1
  Li  Li79  1  0.66666667  0.33333333  -0.00000000  1
  Li  Li80  1  0.18317975  0.29069430  0.06028453  1
  Li  Li81  1  0.70930570  0.89248545  0.06028453  1
  Li  Li82  1  0.10751455  0.81682025  0.06028453  1
  Li  Li83  1  0.18317975  0.29069430  0.93971547  1
  Li  Li84  1  0.70930570  0.89248545  0.93971547  1
  Li  Li85  1  0.10751455  0.81682025  0.93971547  1
  Li  Li86  1  0.29069430  0.18317975  0.93971547  1
  Li  Li87  1  0.89248545  0.70930570  0.93971547  1
  Li  Li88  1  0.81682025  0.10751455  0.93971547  1
  Li  Li89  1  0.29069430  0.18317975  0.06028453  1
  Li  Li90  1  0.89248545  0.70930570  0.06028453  1
  Li  Li91  1  0.81682025  0.10751455  0.06028453  1
  Li  Li92  1  0.62956600  0.23963893  0.25092822  1
  Li  Li93  1  0.76036107  0.38992708  0.25092822  1
  Li  Li94  1  0.61007292  0.37043400  0.25092822  1
  Li  Li95  1  0.62956600  0.23963893  0.74907178  1
  Li  Li96  1  0.76036107  0.38992708  0.74907178  1
  Li  Li97  1  0.61007292  0.37043400  0.74907178  1
  Li  Li98  1  0.23963893  0.62956600  0.74907178  1
  Li  Li99  1  0.38992708  0.76036107  0.74907178  1
  Li  Li100  1  0.37043400  0.61007292  0.74907178  1
  Li  Li101  1  0.23963893  0.62956600  0.25092822  1
  Li  Li102  1  0.38992708  0.76036107  0.25092822  1
  Li  Li103  1  0.37043400  0.61007292  0.25092822  1
  Li  Li104  1  0.83944242  0.19914509  0.89537877  1
  Li  Li105  1  0.80085491  0.64029733  0.89537877  1
  Li  Li106  1  0.35970267  0.16055758  0.89537877  1
  Li  Li107  1  0.83944242  0.19914509  0.10462123  1
  Li  Li108  1  0.80085491  0.64029733  0.10462123  1
  Li  Li109  1  0.35970267  0.16055758  0.10462123  1
  Li  Li110  1  0.19914509  0.83944242  0.10462123  1
  Li  Li111  1  0.64029733  0.80085491  0.10462123  1
  Li  Li112  1  0.16055758  0.35970267  0.10462123  1
  Li  Li113  1  0.19914509  0.83944242  0.89537877  1
  Li  Li114  1  0.64029733  0.80085491  0.89537877  1
  Li  Li115  1  0.16055758  0.35970267  0.89537877  1
  Li  Li116  1  0.70860032  -0.00000000  0.65760631  1
  Li  Li117  1  0.00000000  0.70860032  0.65760631  1
  Li  Li118  1  0.29139968  0.29139968  0.65760631  1
  Li  Li119  1  0.70860032  -0.00000000  0.34239369  1
  Li  Li120  1  0.00000000  0.70860032  0.34239369  1
  Li  Li121  1  0.29139968  0.29139968  0.34239369  1
  Li  Li122  1  0.35993838  0.54321892  0.00000000  1
  Li  Li123  1  0.45678108  0.81671946  0.00000000  1
  Li  Li124  1  0.18328054  0.64006162  -0.00000000  1
  Li  Li125  1  0.54321892  0.35993838  0.00000000  1
  Li  Li126  1  0.81671946  0.45678108  0.00000000  1
  Li  Li127  1  0.64006162  0.18328054  -0.00000000  1
  Li  Li128  1  0.63538670  -0.00000000  0.00000000  1
  Li  Li129  1  0.00000000  0.63538670  0.00000000  1
  Li  Li130  1  0.36461330  0.36461330  0.00000000  1
  Li  Li131  1  0.29269602  0.39583583  0.30303908  1
  Li  Li132  1  0.60416417  0.89686019  0.30303908  1
  Li  Li133  1  0.10313981  0.70730398  0.30303908  1
  Li  Li134  1  0.29269602  0.39583583  0.69696092  1
  Li  Li135  1  0.60416417  0.89686019  0.69696092  1
  Li  Li136  1  0.10313981  0.70730398  0.69696092  1
  Li  Li137  1  0.39583583  0.29269602  0.69696092  1
  Li  Li138  1  0.89686019  0.60416417  0.69696092  1
  Li  Li139  1  0.70730398  0.10313981  0.69696092  1
  Li  Li140  1  0.39583583  0.29269602  0.30303908  1
  Li  Li141  1  0.89686019  0.60416417  0.30303908  1
  Li  Li142  1  0.70730398  0.10313981  0.30303908  1
  Li  Li143  1  0.00000000  0.00000000  0.50000000  1
  Te  Te144  1  0.18496524  0.85071438  0.50000000  1
  Te  Te145  1  0.14928562  0.33425086  0.50000000  1
  Te  Te146  1  0.66574914  0.81503476  0.50000000  1
  Te  Te147  1  0.85071438  0.18496524  0.50000000  1
  Te  Te148  1  0.33425086  0.14928562  0.50000000  1
  Te  Te149  1  0.81503476  0.66574914  0.50000000  1
  Te  Te150  1  0.37796160  0.00000000  0.07535072  1
  Te  Te151  1  0.00000000  0.37796160  0.07535072  1
  Te  Te152  1  0.62203840  0.62203840  0.07535072  1
  Te  Te153  1  0.37796160  0.00000000  0.92464928  1
  Te  Te154  1  0.00000000  0.37796160  0.92464928  1
  Te  Te155  1  0.62203840  0.62203840  0.92464928  1
  Te  Te156  1  0.91167660  -0.00000000  0.31689600  1
  Te  Te157  1  0.00000000  0.91167660  0.31689600  1
  Te  Te158  1  0.08832340  0.08832340  0.31689600  1
  Te  Te159  1  0.91167660  -0.00000000  0.68310400  1
  Te  Te160  1  0.00000000  0.91167660  0.68310400  1
  Te  Te161  1  0.08832340  0.08832340  0.68310400  1
  Te  Te162  1  0.40314398  -0.00000000  0.75647474  1
  Te  Te163  1  0.00000000  0.40314398  0.75647474  1
  Te  Te164  1  0.59685602  0.59685602  0.75647474  1
  Te  Te165  1  0.40314398  -0.00000000  0.24352526  1
  Te  Te166  1  0.00000000  0.40314398  0.24352526  1
  Te  Te167  1  0.59685602  0.59685602  0.24352526  1
