# generated using pymatgen
data_LiYSbP
_symmetry_space_group_name_H-M   'P 1'
_cell_length_a   4.86173864
_cell_length_b   4.90527136
_cell_length_c   6.91731160
_cell_angle_alpha   94.94554721
_cell_angle_beta   100.77037367
_cell_angle_gamma   109.86429758
_symmetry_Int_Tables_number   1
_chemical_formula_structural   LiYSbP
_chemical_formula_sum   'Li2 Y2 Sb2 P2'
_cell_volume   150.40240954
_cell_formula_units_Z   2
loop_
 _symmetry_equiv_pos_site_id
 _symmetry_equiv_pos_as_xyz
  1  'x, y, z'
loop_
 _atom_site_type_symbol
 _atom_site_label
 _atom_site_symmetry_multiplicity
 _atom_site_fract_x
 _atom_site_fract_y
 _atom_site_fract_z
 _atom_site_occupancy
  Y  Y0  1  0.00000000  0.00000000  0.00000000  1
  Y  Y1  1  0.50000000  0.50000000  0.50000000  1
  P  P2  1  0.50000000  0.50000000  0.00000000  1
  P  P3  1  0.50000000  0.00000000  0.50000000  1
  Li  Li4  1  0.00000000  0.50000000  0.50000000  1
  Li  Li5  1  0.13441433  0.41861888  0.24154328  1
  Sb  Sb6  1  0.59050655  0.04628513  0.62678439  1
  Sb  Sb7  1  0.30229780  0.74981180  0.73799638  1
