# generated using pymatgen
data_LiF
_symmetry_space_group_name_H-M   'P 1'
_cell_length_a   10.86470308
_cell_length_b   10.86470308
_cell_length_c   4.37096717
_cell_angle_alpha   90.00000000
_cell_angle_beta   90.00000000
_cell_angle_gamma   120.00000000
_symmetry_Int_Tables_number   1
_chemical_formula_structural   LiF
_chemical_formula_sum   'Li25 F25'
_cell_volume   446.83162210
_cell_formula_units_Z   25
loop_
 _symmetry_equiv_pos_site_id
 _symmetry_equiv_pos_as_xyz
  1  'x, y, z'
loop_
 _atom_site_type_symbol
 _atom_site_label
 _atom_site_symmetry_multiplicity
 _atom_site_fract_x
 _atom_site_fract_y
 _atom_site_fract_z
 _atom_site_occupancy
  F  F0  1  0.00000000  0.00000000  0.60469927  1
  F  F1  1  0.00000000  0.00000000  0.39530073  1
  F  F2  1  0.67384969  0.20539463  0.39973195  1
  F  F3  1  0.79460537  0.46845506  0.39973195  1
  F  F4  1  0.53154494  0.32615031  0.39973195  1
  F  F5  1  0.79460537  0.32615031  0.60026805  1
  F  F6  1  0.53154494  0.20539463  0.60026805  1
  F  F7  1  0.67384969  0.46845506  0.60026805  1
  F  F8  1  0.88483058  0.53443206  0.62652001  1
  F  F9  1  0.46556794  0.35039852  0.62652001  1
  F  F10  1  0.64960148  0.11516942  0.62652001  1
  F  F11  1  0.46556794  0.11516942  0.37347999  1
  F  F12  1  0.64960148  0.53443206  0.37347999  1
  F  F13  1  0.88483058  0.35039852  0.37347999  1
  F  F14  1  0.33333333  0.66666667  0.50000000  1
  F  F15  1  0.75151706  0.66980335  0.93995744  1
  F  F16  1  0.33019665  0.08171371  0.93995744  1
  F  F17  1  0.91828629  0.24848294  0.93995744  1
  F  F18  1  0.33019665  0.24848294  0.06004256  1
  F  F19  1  0.91828629  0.66980335  0.06004256  1
  F  F20  1  0.75151706  0.08171371  0.06004256  1
  F  F21  1  0.45285757  0.54714243  0.50000000  1
  F  F22  1  0.45285757  0.90571514  0.50000000  1
  F  F23  1  0.09428486  0.54714243  0.50000000  1
  F  F24  1  0.66666667  0.33333333  0.50000000  1
  Li  Li25  1  0.00000000  0.00000000  0.00000000  1
  Li  Li26  1  0.83363848  0.01162506  0.70198055  1
  Li  Li27  1  -0.01162506  0.82201343  0.70198055  1
  Li  Li28  1  -0.82201343  -0.83363848  0.70198055  1
  Li  Li29  1  -0.01162506  -0.83363848  -0.70198055  1
  Li  Li30  1  -0.82201343  0.01162506  -0.70198055  1
  Li  Li31  1  0.83363848  0.82201343  -0.70198055  1
  Li  Li32  1  0.07635151  0.92364849  0.50000000  1
  Li  Li33  1  0.07635151  0.15270301  0.50000000  1
  Li  Li34  1  0.84729699  0.92364849  0.50000000  1
  Li  Li35  1  0.66666667  0.33333333  -0.00000000  1
  Li  Li36  1  0.56324561  0.89350359  0.73071515  1
  Li  Li37  1  0.10649641  0.66974203  0.73071515  1
  Li  Li38  1  0.33025797  0.43675439  0.73071515  1
  Li  Li39  1  0.10649641  0.43675439  0.26928485  1
  Li  Li40  1  0.33025797  0.89350359  0.26928485  1
  Li  Li41  1  0.56324561  0.66974203  0.26928485  1
  Li  Li42  1  0.87578161  0.31835949  0.06596655  1
  Li  Li43  1  0.68164051  0.55742213  0.06596655  1
  Li  Li44  1  0.44257787  0.12421839  0.06596655  1
  Li  Li45  1  0.68164051  0.12421839  0.93403345  1
  Li  Li46  1  0.44257787  0.31835949  0.93403345  1
  Li  Li47  1  0.87578161  0.55742213  0.93403345  1
  Li  Li48  1  0.33333333  0.66666667  0.20357542  1
  Li  Li49  1  0.33333333  0.66666667  0.79642458  1
