# generated using pymatgen
data_Li3Y2(P2Se)2
_symmetry_space_group_name_H-M   'P 1'
_cell_length_a   5.87761581
_cell_length_b   6.23026336
_cell_length_c   7.54162965
_cell_angle_alpha   93.13470962
_cell_angle_beta   96.82674586
_cell_angle_gamma   102.59088268
_symmetry_Int_Tables_number   1
_chemical_formula_structural   Li3Y2(P2Se)2
_chemical_formula_sum   'Li3 Y2 P4 Se2'
_cell_volume   266.68810417
_cell_formula_units_Z   1
loop_
 _symmetry_equiv_pos_site_id
 _symmetry_equiv_pos_as_xyz
  1  'x, y, z'
loop_
 _atom_site_type_symbol
 _atom_site_label
 _atom_site_symmetry_multiplicity
 _atom_site_fract_x
 _atom_site_fract_y
 _atom_site_fract_z
 _atom_site_occupancy
  Se  Se0  1  0.00000000  0.00000000  0.00000000  1
  Se  Se1  1  0.50000000  0.50000000  0.50000000  1
  P  P2  1  0.50000000  0.50000000  0.00000000  1
  P  P3  1  0.50000000  0.00000000  0.50000000  1
  P  P4  1  0.00000000  0.50000000  0.50000000  1
  P  P5  1  0.86794586  0.19035021  0.94866029  1
  Li  Li6  1  0.48031974  0.18715110  0.09226293  1
  Li  Li7  1  0.30263100  0.64637874  0.03694148  1
  Li  Li8  1  0.51764344  0.92124026  0.58709094  1
  Y  Y9  1  0.71049085  0.68070130  0.18957871  1
  Y  Y10  1  0.41721665  0.70244262  0.81110252  1
