# generated using pymatgen
data_LiF
_symmetry_space_group_name_H-M   'P 1'
_cell_length_a   10.12527352
_cell_length_b   10.12527352
_cell_length_c   6.83631258
_cell_angle_alpha   90.00000000
_cell_angle_beta   90.00000000
_cell_angle_gamma   120.00000000
_symmetry_Int_Tables_number   1
_chemical_formula_structural   LiF
_chemical_formula_sum   'Li25 F25'
_cell_volume   606.96838603
_cell_formula_units_Z   25
loop_
 _symmetry_equiv_pos_site_id
 _symmetry_equiv_pos_as_xyz
  1  'x, y, z'
loop_
 _atom_site_type_symbol
 _atom_site_label
 _atom_site_symmetry_multiplicity
 _atom_site_fract_x
 _atom_site_fract_y
 _atom_site_fract_z
 _atom_site_occupancy
  F  F0  1  0.42185667  0.77202802  0.61697576  1
  F  F1  1  0.22797198  0.64982865  0.61697576  1
  F  F2  1  0.35017135  0.57814333  0.61697576  1
  F  F3  1  0.22797198  0.57814333  0.38302424  1
  F  F4  1  0.35017135  0.77202802  0.38302424  1
  F  F5  1  0.42185667  0.64982865  0.38302424  1
  F  F6  1  0.93603561  0.98182144  0.15939470  1
  F  F7  1  0.01817856  0.95421417  0.15939470  1
  F  F8  1  0.04578583  0.06396439  0.15939470  1
  F  F9  1  0.01817856  0.06396439  0.84060530  1
  F  F10  1  0.04578583  0.98182144  0.84060530  1
  F  F11  1  0.93603561  0.95421417  0.84060530  1
  F  F12  1  0.00000000  0.00000000  0.87654916  1
  F  F13  1  0.00000000  0.00000000  0.12345084  1
  F  F14  1  0.14168974  0.65640090  0.62904511  1
  F  F15  1  0.34359910  0.48528884  0.62904511  1
  F  F16  1  0.51471116  0.85831026  0.62904511  1
  F  F17  1  0.34359910  0.85831026  0.37095489  1
  F  F18  1  0.51471116  0.65640090  0.37095489  1
  F  F19  1  0.14168974  0.48528884  0.37095489  1
  F  F20  1  0.66666667  0.33333333  0.00000000  1
  F  F21  1  0.00000000  0.00000000  0.00000000  1
  F  F22  1  0.77435399  0.22564601  0.00000000  1
  F  F23  1  0.77435399  0.54870799  0.00000000  1
  F  F24  1  0.45129201  0.22564601  0.00000000  1
  Li  Li25  1  0.75991262  0.36800146  0.09610214  1
  Li  Li26  1  -0.36800146  0.39191116  0.09610214  1
  Li  Li27  1  -0.39191116  -0.75991262  0.09610214  1
  Li  Li28  1  -0.36800146  -0.75991262  -0.09610214  1
  Li  Li29  1  -0.39191116  0.36800146  -0.09610214  1
  Li  Li30  1  0.75991262  0.39191116  -0.09610214  1
  Li  Li31  1  0.73865270  0.91826628  0.40259862  1
  Li  Li32  1  0.08173372  0.82038641  0.40259862  1
  Li  Li33  1  0.17961359  0.26134730  0.40259862  1
  Li  Li34  1  0.08173372  0.26134730  0.59740138  1
  Li  Li35  1  0.17961359  0.91826628  0.59740138  1
  Li  Li36  1  0.73865270  0.82038641  0.59740138  1
  Li  Li37  1  0.33333333  0.66666667  0.60711230  1
  Li  Li38  1  0.33333333  0.66666667  0.39288770  1
  Li  Li39  1  0.19387353  0.80612647  0.50000000  1
  Li  Li40  1  0.19387353  0.38774706  0.50000000  1
  Li  Li41  1  0.61225294  0.80612647  0.50000000  1
  Li  Li42  1  0.33333333  0.66666667  0.00000000  1
  Li  Li43  1  0.63934238  0.15087017  0.69806681  1
  Li  Li44  1  0.84912983  0.48847222  0.69806681  1
  Li  Li45  1  0.51152778  0.36065762  0.69806681  1
  Li  Li46  1  0.84912983  0.36065762  0.30193319  1
  Li  Li47  1  0.51152778  0.15087017  0.30193319  1
  Li  Li48  1  0.63934238  0.48847222  0.30193319  1
  Li  Li49  1  0.66666667  0.33333333  0.50000000  1
