# generated using pymatgen
data_Li2YAs(P2Pb)2
_symmetry_space_group_name_H-M   'P 1'
_cell_length_a   5.97725884
_cell_length_b   5.92623902
_cell_length_c   7.70583070
_cell_angle_alpha   95.26599248
_cell_angle_beta   100.06722204
_cell_angle_gamma   104.34292097
_symmetry_Int_Tables_number   1
_chemical_formula_structural   Li2YAs(P2Pb)2
_chemical_formula_sum   'Li2 Y1 As1 P4 Pb2'
_cell_volume   257.75733839
_cell_formula_units_Z   1
loop_
 _symmetry_equiv_pos_site_id
 _symmetry_equiv_pos_as_xyz
  1  'x, y, z'
loop_
 _atom_site_type_symbol
 _atom_site_label
 _atom_site_symmetry_multiplicity
 _atom_site_fract_x
 _atom_site_fract_y
 _atom_site_fract_z
 _atom_site_occupancy
  Pb  Pb0  1  0.00000000  0.00000000  0.00000000  1
  Pb  Pb1  1  0.50000000  0.50000000  0.50000000  1
  Y  Y2  1  0.50000000  0.50000000  0.00000000  1
  P  P3  1  0.50000000  0.00000000  0.50000000  1
  P  P4  1  0.00000000  0.50000000  0.50000000  1
  P  P5  1  0.08724455  0.07563644  0.52760637  1
  P  P6  1  0.08818873  0.40631333  0.62370864  1
  Li  Li7  1  0.02061457  0.53313854  0.16830941  1
  Li  Li8  1  0.34069680  0.32252536  0.94145794  1
  As  As9  1  0.89407184  0.99577026  0.08044848  1
