# generated using pymatgen
data_LiF
_symmetry_space_group_name_H-M   'P 1'
_cell_length_a   8.35157213
_cell_length_b   8.35157213
_cell_length_c   13.16030424
_cell_angle_alpha   90.00000000
_cell_angle_beta   90.00000000
_cell_angle_gamma   90.00000000
_symmetry_Int_Tables_number   1
_chemical_formula_structural   LiF
_chemical_formula_sum   'Li29 F29'
_cell_volume   917.91486231
_cell_formula_units_Z   29
loop_
 _symmetry_equiv_pos_site_id
 _symmetry_equiv_pos_as_xyz
  1  'x, y, z'
loop_
 _atom_site_type_symbol
 _atom_site_label
 _atom_site_symmetry_multiplicity
 _atom_site_fract_x
 _atom_site_fract_y
 _atom_site_fract_z
 _atom_site_occupancy
  F  F0  1  0.74207069  0.00000000  0.97751886  1
  F  F1  1  0.25792931  0.00000000  0.97751886  1
  F  F2  1  0.00000000  0.74207069  0.97751886  1
  F  F3  1  0.00000000  0.25792931  0.97751886  1
  F  F4  1  0.25792931  0.00000000  0.02248114  1
  F  F5  1  0.74207069  0.00000000  0.02248114  1
  F  F6  1  0.00000000  0.74207069  0.02248114  1
  F  F7  1  0.00000000  0.25792931  0.02248114  1
  F  F8  1  0.85363357  0.85363357  0.36396612  1
  F  F9  1  0.14636643  0.14636643  0.36396612  1
  F  F10  1  0.14636643  0.85363357  0.36396612  1
  F  F11  1  0.85363357  0.14636643  0.36396612  1
  F  F12  1  0.14636643  0.85363357  0.63603388  1
  F  F13  1  0.85363357  0.14636643  0.63603388  1
  F  F14  1  0.85363357  0.85363357  0.63603388  1
  F  F15  1  0.14636643  0.14636643  0.63603388  1
  F  F16  1  0.16449239  0.50000000  0.50000000  1
  F  F17  1  0.83550761  0.50000000  0.50000000  1
  F  F18  1  0.50000000  0.16449239  0.50000000  1
  F  F19  1  0.50000000  0.83550761  0.50000000  1
  F  F20  1  0.29458292  0.55124705  0.50000000  1
  F  F21  1  0.70541708  0.44875295  0.50000000  1
  F  F22  1  0.44875295  0.29458292  0.50000000  1
  F  F23  1  0.55124705  0.70541708  0.50000000  1
  F  F24  1  0.70541708  0.55124705  0.50000000  1
  F  F25  1  0.29458292  0.44875295  0.50000000  1
  F  F26  1  0.55124705  0.29458292  0.50000000  1
  F  F27  1  0.44875295  0.70541708  0.50000000  1
  F  F28  1  0.50000000  0.50000000  0.00000000  1
  Li  Li29  1  0.68597589  0.68597589  0.82496185  1
  Li  Li30  1  -0.68597589  -0.68597589  0.82496185  1
  Li  Li31  1  -0.68597589  0.68597589  0.82496185  1
  Li  Li32  1  0.68597589  -0.68597589  0.82496185  1
  Li  Li33  1  -0.68597589  0.68597589  -0.82496185  1
  Li  Li34  1  0.68597589  -0.68597589  -0.82496185  1
  Li  Li35  1  0.68597589  0.68597589  -0.82496185  1
  Li  Li36  1  -0.68597589  -0.68597589  -0.82496185  1
  Li  Li37  1  0.00000000  0.00000000  0.50000000  1
  Li  Li38  1  0.19499435  0.19499435  0.73469443  1
  Li  Li39  1  0.80500565  0.80500565  0.73469443  1
  Li  Li40  1  0.80500565  0.19499435  0.73469443  1
  Li  Li41  1  0.19499435  0.80500565  0.73469443  1
  Li  Li42  1  0.80500565  0.19499435  0.26530557  1
  Li  Li43  1  0.19499435  0.80500565  0.26530557  1
  Li  Li44  1  0.19499435  0.19499435  0.26530557  1
  Li  Li45  1  0.80500565  0.80500565  0.26530557  1
  Li  Li46  1  0.71200586  0.00000000  0.50000000  1
  Li  Li47  1  0.28799414  0.00000000  0.50000000  1
  Li  Li48  1  0.00000000  0.71200586  0.50000000  1
  Li  Li49  1  0.00000000  0.28799414  0.50000000  1
  Li  Li50  1  0.76454224  0.76454224  0.50000000  1
  Li  Li51  1  0.23545776  0.23545776  0.50000000  1
  Li  Li52  1  0.23545776  0.76454224  0.50000000  1
  Li  Li53  1  0.76454224  0.23545776  0.50000000  1
  Li  Li54  1  0.00000000  0.50000000  0.00000000  1
  Li  Li55  1  0.50000000  0.00000000  0.00000000  1
  Li  Li56  1  0.50000000  0.50000000  0.91002561  1
  Li  Li57  1  0.50000000  0.50000000  0.08997439  1
