# generated using pymatgen
data_LiYAs2P
_symmetry_space_group_name_H-M   'P 1'
_cell_length_a   4.84931374
_cell_length_b   4.96494345
_cell_length_c   6.83857637
_cell_angle_alpha   94.89907903
_cell_angle_beta   100.33151154
_cell_angle_gamma   109.14810671
_symmetry_Int_Tables_number   1
_chemical_formula_structural   LiYAs2P
_chemical_formula_sum   'Li2 Y2 As4 P2'
_cell_volume   151.16430595
_cell_formula_units_Z   2
loop_
 _symmetry_equiv_pos_site_id
 _symmetry_equiv_pos_as_xyz
  1  'x, y, z'
loop_
 _atom_site_type_symbol
 _atom_site_label
 _atom_site_symmetry_multiplicity
 _atom_site_fract_x
 _atom_site_fract_y
 _atom_site_fract_z
 _atom_site_occupancy
  P  P0  1  0.12500000  0.00000000  0.25000000  1
  P  P1  1  0.00000000  0.00000000  0.00000000  1
  As  As2  1  0.37500000  0.00000000  0.25000000  1
  As  As3  1  0.25000000  0.25000000  0.25000000  1
  As  As4  1  0.00000000  0.25000000  0.12500000  1
  As  As5  1  0.07931193  0.85878483  0.04579432  1
  Li  Li6  1  0.93314855  0.48814379  0.96755946  1
  Li  Li7  1  0.00168700  0.26962371  0.88613445  1
  Y  Y8  1  0.23380683  0.62932835  0.52771028  1
  Y  Y9  1  0.37310480  0.39517161  0.85743878  1
