# generated using pymatgen
data_Li2Y2AsP4Se
_symmetry_space_group_name_H-M   'P 1'
_cell_length_a   4.52006247
_cell_length_b   4.61074340
_cell_length_c   7.01308542
_cell_angle_alpha   95.68092150
_cell_angle_beta   101.93646615
_cell_angle_gamma   110.70210177
_symmetry_Int_Tables_number   1
_chemical_formula_structural   Li2Y2AsP4Se
_chemical_formula_sum   'Li2 Y2 As1 P4 Se1'
_cell_volume   131.37866526
_cell_formula_units_Z   1
loop_
 _symmetry_equiv_pos_site_id
 _symmetry_equiv_pos_as_xyz
  1  'x, y, z'
loop_
 _atom_site_type_symbol
 _atom_site_label
 _atom_site_symmetry_multiplicity
 _atom_site_fract_x
 _atom_site_fract_y
 _atom_site_fract_z
 _atom_site_occupancy
  Se  Se0  1  0.00000000  0.00000000  0.00000000  1
  Y  Y1  1  0.50000000  0.50000000  0.50000000  1
  Y  Y2  1  0.50000000  0.50000000  0.00000000  1
  P  P3  1  0.50000000  0.00000000  0.50000000  1
  P  P4  1  0.00000000  0.50000000  0.50000000  1
  P  P5  1  0.28141723  0.40078843  0.99377967  1
  P  P6  1  0.52797931  0.33079503  0.23265053  1
  As  As7  1  0.89988621  0.75358156  0.36713674  1
  Li  Li8  1  0.18720198  0.16479954  0.51276489  1
  Li  Li9  1  0.32241837  0.65160844  0.52661308  1
