# generated using pymatgen
data_Li2YAs(P2Se)2
_symmetry_space_group_name_H-M   'P 1'
_cell_length_a   4.85038550
_cell_length_b   5.06292528
_cell_length_c   7.16356422
_cell_angle_alpha   95.55892979
_cell_angle_beta   101.75447631
_cell_angle_gamma   110.61878052
_symmetry_Int_Tables_number   1
_chemical_formula_structural   Li2YAs(P2Se)2
_chemical_formula_sum   'Li2 Y1 As1 P4 Se2'
_cell_volume   158.44299560
_cell_formula_units_Z   1
loop_
 _symmetry_equiv_pos_site_id
 _symmetry_equiv_pos_as_xyz
  1  'x, y, z'
loop_
 _atom_site_type_symbol
 _atom_site_label
 _atom_site_symmetry_multiplicity
 _atom_site_fract_x
 _atom_site_fract_y
 _atom_site_fract_z
 _atom_site_occupancy
  Se  Se0  1  0.00000000  0.00000000  0.00000000  1
  Se  Se1  1  0.50000000  0.50000000  0.50000000  1
  P  P2  1  0.25000000  0.25000000  0.25000000  1
  P  P3  1  0.75000000  0.25000000  0.00000000  1
  P  P4  1  0.25000000  0.75000000  0.50000000  1
  P  P5  1  0.65266358  0.11728520  0.73050569  1
  As  As6  1  0.08858684  0.80037644  0.68752231  1
  Li  Li7  1  0.35467260  0.16162027  0.78668408  1
  Li  Li8  1  0.74064603  0.24715831  0.42758618  1
  Y  Y9  1  0.36064958  0.55993360  0.10122514  1
