# generated using pymatgen
data_LiF
_symmetry_space_group_name_H-M   'P 1'
_cell_length_a   8.74668067
_cell_length_b   8.74668067
_cell_length_c   23.27915314
_cell_angle_alpha   90.00000000
_cell_angle_beta   90.00000000
_cell_angle_gamma   90.00000000
_symmetry_Int_Tables_number   1
_chemical_formula_structural   LiF
_chemical_formula_sum   'Li64 F64'
_cell_volume   1780.95817409
_cell_formula_units_Z   64
loop_
 _symmetry_equiv_pos_site_id
 _symmetry_equiv_pos_as_xyz
  1  'x, y, z'
loop_
 _atom_site_type_symbol
 _atom_site_label
 _atom_site_symmetry_multiplicity
 _atom_site_fract_x
 _atom_site_fract_y
 _atom_site_fract_z
 _atom_site_occupancy
  F  F0  1  0.00000000  0.25000000  0.12500000  1
  F  F1  1  0.00000000  0.75000000  0.37500000  1
  F  F2  1  0.00000000  0.75000000  0.87500000  1
  F  F3  1  0.00000000  0.25000000  0.62500000  1
  F  F4  1  0.50000000  0.75000000  0.62500000  1
  F  F5  1  0.50000000  0.25000000  0.87500000  1
  F  F6  1  0.50000000  0.25000000  0.37500000  1
  F  F7  1  0.50000000  0.75000000  0.12500000  1
  F  F8  1  0.21537926  0.95018632  0.94686005  1
  F  F9  1  0.28462074  0.04981368  0.44686005  1
  F  F10  1  0.29981368  0.96537926  0.19686005  1
  F  F11  1  0.20018632  0.03462074  0.69686005  1
  F  F12  1  0.28462074  0.95018632  0.05313995  1
  F  F13  1  0.21537926  0.04981368  0.55313995  1
  F  F14  1  0.20018632  0.96537926  0.80313995  1
  F  F15  1  0.29981368  0.03462074  0.30313995  1
  F  F16  1  0.78462074  0.04981368  0.05313995  1
  F  F17  1  0.71537926  0.95018632  0.55313995  1
  F  F18  1  0.70018632  0.03462074  0.80313995  1
  F  F19  1  0.79981368  0.96537926  0.30313995  1
  F  F20  1  0.71537926  0.04981368  0.94686005  1
  F  F21  1  0.78462074  0.95018632  0.44686005  1
  F  F22  1  0.79981368  0.03462074  0.19686005  1
  F  F23  1  0.70018632  0.96537926  0.69686005  1
  F  F24  1  0.71537926  0.45018632  0.44686005  1
  F  F25  1  0.78462074  0.54981368  0.94686005  1
  F  F26  1  0.79981368  0.46537926  0.69686005  1
  F  F27  1  0.70018632  0.53462074  0.19686005  1
  F  F28  1  0.78462074  0.45018632  0.55313995  1
  F  F29  1  0.71537926  0.54981368  0.05313995  1
  F  F30  1  0.70018632  0.46537926  0.30313995  1
  F  F31  1  0.79981368  0.53462074  0.80313995  1
  F  F32  1  0.28462074  0.54981368  0.55313995  1
  F  F33  1  0.21537926  0.45018632  0.05313995  1
  F  F34  1  0.20018632  0.53462074  0.30313995  1
  F  F35  1  0.29981368  0.46537926  0.80313995  1
  F  F36  1  0.21537926  0.54981368  0.44686005  1
  F  F37  1  0.28462074  0.45018632  0.94686005  1
  F  F38  1  0.29981368  0.53462074  0.69686005  1
  F  F39  1  0.20018632  0.46537926  0.19686005  1
  F  F40  1  0.00000000  0.00000000  0.00000000  1
  F  F41  1  0.50000000  0.00000000  0.50000000  1
  F  F42  1  0.25000000  0.75000000  0.25000000  1
  F  F43  1  0.25000000  0.25000000  0.75000000  1
  F  F44  1  0.50000000  0.00000000  0.00000000  1
  F  F45  1  0.00000000  0.00000000  0.50000000  1
  F  F46  1  0.25000000  0.75000000  0.75000000  1
  F  F47  1  0.25000000  0.25000000  0.25000000  1
  F  F48  1  0.50000000  0.50000000  0.50000000  1
  F  F49  1  0.00000000  0.50000000  0.00000000  1
  F  F50  1  0.75000000  0.25000000  0.75000000  1
  F  F51  1  0.75000000  0.75000000  0.25000000  1
  F  F52  1  0.00000000  0.50000000  0.50000000  1
  F  F53  1  0.50000000  0.50000000  0.00000000  1
  F  F54  1  0.75000000  0.25000000  0.25000000  1
  F  F55  1  0.75000000  0.75000000  0.75000000  1
  F  F56  1  0.00000000  0.25000000  0.37500000  1
  F  F57  1  0.00000000  0.75000000  0.62500000  1
  F  F58  1  0.50000000  0.25000000  0.62500000  1
  F  F59  1  0.50000000  0.75000000  0.37500000  1
  F  F60  1  0.50000000  0.75000000  0.87500000  1
  F  F61  1  0.50000000  0.25000000  0.12500000  1
  F  F62  1  0.00000000  0.75000000  0.12500000  1
  F  F63  1  0.00000000  0.25000000  0.87500000  1
  Li  Li64  1  0.21637990  0.46637990  0.12500000  1
  Li  Li65  1  0.28362010  0.53362010  0.62500000  1
  Li  Li66  1  0.78362010  0.96637990  0.37500000  1
  Li  Li67  1  0.71637990  0.03362010  0.87500000  1
  Li  Li68  1  0.78362010  0.53362010  0.87500000  1
  Li  Li69  1  0.71637990  0.46637990  0.37500000  1
  Li  Li70  1  0.21637990  0.03362010  0.62500000  1
  Li  Li71  1  0.28362010  0.96637990  0.12500000  1
  Li  Li72  1  0.71637990  0.96637990  0.62500000  1
  Li  Li73  1  0.78362010  0.03362010  0.12500000  1
  Li  Li74  1  0.28362010  0.46637990  0.87500000  1
  Li  Li75  1  0.21637990  0.53362010  0.37500000  1
  Li  Li76  1  0.28362010  0.03362010  0.37500000  1
  Li  Li77  1  0.21637990  0.96637990  0.87500000  1
  Li  Li78  1  0.71637990  0.53362010  0.12500000  1
  Li  Li79  1  0.78362010  0.46637990  0.62500000  1
  Li  Li80  1  0.17646535  0.85501565  0.18800895  1
  Li  Li81  1  0.32353465  -0.85501565  0.68800895  1
  Li  Li82  1  -0.60501565  0.92646535  0.43800895  1
  Li  Li83  1  1.10501565  0.07353465  0.93800895  1
  Li  Li84  1  0.32353465  0.85501565  -0.18800895  1
  Li  Li85  1  0.17646535  -0.85501565  0.31199105  1
  Li  Li86  1  1.10501565  0.92646535  0.56199105  1
  Li  Li87  1  -0.60501565  0.07353465  0.06199105  1
  Li  Li88  1  -0.17646535  -0.85501565  -0.18800895  1
  Li  Li89  1  0.67646535  0.85501565  0.31199105  1
  Li  Li90  1  1.60501565  0.07353465  0.56199105  1
  Li  Li91  1  -0.10501565  0.92646535  0.06199105  1
  Li  Li92  1  0.67646535  -0.85501565  0.18800895  1
  Li  Li93  1  -0.17646535  0.85501565  0.68800895  1
  Li  Li94  1  -0.10501565  0.07353465  0.43800895  1
  Li  Li95  1  1.60501565  0.92646535  0.93800895  1
  Li  Li96  1  0.67646535  1.35501565  0.68800895  1
  Li  Li97  1  0.82353465  -0.35501565  1.18800895  1
  Li  Li98  1  -0.10501565  1.42646535  0.93800895  1
  Li  Li99  1  1.60501565  0.57353465  1.43800895  1
  Li  Li100  1  0.82353465  1.35501565  0.31199105  1
  Li  Li101  1  0.67646535  -0.35501565  0.81199105  1
  Li  Li102  1  1.60501565  1.42646535  1.06199105  1
  Li  Li103  1  -0.10501565  0.57353465  0.56199105  1
  Li  Li104  1  0.32353465  -0.35501565  0.31199105  1
  Li  Li105  1  1.17646535  1.35501565  0.81199105  1
  Li  Li106  1  2.10501565  0.57353465  1.06199105  1
  Li  Li107  1  0.39498435  1.42646535  0.56199105  1
  Li  Li108  1  1.17646535  -0.35501565  0.68800895  1
  Li  Li109  1  0.32353465  1.35501565  1.18800895  1
  Li  Li110  1  0.39498435  0.57353465  0.93800895  1
  Li  Li111  1  2.10501565  1.42646535  1.43800895  1
  Li  Li112  1  0.85987654  0.00000000  0.25000000  1
  Li  Li113  1  0.64012346  0.00000000  0.75000000  1
  Li  Li114  1  0.25000000  0.60987654  0.50000000  1
  Li  Li115  1  0.25000000  0.39012346  0.00000000  1
  Li  Li116  1  0.14012346  0.00000000  0.75000000  1
  Li  Li117  1  0.35987654  0.00000000  0.25000000  1
  Li  Li118  1  0.75000000  0.39012346  0.50000000  1
  Li  Li119  1  0.75000000  0.60987654  0.00000000  1
  Li  Li120  1  0.35987654  0.50000000  0.75000000  1
  Li  Li121  1  0.14012346  0.50000000  0.25000000  1
  Li  Li122  1  0.75000000  0.10987654  0.00000000  1
  Li  Li123  1  0.75000000  0.89012346  0.50000000  1
  Li  Li124  1  0.64012346  0.50000000  0.25000000  1
  Li  Li125  1  0.85987654  0.50000000  0.75000000  1
  Li  Li126  1  0.25000000  0.89012346  0.00000000  1
  Li  Li127  1  0.25000000  0.10987654  0.50000000  1
