# generated using pymatgen
data_LiF
_symmetry_space_group_name_H-M   'P 1'
_cell_length_a   11.71862483
_cell_length_b   7.49233410
_cell_length_c   9.60581987
_cell_angle_alpha   90.00000000
_cell_angle_beta   90.00000000
_cell_angle_gamma   90.00000000
_symmetry_Int_Tables_number   1
_chemical_formula_structural   LiF
_chemical_formula_sum   'Li22 F22'
_cell_volume   843.38956675
_cell_formula_units_Z   22
loop_
 _symmetry_equiv_pos_site_id
 _symmetry_equiv_pos_as_xyz
  1  'x, y, z'
loop_
 _atom_site_type_symbol
 _atom_site_label
 _atom_site_symmetry_multiplicity
 _atom_site_fract_x
 _atom_site_fract_y
 _atom_site_fract_z
 _atom_site_occupancy
  F  F0  1  0.00000000  0.50000000  0.45667454  1
  F  F1  1  0.50000000  0.00000000  0.54332546  1
  F  F2  1  0.00000000  0.50000000  0.54332546  1
  F  F3  1  0.50000000  0.00000000  0.45667454  1
  F  F4  1  0.72161815  0.68487136  0.29613326  1
  F  F5  1  0.27838185  0.31512864  0.29613326  1
  F  F6  1  0.77838185  0.18487136  0.70386674  1
  F  F7  1  0.22161815  0.81512864  0.70386674  1
  F  F8  1  0.27838185  0.31512864  0.70386674  1
  F  F9  1  0.72161815  0.68487136  0.70386674  1
  F  F10  1  0.22161815  0.81512864  0.29613326  1
  F  F11  1  0.77838185  0.18487136  0.29613326  1
  F  F12  1  0.19262702  0.72703419  0.00000000  1
  F  F13  1  0.80737298  0.27296581  -0.00000000  1
  F  F14  1  0.30737298  0.22703419  0.00000000  1
  F  F15  1  0.69262702  0.77296581  0.00000000  1
  F  F16  1  0.00000000  0.00000000  0.50000000  1
  F  F17  1  0.50000000  0.50000000  0.50000000  1
  F  F18  1  0.35583730  0.90582582  -0.00000000  1
  F  F19  1  0.64416270  0.09417418  -0.00000000  1
  F  F20  1  0.14416270  0.40582582  -0.00000000  1
  F  F21  1  0.85583730  0.59417418  0.00000000  1
  Li  Li22  1  0.26460586  0.63501962  0.64366623  1
  Li  Li23  1  -0.26460586  -0.63501962  0.64366623  1
  Li  Li24  1  0.23539414  1.13501962  -0.64366623  1
  Li  Li25  1  0.76460586  -0.13501962  -0.64366623  1
  Li  Li26  1  -0.26460586  -0.63501962  -0.64366623  1
  Li  Li27  1  0.26460586  0.63501962  -0.64366623  1
  Li  Li28  1  0.76460586  -0.13501962  0.64366623  1
  Li  Li29  1  0.23539414  1.13501962  0.64366623  1
  Li  Li30  1  0.00000000  0.00000000  0.70875309  1
  Li  Li31  1  0.50000000  0.50000000  0.29124691  1
  Li  Li32  1  0.00000000  0.00000000  0.29124691  1
  Li  Li33  1  0.50000000  0.50000000  0.70875309  1
  Li  Li34  1  0.43905713  0.28000978  0.50000000  1
  Li  Li35  1  0.56094287  0.71999022  0.50000000  1
  Li  Li36  1  0.06094287  0.78000978  0.50000000  1
  Li  Li37  1  0.93905713  0.21999022  0.50000000  1
  Li  Li38  1  0.23105220  0.20950083  0.50000000  1
  Li  Li39  1  0.76894780  0.79049917  0.50000000  1
  Li  Li40  1  0.26894780  0.70950083  0.50000000  1
  Li  Li41  1  0.73105220  0.29049917  0.50000000  1
  Li  Li42  1  0.00000000  0.00000000  0.00000000  1
  Li  Li43  1  0.50000000  0.50000000  0.00000000  1
