# generated using pymatgen
data_LiY2P2Se
_symmetry_space_group_name_H-M   'P 1'
_cell_length_a   5.49736341
_cell_length_b   5.72418733
_cell_length_c   7.23077116
_cell_angle_alpha   93.74621521
_cell_angle_beta   97.46303774
_cell_angle_gamma   103.95642336
_symmetry_Int_Tables_number   1
_chemical_formula_structural   LiY2P2Se
_chemical_formula_sum   'Li1 Y2 P2 Se1'
_cell_volume   217.84228682
_cell_formula_units_Z   1
loop_
 _symmetry_equiv_pos_site_id
 _symmetry_equiv_pos_as_xyz
  1  'x, y, z'
loop_
 _atom_site_type_symbol
 _atom_site_label
 _atom_site_symmetry_multiplicity
 _atom_site_fract_x
 _atom_site_fract_y
 _atom_site_fract_z
 _atom_site_occupancy
  Se  Se0  1  0.12500000  0.12500000  0.12500000  1
  Y  Y1  1  0.50000000  0.50000000  0.50000000  1
  Y  Y2  1  0.25000000  0.25000000  0.25000000  1
  P  P3  1  0.75000000  0.75000000  0.75000000  1
  P  P4  1  0.89103423  0.53350863  0.93624225  1
  Li  Li5  1  0.12932562  0.63224915  0.03036777  1
