# generated using pymatgen
data_LiF
_symmetry_space_group_name_H-M   'P 1'
_cell_length_a   6.02703816
_cell_length_b   6.02703816
_cell_length_c   8.35406752
_cell_angle_alpha   90.00000000
_cell_angle_beta   90.00000000
_cell_angle_gamma   120.00000000
_symmetry_Int_Tables_number   1
_chemical_formula_structural   LiF
_chemical_formula_sum   'Li9 F9'
_cell_volume   262.80673779
_cell_formula_units_Z   9
loop_
 _symmetry_equiv_pos_site_id
 _symmetry_equiv_pos_as_xyz
  1  'x, y, z'
loop_
 _atom_site_type_symbol
 _atom_site_label
 _atom_site_symmetry_multiplicity
 _atom_site_fract_x
 _atom_site_fract_y
 _atom_site_fract_z
 _atom_site_occupancy
  F  F0  1  0.84990939  0.15009061  0.00000000  1
  F  F1  1  0.84990939  0.69981878  0.00000000  1
  F  F2  1  0.30018122  0.15009061  0.00000000  1
  F  F3  1  0.66666667  0.33333333  0.00000000  1
  F  F4  1  0.49645301  0.50354699  0.50000000  1
  F  F5  1  0.49645301  0.99290602  0.50000000  1
  F  F6  1  0.00709398  0.50354699  0.50000000  1
  F  F7  1  0.00000000  0.00000000  0.89169967  1
  F  F8  1  0.00000000  0.00000000  0.10830033  1
  Li  Li9  1  0.33333333  0.66666667  0.50000000  1
  Li  Li10  1  0.00000000  0.00000000  0.75556772  1
  Li  Li11  1  0.00000000  0.00000000  0.24443228  1
  Li  Li12  1  0.36582769  0.05539914  0.59812897  1
  Li  Li13  1  -0.05539914  0.31042854  0.59812897  1
  Li  Li14  1  -0.31042854  -0.36582769  0.59812897  1
  Li  Li15  1  -0.05539914  -0.36582769  -0.59812897  1
  Li  Li16  1  -0.31042854  0.05539914  -0.59812897  1
  Li  Li17  1  0.36582769  0.31042854  -0.59812897  1
