# generated using pymatgen
data_LiF
_symmetry_space_group_name_H-M   'P 1'
_cell_length_a   7.69992722
_cell_length_b   7.69992722
_cell_length_c   9.44950615
_cell_angle_alpha   90.00000000
_cell_angle_beta   90.00000000
_cell_angle_gamma   120.00000000
_symmetry_Int_Tables_number   1
_chemical_formula_structural   LiF
_chemical_formula_sum   'Li17 F17'
_cell_volume   485.19127750
_cell_formula_units_Z   17
loop_
 _symmetry_equiv_pos_site_id
 _symmetry_equiv_pos_as_xyz
  1  'x, y, z'
loop_
 _atom_site_type_symbol
 _atom_site_label
 _atom_site_symmetry_multiplicity
 _atom_site_fract_x
 _atom_site_fract_y
 _atom_site_fract_z
 _atom_site_occupancy
  F  F0  1  0.08159658  0.53757037  0.21508959  1
  F  F1  1  -0.53757037  -0.45597379  0.21508959  1
  F  F2  1  0.45597379  -0.08159658  0.21508959  1
  F  F3  1  0.08159658  0.53757037  -0.21508959  1
  F  F4  1  -0.53757037  -0.45597379  -0.21508959  1
  F  F5  1  0.45597379  -0.08159658  -0.21508959  1
  F  F6  1  0.53757037  0.08159658  -0.21508959  1
  F  F7  1  -0.45597379  -0.53757037  -0.21508959  1
  F  F8  1  -0.08159658  0.45597379  -0.21508959  1
  F  F9  1  0.53757037  0.08159658  0.21508959  1
  F  F10  1  -0.45597379  -0.53757037  0.21508959  1
  F  F11  1  -0.08159658  0.45597379  0.21508959  1
  F  F12  1  0.38250439  0.00000000  -0.00000000  1
  F  F13  1  0.00000000  0.38250439  0.00000000  1
  F  F14  1  0.61749561  0.61749561  -0.00000000  1
  F  F15  1  0.33333333  0.66666667  -0.00000000  1
  F  F16  1  0.66666667  0.33333333  -0.00000000  1
  Li  Li17  1  0.00000000  0.00000000  0.83042921  1
  Li  Li18  1  0.00000000  0.00000000  0.16957079  1
  Li  Li19  1  0.33333333  0.66666667  0.15711472  1
  Li  Li20  1  0.33333333  0.66666667  0.84288528  1
  Li  Li21  1  0.66666667  0.33333333  0.84288528  1
  Li  Li22  1  0.66666667  0.33333333  0.15711472  1
  Li  Li23  1  0.00000000  0.00000000  0.50000000  1
  Li  Li24  1  0.78004161  0.00000000  0.85783043  1
  Li  Li25  1  0.00000000  0.78004161  0.85783043  1
  Li  Li26  1  0.21995839  0.21995839  0.85783043  1
  Li  Li27  1  0.78004161  0.00000000  0.14216957  1
  Li  Li28  1  0.00000000  0.78004161  0.14216957  1
  Li  Li29  1  0.21995839  0.21995839  0.14216957  1
  Li  Li30  1  0.49913855  0.00000000  0.50000000  1
  Li  Li31  1  0.00000000  0.49913855  0.50000000  1
  Li  Li32  1  0.50086145  0.50086145  0.50000000  1
  Li  Li33  1  0.00000000  0.00000000  0.00000000  1
