# generated using pymatgen
data_Li3Y2Mo2(As2P)2
_symmetry_space_group_name_H-M   'P 1'
_cell_length_a   5.86361959
_cell_length_b   6.01933385
_cell_length_c   7.09283071
_cell_angle_alpha   92.39479429
_cell_angle_beta   95.63754446
_cell_angle_gamma   100.12869552
_symmetry_Int_Tables_number   1
_chemical_formula_structural   Li3Y2Mo2(As2P)2
_chemical_formula_sum   'Li3 Y2 Mo2 As4 P2'
_cell_volume   244.80247039
_cell_formula_units_Z   1
loop_
 _symmetry_equiv_pos_site_id
 _symmetry_equiv_pos_as_xyz
  1  'x, y, z'
loop_
 _atom_site_type_symbol
 _atom_site_label
 _atom_site_symmetry_multiplicity
 _atom_site_fract_x
 _atom_site_fract_y
 _atom_site_fract_z
 _atom_site_occupancy
  P  P0  1  0.00000000  0.00000000  0.00000000  1
  P  P1  1  0.50000000  0.50000000  0.50000000  1
  Mo  Mo2  1  0.50000000  0.50000000  0.00000000  1
  Mo  Mo3  1  0.50000000  0.00000000  0.50000000  1
  As  As4  1  0.00000000  0.50000000  0.50000000  1
  As  As5  1  0.95123542  0.88506265  0.96846888  1
  As  As6  1  0.70388923  0.98160012  0.26995724  1
  As  As7  1  0.61985483  0.18779190  0.17999719  1
  Li  Li8  1  0.76874286  0.65747896  0.77561007  1
  Li  Li9  1  0.37525819  0.96202980  0.78819620  1
  Li  Li10  1  0.26377205  0.05627012  0.11199300  1
  Y  Y11  1  0.15347209  0.13378709  0.84242968  1
  Y  Y12  1  0.78070417  0.67455259  0.83434156  1
