# generated using pymatgen
data_LiF
_symmetry_space_group_name_H-M   'P 1'
_cell_length_a   8.45604685
_cell_length_b   8.45604685
_cell_length_c   15.39233896
_cell_angle_alpha   90.00000000
_cell_angle_beta   90.00000000
_cell_angle_gamma   90.00000000
_symmetry_Int_Tables_number   1
_chemical_formula_structural   LiF
_chemical_formula_sum   'Li64 F64'
_cell_volume   1100.62501605
_cell_formula_units_Z   64
loop_
 _symmetry_equiv_pos_site_id
 _symmetry_equiv_pos_as_xyz
  1  'x, y, z'
loop_
 _atom_site_type_symbol
 _atom_site_label
 _atom_site_symmetry_multiplicity
 _atom_site_fract_x
 _atom_site_fract_y
 _atom_site_fract_z
 _atom_site_occupancy
  F  F0  1  0.52253864  0.98167633  0.92007887  1
  F  F1  1  0.97746136  0.01832367  0.42007887  1
  F  F2  1  0.26832367  0.27253864  0.17007887  1
  F  F3  1  0.23167633  0.72746136  0.67007887  1
  F  F4  1  0.97746136  0.98167633  0.07992113  1
  F  F5  1  0.52253864  0.01832367  0.57992113  1
  F  F6  1  0.23167633  0.27253864  0.82992113  1
  F  F7  1  0.26832367  0.72746136  0.32992113  1
  F  F8  1  0.47746136  0.01832367  0.07992113  1
  F  F9  1  0.02253864  0.98167633  0.57992113  1
  F  F10  1  0.73167633  0.72746136  0.82992113  1
  F  F11  1  0.76832367  0.27253864  0.32992113  1
  F  F12  1  0.02253864  0.01832367  0.92007887  1
  F  F13  1  0.47746136  0.98167633  0.42007887  1
  F  F14  1  0.76832367  0.72746136  0.17007887  1
  F  F15  1  0.73167633  0.27253864  0.67007887  1
  F  F16  1  0.02253864  0.48167633  0.42007887  1
  F  F17  1  0.47746136  0.51832367  0.92007887  1
  F  F18  1  0.76832367  0.77253864  0.67007887  1
  F  F19  1  0.73167633  0.22746136  0.17007887  1
  F  F20  1  0.47746136  0.48167633  0.57992113  1
  F  F21  1  0.02253864  0.51832367  0.07992113  1
  F  F22  1  0.73167633  0.77253864  0.32992113  1
  F  F23  1  0.76832367  0.22746136  0.82992113  1
  F  F24  1  0.97746136  0.51832367  0.57992113  1
  F  F25  1  0.52253864  0.48167633  0.07992113  1
  F  F26  1  0.23167633  0.22746136  0.32992113  1
  F  F27  1  0.26832367  0.77253864  0.82992113  1
  F  F28  1  0.52253864  0.51832367  0.42007887  1
  F  F29  1  0.97746136  0.48167633  0.92007887  1
  F  F30  1  0.26832367  0.22746136  0.67007887  1
  F  F31  1  0.23167633  0.77253864  0.17007887  1
  F  F32  1  0.30502753  0.57690962  0.33957232  1
  F  F33  1  0.19497247  0.42309038  0.83957232  1
  F  F34  1  0.67309038  0.05502753  0.58957232  1
  F  F35  1  0.82690962  0.94497247  0.08957232  1
  F  F36  1  0.19497247  0.57690962  0.66042768  1
  F  F37  1  0.30502753  0.42309038  0.16042768  1
  F  F38  1  0.82690962  0.05502753  0.41042768  1
  F  F39  1  0.67309038  0.94497247  0.91042768  1
  F  F40  1  0.69497247  0.42309038  0.66042768  1
  F  F41  1  0.80502753  0.57690962  0.16042768  1
  F  F42  1  0.32690962  0.94497247  0.41042768  1
  F  F43  1  0.17309038  0.05502753  0.91042768  1
  F  F44  1  0.80502753  0.42309038  0.33957232  1
  F  F45  1  0.69497247  0.57690962  0.83957232  1
  F  F46  1  0.17309038  0.94497247  0.58957232  1
  F  F47  1  0.32690962  0.05502753  0.08957232  1
  F  F48  1  0.80502753  0.07690962  0.83957232  1
  F  F49  1  0.69497247  0.92309038  0.33957232  1
  F  F50  1  0.17309038  0.55502753  0.08957232  1
  F  F51  1  0.32690962  0.44497247  0.58957232  1
  F  F52  1  0.69497247  0.07690962  0.16042768  1
  F  F53  1  0.80502753  0.92309038  0.66042768  1
  F  F54  1  0.32690962  0.55502753  0.91042768  1
  F  F55  1  0.17309038  0.44497247  0.41042768  1
  F  F56  1  0.19497247  0.92309038  0.16042768  1
  F  F57  1  0.30502753  0.07690962  0.66042768  1
  F  F58  1  0.82690962  0.44497247  0.91042768  1
  F  F59  1  0.67309038  0.55502753  0.41042768  1
  F  F60  1  0.30502753  0.92309038  0.83957232  1
  F  F61  1  0.19497247  0.07690962  0.33957232  1
  F  F62  1  0.67309038  0.44497247  0.08957232  1
  F  F63  1  0.82690962  0.55502753  0.58957232  1
  Li  Li64  1  0.72152974  0.00000000  0.25000000  1
  Li  Li65  1  0.77847026  0.00000000  0.75000000  1
  Li  Li66  1  0.25000000  0.47152974  0.50000000  1
  Li  Li67  1  0.25000000  0.52847026  0.00000000  1
  Li  Li68  1  0.27847026  0.00000000  0.75000000  1
  Li  Li69  1  0.22152974  0.00000000  0.25000000  1
  Li  Li70  1  0.75000000  0.52847026  0.50000000  1
  Li  Li71  1  0.75000000  0.47152974  -0.00000000  1
  Li  Li72  1  0.22152974  0.50000000  0.75000000  1
  Li  Li73  1  0.27847026  0.50000000  0.25000000  1
  Li  Li74  1  0.75000000  0.97152974  0.00000000  1
  Li  Li75  1  0.75000000  0.02847026  0.50000000  1
  Li  Li76  1  0.77847026  0.50000000  0.25000000  1
  Li  Li77  1  0.72152974  0.50000000  0.75000000  1
  Li  Li78  1  0.25000000  0.02847026  -0.00000000  1
  Li  Li79  1  0.25000000  0.97152974  0.50000000  1
  Li  Li80  1  0.30267302  0.11717427  0.14490769  1
  Li  Li81  1  0.19732698  -0.11717427  0.64490769  1
  Li  Li82  1  0.13282573  1.05267302  0.39490769  1
  Li  Li83  1  0.36717427  -0.05267302  0.89490769  1
  Li  Li84  1  0.19732698  0.11717427  -0.14490769  1
  Li  Li85  1  0.30267302  -0.11717427  0.35509231  1
  Li  Li86  1  0.36717427  1.05267302  0.60509231  1
  Li  Li87  1  0.13282573  -0.05267302  0.10509231  1
  Li  Li88  1  -0.30267302  -0.11717427  -0.14490769  1
  Li  Li89  1  0.80267302  0.11717427  0.35509231  1
  Li  Li90  1  0.86717427  -0.05267302  0.60509231  1
  Li  Li91  1  0.63282573  1.05267302  0.10509231  1
  Li  Li92  1  0.80267302  -0.11717427  0.14490769  1
  Li  Li93  1  -0.30267302  0.11717427  0.64490769  1
  Li  Li94  1  0.63282573  -0.05267302  0.39490769  1
  Li  Li95  1  0.86717427  1.05267302  0.89490769  1
  Li  Li96  1  0.80267302  0.61717427  0.64490769  1
  Li  Li97  1  0.69732698  0.38282573  1.14490769  1
  Li  Li98  1  0.63282573  1.55267302  0.89490769  1
  Li  Li99  1  0.86717427  0.44732698  1.39490769  1
  Li  Li100  1  0.69732698  0.61717427  0.35509231  1
  Li  Li101  1  0.80267302  0.38282573  0.85509231  1
  Li  Li102  1  0.86717427  1.55267302  1.10509231  1
  Li  Li103  1  0.63282573  0.44732698  0.60509231  1
  Li  Li104  1  0.19732698  0.38282573  0.35509231  1
  Li  Li105  1  1.30267302  0.61717427  0.85509231  1
  Li  Li106  1  1.36717427  0.44732698  1.10509231  1
  Li  Li107  1  1.13282573  1.55267302  0.60509231  1
  Li  Li108  1  1.30267302  0.38282573  0.64490769  1
  Li  Li109  1  0.19732698  0.61717427  1.14490769  1
  Li  Li110  1  1.13282573  0.44732698  0.89490769  1
  Li  Li111  1  1.36717427  1.55267302  1.39490769  1
  Li  Li112  1  0.00000000  0.25000000  0.92412129  1
  Li  Li113  1  0.00000000  0.75000000  0.17412129  1
  Li  Li114  1  0.50000000  0.25000000  0.07587871  1
  Li  Li115  1  0.50000000  0.75000000  0.82587871  1
  Li  Li116  1  0.00000000  0.75000000  0.07587871  1
  Li  Li117  1  0.00000000  0.25000000  0.82587871  1
  Li  Li118  1  0.50000000  0.75000000  0.92412129  1
  Li  Li119  1  0.50000000  0.25000000  0.17412129  1
  Li  Li120  1  0.50000000  0.75000000  0.42412129  1
  Li  Li121  1  0.50000000  0.25000000  0.67412129  1
  Li  Li122  1  0.00000000  0.75000000  0.57587871  1
  Li  Li123  1  0.00000000  0.25000000  0.32587871  1
  Li  Li124  1  0.50000000  0.25000000  0.57587871  1
  Li  Li125  1  0.50000000  0.75000000  0.32587871  1
  Li  Li126  1  0.00000000  0.25000000  0.42412129  1
  Li  Li127  1  0.00000000  0.75000000  0.67412129  1
