# generated using pymatgen
data_LiY2Te4(As2P)2
_symmetry_space_group_name_H-M   'P 1'
_cell_length_a   5.00293581
_cell_length_b   5.14988917
_cell_length_c   6.86283304
_cell_angle_alpha   94.68306459
_cell_angle_beta   99.45929300
_cell_angle_gamma   107.65035891
_symmetry_Int_Tables_number   1
_chemical_formula_structural   LiY2Te4(As2P)2
_chemical_formula_sum   'Li1 Y2 Te4 As4 P2'
_cell_volume   164.56919929
_cell_formula_units_Z   1
loop_
 _symmetry_equiv_pos_site_id
 _symmetry_equiv_pos_as_xyz
  1  'x, y, z'
loop_
 _atom_site_type_symbol
 _atom_site_label
 _atom_site_symmetry_multiplicity
 _atom_site_fract_x
 _atom_site_fract_y
 _atom_site_fract_z
 _atom_site_occupancy
  Te  Te0  1  0.12500000  0.00000000  0.25000000  1
  Te  Te1  1  0.00000000  0.00000000  0.00000000  1
  Te  Te2  1  0.37500000  0.00000000  0.25000000  1
  Te  Te3  1  0.25000000  0.25000000  0.25000000  1
  Y  Y4  1  0.00000000  0.25000000  0.12500000  1
  Y  Y5  1  0.31269440  0.72756815  0.83647132  1
  P  P6  1  0.90867945  0.04657706  0.32537904  1
  P  P7  1  0.08411886  0.94637473  0.67264430  1
  As  As8  1  0.41116784  0.47868599  0.73675932  1
  As  As9  1  0.94108659  0.27145451  0.12527636  1
  As  As10  1  0.84456961  0.72118501  0.34065708  1
  As  As11  1  0.39597440  0.15812697  0.71874797  1
  Li  Li12  1  0.07817392  0.39866761  0.27912573  1
