# generated using pymatgen
data_Li7CaSeF7
_symmetry_space_group_name_H-M   'P 1'
_cell_length_a   16.17517226
_cell_length_b   10.68221226
_cell_length_c   6.79374747
_cell_angle_alpha   90.00000000
_cell_angle_beta   90.00000000
_cell_angle_gamma   90.00000000
_symmetry_Int_Tables_number   1
_chemical_formula_structural   Li7CaSeF7
_chemical_formula_sum   'Li28 Ca4 Se4 F28'
_cell_volume   1173.86868552
_cell_formula_units_Z   4
loop_
 _symmetry_equiv_pos_site_id
 _symmetry_equiv_pos_as_xyz
  1  'x, y, z'
loop_
 _atom_site_type_symbol
 _atom_site_label
 _atom_site_symmetry_multiplicity
 _atom_site_fract_x
 _atom_site_fract_y
 _atom_site_fract_z
 _atom_site_occupancy
  Ca  Ca0  1  0.13094690  0.25000000  0.20832999  1
  Ca  Ca1  1  0.36905310  0.75000000  0.70832999  1
  Ca  Ca2  1  0.86905310  0.75000000  0.79167001  1
  Ca  Ca3  1  0.63094690  0.25000000  0.29167001  1
  F  F4  1  0.78817704  0.60259382  0.63752716  1
  F  F5  1  -0.28817704  -0.60259382  1.13752716  1
  F  F6  1  -0.78817704  1.10259382  -0.63752716  1
  F  F7  1  1.28817704  -0.10259382  -0.13752716  1
  F  F8  1  -0.78817704  -0.60259382  -0.63752716  1
  F  F9  1  1.28817704  0.60259382  -0.13752716  1
  F  F10  1  0.78817704  -0.10259382  0.63752716  1
  F  F11  1  -0.28817704  1.10259382  1.13752716  1
  F  F12  1  0.58829081  0.54974033  0.15897345  1
  F  F13  1  0.91170919  0.45025967  0.65897345  1
  F  F14  1  0.41170919  0.04974033  0.84102655  1
  F  F15  1  0.08829081  0.95025967  0.34102655  1
  F  F16  1  0.41170919  0.45025967  0.84102655  1
  F  F17  1  0.08829081  0.54974033  0.34102655  1
  F  F18  1  0.58829081  0.95025967  0.15897345  1
  F  F19  1  0.91170919  0.04974033  0.65897345  1
  F  F20  1  0.49319924  0.41139219  0.87951087  1
  F  F21  1  0.00680076  0.58860781  0.37951087  1
  F  F22  1  0.50680076  0.91139219  0.12048913  1
  F  F23  1  0.99319924  0.08860781  0.62048913  1
  F  F24  1  0.50680076  0.58860781  0.12048913  1
  F  F25  1  0.99319924  0.41139219  0.62048913  1
  F  F26  1  0.49319924  0.08860781  0.87951087  1
  F  F27  1  0.00680076  0.91139219  0.37951087  1
  F  F28  1  0.10359720  0.25000000  0.56781610  1
  F  F29  1  0.39640280  0.75000000  0.06781610  1
  F  F30  1  0.89640280  0.75000000  0.43218390  1
  F  F31  1  0.60359720  0.25000000  0.93218390  1
  Li  Li32  1  0.39821668  0.95663793  0.70446960  1
  Li  Li33  1  0.10178332  0.04336207  0.20446960  1
  Li  Li34  1  0.60178332  0.45663793  0.29553040  1
  Li  Li35  1  0.89821668  0.54336207  0.79553040  1
  Li  Li36  1  0.60178332  0.04336207  0.29553040  1
  Li  Li37  1  0.89821668  0.95663793  0.79553040  1
  Li  Li38  1  0.39821668  0.54336207  0.70446960  1
  Li  Li39  1  0.10178332  0.45663793  0.20446960  1
  Li  Li40  1  0.31486167  0.15473468  0.46813841  1
  Li  Li41  1  0.18513833  0.84526532  0.96813841  1
  Li  Li42  1  0.68513833  0.65473468  0.53186159  1
  Li  Li43  1  0.81486167  0.34526532  0.03186159  1
  Li  Li44  1  0.68513833  0.84526532  0.53186159  1
  Li  Li45  1  0.81486167  0.15473468  0.03186159  1
  Li  Li46  1  0.31486167  0.34526532  0.46813841  1
  Li  Li47  1  0.18513833  0.65473468  0.96813841  1
  Li  Li48  1  0.00000000  0.00000000  0.50000000  1
  Li  Li49  1  0.50000000  0.00000000  0.00000000  1
  Li  Li50  1  0.00000000  0.50000000  0.50000000  1
  Li  Li51  1  0.50000000  0.50000000  -0.00000000  1
  Li  Li52  1  0.18064910  0.54838603  0.09917209  1
  Li  Li53  1  0.31935090  0.45161397  0.59917209  1
  Li  Li54  1  0.81935090  0.04838603  0.90082791  1
  Li  Li55  1  0.68064910  0.95161397  0.40082791  1
  Li  Li56  1  0.81935090  0.45161397  0.90082791  1
  Li  Li57  1  0.68064910  0.54838603  0.40082791  1
  Li  Li58  1  0.18064910  0.95161397  0.09917209  1
  Li  Li59  1  0.31935090  0.04838603  0.59917209  1
  Se  Se60  1  0.73239640  0.25000000  0.72439411  1
  Se  Se61  1  0.76760360  0.75000000  0.22439411  1
  Se  Se62  1  0.26760360  0.75000000  0.27560589  1
  Se  Se63  1  0.23239640  0.25000000  0.77560589  1
