# generated using pymatgen
data_LiF
_symmetry_space_group_name_H-M   'P 1'
_cell_length_a   14.32148346
_cell_length_b   12.77371047
_cell_length_c   6.88245692
_cell_angle_alpha   90.00000000
_cell_angle_beta   90.00000000
_cell_angle_gamma   90.00000000
_symmetry_Int_Tables_number   1
_chemical_formula_structural   LiF
_chemical_formula_sum   'Li36 F36'
_cell_volume   1259.06622945
_cell_formula_units_Z   36
loop_
 _symmetry_equiv_pos_site_id
 _symmetry_equiv_pos_as_xyz
  1  'x, y, z'
loop_
 _atom_site_type_symbol
 _atom_site_label
 _atom_site_symmetry_multiplicity
 _atom_site_fract_x
 _atom_site_fract_y
 _atom_site_fract_z
 _atom_site_occupancy
  F  F0  1  0.50653418  0.39533968  0.86764419  1
  F  F1  1  0.49346582  0.60466032  0.86764419  1
  F  F2  1  0.99346582  0.89533968  0.13235581  1
  F  F3  1  0.00653418  0.10466032  0.13235581  1
  F  F4  1  0.49346582  0.60466032  0.13235581  1
  F  F5  1  0.50653418  0.39533968  0.13235581  1
  F  F6  1  0.00653418  0.10466032  0.86764419  1
  F  F7  1  0.99346582  0.89533968  0.86764419  1
  F  F8  1  0.00000000  0.50000000  0.00000000  1
  F  F9  1  0.50000000  0.00000000  0.00000000  1
  F  F10  1  0.73187136  0.35503811  0.50000000  1
  F  F11  1  0.26812864  0.64496189  0.50000000  1
  F  F12  1  0.76812864  0.85503811  0.50000000  1
  F  F13  1  0.23187136  0.14496189  0.50000000  1
  F  F14  1  0.40150117  0.41320785  0.20604728  1
  F  F15  1  0.59849883  0.58679215  0.20604728  1
  F  F16  1  0.09849883  0.91320785  0.79395272  1
  F  F17  1  0.90150117  0.08679215  0.79395272  1
  F  F18  1  0.59849883  0.58679215  0.79395272  1
  F  F19  1  0.40150117  0.41320785  0.79395272  1
  F  F20  1  0.90150117  0.08679215  0.20604728  1
  F  F21  1  0.09849883  0.91320785  0.20604728  1
  F  F22  1  0.40995502  0.08009550  0.95282701  1
  F  F23  1  0.59004498  0.91990450  0.95282701  1
  F  F24  1  0.09004498  0.58009550  0.04717299  1
  F  F25  1  0.90995502  0.41990450  0.04717299  1
  F  F26  1  0.59004498  0.91990450  0.04717299  1
  F  F27  1  0.40995502  0.08009550  0.04717299  1
  F  F28  1  0.90995502  0.41990450  0.95282701  1
  F  F29  1  0.09004498  0.58009550  0.95282701  1
  F  F30  1  0.00000000  0.00000000  0.38343425  1
  F  F31  1  0.50000000  0.50000000  0.61656575  1
  F  F32  1  0.00000000  0.00000000  0.61656575  1
  F  F33  1  0.50000000  0.50000000  0.38343425  1
  F  F34  1  0.00000000  0.00000000  0.50000000  1
  F  F35  1  0.50000000  0.50000000  0.50000000  1
  Li  Li36  1  0.46539795  0.25618923  0.38327777  1
  Li  Li37  1  -0.46539795  -0.25618923  0.38327777  1
  Li  Li38  1  0.03460205  0.75618923  -0.38327777  1
  Li  Li39  1  0.96539795  0.24381077  -0.38327777  1
  Li  Li40  1  -0.46539795  -0.25618923  -0.38327777  1
  Li  Li41  1  0.46539795  0.25618923  -0.38327777  1
  Li  Li42  1  0.96539795  0.24381077  0.38327777  1
  Li  Li43  1  0.03460205  0.75618923  0.38327777  1
  Li  Li44  1  0.00000000  0.50000000  0.17069214  1
  Li  Li45  1  0.50000000  0.00000000  0.82930786  1
  Li  Li46  1  0.00000000  0.50000000  0.82930786  1
  Li  Li47  1  0.50000000  0.00000000  0.17069214  1
  Li  Li48  1  0.93710684  0.41515511  0.39936475  1
  Li  Li49  1  0.06289316  0.58484489  0.39936475  1
  Li  Li50  1  0.56289316  0.91515511  0.60063525  1
  Li  Li51  1  0.43710684  0.08484489  0.60063525  1
  Li  Li52  1  0.06289316  0.58484489  0.60063525  1
  Li  Li53  1  0.93710684  0.41515511  0.60063525  1
  Li  Li54  1  0.43710684  0.08484489  0.39936475  1
  Li  Li55  1  0.56289316  0.91515511  0.39936475  1
  Li  Li56  1  0.77159768  0.11652652  0.27517993  1
  Li  Li57  1  0.22840232  0.88347348  0.27517993  1
  Li  Li58  1  0.72840232  0.61652652  0.72482007  1
  Li  Li59  1  0.27159768  0.38347348  0.72482007  1
  Li  Li60  1  0.22840232  0.88347348  0.72482007  1
  Li  Li61  1  0.77159768  0.11652652  0.72482007  1
  Li  Li62  1  0.27159768  0.38347348  0.27517993  1
  Li  Li63  1  0.72840232  0.61652652  0.27517993  1
  Li  Li64  1  0.68991763  0.90477215  0.14746020  1
  Li  Li65  1  0.31008237  0.09522785  0.14746020  1
  Li  Li66  1  0.81008237  0.40477215  0.85253980  1
  Li  Li67  1  0.18991763  0.59522785  0.85253980  1
  Li  Li68  1  0.31008237  0.09522785  0.85253980  1
  Li  Li69  1  0.68991763  0.90477215  0.85253980  1
  Li  Li70  1  0.18991763  0.59522785  0.14746020  1
  Li  Li71  1  0.81008237  0.40477215  0.14746020  1
