# generated using pymatgen
data_LiYP
_symmetry_space_group_name_H-M   'P 1'
_cell_length_a   3.96329754
_cell_length_b   4.16241258
_cell_length_c   6.74248993
_cell_angle_alpha   96.56684893
_cell_angle_beta   104.30123174
_cell_angle_gamma   116.37642219
_symmetry_Int_Tables_number   1
_chemical_formula_structural   LiYP
_chemical_formula_sum   'Li2 Y2 P2'
_cell_volume   93.28937607
_cell_formula_units_Z   2
loop_
 _symmetry_equiv_pos_site_id
 _symmetry_equiv_pos_as_xyz
  1  'x, y, z'
loop_
 _atom_site_type_symbol
 _atom_site_label
 _atom_site_symmetry_multiplicity
 _atom_site_fract_x
 _atom_site_fract_y
 _atom_site_fract_z
 _atom_site_occupancy
  P  P0  1  0.12500000  0.12500000  0.12500000  1
  P  P1  1  0.50000000  0.50000000  0.50000000  1
  Li  Li2  1  0.25000000  0.25000000  0.25000000  1
  Li  Li3  1  0.75000000  0.75000000  0.75000000  1
  Y  Y4  1  0.78204984  0.63287378  0.29486545  1
  Y  Y5  1  0.36881784  0.12941264  0.52393342  1
