# generated using pymatgen
data_LiF
_symmetry_space_group_name_H-M   'P 1'
_cell_length_a   9.80170185
_cell_length_b   9.80170185
_cell_length_c   18.57935328
_cell_angle_alpha   90.00000000
_cell_angle_beta   90.00000000
_cell_angle_gamma   90.00000000
_symmetry_Int_Tables_number   1
_chemical_formula_structural   LiF
_chemical_formula_sum   'Li64 F64'
_cell_volume   1784.98088104
_cell_formula_units_Z   64
loop_
 _symmetry_equiv_pos_site_id
 _symmetry_equiv_pos_as_xyz
  1  'x, y, z'
loop_
 _atom_site_type_symbol
 _atom_site_label
 _atom_site_symmetry_multiplicity
 _atom_site_fract_x
 _atom_site_fract_y
 _atom_site_fract_z
 _atom_site_occupancy
  F  F0  1  0.44717169  0.02993495  0.21687303  1
  F  F1  1  0.05282831  0.97006505  0.71687303  1
  F  F2  1  0.22006505  0.19717169  0.46687303  1
  F  F3  1  0.27993495  0.80282831  0.96687303  1
  F  F4  1  0.05282831  0.02993495  0.78312697  1
  F  F5  1  0.44717169  0.97006505  0.28312697  1
  F  F6  1  0.27993495  0.19717169  0.53312697  1
  F  F7  1  0.22006505  0.80282831  0.03312697  1
  F  F8  1  0.55282831  0.97006505  0.78312697  1
  F  F9  1  0.94717169  0.02993495  0.28312697  1
  F  F10  1  0.77993495  0.80282831  0.53312697  1
  F  F11  1  0.72006505  0.19717169  0.03312697  1
  F  F12  1  0.94717169  0.97006505  0.21687303  1
  F  F13  1  0.55282831  0.02993495  0.71687303  1
  F  F14  1  0.72006505  0.80282831  0.46687303  1
  F  F15  1  0.77993495  0.19717169  0.96687303  1
  F  F16  1  0.94717169  0.52993495  0.71687303  1
  F  F17  1  0.55282831  0.47006505  0.21687303  1
  F  F18  1  0.72006505  0.69717169  0.96687303  1
  F  F19  1  0.77993495  0.30282831  0.46687303  1
  F  F20  1  0.55282831  0.52993495  0.28312697  1
  F  F21  1  0.94717169  0.47006505  0.78312697  1
  F  F22  1  0.77993495  0.69717169  0.03312697  1
  F  F23  1  0.72006505  0.30282831  0.53312697  1
  F  F24  1  0.05282831  0.47006505  0.28312697  1
  F  F25  1  0.44717169  0.52993495  0.78312697  1
  F  F26  1  0.27993495  0.30282831  0.03312697  1
  F  F27  1  0.22006505  0.69717169  0.53312697  1
  F  F28  1  0.44717169  0.47006505  0.71687303  1
  F  F29  1  0.05282831  0.52993495  0.21687303  1
  F  F30  1  0.22006505  0.30282831  0.96687303  1
  F  F31  1  0.27993495  0.69717169  0.46687303  1
  F  F32  1  0.35421166  0.69541046  0.47138630  1
  F  F33  1  0.14578834  0.30458954  0.97138630  1
  F  F34  1  0.55458954  0.10421166  0.72138630  1
  F  F35  1  0.94541046  0.89578834  0.22138630  1
  F  F36  1  0.14578834  0.69541046  0.52861370  1
  F  F37  1  0.35421166  0.30458954  0.02861370  1
  F  F38  1  0.94541046  0.10421166  0.27861370  1
  F  F39  1  0.55458954  0.89578834  0.77861370  1
  F  F40  1  0.64578834  0.30458954  0.52861370  1
  F  F41  1  0.85421166  0.69541046  0.02861370  1
  F  F42  1  0.44541046  0.89578834  0.27861370  1
  F  F43  1  0.05458954  0.10421166  0.77861370  1
  F  F44  1  0.85421166  0.30458954  0.47138630  1
  F  F45  1  0.64578834  0.69541046  0.97138630  1
  F  F46  1  0.05458954  0.89578834  0.72138630  1
  F  F47  1  0.44541046  0.10421166  0.22138630  1
  F  F48  1  0.85421166  0.19541046  0.97138630  1
  F  F49  1  0.64578834  0.80458954  0.47138630  1
  F  F50  1  0.05458954  0.60421166  0.22138630  1
  F  F51  1  0.44541046  0.39578834  0.72138630  1
  F  F52  1  0.64578834  0.19541046  0.02861370  1
  F  F53  1  0.85421166  0.80458954  0.52861370  1
  F  F54  1  0.44541046  0.60421166  0.77861370  1
  F  F55  1  0.05458954  0.39578834  0.27861370  1
  F  F56  1  0.14578834  0.80458954  0.02861370  1
  F  F57  1  0.35421166  0.19541046  0.52861370  1
  F  F58  1  0.94541046  0.39578834  0.77861370  1
  F  F59  1  0.55458954  0.60421166  0.27861370  1
  F  F60  1  0.35421166  0.80458954  0.97138630  1
  F  F61  1  0.14578834  0.19541046  0.47138630  1
  F  F62  1  0.55458954  0.39578834  0.22138630  1
  F  F63  1  0.94541046  0.60421166  0.72138630  1
  Li  Li64  1  0.00000000  0.25000000  0.12500000  1
  Li  Li65  1  0.00000000  0.75000000  0.37500000  1
  Li  Li66  1  0.00000000  0.75000000  0.87500000  1
  Li  Li67  1  0.00000000  0.25000000  0.62500000  1
  Li  Li68  1  0.50000000  0.75000000  0.62500000  1
  Li  Li69  1  0.50000000  0.25000000  0.87500000  1
  Li  Li70  1  0.50000000  0.25000000  0.37500000  1
  Li  Li71  1  0.50000000  0.75000000  0.12500000  1
  Li  Li72  1  0.00000000  0.00000000  0.00000000  1
  Li  Li73  1  0.50000000  0.00000000  0.50000000  1
  Li  Li74  1  0.25000000  0.75000000  0.25000000  1
  Li  Li75  1  0.25000000  0.25000000  0.75000000  1
  Li  Li76  1  0.50000000  0.00000000  0.00000000  1
  Li  Li77  1  0.00000000  0.00000000  0.50000000  1
  Li  Li78  1  0.25000000  0.75000000  0.75000000  1
  Li  Li79  1  0.25000000  0.25000000  0.25000000  1
  Li  Li80  1  0.50000000  0.50000000  0.50000000  1
  Li  Li81  1  0.00000000  0.50000000  0.00000000  1
  Li  Li82  1  0.75000000  0.25000000  0.75000000  1
  Li  Li83  1  0.75000000  0.75000000  0.25000000  1
  Li  Li84  1  0.00000000  0.50000000  0.50000000  1
  Li  Li85  1  0.50000000  0.50000000  0.00000000  1
  Li  Li86  1  0.75000000  0.25000000  0.25000000  1
  Li  Li87  1  0.75000000  0.75000000  0.75000000  1
  Li  Li88  1  0.80202837  0.36908695  0.87117611  1
  Li  Li89  1  -0.30202837  -0.36908695  1.37117611  1
  Li  Li90  1  -0.11908695  1.55202837  1.12117611  1
  Li  Li91  1  0.61908695  -0.55202837  1.62117611  1
  Li  Li92  1  -0.30202837  0.36908695  -0.87117611  1
  Li  Li93  1  0.80202837  -0.36908695  -0.37117611  1
  Li  Li94  1  0.61908695  1.55202837  -0.12117611  1
  Li  Li95  1  -0.11908695  -0.55202837  -0.62117611  1
  Li  Li96  1  -0.80202837  -0.36908695  -0.87117611  1
  Li  Li97  1  1.30202837  0.36908695  -0.37117611  1
  Li  Li98  1  1.11908695  -0.55202837  -0.12117611  1
  Li  Li99  1  0.38091305  1.55202837  -0.62117611  1
  Li  Li100  1  1.30202837  -0.36908695  0.87117611  1
  Li  Li101  1  -0.80202837  0.36908695  1.37117611  1
  Li  Li102  1  0.38091305  -0.55202837  1.12117611  1
  Li  Li103  1  1.11908695  1.55202837  1.62117611  1
  Li  Li104  1  1.30202837  0.86908695  1.37117611  1
  Li  Li105  1  0.19797163  0.13091305  1.87117611  1
  Li  Li106  1  0.38091305  2.05202837  1.62117611  1
  Li  Li107  1  1.11908695  -0.05202837  2.12117611  1
  Li  Li108  1  0.19797163  0.86908695  -0.37117611  1
  Li  Li109  1  1.30202837  0.13091305  0.12882389  1
  Li  Li110  1  1.11908695  2.05202837  0.37882389  1
  Li  Li111  1  0.38091305  -0.05202837  -0.12117611  1
  Li  Li112  1  -0.30202837  0.13091305  -0.37117611  1
  Li  Li113  1  1.80202837  0.86908695  0.12882389  1
  Li  Li114  1  1.61908695  -0.05202837  0.37882389  1
  Li  Li115  1  0.88091305  2.05202837  -0.12117611  1
  Li  Li116  1  1.80202837  0.13091305  1.37117611  1
  Li  Li117  1  -0.30202837  0.86908695  1.87117611  1
  Li  Li118  1  0.88091305  -0.05202837  1.62117611  1
  Li  Li119  1  1.61908695  2.05202837  2.12117611  1
  Li  Li120  1  0.00000000  0.25000000  0.37500000  1
  Li  Li121  1  0.00000000  0.75000000  0.62500000  1
  Li  Li122  1  0.50000000  0.25000000  0.62500000  1
  Li  Li123  1  0.50000000  0.75000000  0.37500000  1
  Li  Li124  1  0.50000000  0.75000000  0.87500000  1
  Li  Li125  1  0.50000000  0.25000000  0.12500000  1
  Li  Li126  1  0.00000000  0.75000000  0.12500000  1
  Li  Li127  1  0.00000000  0.25000000  0.87500000  1
