# generated using pymatgen
data_Li2AlAs2(P2Se)2
_symmetry_space_group_name_H-M   'P 1'
_cell_length_a   5.29900140
_cell_length_b   5.23724532
_cell_length_c   7.46990842
_cell_angle_alpha   94.35800220
_cell_angle_beta   99.49082279
_cell_angle_gamma   107.50436280
_symmetry_Int_Tables_number   1
_chemical_formula_structural   Li2AlAs2(P2Se)2
_chemical_formula_sum   'Li2 Al1 As2 P4 Se2'
_cell_volume   193.25474903
_cell_formula_units_Z   1
loop_
 _symmetry_equiv_pos_site_id
 _symmetry_equiv_pos_as_xyz
  1  'x, y, z'
loop_
 _atom_site_type_symbol
 _atom_site_label
 _atom_site_symmetry_multiplicity
 _atom_site_fract_x
 _atom_site_fract_y
 _atom_site_fract_z
 _atom_site_occupancy
  Al  Al0  1  0.00000000  0.00000000  0.00000000  1
  Se  Se1  1  0.50000000  0.50000000  0.50000000  1
  Se  Se2  1  0.25000000  0.25000000  0.25000000  1
  P  P3  1  0.75000000  0.25000000  0.00000000  1
  P  P4  1  0.25000000  0.75000000  0.50000000  1
  P  P5  1  0.21274848  0.09582589  0.20922654  1
  P  P6  1  0.53678713  0.29061314  0.47257058  1
  As  As7  1  0.06709188  0.36216886  0.09714553  1
  As  As8  1  0.23346385  0.30117612  0.78130244  1
  Li  Li9  1  0.10422658  0.22396816  0.81189996  1
  Li  Li10  1  0.40469154  0.16467939  0.58661426  1
