# generated using pymatgen
data_LiF
_symmetry_space_group_name_H-M   'P 1'
_cell_length_a   23.89874122
_cell_length_b   23.89874122
_cell_length_c   2.71946690
_cell_angle_alpha   90.00000000
_cell_angle_beta   90.00000000
_cell_angle_gamma   90.00000000
_symmetry_Int_Tables_number   1
_chemical_formula_structural   LiF
_chemical_formula_sum   'Li64 F64'
_cell_volume   1553.22306032
_cell_formula_units_Z   64
loop_
 _symmetry_equiv_pos_site_id
 _symmetry_equiv_pos_as_xyz
  1  'x, y, z'
loop_
 _atom_site_type_symbol
 _atom_site_label
 _atom_site_symmetry_multiplicity
 _atom_site_fract_x
 _atom_site_fract_y
 _atom_site_fract_z
 _atom_site_occupancy
  F  F0  1  0.36835129  0.40394478  0.66501671  1
  F  F1  1  0.13164871  -0.40394478  1.16501671  1
  F  F2  1  -0.15394478  1.11835129  0.91501671  1
  F  F3  1  0.65394478  -0.11835129  1.41501671  1
  F  F4  1  0.13164871  0.40394478  -0.66501671  1
  F  F5  1  0.36835129  -0.40394478  -0.16501671  1
  F  F6  1  0.65394478  1.11835129  0.08498329  1
  F  F7  1  -0.15394478  -0.11835129  -0.41501671  1
  F  F8  1  -0.36835129  -0.40394478  -0.66501671  1
  F  F9  1  0.86835129  0.40394478  -0.16501671  1
  F  F10  1  1.15394478  -0.11835129  0.08498329  1
  F  F11  1  0.34605522  1.11835129  -0.41501671  1
  F  F12  1  0.86835129  -0.40394478  0.66501671  1
  F  F13  1  -0.36835129  0.40394478  1.16501671  1
  F  F14  1  0.34605522  -0.11835129  0.91501671  1
  F  F15  1  1.15394478  1.11835129  1.41501671  1
  F  F16  1  0.86835129  0.90394478  1.16501671  1
  F  F17  1  0.63164871  0.09605522  1.66501671  1
  F  F18  1  0.34605522  1.61835129  1.41501671  1
  F  F19  1  1.15394478  0.38164871  1.91501671  1
  F  F20  1  0.63164871  0.90394478  -0.16501671  1
  F  F21  1  0.86835129  0.09605522  0.33498329  1
  F  F22  1  1.15394478  1.61835129  0.58498329  1
  F  F23  1  0.34605522  0.38164871  0.08498329  1
  F  F24  1  0.13164871  0.09605522  -0.16501671  1
  F  F25  1  1.36835129  0.90394478  0.33498329  1
  F  F26  1  1.65394478  0.38164871  0.58498329  1
  F  F27  1  0.84605522  1.61835129  0.08498329  1
  F  F28  1  1.36835129  0.09605522  1.16501671  1
  F  F29  1  0.13164871  0.90394478  1.66501671  1
  F  F30  1  0.84605522  0.38164871  1.41501671  1
  F  F31  1  1.65394478  1.61835129  1.91501671  1
  F  F32  1  0.00000000  0.25000000  0.12500000  1
  F  F33  1  0.00000000  0.75000000  0.37500000  1
  F  F34  1  0.00000000  0.75000000  0.87500000  1
  F  F35  1  0.00000000  0.25000000  0.62500000  1
  F  F36  1  0.50000000  0.75000000  0.62500000  1
  F  F37  1  0.50000000  0.25000000  0.87500000  1
  F  F38  1  0.50000000  0.25000000  0.37500000  1
  F  F39  1  0.50000000  0.75000000  0.12500000  1
  F  F40  1  0.00000000  0.25000000  0.37500000  1
  F  F41  1  0.00000000  0.75000000  0.62500000  1
  F  F42  1  0.50000000  0.25000000  0.62500000  1
  F  F43  1  0.50000000  0.75000000  0.37500000  1
  F  F44  1  0.50000000  0.75000000  0.87500000  1
  F  F45  1  0.50000000  0.25000000  0.12500000  1
  F  F46  1  0.00000000  0.75000000  0.12500000  1
  F  F47  1  0.00000000  0.25000000  0.87500000  1
  F  F48  1  0.00000000  0.00000000  0.00000000  1
  F  F49  1  0.50000000  0.00000000  0.50000000  1
  F  F50  1  0.25000000  0.75000000  0.25000000  1
  F  F51  1  0.25000000  0.25000000  0.75000000  1
  F  F52  1  0.50000000  0.00000000  0.00000000  1
  F  F53  1  0.00000000  0.00000000  0.50000000  1
  F  F54  1  0.25000000  0.75000000  0.75000000  1
  F  F55  1  0.25000000  0.25000000  0.25000000  1
  F  F56  1  0.50000000  0.50000000  0.50000000  1
  F  F57  1  0.00000000  0.50000000  0.00000000  1
  F  F58  1  0.75000000  0.25000000  0.75000000  1
  F  F59  1  0.75000000  0.75000000  0.25000000  1
  F  F60  1  0.00000000  0.50000000  0.50000000  1
  F  F61  1  0.50000000  0.50000000  0.00000000  1
  F  F62  1  0.75000000  0.25000000  0.25000000  1
  F  F63  1  0.75000000  0.75000000  0.75000000  1
  Li  Li64  1  0.92217404  0.55193981  0.79426716  1
  Li  Li65  1  0.57782596  0.44806019  0.29426716  1
  Li  Li66  1  0.69806019  0.67217404  0.04426716  1
  Li  Li67  1  0.80193981  0.32782596  0.54426716  1
  Li  Li68  1  0.57782596  0.55193981  0.20573284  1
  Li  Li69  1  0.92217404  0.44806019  0.70573284  1
  Li  Li70  1  0.80193981  0.67217404  0.95573284  1
  Li  Li71  1  0.69806019  0.32782596  0.45573284  1
  Li  Li72  1  0.07782596  0.44806019  0.20573284  1
  Li  Li73  1  0.42217404  0.55193981  0.70573284  1
  Li  Li74  1  0.30193981  0.32782596  0.95573284  1
  Li  Li75  1  0.19806019  0.67217404  0.45573284  1
  Li  Li76  1  0.42217404  0.44806019  0.79426716  1
  Li  Li77  1  0.07782596  0.55193981  0.29426716  1
  Li  Li78  1  0.19806019  0.32782596  0.04426716  1
  Li  Li79  1  0.30193981  0.67217404  0.54426716  1
  Li  Li80  1  0.42217404  0.05193981  0.29426716  1
  Li  Li81  1  0.07782596  0.94806019  0.79426716  1
  Li  Li82  1  0.19806019  0.17217404  0.54426716  1
  Li  Li83  1  0.30193981  0.82782596  0.04426716  1
  Li  Li84  1  0.07782596  0.05193981  0.70573284  1
  Li  Li85  1  0.42217404  0.94806019  0.20573284  1
  Li  Li86  1  0.30193981  0.17217404  0.45573284  1
  Li  Li87  1  0.19806019  0.82782596  0.95573284  1
  Li  Li88  1  0.57782596  0.94806019  0.70573284  1
  Li  Li89  1  0.92217404  0.05193981  0.20573284  1
  Li  Li90  1  0.80193981  0.82782596  0.45573284  1
  Li  Li91  1  0.69806019  0.17217404  0.95573284  1
  Li  Li92  1  0.92217404  0.94806019  0.29426716  1
  Li  Li93  1  0.57782596  0.05193981  0.79426716  1
  Li  Li94  1  0.69806019  0.82782596  0.54426716  1
  Li  Li95  1  0.80193981  0.17217404  0.04426716  1
  Li  Li96  1  0.96847538  0.21847538  0.12500000  1
  Li  Li97  1  0.53152462  0.78152462  0.62500000  1
  Li  Li98  1  0.03152462  0.71847538  0.37500000  1
  Li  Li99  1  0.46847538  0.28152462  0.87500000  1
  Li  Li100  1  0.03152462  0.78152462  0.87500000  1
  Li  Li101  1  0.46847538  0.21847538  0.37500000  1
  Li  Li102  1  0.96847538  0.28152462  0.62500000  1
  Li  Li103  1  0.53152462  0.71847538  0.12500000  1
  Li  Li104  1  0.46847538  0.71847538  0.62500000  1
  Li  Li105  1  0.03152462  0.28152462  0.12500000  1
  Li  Li106  1  0.53152462  0.21847538  0.87500000  1
  Li  Li107  1  0.96847538  0.78152462  0.37500000  1
  Li  Li108  1  0.53152462  0.28152462  0.37500000  1
  Li  Li109  1  0.96847538  0.71847538  0.87500000  1
  Li  Li110  1  0.46847538  0.78152462  0.12500000  1
  Li  Li111  1  0.03152462  0.21847538  0.62500000  1
  Li  Li112  1  0.61167102  0.86167102  0.12500000  1
  Li  Li113  1  0.88832898  0.13832898  0.62500000  1
  Li  Li114  1  0.38832898  0.36167102  0.37500000  1
  Li  Li115  1  0.11167102  0.63832898  0.87500000  1
  Li  Li116  1  0.38832898  0.13832898  0.87500000  1
  Li  Li117  1  0.11167102  0.86167102  0.37500000  1
  Li  Li118  1  0.61167102  0.63832898  0.62500000  1
  Li  Li119  1  0.88832898  0.36167102  0.12500000  1
  Li  Li120  1  0.11167102  0.36167102  0.62500000  1
  Li  Li121  1  0.38832898  0.63832898  0.12500000  1
  Li  Li122  1  0.88832898  0.86167102  0.87500000  1
  Li  Li123  1  0.61167102  0.13832898  0.37500000  1
  Li  Li124  1  0.88832898  0.63832898  0.37500000  1
  Li  Li125  1  0.61167102  0.36167102  0.87500000  1
  Li  Li126  1  0.11167102  0.13832898  0.12500000  1
  Li  Li127  1  0.38832898  0.86167102  0.62500000  1
