# generated using pymatgen
data_LiF
_symmetry_space_group_name_H-M   'P 1'
_cell_length_a   9.95690499
_cell_length_b   6.26004902
_cell_length_c   7.65259687
_cell_angle_alpha   90.00000000
_cell_angle_beta   90.00000000
_cell_angle_gamma   90.00000000
_symmetry_Int_Tables_number   1
_chemical_formula_structural   LiF
_chemical_formula_sum   'Li14 F14'
_cell_volume   476.99182170
_cell_formula_units_Z   14
loop_
 _symmetry_equiv_pos_site_id
 _symmetry_equiv_pos_as_xyz
  1  'x, y, z'
loop_
 _atom_site_type_symbol
 _atom_site_label
 _atom_site_symmetry_multiplicity
 _atom_site_fract_x
 _atom_site_fract_y
 _atom_site_fract_z
 _atom_site_occupancy
  F  F0  1  0.21818193  0.67043463  0.44704065  1
  F  F1  1  -0.21818193  -0.67043463  0.44704065  1
  F  F2  1  0.28181807  1.17043463  -0.44704065  1
  F  F3  1  0.71818193  -0.17043463  -0.44704065  1
  F  F4  1  -0.21818193  -0.67043463  -0.44704065  1
  F  F5  1  0.21818193  0.67043463  -0.44704065  1
  F  F6  1  0.71818193  -0.17043463  0.44704065  1
  F  F7  1  0.28181807  1.17043463  0.44704065  1
  F  F8  1  0.00000000  0.00000000  0.91372456  1
  F  F9  1  0.50000000  0.50000000  0.08627544  1
  F  F10  1  0.00000000  0.00000000  0.08627544  1
  F  F11  1  0.50000000  0.50000000  0.91372456  1
  F  F12  1  0.00000000  0.50000000  0.50000000  1
  F  F13  1  0.50000000  -0.00000000  0.50000000  1
  Li  Li14  1  0.08447974  0.14086921  0.13970991  1
  Li  Li15  1  0.91552026  0.85913079  0.13970991  1
  Li  Li16  1  0.41552026  0.64086921  0.86029009  1
  Li  Li17  1  0.58447974  0.35913079  0.86029009  1
  Li  Li18  1  0.91552026  0.85913079  0.86029009  1
  Li  Li19  1  0.08447974  0.14086921  0.86029009  1
  Li  Li20  1  0.58447974  0.35913079  0.13970991  1
  Li  Li21  1  0.41552026  0.64086921  0.13970991  1
  Li  Li22  1  0.00000000  0.50000000  0.00000000  1
  Li  Li23  1  0.50000000  -0.00000000  0.00000000  1
  Li  Li24  1  0.91516164  0.13591846  0.50000000  1
  Li  Li25  1  0.08483836  0.86408154  0.50000000  1
  Li  Li26  1  0.58483836  0.63591846  0.50000000  1
  Li  Li27  1  0.41516164  0.36408154  0.50000000  1
