# generated using pymatgen
data_Li4TeF2
_symmetry_space_group_name_H-M   'P 1'
_cell_length_a   14.55682642
_cell_length_b   14.55682642
_cell_length_c   14.55682642
_cell_angle_alpha   90.00000000
_cell_angle_beta   90.00000000
_cell_angle_gamma   90.00000000
_symmetry_Int_Tables_number   1
_chemical_formula_structural   Li4TeF2
_chemical_formula_sum   'Li96 Te24 F48'
_cell_volume   3084.60892003
_cell_formula_units_Z   24
loop_
 _symmetry_equiv_pos_site_id
 _symmetry_equiv_pos_as_xyz
  1  'x, y, z'
loop_
 _atom_site_type_symbol
 _atom_site_label
 _atom_site_symmetry_multiplicity
 _atom_site_fract_x
 _atom_site_fract_y
 _atom_site_fract_z
 _atom_site_occupancy
  F  F0  1  0.12500000  0.12500000  0.12500000  1
  F  F1  1  0.37500000  0.87500000  0.62500000  1
  F  F2  1  0.87500000  0.62500000  0.37500000  1
  F  F3  1  0.62500000  0.37500000  0.87500000  1
  F  F4  1  0.62500000  0.62500000  0.62500000  1
  F  F5  1  0.87500000  0.37500000  0.12500000  1
  F  F6  1  0.37500000  0.12500000  0.87500000  1
  F  F7  1  0.12500000  0.87500000  0.37500000  1
  F  F8  1  0.06732385  0.06732385  0.06732385  1
  F  F9  1  0.43267615  0.93267615  0.56732385  1
  F  F10  1  0.93267615  0.56732385  0.43267615  1
  F  F11  1  0.56732385  0.43267615  0.93267615  1
  F  F12  1  0.81732385  0.31732385  0.18267615  1
  F  F13  1  0.68267615  0.68267615  0.68267615  1
  F  F14  1  0.31732385  0.18267615  0.81732385  1
  F  F15  1  0.18267615  0.81732385  0.31732385  1
  F  F16  1  0.56732385  0.56732385  0.56732385  1
  F  F17  1  0.93267615  0.43267615  0.06732385  1
  F  F18  1  0.43267615  0.06732385  0.93267615  1
  F  F19  1  0.06732385  0.93267615  0.43267615  1
  F  F20  1  0.31732385  0.81732385  0.68267615  1
  F  F21  1  0.18267615  0.18267615  0.18267615  1
  F  F22  1  0.81732385  0.68267615  0.31732385  1
  F  F23  1  0.68267615  0.31732385  0.81732385  1
  F  F24  1  0.87500000  0.87500000  0.87500000  1
  F  F25  1  0.62500000  0.12500000  0.37500000  1
  F  F26  1  0.12500000  0.37500000  0.62500000  1
  F  F27  1  0.37500000  0.62500000  0.12500000  1
  F  F28  1  0.37500000  0.37500000  0.37500000  1
  F  F29  1  0.12500000  0.62500000  0.87500000  1
  F  F30  1  0.62500000  0.87500000  0.12500000  1
  F  F31  1  0.87500000  0.12500000  0.62500000  1
  F  F32  1  0.01815631  0.01815631  0.01815631  1
  F  F33  1  0.48184369  0.98184369  0.51815631  1
  F  F34  1  0.98184369  0.51815631  0.48184369  1
  F  F35  1  0.51815631  0.48184369  0.98184369  1
  F  F36  1  0.76815631  0.26815631  0.23184369  1
  F  F37  1  0.73184369  0.73184369  0.73184369  1
  F  F38  1  0.26815631  0.23184369  0.76815631  1
  F  F39  1  0.23184369  0.76815631  0.26815631  1
  F  F40  1  0.51815631  0.51815631  0.51815631  1
  F  F41  1  0.98184369  0.48184369  0.01815631  1
  F  F42  1  0.48184369  0.01815631  0.98184369  1
  F  F43  1  0.01815631  0.98184369  0.48184369  1
  F  F44  1  0.26815631  0.76815631  0.73184369  1
  F  F45  1  0.23184369  0.23184369  0.23184369  1
  F  F46  1  0.76815631  0.73184369  0.26815631  1
  F  F47  1  0.73184369  0.26815631  0.76815631  1
  Li  Li48  1  0.12500000  0.75562535  0.00562535  1
  Li  Li49  1  0.37500000  0.24437465  0.50562535  1
  Li  Li50  1  0.87500000  0.25562535  0.49437465  1
  Li  Li51  1  0.62500000  0.74437465  0.99437465  1
  Li  Li52  1  0.00562535  0.12500000  0.75562535  1
  Li  Li53  1  0.50562535  0.37500000  0.24437465  1
  Li  Li54  1  0.49437465  0.87500000  0.25562535  1
  Li  Li55  1  0.99437465  0.62500000  0.74437465  1
  Li  Li56  1  0.75562535  0.00562535  0.12500000  1
  Li  Li57  1  0.24437465  0.50562535  0.37500000  1
  Li  Li58  1  0.25562535  0.49437465  0.87500000  1
  Li  Li59  1  0.74437465  0.99437465  0.62500000  1
  Li  Li60  1  0.62500000  0.25562535  0.50562535  1
  Li  Li61  1  0.87500000  0.74437465  0.00562535  1
  Li  Li62  1  0.37500000  0.75562535  0.99437465  1
  Li  Li63  1  0.12500000  0.24437465  0.49437465  1
  Li  Li64  1  0.50562535  0.62500000  0.25562535  1
  Li  Li65  1  0.00562535  0.87500000  0.74437465  1
  Li  Li66  1  0.99437465  0.37500000  0.75562535  1
  Li  Li67  1  0.49437465  0.12500000  0.24437465  1
  Li  Li68  1  0.25562535  0.50562535  0.62500000  1
  Li  Li69  1  0.74437465  0.00562535  0.87500000  1
  Li  Li70  1  0.75562535  0.99437465  0.37500000  1
  Li  Li71  1  0.24437465  0.49437465  0.12500000  1
  Li  Li72  1  0.63705677  0.95329173  0.02320656  1
  Li  Li73  1  -0.13705677  -0.95329173  0.52320656  1
  Li  Li74  1  -0.63705677  1.45329173  0.47679344  1
  Li  Li75  1  1.13705677  -0.45329173  -0.02320656  1
  Li  Li76  1  0.02320656  0.63705677  0.95329173  1
  Li  Li77  1  0.52320656  -0.13705677  -0.95329173  1
  Li  Li78  1  0.47679344  -0.63705677  1.45329173  1
  Li  Li79  1  -0.02320656  1.13705677  -0.45329173  1
  Li  Li80  1  0.95329173  0.02320656  0.63705677  1
  Li  Li81  1  -0.95329173  0.52320656  -0.13705677  1
  Li  Li82  1  1.45329173  0.47679344  -0.63705677  1
  Li  Li83  1  -0.45329173  -0.02320656  1.13705677  1
  Li  Li84  1  1.70329173  0.88705677  0.22679344  1
  Li  Li85  1  -0.20329173  0.11294323  0.72679344  1
  Li  Li86  1  1.20329173  -0.38705677  0.77320656  1
  Li  Li87  1  -0.70329173  1.38705677  0.27320656  1
  Li  Li88  1  1.38705677  0.27320656  -0.70329173  1
  Li  Li89  1  -0.38705677  0.77320656  1.20329173  1
  Li  Li90  1  0.11294323  0.72679344  -0.20329173  1
  Li  Li91  1  0.88705677  0.22679344  1.70329173  1
  Li  Li92  1  0.77320656  1.20329173  -0.38705677  1
  Li  Li93  1  0.27320656  -0.70329173  1.38705677  1
  Li  Li94  1  0.22679344  1.70329173  0.88705677  1
  Li  Li95  1  0.72679344  -0.20329173  0.11294323  1
  Li  Li96  1  1.13705677  1.45329173  0.52320656  1
  Li  Li97  1  0.36294323  -0.45329173  1.02320656  1
  Li  Li98  1  -0.13705677  1.95329173  0.97679344  1
  Li  Li99  1  1.63705677  0.04670827  0.47679344  1
  Li  Li100  1  0.52320656  1.13705677  1.45329173  1
  Li  Li101  1  1.02320656  0.36294323  -0.45329173  1
  Li  Li102  1  0.97679344  -0.13705677  1.95329173  1
  Li  Li103  1  0.47679344  1.63705677  0.04670827  1
  Li  Li104  1  1.45329173  0.52320656  1.13705677  1
  Li  Li105  1  -0.45329173  1.02320656  0.36294323  1
  Li  Li106  1  1.95329173  0.97679344  -0.13705677  1
  Li  Li107  1  0.04670827  0.47679344  1.63705677  1
  Li  Li108  1  2.20329173  1.38705677  0.72679344  1
  Li  Li109  1  0.29670827  0.61294323  1.22679344  1
  Li  Li110  1  1.70329173  0.11294323  1.27320656  1
  Li  Li111  1  -0.20329173  1.88705677  0.77320656  1
  Li  Li112  1  1.88705677  0.77320656  -0.20329173  1
  Li  Li113  1  0.11294323  1.27320656  1.70329173  1
  Li  Li114  1  0.61294323  1.22679344  0.29670827  1
  Li  Li115  1  1.38705677  0.72679344  2.20329173  1
  Li  Li116  1  1.27320656  1.70329173  0.11294323  1
  Li  Li117  1  0.77320656  -0.20329173  1.88705677  1
  Li  Li118  1  0.72679344  2.20329173  1.38705677  1
  Li  Li119  1  1.22679344  0.29670827  0.61294323  1
  Li  Li120  1  0.12500000  0.42377263  0.67377263  1
  Li  Li121  1  0.37500000  0.57622737  0.17377263  1
  Li  Li122  1  0.87500000  0.92377263  0.82622737  1
  Li  Li123  1  0.62500000  0.07622737  0.32622737  1
  Li  Li124  1  0.67377263  0.12500000  0.42377263  1
  Li  Li125  1  0.17377263  0.37500000  0.57622737  1
  Li  Li126  1  0.82622737  0.87500000  0.92377263  1
  Li  Li127  1  0.32622737  0.62500000  0.07622737  1
  Li  Li128  1  0.42377263  0.67377263  0.12500000  1
  Li  Li129  1  0.57622737  0.17377263  0.37500000  1
  Li  Li130  1  0.92377263  0.82622737  0.87500000  1
  Li  Li131  1  0.07622737  0.32622737  0.62500000  1
  Li  Li132  1  0.62500000  0.92377263  0.17377263  1
  Li  Li133  1  0.87500000  0.07622737  0.67377263  1
  Li  Li134  1  0.37500000  0.42377263  0.32622737  1
  Li  Li135  1  0.12500000  0.57622737  0.82622737  1
  Li  Li136  1  0.17377263  0.62500000  0.92377263  1
  Li  Li137  1  0.67377263  0.87500000  0.07622737  1
  Li  Li138  1  0.32622737  0.37500000  0.42377263  1
  Li  Li139  1  0.82622737  0.12500000  0.57622737  1
  Li  Li140  1  0.92377263  0.17377263  0.62500000  1
  Li  Li141  1  0.07622737  0.67377263  0.87500000  1
  Li  Li142  1  0.42377263  0.32622737  0.37500000  1
  Li  Li143  1  0.57622737  0.82622737  0.12500000  1
  Te  Te144  1  0.33607003  0.00000000  0.25000000  1
  Te  Te145  1  0.16392997  0.00000000  0.75000000  1
  Te  Te146  1  0.25000000  0.33607003  0.00000000  1
  Te  Te147  1  0.75000000  0.16392997  0.00000000  1
  Te  Te148  1  0.00000000  0.25000000  0.33607003  1
  Te  Te149  1  0.00000000  0.75000000  0.16392997  1
  Te  Te150  1  0.75000000  0.58607003  0.00000000  1
  Te  Te151  1  0.75000000  0.41392997  0.50000000  1
  Te  Te152  1  0.08607003  0.50000000  0.25000000  1
  Te  Te153  1  0.91392997  0.00000000  0.25000000  1
  Te  Te154  1  0.00000000  0.25000000  0.91392997  1
  Te  Te155  1  0.50000000  0.25000000  0.08607003  1
  Te  Te156  1  0.83607003  0.50000000  0.75000000  1
  Te  Te157  1  0.66392997  0.50000000  0.25000000  1
  Te  Te158  1  0.75000000  0.83607003  0.50000000  1
  Te  Te159  1  0.25000000  0.66392997  0.50000000  1
  Te  Te160  1  0.50000000  0.75000000  0.83607003  1
  Te  Te161  1  0.50000000  0.25000000  0.66392997  1
  Te  Te162  1  0.25000000  0.08607003  0.50000000  1
  Te  Te163  1  0.25000000  0.91392997  0.00000000  1
  Te  Te164  1  0.58607003  0.00000000  0.75000000  1
  Te  Te165  1  0.41392997  0.50000000  0.75000000  1
  Te  Te166  1  0.50000000  0.75000000  0.41392997  1
  Te  Te167  1  0.00000000  0.75000000  0.58607003  1
