# generated using pymatgen
data_Li3Mo2P4Se
_symmetry_space_group_name_H-M   'P 1'
_cell_length_a   4.56637483
_cell_length_b   4.99936852
_cell_length_c   5.88850763
_cell_angle_alpha   91.39422980
_cell_angle_beta   95.32314930
_cell_angle_gamma   98.36125527
_symmetry_Int_Tables_number   1
_chemical_formula_structural   Li3Mo2P4Se
_chemical_formula_sum   'Li3 Mo2 P4 Se1'
_cell_volume   132.32859904
_cell_formula_units_Z   1
loop_
 _symmetry_equiv_pos_site_id
 _symmetry_equiv_pos_as_xyz
  1  'x, y, z'
loop_
 _atom_site_type_symbol
 _atom_site_label
 _atom_site_symmetry_multiplicity
 _atom_site_fract_x
 _atom_site_fract_y
 _atom_site_fract_z
 _atom_site_occupancy
  Se  Se0  1  0.00000000  0.00000000  0.00000000  1
  P  P1  1  0.33300000  0.66700000  0.25000000  1
  P  P2  1  0.66700000  0.33300000  0.50000000  1
  P  P3  1  0.00000000  0.00000000  0.75000000  1
  P  P4  1  0.98893755  0.59289699  0.88533459  1
  Mo  Mo5  1  0.71728425  0.33881810  0.92694500  1
  Mo  Mo6  1  0.92099909  0.31622828  0.38869757  1
  Li  Li7  1  0.56867627  0.00133778  0.04327132  1
  Li  Li8  1  0.17697986  0.60392657  0.92421008  1
  Li  Li9  1  0.38555224  0.98950809  0.84904685  1
