# generated using pymatgen
data_LiF
_symmetry_space_group_name_H-M   'P 1'
_cell_length_a   9.82038718
_cell_length_b   9.82038718
_cell_length_c   9.59521478
_cell_angle_alpha   90.00000000
_cell_angle_beta   90.00000000
_cell_angle_gamma   120.00000000
_symmetry_Int_Tables_number   1
_chemical_formula_structural   LiF
_chemical_formula_sum   'Li48 F48'
_cell_volume   801.38748087
_cell_formula_units_Z   48
loop_
 _symmetry_equiv_pos_site_id
 _symmetry_equiv_pos_as_xyz
  1  'x, y, z'
loop_
 _atom_site_type_symbol
 _atom_site_label
 _atom_site_symmetry_multiplicity
 _atom_site_fract_x
 _atom_site_fract_y
 _atom_site_fract_z
 _atom_site_occupancy
  F  F0  1  0.50000000  -0.00000000  0.00000000  1
  F  F1  1  0.00000000  0.50000000  0.00000000  1
  F  F2  1  0.50000000  0.50000000  0.00000000  1
  F  F3  1  0.00000000  0.50000000  0.50000000  1
  F  F4  1  0.50000000  -0.00000000  0.50000000  1
  F  F5  1  0.50000000  0.50000000  0.50000000  1
  F  F6  1  1.16666667  0.33333333  0.33333333  1
  F  F7  1  0.66666667  0.83333333  0.33333333  1
  F  F8  1  1.16666667  0.83333333  0.33333333  1
  F  F9  1  0.66666667  0.83333333  0.83333333  1
  F  F10  1  1.16666667  0.33333333  0.83333333  1
  F  F11  1  1.16666667  0.83333333  0.83333333  1
  F  F12  1  0.83333333  0.66666667  0.66666667  1
  F  F13  1  0.33333333  1.16666667  0.66666667  1
  F  F14  1  0.83333333  1.16666667  0.66666667  1
  F  F15  1  0.33333333  1.16666667  1.16666667  1
  F  F16  1  0.83333333  0.66666667  1.16666667  1
  F  F17  1  0.83333333  1.16666667  1.16666667  1
  F  F18  1  0.00000000  0.00000000  0.25000000  1
  F  F19  1  0.00000000  0.00000000  0.75000000  1
  F  F20  1  0.66666667  0.33333333  0.58333333  1
  F  F21  1  0.66666667  0.33333333  0.08333333  1
  F  F22  1  0.33333333  0.66666667  0.91666667  1
  F  F23  1  0.33333333  0.66666667  0.41666667  1
  F  F24  1  0.09475295  -0.00000000  0.25000000  1
  F  F25  1  0.00000000  0.09475295  0.25000000  1
  F  F26  1  0.90524705  0.90524705  0.25000000  1
  F  F27  1  0.90524705  -0.00000000  0.75000000  1
  F  F28  1  0.00000000  0.90524705  0.75000000  1
  F  F29  1  0.09475295  0.09475295  0.75000000  1
  F  F30  1  0.76141961  0.33333333  0.58333333  1
  F  F31  1  0.66666667  0.42808628  0.58333333  1
  F  F32  1  0.57191372  0.23858039  0.58333333  1
  F  F33  1  0.57191372  0.33333333  0.08333333  1
  F  F34  1  0.66666667  0.23858039  0.08333333  1
  F  F35  1  0.76141961  0.42808628  0.08333333  1
  F  F36  1  0.42808628  0.66666667  0.91666667  1
  F  F37  1  0.33333333  0.76141961  0.91666667  1
  F  F38  1  0.23858039  0.57191372  0.91666667  1
  F  F39  1  0.23858039  0.66666667  0.41666667  1
  F  F40  1  0.33333333  0.57191372  0.41666667  1
  F  F41  1  0.42808628  0.76141961  0.41666667  1
  F  F42  1  0.00000000  0.00000000  0.00000000  1
  F  F43  1  0.00000000  0.00000000  0.50000000  1
  F  F44  1  0.66666667  0.33333333  0.33333333  1
  F  F45  1  0.66666667  0.33333333  0.83333333  1
  F  F46  1  0.33333333  0.66666667  0.66666667  1
  F  F47  1  0.33333333  0.66666667  0.16666667  1
  Li  Li48  1  0.46962536  0.00000000  0.25000000  1
  Li  Li49  1  0.00000000  0.46962536  0.25000000  1
  Li  Li50  1  0.53037464  0.53037464  0.25000000  1
  Li  Li51  1  0.53037464  0.00000000  0.75000000  1
  Li  Li52  1  0.00000000  0.53037464  0.75000000  1
  Li  Li53  1  0.46962536  0.46962536  0.75000000  1
  Li  Li54  1  0.13629203  0.33333333  0.58333333  1
  Li  Li55  1  0.66666667  0.80295870  0.58333333  1
  Li  Li56  1  0.19704130  0.86370797  0.58333333  1
  Li  Li57  1  0.19704130  0.33333333  0.08333333  1
  Li  Li58  1  0.66666667  0.86370797  0.08333333  1
  Li  Li59  1  0.13629203  0.80295870  0.08333333  1
  Li  Li60  1  0.80295870  0.66666667  0.91666667  1
  Li  Li61  1  0.33333333  0.13629203  0.91666667  1
  Li  Li62  1  0.86370797  0.19704130  0.91666667  1
  Li  Li63  1  0.86370797  0.66666667  0.41666667  1
  Li  Li64  1  0.33333333  0.19704130  0.41666667  1
  Li  Li65  1  0.80295870  0.13629203  0.41666667  1
  Li  Li66  1  0.63354667  0.00000000  0.25000000  1
  Li  Li67  1  0.00000000  0.63354667  0.25000000  1
  Li  Li68  1  0.36645333  0.36645333  0.25000000  1
  Li  Li69  1  0.36645333  0.00000000  0.75000000  1
  Li  Li70  1  0.00000000  0.36645333  0.75000000  1
  Li  Li71  1  0.63354667  0.63354667  0.75000000  1
  Li  Li72  1  0.30021334  0.33333333  0.58333333  1
  Li  Li73  1  0.66666667  0.96688001  0.58333333  1
  Li  Li74  1  0.03311999  0.69978666  0.58333333  1
  Li  Li75  1  0.03311999  0.33333333  0.08333333  1
  Li  Li76  1  0.66666667  0.69978666  0.08333333  1
  Li  Li77  1  0.30021334  0.96688001  0.08333333  1
  Li  Li78  1  0.96688001  0.66666667  0.91666667  1
  Li  Li79  1  0.33333333  0.30021334  0.91666667  1
  Li  Li80  1  0.69978666  0.03311999  0.91666667  1
  Li  Li81  1  0.69978666  0.66666667  0.41666667  1
  Li  Li82  1  0.33333333  0.03311999  0.41666667  1
  Li  Li83  1  0.96688001  0.30021334  0.41666667  1
  Li  Li84  1  0.00000000  0.00000000  0.87024159  1
  Li  Li85  1  0.00000000  0.00000000  0.62975841  1
  Li  Li86  1  0.00000000  0.00000000  0.12975841  1
  Li  Li87  1  0.00000000  0.00000000  0.37024159  1
  Li  Li88  1  0.66666667  0.33333333  0.20357492  1
  Li  Li89  1  0.66666667  0.33333333  0.96309175  1
  Li  Li90  1  0.66666667  0.33333333  0.46309175  1
  Li  Li91  1  0.66666667  0.33333333  0.70357492  1
  Li  Li92  1  0.33333333  0.66666667  0.53690825  1
  Li  Li93  1  0.33333333  0.66666667  0.29642508  1
  Li  Li94  1  0.33333333  0.66666667  0.79642508  1
  Li  Li95  1  0.33333333  0.66666667  0.03690825  1
