# generated using pymatgen
data_LiF
_symmetry_space_group_name_H-M   'P 1'
_cell_length_a   13.10690240
_cell_length_b   13.10690240
_cell_length_c   14.74727348
_cell_angle_alpha   90.00000000
_cell_angle_beta   90.00000000
_cell_angle_gamma   90.00000000
_symmetry_Int_Tables_number   1
_chemical_formula_structural   LiF
_chemical_formula_sum   'Li64 F64'
_cell_volume   2533.44724303
_cell_formula_units_Z   64
loop_
 _symmetry_equiv_pos_site_id
 _symmetry_equiv_pos_as_xyz
  1  'x, y, z'
loop_
 _atom_site_type_symbol
 _atom_site_label
 _atom_site_symmetry_multiplicity
 _atom_site_fract_x
 _atom_site_fract_y
 _atom_site_fract_z
 _atom_site_occupancy
  F  F0  1  0.67453764  0.28206086  0.70839984  1
  F  F1  1  0.82546236  0.71793914  0.20839984  1
  F  F2  1  0.96793914  0.42453764  0.95839984  1
  F  F3  1  0.53206086  0.57546236  0.45839984  1
  F  F4  1  0.82546236  0.28206086  0.29160016  1
  F  F5  1  0.67453764  0.71793914  0.79160016  1
  F  F6  1  0.53206086  0.42453764  0.04160016  1
  F  F7  1  0.96793914  0.57546236  0.54160016  1
  F  F8  1  0.32546236  0.71793914  0.29160016  1
  F  F9  1  0.17453764  0.28206086  0.79160016  1
  F  F10  1  0.03206086  0.57546236  0.04160016  1
  F  F11  1  0.46793914  0.42453764  0.54160016  1
  F  F12  1  0.17453764  0.71793914  0.70839984  1
  F  F13  1  0.32546236  0.28206086  0.20839984  1
  F  F14  1  0.46793914  0.57546236  0.95839984  1
  F  F15  1  0.03206086  0.42453764  0.45839984  1
  F  F16  1  0.17453764  0.78206086  0.20839984  1
  F  F17  1  0.32546236  0.21793914  0.70839984  1
  F  F18  1  0.46793914  0.92453764  0.45839984  1
  F  F19  1  0.03206086  0.07546236  0.95839984  1
  F  F20  1  0.32546236  0.78206086  0.79160016  1
  F  F21  1  0.17453764  0.21793914  0.29160016  1
  F  F22  1  0.03206086  0.92453764  0.54160016  1
  F  F23  1  0.46793914  0.07546236  0.04160016  1
  F  F24  1  0.82546236  0.21793914  0.79160016  1
  F  F25  1  0.67453764  0.78206086  0.29160016  1
  F  F26  1  0.53206086  0.07546236  0.54160016  1
  F  F27  1  0.96793914  0.92453764  0.04160016  1
  F  F28  1  0.67453764  0.21793914  0.20839984  1
  F  F29  1  0.82546236  0.78206086  0.70839984  1
  F  F30  1  0.96793914  0.07546236  0.45839984  1
  F  F31  1  0.53206086  0.92453764  0.95839984  1
  F  F32  1  0.44512697  0.69512697  0.12500000  1
  F  F33  1  0.05487303  0.30487303  0.62500000  1
  F  F34  1  0.55487303  0.19512697  0.37500000  1
  F  F35  1  0.94512697  0.80487303  0.87500000  1
  F  F36  1  0.55487303  0.30487303  0.87500000  1
  F  F37  1  0.94512697  0.69512697  0.37500000  1
  F  F38  1  0.44512697  0.80487303  0.62500000  1
  F  F39  1  0.05487303  0.19512697  0.12500000  1
  F  F40  1  0.94512697  0.19512697  0.62500000  1
  F  F41  1  0.55487303  0.80487303  0.12500000  1
  F  F42  1  0.05487303  0.69512697  0.87500000  1
  F  F43  1  0.44512697  0.30487303  0.37500000  1
  F  F44  1  0.05487303  0.80487303  0.37500000  1
  F  F45  1  0.44512697  0.19512697  0.87500000  1
  F  F46  1  0.94512697  0.30487303  0.12500000  1
  F  F47  1  0.55487303  0.69512697  0.62500000  1
  F  F48  1  0.20624320  0.45624320  0.12500000  1
  F  F49  1  0.29375680  0.54375680  0.62500000  1
  F  F50  1  0.79375680  0.95624320  0.37500000  1
  F  F51  1  0.70624320  0.04375680  0.87500000  1
  F  F52  1  0.79375680  0.54375680  0.87500000  1
  F  F53  1  0.70624320  0.45624320  0.37500000  1
  F  F54  1  0.20624320  0.04375680  0.62500000  1
  F  F55  1  0.29375680  0.95624320  0.12500000  1
  F  F56  1  0.70624320  0.95624320  0.62500000  1
  F  F57  1  0.79375680  0.04375680  0.12500000  1
  F  F58  1  0.29375680  0.45624320  0.87500000  1
  F  F59  1  0.20624320  0.54375680  0.37500000  1
  F  F60  1  0.29375680  0.04375680  0.37500000  1
  F  F61  1  0.20624320  0.95624320  0.87500000  1
  F  F62  1  0.70624320  0.54375680  0.12500000  1
  F  F63  1  0.79375680  0.45624320  0.62500000  1
  Li  Li64  1  0.00000000  0.00000000  0.00000000  1
  Li  Li65  1  0.50000000  0.00000000  0.50000000  1
  Li  Li66  1  0.25000000  0.75000000  0.25000000  1
  Li  Li67  1  0.25000000  0.25000000  0.75000000  1
  Li  Li68  1  0.50000000  0.00000000  -0.00000000  1
  Li  Li69  1  0.00000000  0.00000000  0.50000000  1
  Li  Li70  1  0.25000000  0.75000000  0.75000000  1
  Li  Li71  1  0.25000000  0.25000000  0.25000000  1
  Li  Li72  1  0.50000000  0.50000000  0.50000000  1
  Li  Li73  1  0.00000000  0.50000000  0.00000000  1
  Li  Li74  1  0.75000000  0.25000000  0.75000000  1
  Li  Li75  1  0.75000000  0.75000000  0.25000000  1
  Li  Li76  1  0.00000000  0.50000000  0.50000000  1
  Li  Li77  1  0.50000000  0.50000000  0.00000000  1
  Li  Li78  1  0.75000000  0.25000000  0.25000000  1
  Li  Li79  1  0.75000000  0.75000000  0.75000000  1
  Li  Li80  1  0.74719601  0.63414275  0.94163450  1
  Li  Li81  1  -0.24719601  -0.63414275  1.44163450  1
  Li  Li82  1  -0.38414275  1.49719601  1.19163450  1
  Li  Li83  1  0.88414275  -0.49719601  1.69163450  1
  Li  Li84  1  -0.24719601  0.63414275  -0.94163450  1
  Li  Li85  1  0.74719601  -0.63414275  -0.44163450  1
  Li  Li86  1  0.88414275  1.49719601  -0.19163450  1
  Li  Li87  1  -0.38414275  -0.49719601  -0.69163450  1
  Li  Li88  1  -0.74719601  -0.63414275  -0.94163450  1
  Li  Li89  1  1.24719601  0.63414275  -0.44163450  1
  Li  Li90  1  1.38414275  -0.49719601  -0.19163450  1
  Li  Li91  1  0.11585725  1.49719601  -0.69163450  1
  Li  Li92  1  1.24719601  -0.63414275  0.94163450  1
  Li  Li93  1  -0.74719601  0.63414275  1.44163450  1
  Li  Li94  1  0.11585725  -0.49719601  1.19163450  1
  Li  Li95  1  1.38414275  1.49719601  1.69163450  1
  Li  Li96  1  1.24719601  1.13414275  1.44163450  1
  Li  Li97  1  0.25280399  -0.13414275  1.94163450  1
  Li  Li98  1  0.11585725  1.99719601  1.69163450  1
  Li  Li99  1  1.38414275  0.00280399  2.19163450  1
  Li  Li100  1  0.25280399  1.13414275  -0.44163450  1
  Li  Li101  1  1.24719601  -0.13414275  0.05836550  1
  Li  Li102  1  1.38414275  1.99719601  0.30836550  1
  Li  Li103  1  0.11585725  0.00280399  -0.19163450  1
  Li  Li104  1  -0.24719601  -0.13414275  -0.44163450  1
  Li  Li105  1  1.74719601  1.13414275  0.05836550  1
  Li  Li106  1  1.88414275  0.00280399  0.30836550  1
  Li  Li107  1  0.61585725  1.99719601  -0.19163450  1
  Li  Li108  1  1.74719601  -0.13414275  1.44163450  1
  Li  Li109  1  -0.24719601  1.13414275  1.94163450  1
  Li  Li110  1  0.61585725  0.00280399  1.69163450  1
  Li  Li111  1  1.88414275  1.99719601  2.19163450  1
  Li  Li112  1  0.00000000  0.25000000  0.12500000  1
  Li  Li113  1  0.00000000  0.75000000  0.37500000  1
  Li  Li114  1  0.00000000  0.75000000  0.87500000  1
  Li  Li115  1  0.00000000  0.25000000  0.62500000  1
  Li  Li116  1  0.50000000  0.75000000  0.62500000  1
  Li  Li117  1  0.50000000  0.25000000  0.87500000  1
  Li  Li118  1  0.50000000  0.25000000  0.37500000  1
  Li  Li119  1  0.50000000  0.75000000  0.12500000  1
  Li  Li120  1  0.00000000  0.25000000  0.37500000  1
  Li  Li121  1  0.00000000  0.75000000  0.62500000  1
  Li  Li122  1  0.50000000  0.25000000  0.62500000  1
  Li  Li123  1  0.50000000  0.75000000  0.37500000  1
  Li  Li124  1  0.50000000  0.75000000  0.87500000  1
  Li  Li125  1  0.50000000  0.25000000  0.12500000  1
  Li  Li126  1  0.00000000  0.75000000  0.12500000  1
  Li  Li127  1  0.00000000  0.25000000  0.87500000  1
