# generated using pymatgen
data_Li4TeF2
_symmetry_space_group_name_H-M   'P 1'
_cell_length_a   13.46000905
_cell_length_b   13.46000905
_cell_length_c   16.92673549
_cell_angle_alpha   90.00000000
_cell_angle_beta   90.00000000
_cell_angle_gamma   120.00000000
_symmetry_Int_Tables_number   1
_chemical_formula_structural   Li4TeF2
_chemical_formula_sum   'Li96 Te24 F48'
_cell_volume   2655.79496274
_cell_formula_units_Z   24
loop_
 _symmetry_equiv_pos_site_id
 _symmetry_equiv_pos_as_xyz
  1  'x, y, z'
loop_
 _atom_site_type_symbol
 _atom_site_label
 _atom_site_symmetry_multiplicity
 _atom_site_fract_x
 _atom_site_fract_y
 _atom_site_fract_z
 _atom_site_occupancy
  F  F0  1  0.40065426  0.63509640  0.32018945  1
  F  F1  1  -0.63509640  -0.23444214  0.32018945  1
  F  F2  1  0.23444214  -0.40065426  0.32018945  1
  F  F3  1  -0.63509640  -0.40065426  -0.32018945  1
  F  F4  1  0.23444214  0.63509640  -0.32018945  1
  F  F5  1  0.40065426  -0.23444214  -0.32018945  1
  F  F6  1  0.00000000  0.00000000  0.00000000  1
  F  F7  1  0.33333333  0.66666667  0.44022154  1
  F  F8  1  0.33333333  0.66666667  0.55977846  1
  F  F9  1  0.66666667  0.33333333  0.39760958  1
  F  F10  1  0.66666667  0.33333333  0.60239042  1
  F  F11  1  0.55907315  0.93478812  0.74094232  1
  F  F12  1  0.06521188  0.62428504  0.74094232  1
  F  F13  1  0.37571496  0.44092685  0.74094232  1
  F  F14  1  0.06521188  0.44092685  0.25905768  1
  F  F15  1  0.37571496  0.93478812  0.25905768  1
  F  F16  1  0.55907315  0.62428504  0.25905768  1
  F  F17  1  0.62495727  0.83845533  0.99361576  1
  F  F18  1  0.16154467  0.78650194  0.99361576  1
  F  F19  1  0.21349806  0.37504273  0.99361576  1
  F  F20  1  0.16154467  0.37504273  0.00638424  1
  F  F21  1  0.21349806  0.83845533  0.00638424  1
  F  F22  1  0.62495727  0.78650194  0.00638424  1
  F  F23  1  0.16086711  0.77158461  0.84097531  1
  F  F24  1  0.22841539  0.38928250  0.84097531  1
  F  F25  1  0.61071750  0.83913289  0.84097531  1
  F  F26  1  0.22841539  0.83913289  0.15902469  1
  F  F27  1  0.61071750  0.77158461  0.15902469  1
  F  F28  1  0.16086711  0.38928250  0.15902469  1
  F  F29  1  0.00000000  0.00000000  0.50000000  1
  F  F30  1  0.11978131  0.81315309  0.60845955  1
  F  F31  1  0.18684691  0.30662822  0.60845955  1
  F  F32  1  0.69337178  0.88021869  0.60845955  1
  F  F33  1  0.18684691  0.88021869  0.39154045  1
  F  F34  1  0.69337178  0.81315309  0.39154045  1
  F  F35  1  0.11978131  0.30662822  0.39154045  1
  F  F36  1  0.66666667  0.33333333  0.50000000  1
  F  F37  1  0.17506721  0.34779016  0.06700818  1
  F  F38  1  0.65220984  0.82727705  0.06700818  1
  F  F39  1  0.17272295  0.82493279  0.06700818  1
  F  F40  1  0.65220984  0.82493279  0.93299182  1
  F  F41  1  0.17272295  0.34779016  0.93299182  1
  F  F42  1  0.17506721  0.82727705  0.93299182  1
  F  F43  1  0.66666667  0.33333333  0.00000000  1
  F  F44  1  0.33333333  0.66666667  0.85197301  1
  F  F45  1  0.33333333  0.66666667  0.14802699  1
  F  F46  1  0.66666667  0.33333333  0.35146475  1
  F  F47  1  0.66666667  0.33333333  0.64853525  1
  Li  Li48  1  0.90704240  0.09295760  0.00000000  1
  Li  Li49  1  0.90704240  0.81408480  0.00000000  1
  Li  Li50  1  0.18591520  0.09295760  0.00000000  1
  Li  Li51  1  0.68843830  0.01161745  0.49845567  1
  Li  Li52  1  0.98838255  0.67682085  0.49845567  1
  Li  Li53  1  0.32317915  0.31156170  0.49845567  1
  Li  Li54  1  0.98838255  0.31156170  0.50154433  1
  Li  Li55  1  0.32317915  0.01161745  0.50154433  1
  Li  Li56  1  0.68843830  0.67682085  0.50154433  1
  Li  Li57  1  0.97337510  0.04623103  0.81988094  1
  Li  Li58  1  0.95376897  0.92714408  0.81988094  1
  Li  Li59  1  0.07285592  0.02662490  0.81988094  1
  Li  Li60  1  0.95376897  0.02662490  0.18011906  1
  Li  Li61  1  0.07285592  0.04623103  0.18011906  1
  Li  Li62  1  0.97337510  0.92714408  0.18011906  1
  Li  Li63  1  0.28929514  0.19643264  0.06476758  1
  Li  Li64  1  0.80356736  0.09286251  0.06476758  1
  Li  Li65  1  0.90713749  0.71070486  0.06476758  1
  Li  Li66  1  0.80356736  0.71070486  0.93523242  1
  Li  Li67  1  0.90713749  0.19643264  0.93523242  1
  Li  Li68  1  0.28929514  0.09286251  0.93523242  1
  Li  Li69  1  0.62431487  0.39420954  0.10969182  1
  Li  Li70  1  0.60579046  0.23010533  0.10969182  1
  Li  Li71  1  0.76989467  0.37568513  0.10969182  1
  Li  Li72  1  0.60579046  0.37568513  0.89030818  1
  Li  Li73  1  0.76989467  0.39420954  0.89030818  1
  Li  Li74  1  0.62431487  0.23010533  0.89030818  1
  Li  Li75  1  0.82155140  0.49045295  0.79880718  1
  Li  Li76  1  0.50954705  0.33109845  0.79880718  1
  Li  Li77  1  0.66890155  0.17844860  0.79880718  1
  Li  Li78  1  0.50954705  0.17844860  0.20119282  1
  Li  Li79  1  0.66890155  0.49045295  0.20119282  1
  Li  Li80  1  0.82155140  0.33109845  0.20119282  1
  Li  Li81  1  0.94254991  0.52048929  0.96370862  1
  Li  Li82  1  0.47951071  0.42206062  0.96370862  1
  Li  Li83  1  0.57793938  0.05745009  0.96370862  1
  Li  Li84  1  0.47951071  0.05745009  0.03629138  1
  Li  Li85  1  0.57793938  0.52048929  0.03629138  1
  Li  Li86  1  0.94254991  0.42206062  0.03629138  1
  Li  Li87  1  0.79292794  0.20707206  0.50000000  1
  Li  Li88  1  0.79292794  0.58585589  0.50000000  1
  Li  Li89  1  0.41414411  0.20707206  0.50000000  1
  Li  Li90  1  0.78185807  0.09981476  0.41315713  1
  Li  Li91  1  0.90018524  0.68204331  0.41315713  1
  Li  Li92  1  0.31795669  0.21814193  0.41315713  1
  Li  Li93  1  0.90018524  0.21814193  0.58684287  1
  Li  Li94  1  0.31795669  0.09981476  0.58684287  1
  Li  Li95  1  0.78185807  0.68204331  0.58684287  1
  Li  Li96  1  0.38604696  0.48225568  0.35786353  1
  Li  Li97  1  0.51774432  0.90379128  0.35786353  1
  Li  Li98  1  0.09620872  0.61395304  0.35786353  1
  Li  Li99  1  0.51774432  0.61395304  0.64213647  1
  Li  Li100  1  0.09620872  0.48225568  0.64213647  1
  Li  Li101  1  0.38604696  0.90379128  0.64213647  1
  Li  Li102  1  0.94482634  0.84289186  0.09386121  1
  Li  Li103  1  0.15710814  0.10193448  0.09386121  1
  Li  Li104  1  0.89806552  0.05517366  0.09386121  1
  Li  Li105  1  0.15710814  0.05517366  0.90613879  1
  Li  Li106  1  0.89806552  0.84289186  0.90613879  1
  Li  Li107  1  0.94482634  0.10193448  0.90613879  1
  Li  Li108  1  0.41939531  0.82402534  0.28848784  1
  Li  Li109  1  0.17597466  0.59536996  0.28848784  1
  Li  Li110  1  0.40463004  0.58060469  0.28848784  1
  Li  Li111  1  0.17597466  0.58060469  0.71151216  1
  Li  Li112  1  0.40463004  0.82402534  0.71151216  1
  Li  Li113  1  0.41939531  0.59536996  0.71151216  1
  Li  Li114  1  0.41691089  0.32555159  0.02195032  1
  Li  Li115  1  0.67444841  0.09135930  0.02195032  1
  Li  Li116  1  0.90864070  0.58308911  0.02195032  1
  Li  Li117  1  0.67444841  0.58308911  0.97804968  1
  Li  Li118  1  0.90864070  0.32555159  0.97804968  1
  Li  Li119  1  0.41691089  0.09135930  0.97804968  1
  Li  Li120  1  0.55265262  0.87502796  0.84092345  1
  Li  Li121  1  0.12497204  0.67762465  0.84092345  1
  Li  Li122  1  0.32237535  0.44734738  0.84092345  1
  Li  Li123  1  0.12497204  0.44734738  0.15907655  1
  Li  Li124  1  0.32237535  0.87502796  0.15907655  1
  Li  Li125  1  0.55265262  0.67762465  0.15907655  1
  Li  Li126  1  0.94042070  0.69865890  0.57025958  1
  Li  Li127  1  0.30134110  0.24176180  0.57025958  1
  Li  Li128  1  0.75823820  0.05957930  0.57025958  1
  Li  Li129  1  0.30134110  0.05957930  0.42974042  1
  Li  Li130  1  0.75823820  0.69865890  0.42974042  1
  Li  Li131  1  0.94042070  0.24176180  0.42974042  1
  Li  Li132  1  0.41895473  0.58104527  0.50000000  1
  Li  Li133  1  0.41895473  0.83790946  0.50000000  1
  Li  Li134  1  0.16209054  0.58104527  0.50000000  1
  Li  Li135  1  0.30560605  0.97219812  0.70740459  1
  Li  Li136  1  0.02780188  0.33340793  0.70740459  1
  Li  Li137  1  0.66659207  0.69439395  0.70740459  1
  Li  Li138  1  0.02780188  0.69439395  0.29259541  1
  Li  Li139  1  0.66659207  0.97219812  0.29259541  1
  Li  Li140  1  0.30560605  0.33340793  0.29259541  1
  Li  Li141  1  0.81210280  0.18789720  0.00000000  1
  Li  Li142  1  0.81210280  0.62420560  0.00000000  1
  Li  Li143  1  0.37579440  0.18789720  0.00000000  1
  Te  Te144  1  0.33333333  0.66666667  0.50000000  1
  Te  Te145  1  0.66666667  0.33333333  0.82350199  1
  Te  Te146  1  0.66666667  0.33333333  0.17649801  1
  Te  Te147  1  0.55511613  0.08135969  0.12967443  1
  Te  Te148  1  0.91864031  0.47375643  0.12967443  1
  Te  Te149  1  0.52624357  0.44488387  0.12967443  1
  Te  Te150  1  0.91864031  0.44488387  0.87032557  1
  Te  Te151  1  0.52624357  0.08135969  0.87032557  1
  Te  Te152  1  0.55511613  0.47375643  0.87032557  1
  Te  Te153  1  0.66977730  0.76084923  0.05805678  1
  Te  Te154  1  0.23915077  0.90892807  0.05805678  1
  Te  Te155  1  0.09107193  0.33022270  0.05805678  1
  Te  Te156  1  0.23915077  0.33022270  0.94194322  1
  Te  Te157  1  0.09107193  0.76084923  0.94194322  1
  Te  Te158  1  0.66977730  0.90892807  0.94194322  1
  Te  Te159  1  0.33333333  0.66666667  0.00000000  1
  Te  Te160  1  0.07966147  0.18339965  0.75550855  1
  Te  Te161  1  0.81660035  0.89626181  0.75550855  1
  Te  Te162  1  0.10373819  0.92033853  0.75550855  1
  Te  Te163  1  0.81660035  0.92033853  0.24449145  1
  Te  Te164  1  0.10373819  0.18339965  0.24449145  1
  Te  Te165  1  0.07966147  0.89626181  0.24449145  1
  Te  Te166  1  0.33333333  0.66666667  0.64570035  1
  Te  Te167  1  0.33333333  0.66666667  0.35429965  1
