# generated using pymatgen
data_LiF
_symmetry_space_group_name_H-M   'P 1'
_cell_length_a   10.08092927
_cell_length_b   10.08092927
_cell_length_c   5.36886210
_cell_angle_alpha   90.00000000
_cell_angle_beta   90.00000000
_cell_angle_gamma   120.00000000
_symmetry_Int_Tables_number   1
_chemical_formula_structural   LiF
_chemical_formula_sum   'Li24 F24'
_cell_volume   472.51327662
_cell_formula_units_Z   24
loop_
 _symmetry_equiv_pos_site_id
 _symmetry_equiv_pos_as_xyz
  1  'x, y, z'
loop_
 _atom_site_type_symbol
 _atom_site_label
 _atom_site_symmetry_multiplicity
 _atom_site_fract_x
 _atom_site_fract_y
 _atom_site_fract_z
 _atom_site_occupancy
  F  F0  1  0.05229774  0.10459548  0.38322281  1
  F  F1  1  -0.10459548  -0.05229774  0.38322281  1
  F  F2  1  0.05229774  -0.05229774  0.38322281  1
  F  F3  1  -0.05229774  -0.10459548  0.88322281  1
  F  F4  1  0.10459548  0.05229774  0.88322281  1
  F  F5  1  -0.05229774  0.05229774  0.88322281  1
  F  F6  1  0.10459548  0.05229774  -0.38322281  1
  F  F7  1  -0.05229774  -0.10459548  -0.38322281  1
  F  F8  1  -0.05229774  0.05229774  -0.38322281  1
  F  F9  1  -0.10459548  -0.05229774  0.11677719  1
  F  F10  1  0.05229774  0.10459548  0.11677719  1
  F  F11  1  0.05229774  -0.05229774  0.11677719  1
  F  F12  1  0.09735906  -0.00000000  0.00000000  1
  F  F13  1  0.00000000  0.09735906  0.00000000  1
  F  F14  1  0.90264094  0.90264094  0.00000000  1
  F  F15  1  0.90264094  -0.00000000  0.50000000  1
  F  F16  1  0.00000000  0.90264094  0.50000000  1
  F  F17  1  0.09735906  0.09735906  0.50000000  1
  F  F18  1  0.90264094  -0.00000000  0.00000000  1
  F  F19  1  0.00000000  0.90264094  0.00000000  1
  F  F20  1  0.09735906  0.09735906  0.00000000  1
  F  F21  1  0.09735906  -0.00000000  0.50000000  1
  F  F22  1  0.00000000  0.09735906  0.50000000  1
  F  F23  1  0.90264094  0.90264094  0.50000000  1
  Li  Li24  1  0.82811007  0.65622014  0.25000000  1
  Li  Li25  1  0.34377986  0.17188993  0.25000000  1
  Li  Li26  1  0.82811007  0.17188993  0.25000000  1
  Li  Li27  1  0.17188993  0.34377986  0.75000000  1
  Li  Li28  1  0.65622014  0.82811007  0.75000000  1
  Li  Li29  1  0.17188993  0.82811007  0.75000000  1
  Li  Li30  1  0.47076166  0.94152331  0.11718571  1
  Li  Li31  1  0.05847669  0.52923834  0.11718571  1
  Li  Li32  1  0.47076166  0.52923834  0.11718571  1
  Li  Li33  1  0.52923834  0.05847669  0.61718571  1
  Li  Li34  1  0.94152331  0.47076166  0.61718571  1
  Li  Li35  1  0.52923834  0.47076166  0.61718571  1
  Li  Li36  1  0.94152331  0.47076166  0.88281429  1
  Li  Li37  1  0.52923834  0.05847669  0.88281429  1
  Li  Li38  1  0.52923834  0.47076166  0.88281429  1
  Li  Li39  1  0.05847669  0.52923834  0.38281429  1
  Li  Li40  1  0.47076166  0.94152331  0.38281429  1
  Li  Li41  1  0.47076166  0.52923834  0.38281429  1
  Li  Li42  1  0.00000000  0.00000000  0.25000000  1
  Li  Li43  1  0.00000000  0.00000000  0.75000000  1
  Li  Li44  1  0.33333333  0.66666667  0.75000000  1
  Li  Li45  1  0.66666667  0.33333333  0.25000000  1
  Li  Li46  1  0.33333333  0.66666667  0.25000000  1
  Li  Li47  1  0.66666667  0.33333333  0.75000000  1
