# generated using pymatgen
data_LiF
_symmetry_space_group_name_H-M   'P 1'
_cell_length_a   6.61731697
_cell_length_b   14.42184636
_cell_length_c   7.34089271
_cell_angle_alpha   90.00000000
_cell_angle_beta   90.00000000
_cell_angle_gamma   90.00000000
_symmetry_Int_Tables_number   1
_chemical_formula_structural   LiF
_chemical_formula_sum   'Li28 F28'
_cell_volume   700.57023079
_cell_formula_units_Z   28
loop_
 _symmetry_equiv_pos_site_id
 _symmetry_equiv_pos_as_xyz
  1  'x, y, z'
loop_
 _atom_site_type_symbol
 _atom_site_label
 _atom_site_symmetry_multiplicity
 _atom_site_fract_x
 _atom_site_fract_y
 _atom_site_fract_z
 _atom_site_occupancy
  F  F0  1  0.10111989  0.66055167  0.50000000  1
  F  F1  1  0.89888011  0.33944833  0.50000000  1
  F  F2  1  0.39888011  0.16055167  0.50000000  1
  F  F3  1  0.60111989  0.83944833  0.50000000  1
  F  F4  1  0.37115999  0.57675802  0.00000000  1
  F  F5  1  0.62884001  0.42324198  -0.00000000  1
  F  F6  1  0.12884001  0.07675802  0.00000000  1
  F  F7  1  0.87115999  0.92324198  0.00000000  1
  F  F8  1  0.00000000  0.00000000  0.27259908  1
  F  F9  1  0.50000000  0.50000000  0.72740092  1
  F  F10  1  0.00000000  0.00000000  0.72740092  1
  F  F11  1  0.50000000  0.50000000  0.27259908  1
  F  F12  1  0.76329736  0.01475567  0.70720131  1
  F  F13  1  0.23670264  0.98524433  0.70720131  1
  F  F14  1  0.73670264  0.51475567  0.29279869  1
  F  F15  1  0.26329736  0.48524433  0.29279869  1
  F  F16  1  0.23670264  0.98524433  0.29279869  1
  F  F17  1  0.76329736  0.01475567  0.29279869  1
  F  F18  1  0.26329736  0.48524433  0.70720131  1
  F  F19  1  0.73670264  0.51475567  0.70720131  1
  F  F20  1  0.72490016  0.57740446  0.94871704  1
  F  F21  1  0.27509984  0.42259554  0.94871704  1
  F  F22  1  0.77509984  0.07740446  0.05128296  1
  F  F23  1  0.22490016  0.92259554  0.05128296  1
  F  F24  1  0.27509984  0.42259554  0.05128296  1
  F  F25  1  0.72490016  0.57740446  0.05128296  1
  F  F26  1  0.22490016  0.92259554  0.94871704  1
  F  F27  1  0.77509984  0.07740446  0.94871704  1
  Li  Li28  1  0.56179948  0.82820439  0.20285808  1
  Li  Li29  1  -0.56179948  -0.82820439  0.20285808  1
  Li  Li30  1  -0.06179948  1.32820439  -0.20285808  1
  Li  Li31  1  1.06179948  -0.32820439  -0.20285808  1
  Li  Li32  1  -0.56179948  -0.82820439  -0.20285808  1
  Li  Li33  1  0.56179948  0.82820439  -0.20285808  1
  Li  Li34  1  1.06179948  -0.32820439  0.20285808  1
  Li  Li35  1  -0.06179948  1.32820439  0.20285808  1
  Li  Li36  1  0.01108538  0.55559857  0.16201381  1
  Li  Li37  1  0.98891462  0.44440143  0.16201381  1
  Li  Li38  1  0.48891462  0.05559857  0.83798619  1
  Li  Li39  1  0.51108538  0.94440143  0.83798619  1
  Li  Li40  1  0.98891462  0.44440143  0.83798619  1
  Li  Li41  1  0.01108538  0.55559857  0.83798619  1
  Li  Li42  1  0.51108538  0.94440143  0.16201381  1
  Li  Li43  1  0.48891462  0.05559857  0.16201381  1
  Li  Li44  1  0.13516863  0.31824400  0.50000000  1
  Li  Li45  1  0.86483137  0.68175600  0.50000000  1
  Li  Li46  1  0.36483137  0.81824400  0.50000000  1
  Li  Li47  1  0.63516863  0.18175600  0.50000000  1
  Li  Li48  1  0.60776330  0.58157520  0.50000000  1
  Li  Li49  1  0.39223670  0.41842480  0.50000000  1
  Li  Li50  1  0.89223670  0.08157520  0.50000000  1
  Li  Li51  1  0.10776330  0.91842480  0.50000000  1
  Li  Li52  1  0.00000000  0.50000000  0.50000000  1
  Li  Li53  1  0.50000000  0.00000000  0.50000000  1
  Li  Li54  1  0.00000000  0.50000000  0.00000000  1
  Li  Li55  1  0.50000000  0.00000000  -0.00000000  1
