# generated using pymatgen
data_LiF
_symmetry_space_group_name_H-M   'P 1'
_cell_length_a   7.34115371
_cell_length_b   7.34115371
_cell_length_c   19.96657040
_cell_angle_alpha   90.00000000
_cell_angle_beta   90.00000000
_cell_angle_gamma   120.00000000
_symmetry_Int_Tables_number   1
_chemical_formula_structural   LiF
_chemical_formula_sum   'Li28 F28'
_cell_volume   931.88589864
_cell_formula_units_Z   28
loop_
 _symmetry_equiv_pos_site_id
 _symmetry_equiv_pos_as_xyz
  1  'x, y, z'
loop_
 _atom_site_type_symbol
 _atom_site_label
 _atom_site_symmetry_multiplicity
 _atom_site_fract_x
 _atom_site_fract_y
 _atom_site_fract_z
 _atom_site_occupancy
  F  F0  1  0.00000000  0.00000000  0.50000000  1
  F  F1  1  0.09207492  0.30728883  0.98873102  1
  F  F2  1  0.69271117  0.78478608  0.98873102  1
  F  F3  1  0.21521392  0.90792508  0.98873102  1
  F  F4  1  0.69271117  0.90792508  0.01126898  1
  F  F5  1  0.21521392  0.30728883  0.01126898  1
  F  F6  1  0.09207492  0.78478608  0.01126898  1
  F  F7  1  0.66666667  0.33333333  0.00000000  1
  F  F8  1  0.66666667  0.33333333  0.91730927  1
  F  F9  1  0.66666667  0.33333333  0.08269073  1
  F  F10  1  0.62489973  0.06826114  0.67404064  1
  F  F11  1  0.93173886  0.55663859  0.67404064  1
  F  F12  1  0.44336141  0.37510027  0.67404064  1
  F  F13  1  0.93173886  0.37510027  0.32595936  1
  F  F14  1  0.44336141  0.06826114  0.32595936  1
  F  F15  1  0.62489973  0.55663859  0.32595936  1
  F  F16  1  0.80070844  0.97977452  0.03147958  1
  F  F17  1  0.02022548  0.82093391  0.03147958  1
  F  F18  1  0.17906609  0.19929156  0.03147958  1
  F  F19  1  0.02022548  0.19929156  0.96852042  1
  F  F20  1  0.17906609  0.97977452  0.96852042  1
  F  F21  1  0.80070844  0.82093391  0.96852042  1
  F  F22  1  0.82277707  0.64321272  0.64314012  1
  F  F23  1  0.35678728  0.17956435  0.64314012  1
  F  F24  1  0.82043565  0.17722293  0.64314012  1
  F  F25  1  0.35678728  0.17722293  0.35685988  1
  F  F26  1  0.82043565  0.64321272  0.35685988  1
  F  F27  1  0.82277707  0.17956435  0.35685988  1
  Li  Li28  1  0.64601921  0.80680054  0.64242443  1
  Li  Li29  1  -0.80680054  -0.16078133  0.64242443  1
  Li  Li30  1  0.16078133  -0.64601921  0.64242443  1
  Li  Li31  1  -0.80680054  -0.64601921  -0.64242443  1
  Li  Li32  1  0.16078133  0.80680054  -0.64242443  1
  Li  Li33  1  0.64601921  -0.16078133  -0.64242443  1
  Li  Li34  1  0.27844993  0.99208707  0.13751132  1
  Li  Li35  1  0.00791293  0.28636285  0.13751132  1
  Li  Li36  1  0.71363715  0.72155007  0.13751132  1
  Li  Li37  1  0.00791293  0.72155007  0.86248868  1
  Li  Li38  1  0.71363715  0.99208707  0.86248868  1
  Li  Li39  1  0.27844993  0.28636285  0.86248868  1
  Li  Li40  1  0.73940345  0.55855367  0.29479612  1
  Li  Li41  1  0.44144633  0.18084978  0.29479612  1
  Li  Li42  1  0.81915022  0.26059655  0.29479612  1
  Li  Li43  1  0.44144633  0.26059655  0.70520388  1
  Li  Li44  1  0.81915022  0.55855367  0.70520388  1
  Li  Li45  1  0.73940345  0.18084978  0.70520388  1
  Li  Li46  1  0.50503437  0.26223663  0.12861856  1
  Li  Li47  1  0.73776337  0.24279774  0.12861856  1
  Li  Li48  1  0.75720226  0.49496563  0.12861856  1
  Li  Li49  1  0.73776337  0.49496563  0.87138144  1
  Li  Li50  1  0.75720226  0.26223663  0.87138144  1
  Li  Li51  1  0.50503437  0.24279774  0.87138144  1
  Li  Li52  1  0.00000000  0.00000000  0.00000000  1
  Li  Li53  1  0.78929718  0.21070282  0.50000000  1
  Li  Li54  1  0.78929718  0.57859435  0.50000000  1
  Li  Li55  1  0.42140565  0.21070282  0.50000000  1
