# generated using pymatgen
data_LiF
_symmetry_space_group_name_H-M   'P 1'
_cell_length_a   3.28003762
_cell_length_b   3.28003762
_cell_length_c   28.48096840
_cell_angle_alpha   90.00000000
_cell_angle_beta   90.00000000
_cell_angle_gamma   120.00000000
_symmetry_Int_Tables_number   1
_chemical_formula_structural   LiF
_chemical_formula_sum   'Li16 F16'
_cell_volume   265.36462841
_cell_formula_units_Z   16
loop_
 _symmetry_equiv_pos_site_id
 _symmetry_equiv_pos_as_xyz
  1  'x, y, z'
loop_
 _atom_site_type_symbol
 _atom_site_label
 _atom_site_symmetry_multiplicity
 _atom_site_fract_x
 _atom_site_fract_y
 _atom_site_fract_z
 _atom_site_occupancy
  F  F0  1  0.33333333  0.66666667  0.53108588  1
  F  F1  1  0.33333333  0.66666667  0.46891412  1
  F  F2  1  0.33333333  0.66666667  0.75502944  1
  F  F3  1  0.33333333  0.66666667  0.24497056  1
  F  F4  1  0.32738237  0.95122072  0.48499147  1
  F  F5  1  0.04877928  0.37616165  0.48499147  1
  F  F6  1  0.62383835  0.67261763  0.48499147  1
  F  F7  1  0.04877928  0.67261763  0.51500853  1
  F  F8  1  0.62383835  0.95122072  0.51500853  1
  F  F9  1  0.32738237  0.37616165  0.51500853  1
  F  F10  1  0.05628823  0.72871212  0.95030842  1
  F  F11  1  0.27128788  0.32757611  0.95030842  1
  F  F12  1  0.67242389  0.94371177  0.95030842  1
  F  F13  1  0.27128788  0.94371177  0.04969158  1
  F  F14  1  0.67242389  0.72871212  0.04969158  1
  F  F15  1  0.05628823  0.32757611  0.04969158  1
  Li  Li16  1  0.00000000  0.00000000  0.35210090  1
  Li  Li17  1  0.00000000  0.00000000  0.64789910  1
  Li  Li18  1  0.66666667  0.33333333  0.62887492  1
  Li  Li19  1  0.66666667  0.33333333  0.37112508  1
  Li  Li20  1  0.34222435  0.23553122  0.74897464  1
  Li  Li21  1  -0.23553122  0.10669313  0.74897464  1
  Li  Li22  1  -0.10669313  -0.34222435  0.74897464  1
  Li  Li23  1  -0.23553122  -0.34222435  -0.74897464  1
  Li  Li24  1  -0.10669313  0.23553122  -0.74897464  1
  Li  Li25  1  0.34222435  0.10669313  -0.74897464  1
  Li  Li26  1  0.33333333  0.66666667  0.70169495  1
  Li  Li27  1  0.33333333  0.66666667  0.29830505  1
  Li  Li28  1  0.00000000  0.00000000  0.13100362  1
  Li  Li29  1  0.00000000  0.00000000  0.86899638  1
  Li  Li30  1  0.33333333  0.66666667  0.00000000  1
  Li  Li31  1  0.66666667  0.33333333  0.00000000  1
