# generated using pymatgen
data_LiF
_symmetry_space_group_name_H-M   'P 1'
_cell_length_a   13.45717065
_cell_length_b   13.45717065
_cell_length_c   9.23992096
_cell_angle_alpha   90.00000000
_cell_angle_beta   90.00000000
_cell_angle_gamma   90.00000000
_symmetry_Int_Tables_number   1
_chemical_formula_structural   LiF
_chemical_formula_sum   'Li64 F64'
_cell_volume   1673.30756857
_cell_formula_units_Z   64
loop_
 _symmetry_equiv_pos_site_id
 _symmetry_equiv_pos_as_xyz
  1  'x, y, z'
loop_
 _atom_site_type_symbol
 _atom_site_label
 _atom_site_symmetry_multiplicity
 _atom_site_fract_x
 _atom_site_fract_y
 _atom_site_fract_z
 _atom_site_occupancy
  F  F0  1  0.40678497  0.60074617  0.27586194  1
  F  F1  1  0.09321503  0.39925383  0.77586194  1
  F  F2  1  0.64925383  0.15678497  0.52586194  1
  F  F3  1  0.85074617  0.84321503  0.02586194  1
  F  F4  1  0.09321503  0.60074617  0.72413806  1
  F  F5  1  0.40678497  0.39925383  0.22413806  1
  F  F6  1  0.85074617  0.15678497  0.47413806  1
  F  F7  1  0.64925383  0.84321503  0.97413806  1
  F  F8  1  0.59321503  0.39925383  0.72413806  1
  F  F9  1  0.90678497  0.60074617  0.22413806  1
  F  F10  1  0.35074617  0.84321503  0.47413806  1
  F  F11  1  0.14925383  0.15678497  0.97413806  1
  F  F12  1  0.90678497  0.39925383  0.27586194  1
  F  F13  1  0.59321503  0.60074617  0.77586194  1
  F  F14  1  0.14925383  0.84321503  0.52586194  1
  F  F15  1  0.35074617  0.15678497  0.02586194  1
  F  F16  1  0.90678497  0.10074617  0.77586194  1
  F  F17  1  0.59321503  0.89925383  0.27586194  1
  F  F18  1  0.14925383  0.65678497  0.02586194  1
  F  F19  1  0.35074617  0.34321503  0.52586194  1
  F  F20  1  0.59321503  0.10074617  0.22413806  1
  F  F21  1  0.90678497  0.89925383  0.72413806  1
  F  F22  1  0.35074617  0.65678497  0.97413806  1
  F  F23  1  0.14925383  0.34321503  0.47413806  1
  F  F24  1  0.09321503  0.89925383  0.22413806  1
  F  F25  1  0.40678497  0.10074617  0.72413806  1
  F  F26  1  0.85074617  0.34321503  0.97413806  1
  F  F27  1  0.64925383  0.65678497  0.47413806  1
  F  F28  1  0.40678497  0.89925383  0.77586194  1
  F  F29  1  0.09321503  0.10074617  0.27586194  1
  F  F30  1  0.64925383  0.34321503  0.02586194  1
  F  F31  1  0.85074617  0.65678497  0.52586194  1
  F  F32  1  0.91406833  0.17230385  0.89745083  1
  F  F33  1  0.58593167  0.82769615  0.39745083  1
  F  F34  1  0.07769615  0.66406833  0.14745083  1
  F  F35  1  0.42230385  0.33593167  0.64745083  1
  F  F36  1  0.58593167  0.17230385  0.10254917  1
  F  F37  1  0.91406833  0.82769615  0.60254917  1
  F  F38  1  0.42230385  0.66406833  0.85254917  1
  F  F39  1  0.07769615  0.33593167  0.35254917  1
  F  F40  1  0.08593167  0.82769615  0.10254917  1
  F  F41  1  0.41406833  0.17230385  0.60254917  1
  F  F42  1  0.92230385  0.33593167  0.85254917  1
  F  F43  1  0.57769615  0.66406833  0.35254917  1
  F  F44  1  0.41406833  0.82769615  0.89745083  1
  F  F45  1  0.08593167  0.17230385  0.39745083  1
  F  F46  1  0.57769615  0.33593167  0.14745083  1
  F  F47  1  0.92230385  0.66406833  0.64745083  1
  F  F48  1  0.41406833  0.67230385  0.39745083  1
  F  F49  1  0.08593167  0.32769615  0.89745083  1
  F  F50  1  0.57769615  0.16406833  0.64745083  1
  F  F51  1  0.92230385  0.83593167  0.14745083  1
  F  F52  1  0.08593167  0.67230385  0.60254917  1
  F  F53  1  0.41406833  0.32769615  0.10254917  1
  F  F54  1  0.92230385  0.16406833  0.35254917  1
  F  F55  1  0.57769615  0.83593167  0.85254917  1
  F  F56  1  0.58593167  0.32769615  0.60254917  1
  F  F57  1  0.91406833  0.67230385  0.10254917  1
  F  F58  1  0.42230385  0.83593167  0.35254917  1
  F  F59  1  0.07769615  0.16406833  0.85254917  1
  F  F60  1  0.91406833  0.32769615  0.39745083  1
  F  F61  1  0.58593167  0.67230385  0.89745083  1
  F  F62  1  0.07769615  0.83593167  0.64745083  1
  F  F63  1  0.42230385  0.16406833  0.14745083  1
  Li  Li64  1  0.00000000  0.25000000  0.12500000  1
  Li  Li65  1  0.00000000  0.75000000  0.37500000  1
  Li  Li66  1  0.00000000  0.75000000  0.87500000  1
  Li  Li67  1  0.00000000  0.25000000  0.62500000  1
  Li  Li68  1  0.50000000  0.75000000  0.62500000  1
  Li  Li69  1  0.50000000  0.25000000  0.87500000  1
  Li  Li70  1  0.50000000  0.25000000  0.37500000  1
  Li  Li71  1  0.50000000  0.75000000  0.12500000  1
  Li  Li72  1  0.80235914  0.05235914  0.12500000  1
  Li  Li73  1  0.69764086  0.94764086  0.62500000  1
  Li  Li74  1  0.19764086  0.55235914  0.37500000  1
  Li  Li75  1  0.30235914  0.44764086  0.87500000  1
  Li  Li76  1  0.19764086  0.94764086  0.87500000  1
  Li  Li77  1  0.30235914  0.05235914  0.37500000  1
  Li  Li78  1  0.80235914  0.44764086  0.62500000  1
  Li  Li79  1  0.69764086  0.55235914  0.12500000  1
  Li  Li80  1  0.30235914  0.55235914  0.62500000  1
  Li  Li81  1  0.19764086  0.44764086  0.12500000  1
  Li  Li82  1  0.69764086  0.05235914  0.87500000  1
  Li  Li83  1  0.80235914  0.94764086  0.37500000  1
  Li  Li84  1  0.69764086  0.44764086  0.37500000  1
  Li  Li85  1  0.80235914  0.55235914  0.87500000  1
  Li  Li86  1  0.30235914  0.94764086  0.12500000  1
  Li  Li87  1  0.19764086  0.05235914  0.62500000  1
  Li  Li88  1  0.98302496  0.37416412  0.81109517  1
  Li  Li89  1  -0.48302496  -0.37416412  1.31109517  1
  Li  Li90  1  -0.12416412  1.73302496  1.06109517  1
  Li  Li91  1  0.62416412  -0.73302496  1.56109517  1
  Li  Li92  1  -0.48302496  0.37416412  -0.81109517  1
  Li  Li93  1  0.98302496  -0.37416412  -0.31109517  1
  Li  Li94  1  0.62416412  1.73302496  -0.06109517  1
  Li  Li95  1  -0.12416412  -0.73302496  -0.56109517  1
  Li  Li96  1  -0.98302496  -0.37416412  -0.81109517  1
  Li  Li97  1  1.48302496  0.37416412  -0.31109517  1
  Li  Li98  1  1.12416412  -0.73302496  -0.06109517  1
  Li  Li99  1  0.37583588  1.73302496  -0.56109517  1
  Li  Li100  1  1.48302496  -0.37416412  0.81109517  1
  Li  Li101  1  -0.98302496  0.37416412  1.31109517  1
  Li  Li102  1  0.37583588  -0.73302496  1.06109517  1
  Li  Li103  1  1.12416412  1.73302496  1.56109517  1
  Li  Li104  1  1.48302496  0.87416412  1.31109517  1
  Li  Li105  1  0.01697504  0.12583588  1.81109517  1
  Li  Li106  1  0.37583588  2.23302496  1.56109517  1
  Li  Li107  1  1.12416412  -0.23302496  2.06109517  1
  Li  Li108  1  0.01697504  0.87416412  -0.31109517  1
  Li  Li109  1  1.48302496  0.12583588  0.18890483  1
  Li  Li110  1  1.12416412  2.23302496  0.43890483  1
  Li  Li111  1  0.37583588  -0.23302496  -0.06109517  1
  Li  Li112  1  -0.48302496  0.12583588  -0.31109517  1
  Li  Li113  1  1.98302496  0.87416412  0.18890483  1
  Li  Li114  1  1.62416412  -0.23302496  0.43890483  1
  Li  Li115  1  0.87583588  2.23302496  -0.06109517  1
  Li  Li116  1  1.98302496  0.12583588  1.31109517  1
  Li  Li117  1  -0.48302496  0.87416412  1.81109517  1
  Li  Li118  1  0.87583588  -0.23302496  1.56109517  1
  Li  Li119  1  1.62416412  2.23302496  2.06109517  1
  Li  Li120  1  0.00000000  0.25000000  0.37500000  1
  Li  Li121  1  0.00000000  0.75000000  0.62500000  1
  Li  Li122  1  0.50000000  0.25000000  0.62500000  1
  Li  Li123  1  0.50000000  0.75000000  0.37500000  1
  Li  Li124  1  0.50000000  0.75000000  0.87500000  1
  Li  Li125  1  0.50000000  0.25000000  0.12500000  1
  Li  Li126  1  0.00000000  0.75000000  0.12500000  1
  Li  Li127  1  0.00000000  0.25000000  0.87500000  1
