# generated using pymatgen
data_LiCaF3
_symmetry_space_group_name_H-M   'P 1'
_cell_length_a   17.92937548
_cell_length_b   17.92937548
_cell_length_c   5.39148105
_cell_angle_alpha   90.00000000
_cell_angle_beta   90.00000000
_cell_angle_gamma   120.00000000
_symmetry_Int_Tables_number   1
_chemical_formula_structural   LiCaF3
_chemical_formula_sum   'Li18 Ca18 F54'
_cell_volume   1500.95972730
_cell_formula_units_Z   18
loop_
 _symmetry_equiv_pos_site_id
 _symmetry_equiv_pos_as_xyz
  1  'x, y, z'
loop_
 _atom_site_type_symbol
 _atom_site_label
 _atom_site_symmetry_multiplicity
 _atom_site_fract_x
 _atom_site_fract_y
 _atom_site_fract_z
 _atom_site_occupancy
  Ca  Ca0  1  0.50000000  -0.00000000  0.00000000  1
  Ca  Ca1  1  0.00000000  0.50000000  0.00000000  1
  Ca  Ca2  1  0.50000000  0.50000000  0.00000000  1
  Ca  Ca3  1  0.00000000  0.50000000  0.50000000  1
  Ca  Ca4  1  0.50000000  -0.00000000  0.50000000  1
  Ca  Ca5  1  0.50000000  0.50000000  0.50000000  1
  Ca  Ca6  1  0.16666667  0.33333333  0.33333333  1
  Ca  Ca7  1  0.66666667  0.83333333  0.33333333  1
  Ca  Ca8  1  0.16666667  0.83333333  0.33333333  1
  Ca  Ca9  1  0.66666667  0.83333333  0.83333333  1
  Ca  Ca10  1  0.16666667  0.33333333  0.83333333  1
  Ca  Ca11  1  0.16666667  0.83333333  0.83333333  1
  Ca  Ca12  1  0.83333333  0.66666667  0.66666667  1
  Ca  Ca13  1  0.33333333  0.16666667  0.66666667  1
  Ca  Ca14  1  0.83333333  0.16666667  0.66666667  1
  Ca  Ca15  1  0.33333333  0.16666667  0.16666667  1
  Ca  Ca16  1  0.83333333  0.66666667  0.16666667  1
  Ca  Ca17  1  0.83333333  0.16666667  0.16666667  1
  F  F18  1  0.78260347  0.00571707  0.10665757  1
  F  F19  1  -0.00571707  0.77688641  0.10665757  1
  F  F20  1  -0.77688641  -0.78260347  0.10665757  1
  F  F21  1  0.00571707  0.78260347  0.39334243  1
  F  F22  1  0.77688641  -0.00571707  0.39334243  1
  F  F23  1  -0.78260347  -0.77688641  0.39334243  1
  F  F24  1  -0.78260347  -0.00571707  -0.10665757  1
  F  F25  1  0.00571707  -0.77688641  -0.10665757  1
  F  F26  1  0.77688641  0.78260347  -0.10665757  1
  F  F27  1  -0.00571707  -0.78260347  0.60665757  1
  F  F28  1  -0.77688641  0.00571707  0.60665757  1
  F  F29  1  0.78260347  0.77688641  0.60665757  1
  F  F30  1  1.44927014  0.33905040  0.43999090  1
  F  F31  1  0.66094960  1.11021974  0.43999090  1
  F  F32  1  -0.11021974  -0.44927014  0.43999090  1
  F  F33  1  0.67238374  1.11593681  0.72667576  1
  F  F34  1  1.44355307  0.32761626  0.72667576  1
  F  F35  1  -0.11593681  -0.44355307  0.72667576  1
  F  F36  1  -0.11593681  0.32761626  0.22667576  1
  F  F37  1  0.67238374  -0.44355307  0.22667576  1
  F  F38  1  1.44355307  1.11593681  0.22667576  1
  F  F39  1  0.66094960  -0.44927014  0.93999090  1
  F  F40  1  -0.11021974  0.33905040  0.93999090  1
  F  F41  1  1.44927014  1.11021974  0.93999090  1
  F  F42  1  1.11593681  0.67238374  0.77332424  1
  F  F43  1  0.32761626  1.44355307  0.77332424  1
  F  F44  1  -0.44355307  -0.11593681  0.77332424  1
  F  F45  1  0.33905040  1.44927014  1.06000910  1
  F  F46  1  1.11021974  0.66094960  1.06000910  1
  F  F47  1  -0.44927014  -0.11021974  1.06000910  1
  F  F48  1  -0.44927014  0.66094960  0.56000910  1
  F  F49  1  0.33905040  -0.11021974  0.56000910  1
  F  F50  1  1.11021974  1.44927014  0.56000910  1
  F  F51  1  0.32761626  -0.11593681  1.27332424  1
  F  F52  1  -0.44355307  0.67238374  1.27332424  1
  F  F53  1  1.11593681  1.44355307  1.27332424  1
  F  F54  1  0.34718053  0.00000000  0.25000000  1
  F  F55  1  0.00000000  0.34718053  0.25000000  1
  F  F56  1  0.65281947  0.65281947  0.25000000  1
  F  F57  1  0.65281947  -0.00000000  0.75000000  1
  F  F58  1  0.00000000  0.65281947  0.75000000  1
  F  F59  1  0.34718053  0.34718053  0.75000000  1
  F  F60  1  0.01384720  0.33333333  0.58333333  1
  F  F61  1  0.66666667  0.68051387  0.58333333  1
  F  F62  1  0.31948613  0.98615280  0.58333333  1
  F  F63  1  0.31948613  0.33333333  0.08333333  1
  F  F64  1  0.66666667  0.98615280  0.08333333  1
  F  F65  1  0.01384720  0.68051387  0.08333333  1
  F  F66  1  0.68051387  0.66666667  0.91666667  1
  F  F67  1  0.33333333  0.01384720  0.91666667  1
  F  F68  1  0.98615280  0.31948613  0.91666667  1
  F  F69  1  0.98615280  0.66666667  0.41666667  1
  F  F70  1  0.33333333  0.31948613  0.41666667  1
  F  F71  1  0.68051387  0.01384720  0.41666667  1
  Li  Li72  1  0.61494969  0.00000000  0.25000000  1
  Li  Li73  1  0.00000000  0.61494969  0.25000000  1
  Li  Li74  1  0.38505031  0.38505031  0.25000000  1
  Li  Li75  1  0.38505031  -0.00000000  0.75000000  1
  Li  Li76  1  0.00000000  0.38505031  0.75000000  1
  Li  Li77  1  0.61494969  0.61494969  0.75000000  1
  Li  Li78  1  0.28161636  0.33333333  0.58333333  1
  Li  Li79  1  0.66666667  0.94828303  0.58333333  1
  Li  Li80  1  0.05171697  0.71838364  0.58333333  1
  Li  Li81  1  0.05171697  0.33333333  0.08333333  1
  Li  Li82  1  0.66666667  0.71838364  0.08333333  1
  Li  Li83  1  0.28161636  0.94828303  0.08333333  1
  Li  Li84  1  0.94828303  0.66666667  0.91666667  1
  Li  Li85  1  0.33333333  0.28161636  0.91666667  1
  Li  Li86  1  0.71838364  0.05171697  0.91666667  1
  Li  Li87  1  0.71838364  0.66666667  0.41666667  1
  Li  Li88  1  0.33333333  0.05171697  0.41666667  1
  Li  Li89  1  0.94828303  0.28161636  0.41666667  1
