# generated using pymatgen
data_LiF
_symmetry_space_group_name_H-M   'P 1'
_cell_length_a   12.92009609
_cell_length_b   12.92009609
_cell_length_c   11.46505408
_cell_angle_alpha   90.00000000
_cell_angle_beta   90.00000000
_cell_angle_gamma   120.00000000
_symmetry_Int_Tables_number   1
_chemical_formula_structural   LiF
_chemical_formula_sum   'Li78 F78'
_cell_volume   1657.44156838
_cell_formula_units_Z   78
loop_
 _symmetry_equiv_pos_site_id
 _symmetry_equiv_pos_as_xyz
  1  'x, y, z'
loop_
 _atom_site_type_symbol
 _atom_site_label
 _atom_site_symmetry_multiplicity
 _atom_site_fract_x
 _atom_site_fract_y
 _atom_site_fract_z
 _atom_site_occupancy
  F  F0  1  0.64669032  0.82372434  0.01118643  1
  F  F1  1  0.17627566  0.82296598  0.01118643  1
  F  F2  1  0.17703402  0.35330968  0.01118643  1
  F  F3  1  0.82372434  0.64669032  0.48881357  1
  F  F4  1  0.82296598  0.17627566  0.48881357  1
  F  F5  1  0.35330968  0.17703402  0.48881357  1
  F  F6  1  0.35330968  0.17627566  0.98881357  1
  F  F7  1  0.82372434  0.17703402  0.98881357  1
  F  F8  1  0.82296598  0.64669032  0.98881357  1
  F  F9  1  0.17627566  0.35330968  0.51118643  1
  F  F10  1  0.17703402  0.82372434  0.51118643  1
  F  F11  1  0.64669032  0.82296598  0.51118643  1
  F  F12  1  0.31335699  0.15705767  0.34451977  1
  F  F13  1  0.84294233  0.15629932  0.34451977  1
  F  F14  1  0.84370068  0.68664301  0.34451977  1
  F  F15  1  0.49039101  0.98002366  0.82214690  1
  F  F16  1  0.48963265  0.50960899  0.82214690  1
  F  F17  1  0.01997634  0.51036735  0.82214690  1
  F  F18  1  0.01997634  0.50960899  0.32214690  1
  F  F19  1  0.49039101  0.51036735  0.32214690  1
  F  F20  1  0.48963265  0.98002366  0.32214690  1
  F  F21  1  0.84294233  0.68664301  0.84451977  1
  F  F22  1  0.84370068  0.15705767  0.84451977  1
  F  F23  1  0.31335699  0.15629932  0.84451977  1
  F  F24  1  0.98002366  0.49039101  0.67785310  1
  F  F25  1  0.50960899  0.48963265  0.67785310  1
  F  F26  1  0.51036735  0.01997634  0.67785310  1
  F  F27  1  0.15705767  0.31335699  0.15548023  1
  F  F28  1  0.15629932  0.84294233  0.15548023  1
  F  F29  1  0.68664301  0.84370068  0.15548023  1
  F  F30  1  0.68664301  0.84294233  0.65548023  1
  F  F31  1  0.15705767  0.84370068  0.65548023  1
  F  F32  1  0.15629932  0.31335699  0.65548023  1
  F  F33  1  0.50960899  0.01997634  0.17785310  1
  F  F34  1  0.51036735  0.49039101  0.17785310  1
  F  F35  1  0.98002366  0.48963265  0.17785310  1
  F  F36  1  0.16833210  0.87210631  0.23468366  1
  F  F37  1  0.12789369  0.29622579  0.23468366  1
  F  F38  1  0.70377421  0.83166790  0.23468366  1
  F  F39  1  0.87210631  0.16833210  0.26531634  1
  F  F40  1  0.29622579  0.12789369  0.26531634  1
  F  F41  1  0.83166790  0.70377421  0.26531634  1
  F  F42  1  0.83166790  0.12789369  0.76531634  1
  F  F43  1  0.87210631  0.70377421  0.76531634  1
  F  F44  1  0.29622579  0.16833210  0.76531634  1
  F  F45  1  0.12789369  0.83166790  0.73468366  1
  F  F46  1  0.70377421  0.87210631  0.73468366  1
  F  F47  1  0.16833210  0.29622579  0.73468366  1
  F  F48  1  0.83499877  0.20543964  0.56801699  1
  F  F49  1  0.79456036  0.62955913  0.56801699  1
  F  F50  1  0.37044087  0.16500123  0.56801699  1
  F  F51  1  0.53877297  0.50166543  0.59864968  1
  F  F52  1  0.96289246  0.46122703  0.59864968  1
  F  F53  1  0.49833457  0.03710754  0.59864968  1
  F  F54  1  0.49833457  0.46122703  0.09864968  1
  F  F55  1  0.53877297  0.03710754  0.09864968  1
  F  F56  1  0.96289246  0.50166543  0.09864968  1
  F  F57  1  0.79456036  0.16500123  0.06801699  1
  F  F58  1  0.37044087  0.20543964  0.06801699  1
  F  F59  1  0.83499877  0.62955913  0.06801699  1
  F  F60  1  0.50166543  0.53877297  0.90135032  1
  F  F61  1  0.46122703  0.96289246  0.90135032  1
  F  F62  1  0.03710754  0.49833457  0.90135032  1
  F  F63  1  0.20543964  0.83499877  0.93198301  1
  F  F64  1  0.62955913  0.79456036  0.93198301  1
  F  F65  1  0.16500123  0.37044087  0.93198301  1
  F  F66  1  0.16500123  0.79456036  0.43198301  1
  F  F67  1  0.20543964  0.37044087  0.43198301  1
  F  F68  1  0.62955913  0.83499877  0.43198301  1
  F  F69  1  0.46122703  0.49833457  0.40135032  1
  F  F70  1  0.03710754  0.53877297  0.40135032  1
  F  F71  1  0.50166543  0.96289246  0.40135032  1
  F  F72  1  0.00000000  0.00000000  0.25000000  1
  F  F73  1  0.00000000  0.00000000  0.75000000  1
  F  F74  1  0.66666667  0.33333333  0.58333333  1
  F  F75  1  0.66666667  0.33333333  0.08333333  1
  F  F76  1  0.33333333  0.66666667  0.91666667  1
  F  F77  1  0.33333333  0.66666667  0.41666667  1
  Li  Li78  1  0.75712650  0.81631128  0.91546111  1
  Li  Li79  1  -0.81631128  -0.05918478  0.91546111  1
  Li  Li80  1  0.05918478  -0.75712650  0.91546111  1
  Li  Li81  1  0.81631128  0.75712650  -0.41546111  1
  Li  Li82  1  -0.05918478  -0.81631128  -0.41546111  1
  Li  Li83  1  -0.75712650  0.05918478  -0.41546111  1
  Li  Li84  1  -0.75712650  -0.81631128  -0.91546111  1
  Li  Li85  1  0.81631128  0.05918478  -0.91546111  1
  Li  Li86  1  -0.05918478  0.75712650  -0.91546111  1
  Li  Li87  1  -0.81631128  -0.75712650  1.41546111  1
  Li  Li88  1  0.05918478  0.81631128  1.41546111  1
  Li  Li89  1  0.75712650  -0.05918478  1.41546111  1
  Li  Li90  1  1.42379317  1.14964461  1.24879444  1
  Li  Li91  1  -0.14964461  0.27414855  1.24879444  1
  Li  Li92  1  0.72585145  -0.42379317  1.24879444  1
  Li  Li93  1  1.48297795  1.09045984  -0.08212777  1
  Li  Li94  1  0.60748189  -0.48297795  -0.08212777  1
  Li  Li95  1  -0.09045984  0.39251811  -0.08212777  1
  Li  Li96  1  -0.09045984  -0.48297795  -0.58212777  1
  Li  Li97  1  1.48297795  0.39251811  -0.58212777  1
  Li  Li98  1  0.60748189  1.09045984  -0.58212777  1
  Li  Li99  1  -0.14964461  -0.42379317  1.74879444  1
  Li  Li100  1  0.72585145  1.14964461  1.74879444  1
  Li  Li101  1  1.42379317  0.27414855  1.74879444  1
  Li  Li102  1  1.09045984  1.48297795  1.58212777  1
  Li  Li103  1  -0.48297795  0.60748189  1.58212777  1
  Li  Li104  1  0.39251811  -0.09045984  1.58212777  1
  Li  Li105  1  1.14964461  1.42379317  0.25120556  1
  Li  Li106  1  0.27414855  -0.14964461  0.25120556  1
  Li  Li107  1  -0.42379317  0.72585145  0.25120556  1
  Li  Li108  1  -0.42379317  -0.14964461  -0.24879444  1
  Li  Li109  1  1.14964461  0.72585145  -0.24879444  1
  Li  Li110  1  0.27414855  1.42379317  -0.24879444  1
  Li  Li111  1  -0.48297795  -0.09045984  2.08212777  1
  Li  Li112  1  0.39251811  1.48297795  2.08212777  1
  Li  Li113  1  1.09045984  0.60748189  2.08212777  1
  Li  Li114  1  0.15060252  0.27411529  0.82961866  1
  Li  Li115  1  0.72588471  0.87648723  0.82961866  1
  Li  Li116  1  0.12351277  0.84939748  0.82961866  1
  Li  Li117  1  0.27411529  0.15060252  0.67038134  1
  Li  Li118  1  0.87648723  0.72588471  0.67038134  1
  Li  Li119  1  0.84939748  0.12351277  0.67038134  1
  Li  Li120  1  0.84939748  0.72588471  0.17038134  1
  Li  Li121  1  0.27411529  0.12351277  0.17038134  1
  Li  Li122  1  0.87648723  0.15060252  0.17038134  1
  Li  Li123  1  0.72588471  0.84939748  0.32961866  1
  Li  Li124  1  0.12351277  0.27411529  0.32961866  1
  Li  Li125  1  0.15060252  0.87648723  0.32961866  1
  Li  Li126  1  0.81726919  0.60744862  0.16295199  1
  Li  Li127  1  0.39255138  0.20982057  0.16295199  1
  Li  Li128  1  0.79017943  0.18273081  0.16295199  1
  Li  Li129  1  0.94078196  0.48393586  0.00371468  1
  Li  Li130  1  0.54315390  0.05921804  0.00371468  1
  Li  Li131  1  0.51606414  0.45684610  0.00371468  1
  Li  Li132  1  0.51606414  0.05921804  0.50371468  1
  Li  Li133  1  0.94078196  0.45684610  0.50371468  1
  Li  Li134  1  0.54315390  0.48393586  0.50371468  1
  Li  Li135  1  0.39255138  0.18273081  0.66295199  1
  Li  Li136  1  0.79017943  0.60744862  0.66295199  1
  Li  Li137  1  0.81726919  0.20982057  0.66295199  1
  Li  Li138  1  0.48393586  0.94078196  0.49628532  1
  Li  Li139  1  0.05921804  0.54315390  0.49628532  1
  Li  Li140  1  0.45684610  0.51606414  0.49628532  1
  Li  Li141  1  0.60744862  0.81726919  0.33704801  1
  Li  Li142  1  0.20982057  0.39255138  0.33704801  1
  Li  Li143  1  0.18273081  0.79017943  0.33704801  1
  Li  Li144  1  0.18273081  0.39255138  0.83704801  1
  Li  Li145  1  0.60744862  0.79017943  0.83704801  1
  Li  Li146  1  0.20982057  0.81726919  0.83704801  1
  Li  Li147  1  0.05921804  0.51606414  0.99628532  1
  Li  Li148  1  0.45684610  0.94078196  0.99628532  1
  Li  Li149  1  0.48393586  0.54315390  0.99628532  1
  Li  Li150  1  0.00000000  0.00000000  0.00000000  1
  Li  Li151  1  0.00000000  0.00000000  0.50000000  1
  Li  Li152  1  0.66666667  0.33333333  0.33333333  1
  Li  Li153  1  0.66666667  0.33333333  0.83333333  1
  Li  Li154  1  0.33333333  0.66666667  0.66666667  1
  Li  Li155  1  0.33333333  0.66666667  0.16666667  1
