# generated using pymatgen
data_LiF
_symmetry_space_group_name_H-M   'P 1'
_cell_length_a   9.11854037
_cell_length_b   8.06190664
_cell_length_c   9.67709666
_cell_angle_alpha   90.00000000
_cell_angle_beta   90.00000000
_cell_angle_gamma   90.00000000
_symmetry_Int_Tables_number   1
_chemical_formula_structural   LiF
_chemical_formula_sum   'Li24 F24'
_cell_volume   711.39067648
_cell_formula_units_Z   24
loop_
 _symmetry_equiv_pos_site_id
 _symmetry_equiv_pos_as_xyz
  1  'x, y, z'
loop_
 _atom_site_type_symbol
 _atom_site_label
 _atom_site_symmetry_multiplicity
 _atom_site_fract_x
 _atom_site_fract_y
 _atom_site_fract_z
 _atom_site_occupancy
  F  F0  1  0.62668031  0.20856974  0.36724443  1
  F  F1  1  -0.62668031  -0.20856974  0.36724443  1
  F  F2  1  -0.12668031  0.70856974  -0.36724443  1
  F  F3  1  1.12668031  0.29143026  -0.36724443  1
  F  F4  1  -0.62668031  -0.20856974  -0.36724443  1
  F  F5  1  0.62668031  0.20856974  -0.36724443  1
  F  F6  1  1.12668031  0.29143026  0.36724443  1
  F  F7  1  -0.12668031  0.70856974  0.36724443  1
  F  F8  1  0.00000000  0.00000000  0.00000000  1
  F  F9  1  0.50000000  0.50000000  -0.00000000  1
  F  F10  1  0.00000000  0.50000000  0.50000000  1
  F  F11  1  0.50000000  0.00000000  0.50000000  1
  F  F12  1  0.00000000  0.50000000  0.00000000  1
  F  F13  1  0.50000000  0.00000000  0.00000000  1
  F  F14  1  0.84504097  0.30234990  0.78135249  1
  F  F15  1  0.15495903  0.69765010  0.78135249  1
  F  F16  1  0.65495903  0.80234990  0.21864751  1
  F  F17  1  0.34504097  0.19765010  0.21864751  1
  F  F18  1  0.15495903  0.69765010  0.21864751  1
  F  F19  1  0.84504097  0.30234990  0.21864751  1
  F  F20  1  0.34504097  0.19765010  0.78135249  1
  F  F21  1  0.65495903  0.80234990  0.78135249  1
  F  F22  1  0.00000000  0.00000000  0.50000000  1
  F  F23  1  0.50000000  0.50000000  0.50000000  1
  Li  Li24  1  0.85365985  0.34497154  0.50000000  1
  Li  Li25  1  0.14634015  0.65502846  0.50000000  1
  Li  Li26  1  0.64634015  0.84497154  0.50000000  1
  Li  Li27  1  0.35365985  0.15502846  0.50000000  1
  Li  Li28  1  0.28383101  0.95820884  0.73771537  1
  Li  Li29  1  0.71616899  0.04179116  0.73771537  1
  Li  Li30  1  0.21616899  0.45820884  0.26228463  1
  Li  Li31  1  0.78383101  0.54179116  0.26228463  1
  Li  Li32  1  0.71616899  0.04179116  0.26228463  1
  Li  Li33  1  0.28383101  0.95820884  0.26228463  1
  Li  Li34  1  0.78383101  0.54179116  0.73771537  1
  Li  Li35  1  0.21616899  0.45820884  0.73771537  1
  Li  Li36  1  0.77736279  0.05551067  0.40746486  1
  Li  Li37  1  0.22263721  0.94448933  0.40746486  1
  Li  Li38  1  0.72263721  0.55551067  0.59253514  1
  Li  Li39  1  0.27736279  0.44448933  0.59253514  1
  Li  Li40  1  0.22263721  0.94448933  0.59253514  1
  Li  Li41  1  0.77736279  0.05551067  0.59253514  1
  Li  Li42  1  0.27736279  0.44448933  0.40746486  1
  Li  Li43  1  0.72263721  0.55551067  0.40746486  1
  Li  Li44  1  0.00000000  0.00000000  0.70046873  1
  Li  Li45  1  0.50000000  0.50000000  0.29953127  1
  Li  Li46  1  0.00000000  0.00000000  0.29953127  1
  Li  Li47  1  0.50000000  0.50000000  0.70046873  1
