# generated using pymatgen
data_Li2Y2MoP3Se2
_symmetry_space_group_name_H-M   'P 1'
_cell_length_a   4.60546538
_cell_length_b   4.92996457
_cell_length_c   6.91777736
_cell_angle_alpha   95.51378979
_cell_angle_beta   101.63182212
_cell_angle_gamma   110.31914453
_symmetry_Int_Tables_number   1
_chemical_formula_structural   Li2Y2MoP3Se2
_chemical_formula_sum   'Li2 Y2 Mo1 P3 Se2'
_cell_volume   141.88949230
_cell_formula_units_Z   1
loop_
 _symmetry_equiv_pos_site_id
 _symmetry_equiv_pos_as_xyz
  1  'x, y, z'
loop_
 _atom_site_type_symbol
 _atom_site_label
 _atom_site_symmetry_multiplicity
 _atom_site_fract_x
 _atom_site_fract_y
 _atom_site_fract_z
 _atom_site_occupancy
  Se  Se0  1  0.00000000  0.00000000  0.00000000  1
  Se  Se1  1  0.50000000  0.50000000  0.50000000  1
  P  P2  1  0.50000000  0.50000000  0.00000000  1
  P  P3  1  0.50000000  0.00000000  0.50000000  1
  P  P4  1  0.00000000  0.50000000  0.50000000  1
  Mo  Mo5  1  0.16136912  0.73890854  0.56255145  1
  Li  Li6  1  0.49463129  0.48777497  0.31055384  1
  Li  Li7  1  0.30001775  0.73476206  0.21341468  1
  Y  Y8  1  0.57657423  0.14866924  0.76788544  1
  Y  Y9  1  0.43048462  0.84069822  0.76024758  1
