# generated using pymatgen
data_Li2Ca3F8
_symmetry_space_group_name_H-M   'P 1'
_cell_length_a   10.22732286
_cell_length_b   10.22732286
_cell_length_c   21.70568045
_cell_angle_alpha   90.00000000
_cell_angle_beta   90.00000000
_cell_angle_gamma   90.00000000
_symmetry_Int_Tables_number   1
_chemical_formula_structural   Li2Ca3F8
_chemical_formula_sum   'Li16 Ca24 F64'
_cell_volume   2270.37364900
_cell_formula_units_Z   8
loop_
 _symmetry_equiv_pos_site_id
 _symmetry_equiv_pos_as_xyz
  1  'x, y, z'
loop_
 _atom_site_type_symbol
 _atom_site_label
 _atom_site_symmetry_multiplicity
 _atom_site_fract_x
 _atom_site_fract_y
 _atom_site_fract_z
 _atom_site_occupancy
  Ca  Ca0  1  0.94869220  0.00000000  0.25000000  1
  Ca  Ca1  1  0.55130780  0.00000000  0.75000000  1
  Ca  Ca2  1  0.25000000  0.69869220  0.50000000  1
  Ca  Ca3  1  0.25000000  0.30130780  -0.00000000  1
  Ca  Ca4  1  0.05130780  0.00000000  0.75000000  1
  Ca  Ca5  1  0.44869220  0.00000000  0.25000000  1
  Ca  Ca6  1  0.75000000  0.30130780  0.50000000  1
  Ca  Ca7  1  0.75000000  0.69869220  -0.00000000  1
  Ca  Ca8  1  0.44869220  0.50000000  0.75000000  1
  Ca  Ca9  1  0.05130780  0.50000000  0.25000000  1
  Ca  Ca10  1  0.75000000  0.19869220  -0.00000000  1
  Ca  Ca11  1  0.75000000  0.80130780  0.50000000  1
  Ca  Ca12  1  0.55130780  0.50000000  0.25000000  1
  Ca  Ca13  1  0.94869220  0.50000000  0.75000000  1
  Ca  Ca14  1  0.25000000  0.80130780  -0.00000000  1
  Ca  Ca15  1  0.25000000  0.19869220  0.50000000  1
  Ca  Ca16  1  0.00000000  0.25000000  0.37500000  1
  Ca  Ca17  1  0.00000000  0.75000000  0.62500000  1
  Ca  Ca18  1  0.50000000  0.25000000  0.62500000  1
  Ca  Ca19  1  0.50000000  0.75000000  0.37500000  1
  Ca  Ca20  1  0.50000000  0.75000000  0.87500000  1
  Ca  Ca21  1  0.50000000  0.25000000  0.12500000  1
  Ca  Ca22  1  0.00000000  0.75000000  0.12500000  1
  Ca  Ca23  1  0.00000000  0.25000000  0.87500000  1
  F  F24  1  0.63206698  0.45984889  0.93499772  1
  F  F25  1  -0.13206698  -0.45984889  1.43499772  1
  F  F26  1  -0.20984889  1.38206698  1.18499772  1
  F  F27  1  0.70984889  -0.38206698  1.68499772  1
  F  F28  1  -0.13206698  0.45984889  -0.93499772  1
  F  F29  1  0.63206698  -0.45984889  -0.43499772  1
  F  F30  1  0.70984889  1.38206698  -0.18499772  1
  F  F31  1  -0.20984889  -0.38206698  -0.68499772  1
  F  F32  1  -0.63206698  -0.45984889  -0.93499772  1
  F  F33  1  1.13206698  0.45984889  -0.43499772  1
  F  F34  1  1.20984889  -0.38206698  -0.18499772  1
  F  F35  1  0.29015111  1.38206698  -0.68499772  1
  F  F36  1  1.13206698  -0.45984889  0.93499772  1
  F  F37  1  -0.63206698  0.45984889  1.43499772  1
  F  F38  1  0.29015111  -0.38206698  1.18499772  1
  F  F39  1  1.20984889  1.38206698  1.68499772  1
  F  F40  1  1.13206698  0.95984889  1.43499772  1
  F  F41  1  0.36793302  0.04015111  1.93499772  1
  F  F42  1  0.29015111  1.88206698  1.68499772  1
  F  F43  1  1.20984889  0.11793302  2.18499772  1
  F  F44  1  0.36793302  0.95984889  -0.43499772  1
  F  F45  1  1.13206698  0.04015111  0.06500228  1
  F  F46  1  1.20984889  1.88206698  0.31500228  1
  F  F47  1  0.29015111  0.11793302  -0.18499772  1
  F  F48  1  -0.13206698  0.04015111  -0.43499772  1
  F  F49  1  1.63206698  0.95984889  0.06500228  1
  F  F50  1  1.70984889  0.11793302  0.31500228  1
  F  F51  1  0.79015111  1.88206698  -0.18499772  1
  F  F52  1  1.63206698  0.04015111  1.43499772  1
  F  F53  1  -0.13206698  0.95984889  1.93499772  1
  F  F54  1  0.79015111  0.11793302  1.68499772  1
  F  F55  1  1.70984889  1.88206698  2.18499772  1
  F  F56  1  0.84733703  0.18419170  0.47058543  1
  F  F57  1  0.65266297  0.81580830  0.97058543  1
  F  F58  1  0.06580830  0.59733703  0.72058543  1
  F  F59  1  0.43419170  0.40266297  0.22058543  1
  F  F60  1  0.65266297  0.18419170  0.52941457  1
  F  F61  1  0.84733703  0.81580830  0.02941457  1
  F  F62  1  0.43419170  0.59733703  0.27941457  1
  F  F63  1  0.06580830  0.40266297  0.77941457  1
  F  F64  1  0.15266297  0.81580830  0.52941457  1
  F  F65  1  0.34733703  0.18419170  0.02941457  1
  F  F66  1  0.93419170  0.40266297  0.27941457  1
  F  F67  1  0.56580830  0.59733703  0.77941457  1
  F  F68  1  0.34733703  0.81580830  0.47058543  1
  F  F69  1  0.15266297  0.18419170  0.97058543  1
  F  F70  1  0.56580830  0.40266297  0.72058543  1
  F  F71  1  0.93419170  0.59733703  0.22058543  1
  F  F72  1  0.34733703  0.68419170  0.97058543  1
  F  F73  1  0.15266297  0.31580830  0.47058543  1
  F  F74  1  0.56580830  0.09733703  0.22058543  1
  F  F75  1  0.93419170  0.90266297  0.72058543  1
  F  F76  1  0.15266297  0.68419170  0.02941457  1
  F  F77  1  0.34733703  0.31580830  0.52941457  1
  F  F78  1  0.93419170  0.09733703  0.77941457  1
  F  F79  1  0.56580830  0.90266297  0.27941457  1
  F  F80  1  0.65266297  0.31580830  0.02941457  1
  F  F81  1  0.84733703  0.68419170  0.52941457  1
  F  F82  1  0.43419170  0.90266297  0.77941457  1
  F  F83  1  0.06580830  0.09733703  0.27941457  1
  F  F84  1  0.84733703  0.31580830  0.97058543  1
  F  F85  1  0.65266297  0.68419170  0.47058543  1
  F  F86  1  0.06580830  0.90266297  0.22058543  1
  F  F87  1  0.43419170  0.09733703  0.72058543  1
  Li  Li88  1  0.21743994  0.46743994  0.12500000  1
  Li  Li89  1  0.28256006  0.53256006  0.62500000  1
  Li  Li90  1  0.78256006  0.96743994  0.37500000  1
  Li  Li91  1  0.71743994  0.03256006  0.87500000  1
  Li  Li92  1  0.78256006  0.53256006  0.87500000  1
  Li  Li93  1  0.71743994  0.46743994  0.37500000  1
  Li  Li94  1  0.21743994  0.03256006  0.62500000  1
  Li  Li95  1  0.28256006  0.96743994  0.12500000  1
  Li  Li96  1  0.71743994  0.96743994  0.62500000  1
  Li  Li97  1  0.78256006  0.03256006  0.12500000  1
  Li  Li98  1  0.28256006  0.46743994  0.87500000  1
  Li  Li99  1  0.21743994  0.53256006  0.37500000  1
  Li  Li100  1  0.28256006  0.03256006  0.37500000  1
  Li  Li101  1  0.21743994  0.96743994  0.87500000  1
  Li  Li102  1  0.71743994  0.53256006  0.12500000  1
  Li  Li103  1  0.78256006  0.46743994  0.62500000  1
