# generated using pymatgen
data_LiF
_symmetry_space_group_name_H-M   'P 1'
_cell_length_a   9.24421540
_cell_length_b   8.52151775
_cell_length_c   6.47650960
_cell_angle_alpha   90.00000000
_cell_angle_beta   90.00000000
_cell_angle_gamma   90.00000000
_symmetry_Int_Tables_number   1
_chemical_formula_structural   LiF
_chemical_formula_sum   'Li16 F16'
_cell_volume   510.18539609
_cell_formula_units_Z   16
loop_
 _symmetry_equiv_pos_site_id
 _symmetry_equiv_pos_as_xyz
  1  'x, y, z'
loop_
 _atom_site_type_symbol
 _atom_site_label
 _atom_site_symmetry_multiplicity
 _atom_site_fract_x
 _atom_site_fract_y
 _atom_site_fract_z
 _atom_site_occupancy
  F  F0  1  0.62003403  0.08881028  0.15441168  1
  F  F1  1  -0.62003403  -0.08881028  0.15441168  1
  F  F2  1  -0.12003403  0.58881028  0.34558832  1
  F  F3  1  1.12003403  0.41118972  0.34558832  1
  F  F4  1  -0.62003403  -0.08881028  -0.15441168  1
  F  F5  1  0.62003403  0.08881028  -0.15441168  1
  F  F6  1  1.12003403  0.41118972  0.65441168  1
  F  F7  1  -0.12003403  0.58881028  0.65441168  1
  F  F8  1  0.88882257  0.69387724  0.12634541  1
  F  F9  1  0.11117743  0.30612276  0.12634541  1
  F  F10  1  0.61117743  0.19387724  0.37365459  1
  F  F11  1  0.38882257  0.80612276  0.37365459  1
  F  F12  1  0.11117743  0.30612276  0.87365459  1
  F  F13  1  0.88882257  0.69387724  0.87365459  1
  F  F14  1  0.38882257  0.80612276  0.62634541  1
  F  F15  1  0.61117743  0.19387724  0.62634541  1
  Li  Li16  1  0.00000000  0.00000000  0.00000000  1
  Li  Li17  1  0.50000000  0.50000000  0.50000000  1
  Li  Li18  1  0.69313399  0.95356697  0.00000000  1
  Li  Li19  1  0.30686601  0.04643303  0.00000000  1
  Li  Li20  1  0.80686601  0.45356697  0.50000000  1
  Li  Li21  1  0.19313399  0.54643303  0.50000000  1
  Li  Li22  1  0.00000000  0.50000000  0.50000000  1
  Li  Li23  1  0.50000000  0.00000000  0.00000000  1
  Li  Li24  1  0.58500450  0.35057656  0.00000000  1
  Li  Li25  1  0.41499550  0.64942344  0.00000000  1
  Li  Li26  1  0.91499550  0.85057656  0.50000000  1
  Li  Li27  1  0.08500450  0.14942344  0.50000000  1
  Li  Li28  1  0.86747048  0.88091689  0.00000000  1
  Li  Li29  1  0.13252952  0.11908311  0.00000000  1
  Li  Li30  1  0.63252952  0.38091689  0.50000000  1
  Li  Li31  1  0.36747048  0.61908311  0.50000000  1
