# generated using pymatgen
data_LiCaF3
_symmetry_space_group_name_H-M   'P 1'
_cell_length_a   13.44457075
_cell_length_b   13.44457075
_cell_length_c   8.82143839
_cell_angle_alpha   90.00000000
_cell_angle_beta   90.00000000
_cell_angle_gamma   120.00000000
_symmetry_Int_Tables_number   1
_chemical_formula_structural   LiCaF3
_chemical_formula_sum   'Li18 Ca18 F54'
_cell_volume   1380.90537143
_cell_formula_units_Z   18
loop_
 _symmetry_equiv_pos_site_id
 _symmetry_equiv_pos_as_xyz
  1  'x, y, z'
loop_
 _atom_site_type_symbol
 _atom_site_label
 _atom_site_symmetry_multiplicity
 _atom_site_fract_x
 _atom_site_fract_y
 _atom_site_fract_z
 _atom_site_occupancy
  Ca  Ca0  1  0.33333333  0.66666667  0.50000000  1
  Ca  Ca1  1  0.66666667  0.33333333  0.50000000  1
  Ca  Ca2  1  0.90290683  0.68282357  0.50000000  1
  Ca  Ca3  1  0.31717643  0.22008326  0.50000000  1
  Ca  Ca4  1  0.77991674  0.09709317  0.50000000  1
  Ca  Ca5  1  0.68282357  0.90290683  0.50000000  1
  Ca  Ca6  1  0.22008326  0.31717643  0.50000000  1
  Ca  Ca7  1  0.09709317  0.77991674  0.50000000  1
  Ca  Ca8  1  0.55228623  0.32120155  -0.00000000  1
  Ca  Ca9  1  0.67879845  0.23108468  0.00000000  1
  Ca  Ca10  1  0.76891532  0.44771377  0.00000000  1
  Ca  Ca11  1  0.32120155  0.55228623  -0.00000000  1
  Ca  Ca12  1  0.23108468  0.67879845  0.00000000  1
  Ca  Ca13  1  0.44771377  0.76891532  0.00000000  1
  Ca  Ca14  1  0.33333333  0.66666667  0.21956494  1
  Ca  Ca15  1  0.33333333  0.66666667  0.78043506  1
  Ca  Ca16  1  0.66666667  0.33333333  0.78043506  1
  Ca  Ca17  1  0.66666667  0.33333333  0.21956494  1
  F  F18  1  0.33333333  0.66666667  0.00000000  1
  F  F19  1  0.66666667  0.33333333  0.00000000  1
  F  F20  1  0.58715939  0.50106659  0.96107252  1
  F  F21  1  -0.50106659  0.08609279  0.96107252  1
  F  F22  1  -0.08609279  -0.58715939  0.96107252  1
  F  F23  1  0.58715939  0.50106659  -0.96107252  1
  F  F24  1  -0.50106659  0.08609279  -0.96107252  1
  F  F25  1  -0.08609279  -0.58715939  -0.96107252  1
  F  F26  1  0.50106659  0.58715939  -0.96107252  1
  F  F27  1  0.08609279  -0.50106659  -0.96107252  1
  F  F28  1  -0.58715939  -0.08609279  -0.96107252  1
  F  F29  1  0.50106659  0.58715939  0.96107252  1
  F  F30  1  0.08609279  -0.50106659  0.96107252  1
  F  F31  1  -0.58715939  -0.08609279  0.96107252  1
  F  F32  1  0.49898379  0.00000000  0.50000000  1
  F  F33  1  0.00000000  0.49898379  0.50000000  1
  F  F34  1  0.50101621  0.50101621  0.50000000  1
  F  F35  1  0.85304166  0.89864313  0.45168263  1
  F  F36  1  0.10135687  0.95439853  0.45168263  1
  F  F37  1  0.04560147  0.14695834  0.45168263  1
  F  F38  1  0.85304166  0.89864313  0.54831737  1
  F  F39  1  0.10135687  0.95439853  0.54831737  1
  F  F40  1  0.04560147  0.14695834  0.54831737  1
  F  F41  1  0.89864313  0.85304166  0.54831737  1
  F  F42  1  0.95439853  0.10135687  0.54831737  1
  F  F43  1  0.14695834  0.04560147  0.54831737  1
  F  F44  1  0.89864313  0.85304166  0.45168263  1
  F  F45  1  0.95439853  0.10135687  0.45168263  1
  F  F46  1  0.14695834  0.04560147  0.45168263  1
  F  F47  1  0.18323019  0.50868243  0.19178901  1
  F  F48  1  0.49131757  0.67454776  0.19178901  1
  F  F49  1  0.32545224  0.81676981  0.19178901  1
  F  F50  1  0.18323019  0.50868243  0.80821099  1
  F  F51  1  0.49131757  0.67454776  0.80821099  1
  F  F52  1  0.32545224  0.81676981  0.80821099  1
  F  F53  1  0.50868243  0.18323019  0.80821099  1
  F  F54  1  0.67454776  0.49131757  0.80821099  1
  F  F55  1  0.81676981  0.32545224  0.80821099  1
  F  F56  1  0.50868243  0.18323019  0.19178901  1
  F  F57  1  0.67454776  0.49131757  0.19178901  1
  F  F58  1  0.81676981  0.32545224  0.19178901  1
  F  F59  1  0.40996547  0.09804767  0.39630864  1
  F  F60  1  0.90195233  0.31191780  0.39630864  1
  F  F61  1  0.68808220  0.59003453  0.39630864  1
  F  F62  1  0.40996547  0.09804767  0.60369136  1
  F  F63  1  0.90195233  0.31191780  0.60369136  1
  F  F64  1  0.68808220  0.59003453  0.60369136  1
  F  F65  1  0.09804767  0.40996547  0.60369136  1
  F  F66  1  0.31191780  0.90195233  0.60369136  1
  F  F67  1  0.59003453  0.68808220  0.60369136  1
  F  F68  1  0.09804767  0.40996547  0.39630864  1
  F  F69  1  0.31191780  0.90195233  0.39630864  1
  F  F70  1  0.59003453  0.68808220  0.39630864  1
  F  F71  1  0.00000000  0.00000000  0.00000000  1
  Li  Li72  1  0.56594785  0.85137654  0.88643924  1
  Li  Li73  1  0.14862346  0.71457131  0.88643924  1
  Li  Li74  1  0.28542869  0.43405215  0.88643924  1
  Li  Li75  1  0.56594785  0.85137654  0.11356076  1
  Li  Li76  1  0.14862346  0.71457131  0.11356076  1
  Li  Li77  1  0.28542869  0.43405215  0.11356076  1
  Li  Li78  1  0.85137654  0.56594785  0.11356076  1
  Li  Li79  1  0.71457131  0.14862346  0.11356076  1
  Li  Li80  1  0.43405215  0.28542869  0.11356076  1
  Li  Li81  1  0.85137654  0.56594785  0.88643924  1
  Li  Li82  1  0.71457131  0.14862346  0.88643924  1
  Li  Li83  1  0.43405215  0.28542869  0.88643924  1
  Li  Li84  1  0.72431282  0.22337627  0.50000000  1
  Li  Li85  1  0.77662373  0.50093655  0.50000000  1
  Li  Li86  1  0.49906345  0.27568718  0.50000000  1
  Li  Li87  1  0.22337627  0.72431282  0.50000000  1
  Li  Li88  1  0.50093655  0.77662373  0.50000000  1
  Li  Li89  1  0.27568718  0.49906345  0.50000000  1
