# generated using pymatgen
data_LiF
_symmetry_space_group_name_H-M   'P 1'
_cell_length_a   5.84731143
_cell_length_b   9.46693389
_cell_length_c   10.80190023
_cell_angle_alpha   90.00000000
_cell_angle_beta   90.00000000
_cell_angle_gamma   90.00000000
_symmetry_Int_Tables_number   1
_chemical_formula_structural   LiF
_chemical_formula_sum   'Li30 F30'
_cell_volume   597.95118527
_cell_formula_units_Z   30
loop_
 _symmetry_equiv_pos_site_id
 _symmetry_equiv_pos_as_xyz
  1  'x, y, z'
loop_
 _atom_site_type_symbol
 _atom_site_label
 _atom_site_symmetry_multiplicity
 _atom_site_fract_x
 _atom_site_fract_y
 _atom_site_fract_z
 _atom_site_occupancy
  F  F0  1  0.78546990  0.49214851  0.39901336  1
  F  F1  1  -0.78546990  -0.49214851  0.39901336  1
  F  F2  1  -0.28546990  0.99214851  -0.39901336  1
  F  F3  1  1.28546990  0.00785149  -0.39901336  1
  F  F4  1  -0.78546990  -0.49214851  -0.39901336  1
  F  F5  1  0.78546990  0.49214851  -0.39901336  1
  F  F6  1  1.28546990  0.00785149  0.39901336  1
  F  F7  1  -0.28546990  0.99214851  0.39901336  1
  F  F8  1  0.95947759  0.78452789  0.87079646  1
  F  F9  1  0.04052241  0.21547211  0.87079646  1
  F  F10  1  0.54052241  0.28452789  0.12920354  1
  F  F11  1  0.45947759  0.71547211  0.12920354  1
  F  F12  1  0.04052241  0.21547211  0.12920354  1
  F  F13  1  0.95947759  0.78452789  0.12920354  1
  F  F14  1  0.45947759  0.71547211  0.87079646  1
  F  F15  1  0.54052241  0.28452789  0.87079646  1
  F  F16  1  0.76829685  0.34040047  0.00000000  1
  F  F17  1  0.23170315  0.65959953  0.00000000  1
  F  F18  1  0.73170315  0.84040047  0.00000000  1
  F  F19  1  0.26829685  0.15959953  0.00000000  1
  F  F20  1  0.80576777  0.91612012  0.25086282  1
  F  F21  1  0.19423223  0.08387988  0.25086282  1
  F  F22  1  0.69423223  0.41612012  0.74913718  1
  F  F23  1  0.30576777  0.58387988  0.74913718  1
  F  F24  1  0.19423223  0.08387988  0.74913718  1
  F  F25  1  0.80576777  0.91612012  0.74913718  1
  F  F26  1  0.30576777  0.58387988  0.25086282  1
  F  F27  1  0.69423223  0.41612012  0.25086282  1
  F  F28  1  0.00000000  0.00000000  0.00000000  1
  F  F29  1  0.50000000  0.50000000  0.00000000  1
  Li  Li30  1  0.00000000  0.50000000  0.00000000  1
  Li  Li31  1  0.50000000  -0.00000000  -0.00000000  1
  Li  Li32  1  0.76899214  0.77085490  0.73786598  1
  Li  Li33  1  0.23100786  0.22914510  0.73786598  1
  Li  Li34  1  0.73100786  0.27085490  0.26213402  1
  Li  Li35  1  0.26899214  0.72914510  0.26213402  1
  Li  Li36  1  0.23100786  0.22914510  0.26213402  1
  Li  Li37  1  0.76899214  0.77085490  0.26213402  1
  Li  Li38  1  0.26899214  0.72914510  0.73786598  1
  Li  Li39  1  0.73100786  0.27085490  0.73786598  1
  Li  Li40  1  0.00000000  0.00000000  0.57487928  1
  Li  Li41  1  0.50000000  0.50000000  0.42512072  1
  Li  Li42  1  0.00000000  0.00000000  0.42512072  1
  Li  Li43  1  0.50000000  0.50000000  0.57487928  1
  Li  Li44  1  0.49563776  0.29483392  0.67724461  1
  Li  Li45  1  0.50436224  0.70516608  0.67724461  1
  Li  Li46  1  0.00436224  0.79483392  0.32275539  1
  Li  Li47  1  0.99563776  0.20516608  0.32275539  1
  Li  Li48  1  0.50436224  0.70516608  0.32275539  1
  Li  Li49  1  0.49563776  0.29483392  0.32275539  1
  Li  Li50  1  0.99563776  0.20516608  0.67724461  1
  Li  Li51  1  0.00436224  0.79483392  0.67724461  1
  Li  Li52  1  0.00000000  0.50000000  0.64437043  1
  Li  Li53  1  0.50000000  -0.00000000  0.35562957  1
  Li  Li54  1  0.00000000  0.50000000  0.35562957  1
  Li  Li55  1  0.50000000  -0.00000000  0.64437043  1
  Li  Li56  1  0.84344220  0.04523383  -0.00000000  1
  Li  Li57  1  0.15655780  0.95476617  0.00000000  1
  Li  Li58  1  0.65655780  0.54523383  -0.00000000  1
  Li  Li59  1  0.34344220  0.45476617  0.00000000  1
