# generated using pymatgen
data_Li3Y2Mo2(As2P)2
_symmetry_space_group_name_H-M   'P 1'
_cell_length_a   5.97782575
_cell_length_b   6.04922726
_cell_length_c   7.01564777
_cell_angle_alpha   92.09419477
_cell_angle_beta   95.03415673
_cell_angle_gamma   98.98319483
_symmetry_Int_Tables_number   1
_chemical_formula_structural   Li3Y2Mo2(As2P)2
_chemical_formula_sum   'Li3 Y2 Mo2 As4 P2'
_cell_volume   249.29038507
_cell_formula_units_Z   1
loop_
 _symmetry_equiv_pos_site_id
 _symmetry_equiv_pos_as_xyz
  1  'x, y, z'
loop_
 _atom_site_type_symbol
 _atom_site_label
 _atom_site_symmetry_multiplicity
 _atom_site_fract_x
 _atom_site_fract_y
 _atom_site_fract_z
 _atom_site_occupancy
  P  P0  1  0.12500000  0.00000000  0.25000000  1
  P  P1  1  0.00000000  0.00000000  0.00000000  1
  Mo  Mo2  1  0.37500000  0.00000000  0.25000000  1
  Mo  Mo3  1  0.25000000  0.25000000  0.25000000  1
  As  As4  1  0.00000000  0.25000000  0.12500000  1
  As  As5  1  0.21596434  0.99494454  0.98674307  1
  As  As6  1  0.09963203  0.62397613  0.93273923  1
  As  As7  1  0.52580864  0.95572774  0.79494229  1
  Li  Li8  1  0.99904981  0.50103906  0.25026881  1
  Li  Li9  1  0.99019298  0.43752114  0.25391807  1
  Li  Li10  1  0.02790253  0.55467306  0.53492906  1
  Y  Y11  1  0.65350213  0.64180687  0.32282606  1
  Y  Y12  1  0.73397760  0.52828180  0.85218028  1
