# generated using pymatgen
data_Li4TeF2
_symmetry_space_group_name_H-M   'P 1'
_cell_length_a   19.78249526
_cell_length_b   19.78249526
_cell_length_c   7.38961438
_cell_angle_alpha   90.00000000
_cell_angle_beta   90.00000000
_cell_angle_gamma   90.00000000
_symmetry_Int_Tables_number   1
_chemical_formula_structural   Li4TeF2
_chemical_formula_sum   'Li96 Te24 F48'
_cell_volume   2891.90429595
_cell_formula_units_Z   24
loop_
 _symmetry_equiv_pos_site_id
 _symmetry_equiv_pos_as_xyz
  1  'x, y, z'
loop_
 _atom_site_type_symbol
 _atom_site_label
 _atom_site_symmetry_multiplicity
 _atom_site_fract_x
 _atom_site_fract_y
 _atom_site_fract_z
 _atom_site_occupancy
  F  F0  1  0.00000000  0.00000000  0.00000000  1
  F  F1  1  0.63209353  0.80040993  0.00000000  1
  F  F2  1  0.36790647  0.19959007  0.00000000  1
  F  F3  1  0.19959007  0.63209353  0.00000000  1
  F  F4  1  0.80040993  0.36790647  0.00000000  1
  F  F5  1  0.36790647  0.80040993  0.00000000  1
  F  F6  1  0.63209353  0.19959007  0.00000000  1
  F  F7  1  0.80040993  0.63209353  0.00000000  1
  F  F8  1  0.19959007  0.36790647  0.00000000  1
  F  F9  1  0.00000000  0.00000000  0.50000000  1
  F  F10  1  0.52428719  0.26592896  -0.00000000  1
  F  F11  1  0.47571281  0.73407104  0.00000000  1
  F  F12  1  0.73407104  0.52428719  0.00000000  1
  F  F13  1  0.26592896  0.47571281  0.00000000  1
  F  F14  1  0.47571281  0.26592896  -0.00000000  1
  F  F15  1  0.52428719  0.73407104  0.00000000  1
  F  F16  1  0.26592896  0.52428719  0.00000000  1
  F  F17  1  0.73407104  0.47571281  0.00000000  1
  F  F18  1  0.80576686  0.17079586  0.77013874  1
  F  F19  1  -0.80576686  -0.17079586  0.77013874  1
  F  F20  1  -0.17079586  0.80576686  0.77013874  1
  F  F21  1  0.17079586  -0.80576686  0.77013874  1
  F  F22  1  -0.80576686  0.17079586  -0.77013874  1
  F  F23  1  0.80576686  -0.17079586  -0.77013874  1
  F  F24  1  0.17079586  0.80576686  -0.77013874  1
  F  F25  1  -0.17079586  -0.80576686  -0.77013874  1
  F  F26  1  -0.80576686  -0.17079586  -0.77013874  1
  F  F27  1  0.80576686  0.17079586  -0.77013874  1
  F  F28  1  0.17079586  -0.80576686  -0.77013874  1
  F  F29  1  -0.17079586  0.80576686  -0.77013874  1
  F  F30  1  0.80576686  -0.17079586  0.77013874  1
  F  F31  1  -0.80576686  0.17079586  0.77013874  1
  F  F32  1  -0.17079586  -0.80576686  0.77013874  1
  F  F33  1  0.17079586  0.80576686  0.77013874  1
  F  F34  1  0.35102159  0.00000000  0.50000000  1
  F  F35  1  0.64897841  0.00000000  0.50000000  1
  F  F36  1  0.00000000  0.35102159  0.50000000  1
  F  F37  1  0.00000000  0.64897841  0.50000000  1
  F  F38  1  0.00000000  0.00000000  0.23110057  1
  F  F39  1  0.00000000  0.00000000  0.76889943  1
  F  F40  1  0.58789934  0.86905289  0.50000000  1
  F  F41  1  0.41210066  0.13094711  0.50000000  1
  F  F42  1  0.13094711  0.58789934  0.50000000  1
  F  F43  1  0.86905289  0.41210066  0.50000000  1
  F  F44  1  0.41210066  0.86905289  0.50000000  1
  F  F45  1  0.58789934  0.13094711  0.50000000  1
  F  F46  1  0.86905289  0.58789934  0.50000000  1
  F  F47  1  0.13094711  0.41210066  0.50000000  1
  Li  Li48  1  0.26796254  0.19976563  0.40867929  1
  Li  Li49  1  0.73203746  0.80023437  0.40867929  1
  Li  Li50  1  0.80023437  0.26796254  0.40867929  1
  Li  Li51  1  0.19976563  0.73203746  0.40867929  1
  Li  Li52  1  0.73203746  0.19976563  0.59132071  1
  Li  Li53  1  0.26796254  0.80023437  0.59132071  1
  Li  Li54  1  0.19976563  0.26796254  0.59132071  1
  Li  Li55  1  0.80023437  0.73203746  0.59132071  1
  Li  Li56  1  0.73203746  0.80023437  0.59132071  1
  Li  Li57  1  0.26796254  0.19976563  0.59132071  1
  Li  Li58  1  0.19976563  0.73203746  0.59132071  1
  Li  Li59  1  0.80023437  0.26796254  0.59132071  1
  Li  Li60  1  0.26796254  0.80023437  0.40867929  1
  Li  Li61  1  0.73203746  0.19976563  0.40867929  1
  Li  Li62  1  0.80023437  0.73203746  0.40867929  1
  Li  Li63  1  0.19976563  0.26796254  0.40867929  1
  Li  Li64  1  0.84297595  0.50000000  0.86078871  1
  Li  Li65  1  0.15702405  0.50000000  0.86078871  1
  Li  Li66  1  0.50000000  0.84297595  0.86078871  1
  Li  Li67  1  0.50000000  0.15702405  0.86078871  1
  Li  Li68  1  0.15702405  0.50000000  0.13921129  1
  Li  Li69  1  0.84297595  0.50000000  0.13921129  1
  Li  Li70  1  0.50000000  0.84297595  0.13921129  1
  Li  Li71  1  0.50000000  0.15702405  0.13921129  1
  Li  Li72  1  0.73791669  0.73791669  0.50000000  1
  Li  Li73  1  0.26208331  0.26208331  0.50000000  1
  Li  Li74  1  0.26208331  0.73791669  0.50000000  1
  Li  Li75  1  0.73791669  0.26208331  0.50000000  1
  Li  Li76  1  0.23189549  0.34475771  0.77446825  1
  Li  Li77  1  0.76810451  0.65524229  0.77446825  1
  Li  Li78  1  0.65524229  0.23189549  0.77446825  1
  Li  Li79  1  0.34475771  0.76810451  0.77446825  1
  Li  Li80  1  0.76810451  0.34475771  0.22553175  1
  Li  Li81  1  0.23189549  0.65524229  0.22553175  1
  Li  Li82  1  0.34475771  0.23189549  0.22553175  1
  Li  Li83  1  0.65524229  0.76810451  0.22553175  1
  Li  Li84  1  0.76810451  0.65524229  0.22553175  1
  Li  Li85  1  0.23189549  0.34475771  0.22553175  1
  Li  Li86  1  0.34475771  0.76810451  0.22553175  1
  Li  Li87  1  0.65524229  0.23189549  0.22553175  1
  Li  Li88  1  0.23189549  0.65524229  0.77446825  1
  Li  Li89  1  0.76810451  0.34475771  0.77446825  1
  Li  Li90  1  0.65524229  0.76810451  0.77446825  1
  Li  Li91  1  0.34475771  0.23189549  0.77446825  1
  Li  Li92  1  0.89310979  0.89310979  0.62352906  1
  Li  Li93  1  0.10689021  0.10689021  0.62352906  1
  Li  Li94  1  0.10689021  0.89310979  0.62352906  1
  Li  Li95  1  0.89310979  0.10689021  0.62352906  1
  Li  Li96  1  0.10689021  0.89310979  0.37647094  1
  Li  Li97  1  0.89310979  0.10689021  0.37647094  1
  Li  Li98  1  0.89310979  0.89310979  0.37647094  1
  Li  Li99  1  0.10689021  0.10689021  0.37647094  1
  Li  Li100  1  0.79821379  0.00000000  0.30502570  1
  Li  Li101  1  0.20178621  0.00000000  0.30502570  1
  Li  Li102  1  0.00000000  0.79821379  0.30502570  1
  Li  Li103  1  0.00000000  0.20178621  0.30502570  1
  Li  Li104  1  0.20178621  0.00000000  0.69497430  1
  Li  Li105  1  0.79821379  0.00000000  0.69497430  1
  Li  Li106  1  0.00000000  0.79821379  0.69497430  1
  Li  Li107  1  0.00000000  0.20178621  0.69497430  1
  Li  Li108  1  0.00000000  0.50000000  0.09838564  1
  Li  Li109  1  0.50000000  0.00000000  0.09838564  1
  Li  Li110  1  0.00000000  0.50000000  0.90161436  1
  Li  Li111  1  0.50000000  0.00000000  0.90161436  1
  Li  Li112  1  0.88170951  -0.00000000  0.50000000  1
  Li  Li113  1  0.11829049  -0.00000000  0.50000000  1
  Li  Li114  1  0.00000000  0.88170951  0.50000000  1
  Li  Li115  1  0.00000000  0.11829049  0.50000000  1
  Li  Li116  1  0.11159285  0.00000000  0.14440368  1
  Li  Li117  1  0.88840715  -0.00000000  0.14440368  1
  Li  Li118  1  0.00000000  0.11159285  0.14440368  1
  Li  Li119  1  0.00000000  0.88840715  0.14440368  1
  Li  Li120  1  0.88840715  -0.00000000  0.85559632  1
  Li  Li121  1  0.11159285  0.00000000  0.85559632  1
  Li  Li122  1  0.00000000  0.11159285  0.85559632  1
  Li  Li123  1  0.00000000  0.88840715  0.85559632  1
  Li  Li124  1  0.28258311  0.28258311  -0.00000000  1
  Li  Li125  1  0.71741689  0.71741689  0.00000000  1
  Li  Li126  1  0.71741689  0.28258311  0.00000000  1
  Li  Li127  1  0.28258311  0.71741689  0.00000000  1
  Li  Li128  1  0.13758444  0.80937478  0.13641499  1
  Li  Li129  1  0.86241556  0.19062522  0.13641499  1
  Li  Li130  1  0.19062522  0.13758444  0.13641499  1
  Li  Li131  1  0.80937478  0.86241556  0.13641499  1
  Li  Li132  1  0.86241556  0.80937478  0.86358501  1
  Li  Li133  1  0.13758444  0.19062522  0.86358501  1
  Li  Li134  1  0.80937478  0.13758444  0.86358501  1
  Li  Li135  1  0.19062522  0.86241556  0.86358501  1
  Li  Li136  1  0.86241556  0.19062522  0.86358501  1
  Li  Li137  1  0.13758444  0.80937478  0.86358501  1
  Li  Li138  1  0.80937478  0.86241556  0.86358501  1
  Li  Li139  1  0.19062522  0.13758444  0.86358501  1
  Li  Li140  1  0.13758444  0.19062522  0.13641499  1
  Li  Li141  1  0.86241556  0.80937478  0.13641499  1
  Li  Li142  1  0.19062522  0.86241556  0.13641499  1
  Li  Li143  1  0.80937478  0.13758444  0.13641499  1
  Te  Te144  1  0.94457622  0.22307019  0.16821714  1
  Te  Te145  1  0.05542378  0.77692981  0.16821714  1
  Te  Te146  1  0.77692981  0.94457622  0.16821714  1
  Te  Te147  1  0.22307019  0.05542378  0.16821714  1
  Te  Te148  1  0.05542378  0.22307019  0.83178286  1
  Te  Te149  1  0.94457622  0.77692981  0.83178286  1
  Te  Te150  1  0.22307019  0.94457622  0.83178286  1
  Te  Te151  1  0.77692981  0.05542378  0.83178286  1
  Te  Te152  1  0.05542378  0.77692981  0.83178286  1
  Te  Te153  1  0.94457622  0.22307019  0.83178286  1
  Te  Te154  1  0.22307019  0.05542378  0.83178286  1
  Te  Te155  1  0.77692981  0.94457622  0.83178286  1
  Te  Te156  1  0.94457622  0.77692981  0.16821714  1
  Te  Te157  1  0.05542378  0.22307019  0.16821714  1
  Te  Te158  1  0.77692981  0.05542378  0.16821714  1
  Te  Te159  1  0.22307019  0.94457622  0.16821714  1
  Te  Te160  1  0.55387267  0.25905922  0.50000000  1
  Te  Te161  1  0.44612733  0.74094078  0.50000000  1
  Te  Te162  1  0.74094078  0.55387267  0.50000000  1
  Te  Te163  1  0.25905922  0.44612733  0.50000000  1
  Te  Te164  1  0.44612733  0.25905922  0.50000000  1
  Te  Te165  1  0.55387267  0.74094078  0.50000000  1
  Te  Te166  1  0.25905922  0.55387267  0.50000000  1
  Te  Te167  1  0.74094078  0.44612733  0.50000000  1
