# generated using pymatgen
data_LiF
_symmetry_space_group_name_H-M   'P 1'
_cell_length_a   10.32505724
_cell_length_b   10.32505724
_cell_length_c   4.49786433
_cell_angle_alpha   90.00000000
_cell_angle_beta   90.00000000
_cell_angle_gamma   90.00000000
_symmetry_Int_Tables_number   1
_chemical_formula_structural   LiF
_chemical_formula_sum   'Li28 F28'
_cell_volume   479.50295490
_cell_formula_units_Z   28
loop_
 _symmetry_equiv_pos_site_id
 _symmetry_equiv_pos_as_xyz
  1  'x, y, z'
loop_
 _atom_site_type_symbol
 _atom_site_label
 _atom_site_symmetry_multiplicity
 _atom_site_fract_x
 _atom_site_fract_y
 _atom_site_fract_z
 _atom_site_occupancy
  F  F0  1  0.71980329  0.50000000  -0.00000000  1
  F  F1  1  0.28019671  0.50000000  -0.00000000  1
  F  F2  1  0.50000000  0.71980329  0.00000000  1
  F  F3  1  0.50000000  0.28019671  -0.00000000  1
  F  F4  1  0.71245976  0.12238449  0.10302897  1
  F  F5  1  -0.71245976  -0.12238449  0.10302897  1
  F  F6  1  -0.12238449  0.71245976  0.10302897  1
  F  F7  1  0.12238449  -0.71245976  0.10302897  1
  F  F8  1  -0.71245976  0.12238449  -0.10302897  1
  F  F9  1  0.71245976  -0.12238449  -0.10302897  1
  F  F10  1  0.12238449  0.71245976  -0.10302897  1
  F  F11  1  -0.12238449  -0.71245976  -0.10302897  1
  F  F12  1  -0.71245976  -0.12238449  -0.10302897  1
  F  F13  1  0.71245976  0.12238449  -0.10302897  1
  F  F14  1  0.12238449  -0.71245976  -0.10302897  1
  F  F15  1  -0.12238449  0.71245976  -0.10302897  1
  F  F16  1  0.71245976  -0.12238449  0.10302897  1
  F  F17  1  -0.71245976  0.12238449  0.10302897  1
  F  F18  1  -0.12238449  -0.71245976  0.10302897  1
  F  F19  1  0.12238449  0.71245976  0.10302897  1
  F  F20  1  0.89416655  0.50000000  0.78865727  1
  F  F21  1  0.10583345  0.50000000  0.78865727  1
  F  F22  1  0.50000000  0.89416655  0.78865727  1
  F  F23  1  0.50000000  0.10583345  0.78865727  1
  F  F24  1  0.10583345  0.50000000  0.21134273  1
  F  F25  1  0.89416655  0.50000000  0.21134273  1
  F  F26  1  0.50000000  0.89416655  0.21134273  1
  F  F27  1  0.50000000  0.10583345  0.21134273  1
  Li  Li28  1  0.00000000  0.50000000  0.85611818  1
  Li  Li29  1  0.50000000  0.00000000  0.85611818  1
  Li  Li30  1  0.00000000  0.50000000  0.14388182  1
  Li  Li31  1  0.50000000  0.00000000  0.14388182  1
  Li  Li32  1  0.26765663  0.26765663  0.79610124  1
  Li  Li33  1  0.73234337  0.73234337  0.79610124  1
  Li  Li34  1  0.73234337  0.26765663  0.79610124  1
  Li  Li35  1  0.26765663  0.73234337  0.79610124  1
  Li  Li36  1  0.73234337  0.26765663  0.20389876  1
  Li  Li37  1  0.26765663  0.73234337  0.20389876  1
  Li  Li38  1  0.26765663  0.26765663  0.20389876  1
  Li  Li39  1  0.73234337  0.73234337  0.20389876  1
  Li  Li40  1  0.07588414  0.07588414  0.00000000  1
  Li  Li41  1  0.92411586  0.92411586  0.00000000  1
  Li  Li42  1  0.92411586  0.07588414  0.00000000  1
  Li  Li43  1  0.07588414  0.92411586  0.00000000  1
  Li  Li44  1  0.80140574  0.00000000  0.00000000  1
  Li  Li45  1  0.19859426  0.00000000  0.00000000  1
  Li  Li46  1  0.00000000  0.80140574  0.00000000  1
  Li  Li47  1  0.00000000  0.19859426  0.00000000  1
  Li  Li48  1  0.15272113  0.15272113  0.29754682  1
  Li  Li49  1  0.84727887  0.84727887  0.29754682  1
  Li  Li50  1  0.84727887  0.15272113  0.29754682  1
  Li  Li51  1  0.15272113  0.84727887  0.29754682  1
  Li  Li52  1  0.84727887  0.15272113  0.70245318  1
  Li  Li53  1  0.15272113  0.84727887  0.70245318  1
  Li  Li54  1  0.15272113  0.15272113  0.70245318  1
  Li  Li55  1  0.84727887  0.84727887  0.70245318  1
