# generated using pymatgen
data_LiF
_symmetry_space_group_name_H-M   'P 1'
_cell_length_a   9.14113032
_cell_length_b   9.14113032
_cell_length_c   16.51496099
_cell_angle_alpha   90.00000000
_cell_angle_beta   90.00000000
_cell_angle_gamma   120.00000000
_symmetry_Int_Tables_number   1
_chemical_formula_structural   LiF
_chemical_formula_sum   'Li33 F33'
_cell_volume   1195.11028781
_cell_formula_units_Z   33
loop_
 _symmetry_equiv_pos_site_id
 _symmetry_equiv_pos_as_xyz
  1  'x, y, z'
loop_
 _atom_site_type_symbol
 _atom_site_label
 _atom_site_symmetry_multiplicity
 _atom_site_fract_x
 _atom_site_fract_y
 _atom_site_fract_z
 _atom_site_occupancy
  F  F0  1  0.85855961  0.37305095  0.88597403  1
  F  F1  1  0.62694905  0.48550866  0.88597403  1
  F  F2  1  0.51449134  0.14144039  0.88597403  1
  F  F3  1  0.85855961  0.37305095  0.11402597  1
  F  F4  1  0.62694905  0.48550866  0.11402597  1
  F  F5  1  0.51449134  0.14144039  0.11402597  1
  F  F6  1  0.37305095  0.85855961  0.11402597  1
  F  F7  1  0.48550866  0.62694905  0.11402597  1
  F  F8  1  0.14144039  0.51449134  0.11402597  1
  F  F9  1  0.37305095  0.85855961  0.88597403  1
  F  F10  1  0.48550866  0.62694905  0.88597403  1
  F  F11  1  0.14144039  0.51449134  0.88597403  1
  F  F12  1  0.37363121  0.12146108  0.88267247  1
  F  F13  1  0.87853892  0.25217013  0.88267247  1
  F  F14  1  0.74782987  0.62636879  0.88267247  1
  F  F15  1  0.37363121  0.12146108  0.11732753  1
  F  F16  1  0.87853892  0.25217013  0.11732753  1
  F  F17  1  0.74782987  0.62636879  0.11732753  1
  F  F18  1  0.12146108  0.37363121  0.11732753  1
  F  F19  1  0.25217013  0.87853892  0.11732753  1
  F  F20  1  0.62636879  0.74782987  0.11732753  1
  F  F21  1  0.12146108  0.37363121  0.88267247  1
  F  F22  1  0.25217013  0.87853892  0.88267247  1
  F  F23  1  0.62636879  0.74782987  0.88267247  1
  F  F24  1  0.93410991  -0.00000000  0.43427689  1
  F  F25  1  0.00000000  0.93410991  0.43427689  1
  F  F26  1  0.06589009  0.06589009  0.43427689  1
  F  F27  1  0.93410991  -0.00000000  0.56572311  1
  F  F28  1  0.00000000  0.93410991  0.56572311  1
  F  F29  1  0.06589009  0.06589009  0.56572311  1
  F  F30  1  0.33333333  0.66666667  0.00000000  1
  F  F31  1  0.66666667  0.33333333  -0.00000000  1
  F  F32  1  0.00000000  0.00000000  0.00000000  1
  Li  Li33  1  0.09762479  0.59685699  0.37799924  1
  Li  Li34  1  -0.59685699  -0.49923220  0.37799924  1
  Li  Li35  1  0.49923220  -0.09762479  0.37799924  1
  Li  Li36  1  0.09762479  0.59685699  -0.37799924  1
  Li  Li37  1  -0.59685699  -0.49923220  -0.37799924  1
  Li  Li38  1  0.49923220  -0.09762479  -0.37799924  1
  Li  Li39  1  0.59685699  0.09762479  -0.37799924  1
  Li  Li40  1  -0.49923220  -0.59685699  -0.37799924  1
  Li  Li41  1  -0.09762479  0.49923220  -0.37799924  1
  Li  Li42  1  0.59685699  0.09762479  0.37799924  1
  Li  Li43  1  -0.49923220  -0.59685699  0.37799924  1
  Li  Li44  1  -0.09762479  0.49923220  0.37799924  1
  Li  Li45  1  0.48932656  0.36187077  0.91287552  1
  Li  Li46  1  0.63812923  0.12745579  0.91287552  1
  Li  Li47  1  0.87254421  0.51067344  0.91287552  1
  Li  Li48  1  0.48932656  0.36187077  0.08712448  1
  Li  Li49  1  0.63812923  0.12745579  0.08712448  1
  Li  Li50  1  0.87254421  0.51067344  0.08712448  1
  Li  Li51  1  0.36187077  0.48932656  0.08712448  1
  Li  Li52  1  0.12745579  0.63812923  0.08712448  1
  Li  Li53  1  0.51067344  0.87254421  0.08712448  1
  Li  Li54  1  0.36187077  0.48932656  0.91287552  1
  Li  Li55  1  0.12745579  0.63812923  0.91287552  1
  Li  Li56  1  0.51067344  0.87254421  0.91287552  1
  Li  Li57  1  0.33333333  0.66666667  0.93153318  1
  Li  Li58  1  0.33333333  0.66666667  0.06846682  1
  Li  Li59  1  0.66666667  0.33333333  0.06846682  1
  Li  Li60  1  0.66666667  0.33333333  0.93153318  1
  Li  Li61  1  0.13890152  0.00000000  0.50000000  1
  Li  Li62  1  0.00000000  0.13890152  0.50000000  1
  Li  Li63  1  0.86109848  0.86109848  0.50000000  1
  Li  Li64  1  0.00000000  0.00000000  0.70583566  1
  Li  Li65  1  0.00000000  0.00000000  0.29416434  1
