# generated using pymatgen
data_Li2Y2Sb2P2Se
_symmetry_space_group_name_H-M   'P 1'
_cell_length_a   4.74999245
_cell_length_b   4.81807268
_cell_length_c   6.07917703
_cell_angle_alpha   94.40911028
_cell_angle_beta   96.56054985
_cell_angle_gamma   102.93964795
_symmetry_Int_Tables_number   1
_chemical_formula_structural   Li2Y2Sb2P2Se
_chemical_formula_sum   'Li2 Y2 Sb2 P2 Se1'
_cell_volume   133.94965200
_cell_formula_units_Z   1
loop_
 _symmetry_equiv_pos_site_id
 _symmetry_equiv_pos_as_xyz
  1  'x, y, z'
loop_
 _atom_site_type_symbol
 _atom_site_label
 _atom_site_symmetry_multiplicity
 _atom_site_fract_x
 _atom_site_fract_y
 _atom_site_fract_z
 _atom_site_occupancy
  Y  Y0  1  0.12500000  0.00000000  0.25000000  1
  Y  Y1  1  0.00000000  0.00000000  0.00000000  1
  P  P2  1  0.37500000  0.00000000  0.25000000  1
  P  P3  1  0.25000000  0.25000000  0.25000000  1
  Se  Se4  1  0.00000000  0.25000000  0.12500000  1
  Li  Li5  1  0.58396096  0.94563437  0.92309594  1
  Li  Li6  1  0.81269664  0.73062408  0.70135637  1
  Sb  Sb7  1  0.12898767  0.07662987  0.78195319  1
  Sb  Sb8  1  0.55975544  0.12201778  0.97482045  1
