# generated using pymatgen
data_Li3Y2P3Se
_symmetry_space_group_name_H-M   'P 1'
_cell_length_a   5.04602229
_cell_length_b   5.39996136
_cell_length_c   6.73085835
_cell_angle_alpha   93.78230386
_cell_angle_beta   97.34083235
_cell_angle_gamma   103.67486940
_symmetry_Int_Tables_number   1
_chemical_formula_structural   Li3Y2P3Se
_chemical_formula_sum   'Li3 Y2 P3 Se1'
_cell_volume   175.86266478
_cell_formula_units_Z   1
loop_
 _symmetry_equiv_pos_site_id
 _symmetry_equiv_pos_as_xyz
  1  'x, y, z'
loop_
 _atom_site_type_symbol
 _atom_site_label
 _atom_site_symmetry_multiplicity
 _atom_site_fract_x
 _atom_site_fract_y
 _atom_site_fract_z
 _atom_site_occupancy
  Se  Se0  1  0.00000000  0.00000000  0.00000000  1
  Y  Y1  1  0.33300000  0.66700000  0.25000000  1
  Y  Y2  1  0.66700000  0.33300000  0.50000000  1
  P  P3  1  0.00000000  0.00000000  0.75000000  1
  P  P4  1  0.85206267  0.04448730  0.41365761  1
  P  P5  1  0.52283990  0.68040544  0.55134155  1
  Li  Li6  1  0.57879018  0.18538976  0.05228529  1
  Li  Li7  1  0.94121528  0.65289192  0.81419487  1
  Li  Li8  1  0.50630469  0.31761203  0.64621757  1
