# generated using pymatgen
data_Li2YP3
_symmetry_space_group_name_H-M   'P 1'
_cell_length_a   5.55542127
_cell_length_b   5.71998333
_cell_length_c   7.42502178
_cell_angle_alpha   94.77867656
_cell_angle_beta   99.81550398
_cell_angle_gamma   106.31974005
_symmetry_Int_Tables_number   1
_chemical_formula_structural   Li2YP3
_chemical_formula_sum   'Li2 Y1 P3'
_cell_volume   220.96494865
_cell_formula_units_Z   1
loop_
 _symmetry_equiv_pos_site_id
 _symmetry_equiv_pos_as_xyz
  1  'x, y, z'
loop_
 _atom_site_type_symbol
 _atom_site_label
 _atom_site_symmetry_multiplicity
 _atom_site_fract_x
 _atom_site_fract_y
 _atom_site_fract_z
 _atom_site_occupancy
  P  P0  1  0.12500000  0.00000000  0.25000000  1
  P  P1  1  0.00000000  0.00000000  0.00000000  1
  P  P2  1  0.37500000  0.00000000  0.25000000  1
  Li  Li3  1  0.25000000  0.25000000  0.25000000  1
  Li  Li4  1  0.00000000  0.25000000  0.12500000  1
  Y  Y5  1  0.02069359  0.38596077  0.87184021  1
