# generated using pymatgen
data_LiF
_symmetry_space_group_name_H-M   'P 1'
_cell_length_a   12.79962495
_cell_length_b   12.79962495
_cell_length_c   13.56902338
_cell_angle_alpha   90.00000000
_cell_angle_beta   90.00000000
_cell_angle_gamma   90.00000000
_symmetry_Int_Tables_number   1
_chemical_formula_structural   LiF
_chemical_formula_sum   'Li64 F64'
_cell_volume   2223.01851174
_cell_formula_units_Z   64
loop_
 _symmetry_equiv_pos_site_id
 _symmetry_equiv_pos_as_xyz
  1  'x, y, z'
loop_
 _atom_site_type_symbol
 _atom_site_label
 _atom_site_symmetry_multiplicity
 _atom_site_fract_x
 _atom_site_fract_y
 _atom_site_fract_z
 _atom_site_occupancy
  F  F0  1  0.00000000  0.25000000  0.37500000  1
  F  F1  1  0.00000000  0.75000000  0.62500000  1
  F  F2  1  0.50000000  0.25000000  0.62500000  1
  F  F3  1  0.50000000  0.75000000  0.37500000  1
  F  F4  1  0.50000000  0.75000000  0.87500000  1
  F  F5  1  0.50000000  0.25000000  0.12500000  1
  F  F6  1  0.00000000  0.75000000  0.12500000  1
  F  F7  1  0.00000000  0.25000000  0.87500000  1
  F  F8  1  0.67419081  0.36371042  0.78388058  1
  F  F9  1  -0.17419081  -0.36371042  1.28388058  1
  F  F10  1  -0.11371042  1.42419081  1.03388058  1
  F  F11  1  0.61371042  -0.42419081  1.53388058  1
  F  F12  1  -0.17419081  0.36371042  -0.78388058  1
  F  F13  1  0.67419081  -0.36371042  -0.28388058  1
  F  F14  1  0.61371042  1.42419081  -0.03388058  1
  F  F15  1  -0.11371042  -0.42419081  -0.53388058  1
  F  F16  1  -0.67419081  -0.36371042  -0.78388058  1
  F  F17  1  1.17419081  0.36371042  -0.28388058  1
  F  F18  1  1.11371042  -0.42419081  -0.03388058  1
  F  F19  1  0.38628958  1.42419081  -0.53388058  1
  F  F20  1  1.17419081  -0.36371042  0.78388058  1
  F  F21  1  -0.67419081  0.36371042  1.28388058  1
  F  F22  1  0.38628958  -0.42419081  1.03388058  1
  F  F23  1  1.11371042  1.42419081  1.53388058  1
  F  F24  1  1.17419081  0.86371042  1.28388058  1
  F  F25  1  0.32580919  0.13628958  1.78388058  1
  F  F26  1  0.38628958  1.92419081  1.53388058  1
  F  F27  1  1.11371042  0.07580919  2.03388058  1
  F  F28  1  0.32580919  0.86371042  -0.28388058  1
  F  F29  1  1.17419081  0.13628958  0.21611942  1
  F  F30  1  1.11371042  1.92419081  0.46611942  1
  F  F31  1  0.38628958  0.07580919  -0.03388058  1
  F  F32  1  -0.17419081  0.13628958  -0.28388058  1
  F  F33  1  1.67419081  0.86371042  0.21611942  1
  F  F34  1  1.61371042  0.07580919  0.46611942  1
  F  F35  1  0.88628958  1.92419081  -0.03388058  1
  F  F36  1  1.67419081  0.13628958  1.28388058  1
  F  F37  1  -0.17419081  0.86371042  1.78388058  1
  F  F38  1  0.88628958  0.07580919  1.53388058  1
  F  F39  1  1.61371042  1.92419081  2.03388058  1
  F  F40  1  0.00000000  0.00000000  0.00000000  1
  F  F41  1  0.50000000  0.00000000  0.50000000  1
  F  F42  1  0.25000000  0.75000000  0.25000000  1
  F  F43  1  0.25000000  0.25000000  0.75000000  1
  F  F44  1  0.50000000  0.00000000  0.00000000  1
  F  F45  1  0.00000000  0.00000000  0.50000000  1
  F  F46  1  0.25000000  0.75000000  0.75000000  1
  F  F47  1  0.25000000  0.25000000  0.25000000  1
  F  F48  1  0.50000000  0.50000000  0.50000000  1
  F  F49  1  0.00000000  0.50000000  0.00000000  1
  F  F50  1  0.75000000  0.25000000  0.75000000  1
  F  F51  1  0.75000000  0.75000000  0.25000000  1
  F  F52  1  0.00000000  0.50000000  0.50000000  1
  F  F53  1  0.50000000  0.50000000  0.00000000  1
  F  F54  1  0.75000000  0.25000000  0.25000000  1
  F  F55  1  0.75000000  0.75000000  0.75000000  1
  F  F56  1  0.00000000  0.25000000  0.12500000  1
  F  F57  1  0.00000000  0.75000000  0.37500000  1
  F  F58  1  0.00000000  0.75000000  0.87500000  1
  F  F59  1  0.00000000  0.25000000  0.62500000  1
  F  F60  1  0.50000000  0.75000000  0.62500000  1
  F  F61  1  0.50000000  0.25000000  0.87500000  1
  F  F62  1  0.50000000  0.25000000  0.37500000  1
  F  F63  1  0.50000000  0.75000000  0.12500000  1
  Li  Li64  1  0.25386830  0.00000000  0.25000000  1
  Li  Li65  1  0.24613170  -0.00000000  0.75000000  1
  Li  Li66  1  0.25000000  0.00386830  0.50000000  1
  Li  Li67  1  0.25000000  0.99613170  0.00000000  1
  Li  Li68  1  0.74613170  0.00000000  0.75000000  1
  Li  Li69  1  0.75386830  0.00000000  0.25000000  1
  Li  Li70  1  0.75000000  0.99613170  0.50000000  1
  Li  Li71  1  0.75000000  0.00386830  0.00000000  1
  Li  Li72  1  0.75386830  0.50000000  0.75000000  1
  Li  Li73  1  0.74613170  0.50000000  0.25000000  1
  Li  Li74  1  0.75000000  0.50386830  0.00000000  1
  Li  Li75  1  0.75000000  0.49613170  0.50000000  1
  Li  Li76  1  0.24613170  0.50000000  0.25000000  1
  Li  Li77  1  0.25386830  0.50000000  0.75000000  1
  Li  Li78  1  0.25000000  0.49613170  0.00000000  1
  Li  Li79  1  0.25000000  0.50386830  0.50000000  1
  Li  Li80  1  0.57604725  0.11994897  0.08513939  1
  Li  Li81  1  0.92395275  0.88005103  0.58513939  1
  Li  Li82  1  0.13005103  0.32604725  0.33513939  1
  Li  Li83  1  0.36994897  0.67395275  0.83513939  1
  Li  Li84  1  0.92395275  0.11994897  0.91486061  1
  Li  Li85  1  0.57604725  0.88005103  0.41486061  1
  Li  Li86  1  0.36994897  0.32604725  0.66486061  1
  Li  Li87  1  0.13005103  0.67395275  0.16486061  1
  Li  Li88  1  0.42395275  0.88005103  0.91486061  1
  Li  Li89  1  0.07604725  0.11994897  0.41486061  1
  Li  Li90  1  0.86994897  0.67395275  0.66486061  1
  Li  Li91  1  0.63005103  0.32604725  0.16486061  1
  Li  Li92  1  0.07604725  0.88005103  0.08513939  1
  Li  Li93  1  0.42395275  0.11994897  0.58513939  1
  Li  Li94  1  0.63005103  0.67395275  0.33513939  1
  Li  Li95  1  0.86994897  0.32604725  0.83513939  1
  Li  Li96  1  0.07604725  0.61994897  0.58513939  1
  Li  Li97  1  0.42395275  0.38005103  0.08513939  1
  Li  Li98  1  0.63005103  0.82604725  0.83513939  1
  Li  Li99  1  0.86994897  0.17395275  0.33513939  1
  Li  Li100  1  0.42395275  0.61994897  0.41486061  1
  Li  Li101  1  0.07604725  0.38005103  0.91486061  1
  Li  Li102  1  0.86994897  0.82604725  0.16486061  1
  Li  Li103  1  0.63005103  0.17395275  0.66486061  1
  Li  Li104  1  0.92395275  0.38005103  0.41486061  1
  Li  Li105  1  0.57604725  0.61994897  0.91486061  1
  Li  Li106  1  0.36994897  0.17395275  0.16486061  1
  Li  Li107  1  0.13005103  0.82604725  0.66486061  1
  Li  Li108  1  0.57604725  0.38005103  0.58513939  1
  Li  Li109  1  0.92395275  0.61994897  0.08513939  1
  Li  Li110  1  0.13005103  0.17395275  0.83513939  1
  Li  Li111  1  0.36994897  0.82604725  0.33513939  1
  Li  Li112  1  0.12960716  0.37960716  0.12500000  1
  Li  Li113  1  0.37039284  0.62039284  0.62500000  1
  Li  Li114  1  0.87039284  0.87960716  0.37500000  1
  Li  Li115  1  0.62960716  0.12039284  0.87500000  1
  Li  Li116  1  0.87039284  0.62039284  0.87500000  1
  Li  Li117  1  0.62960716  0.37960716  0.37500000  1
  Li  Li118  1  0.12960716  0.12039284  0.62500000  1
  Li  Li119  1  0.37039284  0.87960716  0.12500000  1
  Li  Li120  1  0.62960716  0.87960716  0.62500000  1
  Li  Li121  1  0.87039284  0.12039284  0.12500000  1
  Li  Li122  1  0.37039284  0.37960716  0.87500000  1
  Li  Li123  1  0.12960716  0.62039284  0.37500000  1
  Li  Li124  1  0.37039284  0.12039284  0.37500000  1
  Li  Li125  1  0.12960716  0.87960716  0.87500000  1
  Li  Li126  1  0.62960716  0.62039284  0.12500000  1
  Li  Li127  1  0.87039284  0.37960716  0.62500000  1
