# generated using pymatgen
data_Li3Y2P3Se2
_symmetry_space_group_name_H-M   'P 1'
_cell_length_a   5.33999156
_cell_length_b   5.67084226
_cell_length_c   7.30832328
_cell_angle_alpha   94.14216018
_cell_angle_beta   99.02076373
_cell_angle_gamma   106.63741116
_symmetry_Int_Tables_number   1
_chemical_formula_structural   Li3Y2P3Se2
_chemical_formula_sum   'Li3 Y2 P3 Se2'
_cell_volume   207.81439501
_cell_formula_units_Z   1
loop_
 _symmetry_equiv_pos_site_id
 _symmetry_equiv_pos_as_xyz
  1  'x, y, z'
loop_
 _atom_site_type_symbol
 _atom_site_label
 _atom_site_symmetry_multiplicity
 _atom_site_fract_x
 _atom_site_fract_y
 _atom_site_fract_z
 _atom_site_occupancy
  Se  Se0  1  0.00000000  0.00000000  0.00000000  1
  Se  Se1  1  0.50000000  0.50000000  0.50000000  1
  Y  Y2  1  0.25000000  0.25000000  0.25000000  1
  Y  Y3  1  0.75000000  0.25000000  0.00000000  1
  P  P4  1  0.25000000  0.75000000  0.50000000  1
  P  P5  1  0.00151979  0.95285403  0.35636023  1
  P  P6  1  0.13377262  0.49194252  0.81603260  1
  Li  Li7  1  0.36338028  0.20336408  0.30703617  1
  Li  Li8  1  0.41276209  0.49082414  0.86320396  1
  Li  Li9  1  0.99762608  0.75522432  0.15536184  1
