# generated using pymatgen
data_LiF
_symmetry_space_group_name_H-M   'P 1'
_cell_length_a   5.45519677
_cell_length_b   5.45519677
_cell_length_c   24.57630158
_cell_angle_alpha   90.00000000
_cell_angle_beta   90.00000000
_cell_angle_gamma   90.00000000
_symmetry_Int_Tables_number   1
_chemical_formula_structural   LiF
_chemical_formula_sum   'Li22 F22'
_cell_volume   731.37038084
_cell_formula_units_Z   22
loop_
 _symmetry_equiv_pos_site_id
 _symmetry_equiv_pos_as_xyz
  1  'x, y, z'
loop_
 _atom_site_type_symbol
 _atom_site_label
 _atom_site_symmetry_multiplicity
 _atom_site_fract_x
 _atom_site_fract_y
 _atom_site_fract_z
 _atom_site_occupancy
  F  F0  1  0.00000000  0.00000000  0.68910100  1
  F  F1  1  0.00000000  0.00000000  0.31089900  1
  F  F2  1  0.39444162  -0.00000000  0.84015347  1
  F  F3  1  0.60555838  -0.00000000  0.84015347  1
  F  F4  1  0.00000000  0.39444162  0.84015347  1
  F  F5  1  0.00000000  0.60555838  0.84015347  1
  F  F6  1  0.60555838  -0.00000000  0.15984653  1
  F  F7  1  0.39444162  -0.00000000  0.15984653  1
  F  F8  1  0.00000000  0.39444162  0.15984653  1
  F  F9  1  0.00000000  0.60555838  0.15984653  1
  F  F10  1  0.67901820  0.50000000  0.91816619  1
  F  F11  1  0.32098180  0.50000000  0.91816619  1
  F  F12  1  0.50000000  0.67901820  0.91816619  1
  F  F13  1  0.50000000  0.32098180  0.91816619  1
  F  F14  1  0.32098180  0.50000000  0.08183381  1
  F  F15  1  0.67901820  0.50000000  0.08183381  1
  F  F16  1  0.50000000  0.67901820  0.08183381  1
  F  F17  1  0.50000000  0.32098180  0.08183381  1
  F  F18  1  0.00000000  0.00000000  0.62689597  1
  F  F19  1  0.00000000  0.00000000  0.37310403  1
  F  F20  1  0.50000000  0.50000000  0.83435828  1
  F  F21  1  0.50000000  0.50000000  0.16564172  1
  Li  Li22  1  0.70298834  0.50000000  0.96419985  1
  Li  Li23  1  -0.70298834  0.50000000  0.96419985  1
  Li  Li24  1  0.50000000  0.70298834  0.96419985  1
  Li  Li25  1  0.50000000  -0.70298834  0.96419985  1
  Li  Li26  1  -0.70298834  0.50000000  -0.96419985  1
  Li  Li27  1  0.70298834  0.50000000  -0.96419985  1
  Li  Li28  1  0.50000000  0.70298834  -0.96419985  1
  Li  Li29  1  0.50000000  -0.70298834  -0.96419985  1
  Li  Li30  1  0.74698269  0.74698269  0.90004727  1
  Li  Li31  1  0.25301731  0.25301731  0.90004727  1
  Li  Li32  1  0.25301731  0.74698269  0.90004727  1
  Li  Li33  1  0.74698269  0.25301731  0.90004727  1
  Li  Li34  1  0.25301731  0.74698269  0.09995273  1
  Li  Li35  1  0.74698269  0.25301731  0.09995273  1
  Li  Li36  1  0.74698269  0.74698269  0.09995273  1
  Li  Li37  1  0.25301731  0.25301731  0.09995273  1
  Li  Li38  1  0.50000000  0.50000000  0.50000000  1
  Li  Li39  1  0.00000000  0.50000000  0.50000000  1
  Li  Li40  1  0.50000000  0.00000000  0.50000000  1
  Li  Li41  1  0.00000000  0.50000000  0.00000000  1
  Li  Li42  1  0.50000000  0.00000000  0.00000000  1
  Li  Li43  1  0.00000000  0.00000000  0.00000000  1
