# generated using pymatgen
data_LiY2Sb2P2Se
_symmetry_space_group_name_H-M   'P 1'
_cell_length_a   4.20724380
_cell_length_b   4.34297049
_cell_length_c   5.85053712
_cell_angle_alpha   95.28345458
_cell_angle_beta   98.03841475
_cell_angle_gamma   105.78302915
_symmetry_Int_Tables_number   1
_chemical_formula_structural   LiY2Sb2P2Se
_chemical_formula_sum   'Li1 Y2 Sb2 P2 Se1'
_cell_volume   100.90537804
_cell_formula_units_Z   1
loop_
 _symmetry_equiv_pos_site_id
 _symmetry_equiv_pos_as_xyz
  1  'x, y, z'
loop_
 _atom_site_type_symbol
 _atom_site_label
 _atom_site_symmetry_multiplicity
 _atom_site_fract_x
 _atom_site_fract_y
 _atom_site_fract_z
 _atom_site_occupancy
  P  P0  1  0.00000000  0.00000000  0.00000000  1
  P  P1  1  0.50000000  0.50000000  0.50000000  1
  Se  Se2  1  0.50000000  0.50000000  0.00000000  1
  Li  Li3  1  0.50000000  0.00000000  0.50000000  1
  Y  Y4  1  0.00000000  0.50000000  0.50000000  1
  Y  Y5  1  0.06855816  0.21885104  0.03640852  1
  Sb  Sb6  1  0.18336586  0.44304071  0.57247086  1
  Sb  Sb7  1  0.56289224  0.80989625  0.32242731  1
