# generated using pymatgen
data_LiY2Mo2P2Se
_symmetry_space_group_name_H-M   'P 1'
_cell_length_a   4.82183050
_cell_length_b   5.14561231
_cell_length_c   6.57254988
_cell_angle_alpha   93.43149658
_cell_angle_beta   97.88657593
_cell_angle_gamma   104.11980866
_symmetry_Int_Tables_number   1
_chemical_formula_structural   LiY2Mo2P2Se
_chemical_formula_sum   'Li1 Y2 Mo2 P2 Se1'
_cell_volume   155.90962478
_cell_formula_units_Z   1
loop_
 _symmetry_equiv_pos_site_id
 _symmetry_equiv_pos_as_xyz
  1  'x, y, z'
loop_
 _atom_site_type_symbol
 _atom_site_label
 _atom_site_symmetry_multiplicity
 _atom_site_fract_x
 _atom_site_fract_y
 _atom_site_fract_z
 _atom_site_occupancy
  Se  Se0  1  0.12500000  0.00000000  0.25000000  1
  Y  Y1  1  0.00000000  0.00000000  0.00000000  1
  Y  Y2  1  0.37500000  0.00000000  0.25000000  1
  P  P3  1  0.25000000  0.25000000  0.25000000  1
  P  P4  1  0.00000000  0.25000000  0.12500000  1
  Mo  Mo5  1  0.30742694  0.77964152  0.01285981  1
  Mo  Mo6  1  0.55597610  0.75928284  0.26393881  1
  Li  Li7  1  0.72641696  0.11934212  0.53549922  1
