# generated using pymatgen
data_LiF
_symmetry_space_group_name_H-M   'P 1'
_cell_length_a   16.83245377
_cell_length_b   16.83245377
_cell_length_c   3.42394525
_cell_angle_alpha   90.00000000
_cell_angle_beta   90.00000000
_cell_angle_gamma   90.00000000
_symmetry_Int_Tables_number   1
_chemical_formula_structural   LiF
_chemical_formula_sum   'Li30 F30'
_cell_volume   970.11154423
_cell_formula_units_Z   30
loop_
 _symmetry_equiv_pos_site_id
 _symmetry_equiv_pos_as_xyz
  1  'x, y, z'
loop_
 _atom_site_type_symbol
 _atom_site_label
 _atom_site_symmetry_multiplicity
 _atom_site_fract_x
 _atom_site_fract_y
 _atom_site_fract_z
 _atom_site_occupancy
  F  F0  1  0.00000000  0.50000000  0.00000000  1
  F  F1  1  0.50000000  0.00000000  0.00000000  1
  F  F2  1  0.00000000  0.50000000  0.50000000  1
  F  F3  1  0.50000000  0.00000000  0.50000000  1
  F  F4  1  0.54717297  0.34203737  0.10133048  1
  F  F5  1  0.45282703  0.65796263  0.10133048  1
  F  F6  1  0.65796263  0.54717297  0.10133048  1
  F  F7  1  0.34203737  0.45282703  0.10133048  1
  F  F8  1  0.45282703  0.34203737  0.89866952  1
  F  F9  1  0.54717297  0.65796263  0.89866952  1
  F  F10  1  0.34203737  0.54717297  0.89866952  1
  F  F11  1  0.65796263  0.45282703  0.89866952  1
  F  F12  1  0.45282703  0.65796263  0.89866952  1
  F  F13  1  0.54717297  0.34203737  0.89866952  1
  F  F14  1  0.34203737  0.45282703  0.89866952  1
  F  F15  1  0.65796263  0.54717297  0.89866952  1
  F  F16  1  0.54717297  0.65796263  0.10133048  1
  F  F17  1  0.45282703  0.34203737  0.10133048  1
  F  F18  1  0.65796263  0.45282703  0.10133048  1
  F  F19  1  0.34203737  0.54717297  0.10133048  1
  F  F20  1  0.94055696  0.79704622  0.00000000  1
  F  F21  1  0.05944304  0.20295378  0.00000000  1
  F  F22  1  0.20295378  0.94055696  0.00000000  1
  F  F23  1  0.79704622  0.05944304  0.00000000  1
  F  F24  1  0.05944304  0.79704622  0.00000000  1
  F  F25  1  0.94055696  0.20295378  0.00000000  1
  F  F26  1  0.79704622  0.94055696  0.00000000  1
  F  F27  1  0.20295378  0.05944304  0.00000000  1
  F  F28  1  0.00000000  0.00000000  0.27507443  1
  F  F29  1  0.00000000  0.00000000  0.72492557  1
  Li  Li30  1  0.73119152  0.40112079  0.26746143  1
  Li  Li31  1  -0.73119152  -0.40112079  0.26746143  1
  Li  Li32  1  -0.40112079  0.73119152  0.26746143  1
  Li  Li33  1  0.40112079  -0.73119152  0.26746143  1
  Li  Li34  1  -0.73119152  0.40112079  -0.26746143  1
  Li  Li35  1  0.73119152  -0.40112079  -0.26746143  1
  Li  Li36  1  0.40112079  0.73119152  -0.26746143  1
  Li  Li37  1  -0.40112079  -0.73119152  -0.26746143  1
  Li  Li38  1  -0.73119152  -0.40112079  -0.26746143  1
  Li  Li39  1  0.73119152  0.40112079  -0.26746143  1
  Li  Li40  1  0.40112079  -0.73119152  -0.26746143  1
  Li  Li41  1  -0.40112079  0.73119152  -0.26746143  1
  Li  Li42  1  0.73119152  -0.40112079  0.26746143  1
  Li  Li43  1  -0.73119152  0.40112079  0.26746143  1
  Li  Li44  1  -0.40112079  -0.73119152  0.26746143  1
  Li  Li45  1  0.40112079  0.73119152  0.26746143  1
  Li  Li46  1  0.00000000  0.00000000  0.00000000  1
  Li  Li47  1  0.70514113  0.21689432  -0.00000000  1
  Li  Li48  1  0.29485887  0.78310568  0.00000000  1
  Li  Li49  1  0.78310568  0.70514113  0.00000000  1
  Li  Li50  1  0.21689432  0.29485887  0.00000000  1
  Li  Li51  1  0.29485887  0.21689432  0.00000000  1
  Li  Li52  1  0.70514113  0.78310568  0.00000000  1
  Li  Li53  1  0.21689432  0.70514113  0.00000000  1
  Li  Li54  1  0.78310568  0.29485887  0.00000000  1
  Li  Li55  1  0.55535582  0.55535582  0.00000000  1
  Li  Li56  1  0.44464418  0.44464418  -0.00000000  1
  Li  Li57  1  0.44464418  0.55535582  0.00000000  1
  Li  Li58  1  0.55535582  0.44464418  0.00000000  1
  Li  Li59  1  0.50000000  0.50000000  0.50000000  1
