# generated using pymatgen
data_Li2Si4Te3F12
_symmetry_space_group_name_H-M   'P 1'
_cell_length_a   11.19523875
_cell_length_b   7.49420707
_cell_length_c   12.28708268
_cell_angle_alpha   90.00000000
_cell_angle_beta   90.00000000
_cell_angle_gamma   90.00000000
_symmetry_Int_Tables_number   1
_chemical_formula_structural   Li2Si4Te3F12
_chemical_formula_sum   'Li8 Si16 Te12 F48'
_cell_volume   1030.87932366
_cell_formula_units_Z   4
loop_
 _symmetry_equiv_pos_site_id
 _symmetry_equiv_pos_as_xyz
  1  'x, y, z'
loop_
 _atom_site_type_symbol
 _atom_site_label
 _atom_site_symmetry_multiplicity
 _atom_site_fract_x
 _atom_site_fract_y
 _atom_site_fract_z
 _atom_site_occupancy
  F  F0  1  0.07365889  0.00795973  0.92284641  1
  F  F1  1  0.92634111  0.99204027  0.92284641  1
  F  F2  1  0.42634111  0.50795973  0.07715359  1
  F  F3  1  0.57365889  0.49204027  0.07715359  1
  F  F4  1  0.92634111  0.99204027  0.07715359  1
  F  F5  1  0.07365889  0.00795973  0.07715359  1
  F  F6  1  0.57365889  0.49204027  0.92284641  1
  F  F7  1  0.42634111  0.50795973  0.92284641  1
  F  F8  1  0.00000000  0.00000000  0.50000000  1
  F  F9  1  0.50000000  0.50000000  0.50000000  1
  F  F10  1  0.09786768  0.54984291  0.83605328  1
  F  F11  1  0.90213232  0.45015709  0.83605328  1
  F  F12  1  0.40213232  0.04984291  0.16394672  1
  F  F13  1  0.59786768  0.95015709  0.16394672  1
  F  F14  1  0.90213232  0.45015709  0.16394672  1
  F  F15  1  0.09786768  0.54984291  0.16394672  1
  F  F16  1  0.59786768  0.95015709  0.83605328  1
  F  F17  1  0.40213232  0.04984291  0.83605328  1
  F  F18  1  0.63113723  0.86898602  0.00000000  1
  F  F19  1  0.36886277  0.13101398  -0.00000000  1
  F  F20  1  0.86886277  0.36898602  0.00000000  1
  F  F21  1  0.13113723  0.63101398  0.00000000  1
  F  F22  1  0.00000000  0.50000000  0.23107996  1
  F  F23  1  0.50000000  0.00000000  0.76892004  1
  F  F24  1  0.00000000  0.50000000  0.76892004  1
  F  F25  1  0.50000000  0.00000000  0.23107996  1
  F  F26  1  0.00000000  0.50000000  0.00000000  1
  F  F27  1  0.50000000  0.00000000  0.00000000  1
  F  F28  1  0.54995257  0.19268958  0.14033451  1
  F  F29  1  0.45004743  0.80731042  0.14033451  1
  F  F30  1  0.95004743  0.69268958  0.85966549  1
  F  F31  1  0.04995257  0.30731042  0.85966549  1
  F  F32  1  0.45004743  0.80731042  0.85966549  1
  F  F33  1  0.54995257  0.19268958  0.85966549  1
  F  F34  1  0.04995257  0.30731042  0.14033451  1
  F  F35  1  0.95004743  0.69268958  0.14033451  1
  F  F36  1  0.45612283  0.79973466  0.60521806  1
  F  F37  1  0.54387717  0.20026534  0.60521806  1
  F  F38  1  0.04387717  0.29973466  0.39478194  1
  F  F39  1  0.95612283  0.70026534  0.39478194  1
  F  F40  1  0.54387717  0.20026534  0.39478194  1
  F  F41  1  0.45612283  0.79973466  0.39478194  1
  F  F42  1  0.95612283  0.70026534  0.60521806  1
  F  F43  1  0.04387717  0.29973466  0.60521806  1
  F  F44  1  0.00000000  0.00000000  0.09239690  1
  F  F45  1  0.50000000  0.50000000  0.90760310  1
  F  F46  1  0.00000000  0.00000000  0.90760310  1
  F  F47  1  0.50000000  0.50000000  0.09239690  1
  Li  Li48  1  0.33194452  0.57580468  0.00000000  1
  Li  Li49  1  0.66805548  0.42419532  0.00000000  1
  Li  Li50  1  0.16805548  0.07580468  0.00000000  1
  Li  Li51  1  0.83194452  0.92419532  -0.00000000  1
  Li  Li52  1  0.00000000  0.00000000  0.32366493  1
  Li  Li53  1  0.50000000  0.50000000  0.67633507  1
  Li  Li54  1  0.00000000  0.00000000  0.67633507  1
  Li  Li55  1  0.50000000  0.50000000  0.32366493  1
  Si  Si56  1  0.59629352  0.67973645  0.16703745  1
  Si  Si57  1  -0.59629352  -0.67973645  0.16703745  1
  Si  Si58  1  -0.09629352  1.17973645  -0.16703745  1
  Si  Si59  1  1.09629352  -0.17973645  -0.16703745  1
  Si  Si60  1  -0.59629352  -0.67973645  -0.16703745  1
  Si  Si61  1  0.59629352  0.67973645  -0.16703745  1
  Si  Si62  1  1.09629352  -0.17973645  0.16703745  1
  Si  Si63  1  -0.09629352  1.17973645  0.16703745  1
  Si  Si64  1  0.21566784  0.84941975  0.79651343  1
  Si  Si65  1  0.78433216  0.15058025  0.79651343  1
  Si  Si66  1  0.28433216  0.34941975  0.20348657  1
  Si  Si67  1  0.71566784  0.65058025  0.20348657  1
  Si  Si68  1  0.78433216  0.15058025  0.20348657  1
  Si  Si69  1  0.21566784  0.84941975  0.20348657  1
  Si  Si70  1  0.71566784  0.65058025  0.79651343  1
  Si  Si71  1  0.28433216  0.34941975  0.79651343  1
  Te  Te72  1  0.00000000  0.50000000  0.50000000  1
  Te  Te73  1  0.50000000  0.00000000  0.50000000  1
  Te  Te74  1  0.81116745  0.03090365  0.59784721  1
  Te  Te75  1  0.18883255  0.96909635  0.59784721  1
  Te  Te76  1  0.68883255  0.53090365  0.40215279  1
  Te  Te77  1  0.31116745  0.46909635  0.40215279  1
  Te  Te78  1  0.18883255  0.96909635  0.40215279  1
  Te  Te79  1  0.81116745  0.03090365  0.40215279  1
  Te  Te80  1  0.31116745  0.46909635  0.59784721  1
  Te  Te81  1  0.68883255  0.53090365  0.59784721  1
  Te  Te82  1  0.00000000  0.00000000  0.00000000  1
  Te  Te83  1  0.50000000  0.50000000  -0.00000000  1
