# generated using pymatgen
data_Li2Y2As4P3Se
_symmetry_space_group_name_H-M   'P 1'
_cell_length_a   5.20248794
_cell_length_b   5.37126343
_cell_length_c   6.98070935
_cell_angle_alpha   93.96071389
_cell_angle_beta   98.84139570
_cell_angle_gamma   106.16916070
_symmetry_Int_Tables_number   1
_chemical_formula_structural   Li2Y2As4P3Se
_chemical_formula_sum   'Li2 Y2 As4 P3 Se1'
_cell_volume   183.83531993
_cell_formula_units_Z   1
loop_
 _symmetry_equiv_pos_site_id
 _symmetry_equiv_pos_as_xyz
  1  'x, y, z'
loop_
 _atom_site_type_symbol
 _atom_site_label
 _atom_site_symmetry_multiplicity
 _atom_site_fract_x
 _atom_site_fract_y
 _atom_site_fract_z
 _atom_site_occupancy
  Se  Se0  1  0.12500000  0.00000000  0.25000000  1
  P  P1  1  0.00000000  0.00000000  0.00000000  1
  P  P2  1  0.37500000  0.00000000  0.25000000  1
  P  P3  1  0.25000000  0.25000000  0.25000000  1
  As  As4  1  0.00000000  0.25000000  0.12500000  1
  As  As5  1  0.78096708  0.05020189  0.00618184  1
  As  As6  1  0.69921600  0.81993531  0.97735728  1
  As  As7  1  0.89767061  0.52789655  0.24697606  1
  Li  Li8  1  0.14827149  0.09883509  0.99692572  1
  Li  Li9  1  0.52481375  0.16444897  0.26447858  1
  Y  Y10  1  0.91825255  0.27005010  0.37591281  1
  Y  Y11  1  0.71201110  0.43147607  0.36860449  1
