# generated using pymatgen
data_LiSb2MoPSe
_symmetry_space_group_name_H-M   'P 1'
_cell_length_a   4.98667840
_cell_length_b   5.20748811
_cell_length_c   6.51966824
_cell_angle_alpha   94.31253035
_cell_angle_beta   97.28228545
_cell_angle_gamma   104.01345188
_symmetry_Int_Tables_number   1
_chemical_formula_structural   LiSb2MoPSe
_chemical_formula_sum   'Li1 Sb2 Mo1 P1 Se1'
_cell_volume   161.95026398
_cell_formula_units_Z   1
loop_
 _symmetry_equiv_pos_site_id
 _symmetry_equiv_pos_as_xyz
  1  'x, y, z'
loop_
 _atom_site_type_symbol
 _atom_site_label
 _atom_site_symmetry_multiplicity
 _atom_site_fract_x
 _atom_site_fract_y
 _atom_site_fract_z
 _atom_site_occupancy
  Se  Se0  1  0.00000000  0.00000000  0.00000000  1
  P  P1  1  0.50000000  0.50000000  0.50000000  1
  Mo  Mo2  1  0.50000000  0.50000000  0.00000000  1
  Li  Li3  1  0.50000000  0.00000000  0.50000000  1
  Sb  Sb4  1  0.00000000  0.50000000  0.50000000  1
  Sb  Sb5  1  0.47541975  0.39439773  0.38599763  1
