# generated using pymatgen
data_LiYSbP
_symmetry_space_group_name_H-M   'P 1'
_cell_length_a   5.22568153
_cell_length_b   5.35898885
_cell_length_c   7.03911041
_cell_angle_alpha   94.19424210
_cell_angle_beta   98.60822378
_cell_angle_gamma   106.02175351
_symmetry_Int_Tables_number   1
_chemical_formula_structural   LiYSbP
_chemical_formula_sum   'Li2 Y2 Sb2 P2'
_cell_volume   185.97101783
_cell_formula_units_Z   2
loop_
 _symmetry_equiv_pos_site_id
 _symmetry_equiv_pos_as_xyz
  1  'x, y, z'
loop_
 _atom_site_type_symbol
 _atom_site_label
 _atom_site_symmetry_multiplicity
 _atom_site_fract_x
 _atom_site_fract_y
 _atom_site_fract_z
 _atom_site_occupancy
  Y  Y0  1  0.00000000  0.00000000  0.00000000  1
  Y  Y1  1  0.50000000  0.50000000  0.50000000  1
  P  P2  1  0.50000000  0.50000000  0.00000000  1
  P  P3  1  0.50000000  0.00000000  0.50000000  1
  Li  Li4  1  0.00000000  0.50000000  0.50000000  1
  Li  Li5  1  0.35719081  0.50945588  0.89495703  1
  Sb  Sb6  1  0.03019819  0.56203667  0.21892263  1
  Sb  Sb7  1  0.39487318  0.50788941  0.62162334  1
