# generated using pymatgen
data_LiF
_symmetry_space_group_name_H-M   'P 1'
_cell_length_a   15.71587765
_cell_length_b   15.71587765
_cell_length_c   6.22063231
_cell_angle_alpha   90.00000000
_cell_angle_beta   90.00000000
_cell_angle_gamma   90.00000000
_symmetry_Int_Tables_number   1
_chemical_formula_structural   LiF
_chemical_formula_sum   'Li64 F64'
_cell_volume   1536.42657428
_cell_formula_units_Z   64
loop_
 _symmetry_equiv_pos_site_id
 _symmetry_equiv_pos_as_xyz
  1  'x, y, z'
loop_
 _atom_site_type_symbol
 _atom_site_label
 _atom_site_symmetry_multiplicity
 _atom_site_fract_x
 _atom_site_fract_y
 _atom_site_fract_z
 _atom_site_occupancy
  F  F0  1  0.28992760  0.90398087  0.93454998  1
  F  F1  1  0.21007240  0.09601913  0.43454998  1
  F  F2  1  0.34601913  0.03992760  0.18454998  1
  F  F3  1  0.15398087  0.96007240  0.68454998  1
  F  F4  1  0.21007240  0.90398087  0.06545002  1
  F  F5  1  0.28992760  0.09601913  0.56545002  1
  F  F6  1  0.15398087  0.03992760  0.81545002  1
  F  F7  1  0.34601913  0.96007240  0.31545002  1
  F  F8  1  0.71007240  0.09601913  0.06545002  1
  F  F9  1  0.78992760  0.90398087  0.56545002  1
  F  F10  1  0.65398087  0.96007240  0.81545002  1
  F  F11  1  0.84601913  0.03992760  0.31545002  1
  F  F12  1  0.78992760  0.09601913  0.93454998  1
  F  F13  1  0.71007240  0.90398087  0.43454998  1
  F  F14  1  0.84601913  0.96007240  0.18454998  1
  F  F15  1  0.65398087  0.03992760  0.68454998  1
  F  F16  1  0.78992760  0.40398087  0.43454998  1
  F  F17  1  0.71007240  0.59601913  0.93454998  1
  F  F18  1  0.84601913  0.53992760  0.68454998  1
  F  F19  1  0.65398087  0.46007240  0.18454998  1
  F  F20  1  0.71007240  0.40398087  0.56545002  1
  F  F21  1  0.78992760  0.59601913  0.06545002  1
  F  F22  1  0.65398087  0.53992760  0.31545002  1
  F  F23  1  0.84601913  0.46007240  0.81545002  1
  F  F24  1  0.21007240  0.59601913  0.56545002  1
  F  F25  1  0.28992760  0.40398087  0.06545002  1
  F  F26  1  0.15398087  0.46007240  0.31545002  1
  F  F27  1  0.34601913  0.53992760  0.81545002  1
  F  F28  1  0.28992760  0.59601913  0.43454998  1
  F  F29  1  0.21007240  0.40398087  0.93454998  1
  F  F30  1  0.34601913  0.46007240  0.68454998  1
  F  F31  1  0.15398087  0.53992760  0.18454998  1
  F  F32  1  0.14728378  0.33409549  0.13039983  1
  F  F33  1  0.35271622  0.66590451  0.63039983  1
  F  F34  1  0.91590451  0.89728378  0.38039983  1
  F  F35  1  0.58409549  0.10271622  0.88039983  1
  F  F36  1  0.35271622  0.33409549  0.86960017  1
  F  F37  1  0.14728378  0.66590451  0.36960017  1
  F  F38  1  0.58409549  0.89728378  0.61960017  1
  F  F39  1  0.91590451  0.10271622  0.11960017  1
  F  F40  1  0.85271622  0.66590451  0.86960017  1
  F  F41  1  0.64728378  0.33409549  0.36960017  1
  F  F42  1  0.08409549  0.10271622  0.61960017  1
  F  F43  1  0.41590451  0.89728378  0.11960017  1
  F  F44  1  0.64728378  0.66590451  0.13039983  1
  F  F45  1  0.85271622  0.33409549  0.63039983  1
  F  F46  1  0.41590451  0.10271622  0.38039983  1
  F  F47  1  0.08409549  0.89728378  0.88039983  1
  F  F48  1  0.64728378  0.83409549  0.63039983  1
  F  F49  1  0.85271622  0.16590451  0.13039983  1
  F  F50  1  0.41590451  0.39728378  0.88039983  1
  F  F51  1  0.08409549  0.60271622  0.38039983  1
  F  F52  1  0.85271622  0.83409549  0.36960017  1
  F  F53  1  0.64728378  0.16590451  0.86960017  1
  F  F54  1  0.08409549  0.39728378  0.11960017  1
  F  F55  1  0.41590451  0.60271622  0.61960017  1
  F  F56  1  0.35271622  0.16590451  0.36960017  1
  F  F57  1  0.14728378  0.83409549  0.86960017  1
  F  F58  1  0.58409549  0.60271622  0.11960017  1
  F  F59  1  0.91590451  0.39728378  0.61960017  1
  F  F60  1  0.14728378  0.16590451  0.63039983  1
  F  F61  1  0.35271622  0.83409549  0.13039983  1
  F  F62  1  0.91590451  0.60271622  0.88039983  1
  F  F63  1  0.58409549  0.39728378  0.38039983  1
  Li  Li64  1  0.21133201  0.16452453  0.09130476  1
  Li  Li65  1  0.28866799  -0.16452453  0.59130476  1
  Li  Li66  1  0.08547547  0.96133201  0.34130476  1
  Li  Li67  1  0.41452453  0.03866799  0.84130476  1
  Li  Li68  1  0.28866799  0.16452453  -0.09130476  1
  Li  Li69  1  0.21133201  -0.16452453  0.40869524  1
  Li  Li70  1  0.41452453  0.96133201  0.65869524  1
  Li  Li71  1  0.08547547  0.03866799  0.15869524  1
  Li  Li72  1  -0.21133201  -0.16452453  -0.09130476  1
  Li  Li73  1  0.71133201  0.16452453  0.40869524  1
  Li  Li74  1  0.91452453  0.03866799  0.65869524  1
  Li  Li75  1  0.58547547  0.96133201  0.15869524  1
  Li  Li76  1  0.71133201  -0.16452453  0.09130476  1
  Li  Li77  1  -0.21133201  0.16452453  0.59130476  1
  Li  Li78  1  0.58547547  0.03866799  0.34130476  1
  Li  Li79  1  0.91452453  0.96133201  0.84130476  1
  Li  Li80  1  0.71133201  0.66452453  0.59130476  1
  Li  Li81  1  0.78866799  0.33547547  1.09130476  1
  Li  Li82  1  0.58547547  1.46133201  0.84130476  1
  Li  Li83  1  0.91452453  0.53866799  1.34130476  1
  Li  Li84  1  0.78866799  0.66452453  0.40869524  1
  Li  Li85  1  0.71133201  0.33547547  0.90869524  1
  Li  Li86  1  0.91452453  1.46133201  1.15869524  1
  Li  Li87  1  0.58547547  0.53866799  0.65869524  1
  Li  Li88  1  0.28866799  0.33547547  0.40869524  1
  Li  Li89  1  1.21133201  0.66452453  0.90869524  1
  Li  Li90  1  1.41452453  0.53866799  1.15869524  1
  Li  Li91  1  1.08547547  1.46133201  0.65869524  1
  Li  Li92  1  1.21133201  0.33547547  0.59130476  1
  Li  Li93  1  0.28866799  0.66452453  1.09130476  1
  Li  Li94  1  1.08547547  0.53866799  0.84130476  1
  Li  Li95  1  1.41452453  1.46133201  1.34130476  1
  Li  Li96  1  0.62795968  0.12719107  0.68525849  1
  Li  Li97  1  0.87204032  0.87280893  0.18525849  1
  Li  Li98  1  0.12280893  0.37795968  0.93525849  1
  Li  Li99  1  0.37719107  0.62204032  0.43525849  1
  Li  Li100  1  0.87204032  0.12719107  0.31474151  1
  Li  Li101  1  0.62795968  0.87280893  0.81474151  1
  Li  Li102  1  0.37719107  0.37795968  0.06474151  1
  Li  Li103  1  0.12280893  0.62204032  0.56474151  1
  Li  Li104  1  0.37204032  0.87280893  0.31474151  1
  Li  Li105  1  0.12795968  0.12719107  0.81474151  1
  Li  Li106  1  0.87719107  0.62204032  0.06474151  1
  Li  Li107  1  0.62280893  0.37795968  0.56474151  1
  Li  Li108  1  0.12795968  0.87280893  0.68525849  1
  Li  Li109  1  0.37204032  0.12719107  0.18525849  1
  Li  Li110  1  0.62280893  0.62204032  0.93525849  1
  Li  Li111  1  0.87719107  0.37795968  0.43525849  1
  Li  Li112  1  0.12795968  0.62719107  0.18525849  1
  Li  Li113  1  0.37204032  0.37280893  0.68525849  1
  Li  Li114  1  0.62280893  0.87795968  0.43525849  1
  Li  Li115  1  0.87719107  0.12204032  0.93525849  1
  Li  Li116  1  0.37204032  0.62719107  0.81474151  1
  Li  Li117  1  0.12795968  0.37280893  0.31474151  1
  Li  Li118  1  0.87719107  0.87795968  0.56474151  1
  Li  Li119  1  0.62280893  0.12204032  0.06474151  1
  Li  Li120  1  0.87204032  0.37280893  0.81474151  1
  Li  Li121  1  0.62795968  0.62719107  0.31474151  1
  Li  Li122  1  0.37719107  0.12204032  0.56474151  1
  Li  Li123  1  0.12280893  0.87795968  0.06474151  1
  Li  Li124  1  0.62795968  0.37280893  0.18525849  1
  Li  Li125  1  0.87204032  0.62719107  0.68525849  1
  Li  Li126  1  0.12280893  0.12204032  0.43525849  1
  Li  Li127  1  0.37719107  0.87795968  0.93525849  1
