# generated using pymatgen
data_Li4TeF2
_symmetry_space_group_name_H-M   'P 1'
_cell_length_a   10.88516798
_cell_length_b   10.88516798
_cell_length_c   30.40917999
_cell_angle_alpha   90.00000000
_cell_angle_beta   90.00000000
_cell_angle_gamma   120.00000000
_symmetry_Int_Tables_number   1
_chemical_formula_structural   Li4TeF2
_chemical_formula_sum   'Li96 Te24 F48'
_cell_volume   3120.36653369
_cell_formula_units_Z   24
loop_
 _symmetry_equiv_pos_site_id
 _symmetry_equiv_pos_as_xyz
  1  'x, y, z'
loop_
 _atom_site_type_symbol
 _atom_site_label
 _atom_site_symmetry_multiplicity
 _atom_site_fract_x
 _atom_site_fract_y
 _atom_site_fract_z
 _atom_site_occupancy
  F  F0  1  0.51262820  0.21984405  0.84841459  1
  F  F1  1  -0.21984405  0.29278416  0.84841459  1
  F  F2  1  -0.29278416  -0.51262820  0.84841459  1
  F  F3  1  0.21984405  0.51262820  -0.34841459  1
  F  F4  1  0.29278416  -0.21984405  -0.34841459  1
  F  F5  1  -0.51262820  -0.29278416  -0.34841459  1
  F  F6  1  -0.51262820  -0.21984405  -0.84841459  1
  F  F7  1  0.21984405  -0.29278416  -0.84841459  1
  F  F8  1  0.29278416  0.51262820  -0.84841459  1
  F  F9  1  -0.21984405  -0.51262820  1.34841459  1
  F  F10  1  -0.29278416  0.21984405  1.34841459  1
  F  F11  1  0.51262820  0.29278416  1.34841459  1
  F  F12  1  1.17929487  0.55317738  1.18174793  1
  F  F13  1  0.44682262  0.62611749  1.18174793  1
  F  F14  1  0.37388251  -0.17929487  1.18174793  1
  F  F15  1  0.88651071  0.84596154  -0.01508126  1
  F  F16  1  0.95945082  0.11348929  -0.01508126  1
  F  F17  1  0.15403846  0.04054918  -0.01508126  1
  F  F18  1  0.15403846  0.11348929  -0.51508126  1
  F  F19  1  0.88651071  0.04054918  -0.51508126  1
  F  F20  1  0.95945082  0.84596154  -0.51508126  1
  F  F21  1  0.44682262  -0.17929487  1.68174793  1
  F  F22  1  0.37388251  0.55317738  1.68174793  1
  F  F23  1  1.17929487  0.62611749  1.68174793  1
  F  F24  1  0.84596154  0.88651071  1.51508126  1
  F  F25  1  0.11348929  0.95945082  1.51508126  1
  F  F26  1  0.04054918  0.15403846  1.51508126  1
  F  F27  1  0.55317738  1.17929487  0.31825207  1
  F  F28  1  0.62611749  0.44682262  0.31825207  1
  F  F29  1  -0.17929487  0.37388251  0.31825207  1
  F  F30  1  -0.17929487  0.44682262  -0.18174793  1
  F  F31  1  0.55317738  0.37388251  -0.18174793  1
  F  F32  1  0.62611749  1.17929487  -0.18174793  1
  F  F33  1  0.11348929  0.15403846  2.01508126  1
  F  F34  1  0.04054918  0.88651071  2.01508126  1
  F  F35  1  0.84596154  0.95945082  2.01508126  1
  F  F36  1  0.00000000  0.00000000  0.14934749  1
  F  F37  1  0.00000000  0.00000000  0.35065251  1
  F  F38  1  0.00000000  0.00000000  0.85065251  1
  F  F39  1  0.00000000  0.00000000  0.64934749  1
  F  F40  1  0.66666667  0.33333333  0.48268082  1
  F  F41  1  0.66666667  0.33333333  0.68398584  1
  F  F42  1  0.66666667  0.33333333  0.18398584  1
  F  F43  1  0.66666667  0.33333333  0.98268082  1
  F  F44  1  0.33333333  0.66666667  0.81601416  1
  F  F45  1  0.33333333  0.66666667  0.01731918  1
  F  F46  1  0.33333333  0.66666667  0.51731918  1
  F  F47  1  0.33333333  0.66666667  0.31601416  1
  Li  Li48  1  0.84430828  0.65103280  0.55579868  1
  Li  Li49  1  0.34896720  0.19327548  0.55579868  1
  Li  Li50  1  0.80672452  0.15569172  0.55579868  1
  Li  Li51  1  0.65103280  0.84430828  0.94420132  1
  Li  Li52  1  0.19327548  0.34896720  0.94420132  1
  Li  Li53  1  0.15569172  0.80672452  0.94420132  1
  Li  Li54  1  0.15569172  0.34896720  0.44420132  1
  Li  Li55  1  0.65103280  0.80672452  0.44420132  1
  Li  Li56  1  0.19327548  0.84430828  0.44420132  1
  Li  Li57  1  0.34896720  0.15569172  0.05579868  1
  Li  Li58  1  0.80672452  0.65103280  0.05579868  1
  Li  Li59  1  0.84430828  0.19327548  0.05579868  1
  Li  Li60  1  0.51097494  0.98436614  0.88913201  1
  Li  Li61  1  0.01563386  0.52660881  0.88913201  1
  Li  Li62  1  0.47339119  0.48902506  0.88913201  1
  Li  Li63  1  0.31769947  0.17764161  0.27753465  1
  Li  Li64  1  0.85994214  0.68230053  0.27753465  1
  Li  Li65  1  0.82235839  0.14005786  0.27753465  1
  Li  Li66  1  0.82235839  0.68230053  0.77753465  1
  Li  Li67  1  0.31769947  0.14005786  0.77753465  1
  Li  Li68  1  0.85994214  0.17764161  0.77753465  1
  Li  Li69  1  0.01563386  0.48902506  0.38913201  1
  Li  Li70  1  0.47339119  0.98436614  0.38913201  1
  Li  Li71  1  0.51097494  0.52660881  0.38913201  1
  Li  Li72  1  0.17764161  0.31769947  0.22246535  1
  Li  Li73  1  0.68230053  0.85994214  0.22246535  1
  Li  Li74  1  0.14005786  0.82235839  0.22246535  1
  Li  Li75  1  0.98436614  0.51097494  0.61086799  1
  Li  Li76  1  0.52660881  0.01563386  0.61086799  1
  Li  Li77  1  0.48902506  0.47339119  0.61086799  1
  Li  Li78  1  0.48902506  0.01563386  0.11086799  1
  Li  Li79  1  0.98436614  0.47339119  0.11086799  1
  Li  Li80  1  0.52660881  0.51097494  0.11086799  1
  Li  Li81  1  0.68230053  0.82235839  0.72246535  1
  Li  Li82  1  0.14005786  0.31769947  0.72246535  1
  Li  Li83  1  0.17764161  0.85994214  0.72246535  1
  Li  Li84  1  0.50000000  0.00000000  -0.00000000  1
  Li  Li85  1  0.00000000  0.50000000  0.00000000  1
  Li  Li86  1  0.50000000  0.50000000  -0.00000000  1
  Li  Li87  1  0.00000000  0.50000000  0.50000000  1
  Li  Li88  1  0.50000000  0.00000000  0.50000000  1
  Li  Li89  1  0.50000000  0.50000000  0.50000000  1
  Li  Li90  1  0.16666667  0.33333333  0.33333333  1
  Li  Li91  1  0.66666667  0.83333333  0.33333333  1
  Li  Li92  1  0.16666667  0.83333333  0.33333333  1
  Li  Li93  1  0.66666667  0.83333333  0.83333333  1
  Li  Li94  1  0.16666667  0.33333333  0.83333333  1
  Li  Li95  1  0.16666667  0.83333333  0.83333333  1
  Li  Li96  1  0.83333333  0.66666667  0.66666667  1
  Li  Li97  1  0.33333333  0.16666667  0.66666667  1
  Li  Li98  1  0.83333333  0.16666667  0.66666667  1
  Li  Li99  1  0.33333333  0.16666667  0.16666667  1
  Li  Li100  1  0.83333333  0.66666667  0.16666667  1
  Li  Li101  1  0.83333333  0.16666667  0.16666667  1
  Li  Li102  1  0.32357076  0.79553678  0.27978471  1
  Li  Li103  1  0.20446322  0.52803399  0.27978471  1
  Li  Li104  1  0.47196601  0.67642924  0.27978471  1
  Li  Li105  1  0.79553678  0.32357076  0.22021529  1
  Li  Li106  1  0.52803399  0.20446322  0.22021529  1
  Li  Li107  1  0.67642924  0.47196601  0.22021529  1
  Li  Li108  1  0.67642924  0.20446322  0.72021529  1
  Li  Li109  1  0.79553678  0.47196601  0.72021529  1
  Li  Li110  1  0.52803399  0.32357076  0.72021529  1
  Li  Li111  1  0.20446322  0.67642924  0.77978471  1
  Li  Li112  1  0.47196601  0.79553678  0.77978471  1
  Li  Li113  1  0.32357076  0.52803399  0.77978471  1
  Li  Li114  1  0.99023743  0.12887011  0.61311804  1
  Li  Li115  1  0.87112989  0.86136732  0.61311804  1
  Li  Li116  1  0.13863268  0.00976257  0.61311804  1
  Li  Li117  1  0.46220344  0.65690410  0.55354863  1
  Li  Li118  1  0.19470065  0.53779656  0.55354863  1
  Li  Li119  1  0.34309590  0.80529935  0.55354863  1
  Li  Li120  1  0.34309590  0.53779656  0.05354863  1
  Li  Li121  1  0.46220344  0.80529935  0.05354863  1
  Li  Li122  1  0.19470065  0.65690410  0.05354863  1
  Li  Li123  1  0.87112989  0.00976257  0.11311804  1
  Li  Li124  1  0.13863268  0.12887011  0.11311804  1
  Li  Li125  1  0.99023743  0.86136732  0.11311804  1
  Li  Li126  1  0.65690410  0.46220344  0.94645137  1
  Li  Li127  1  0.53779656  0.19470065  0.94645137  1
  Li  Li128  1  0.80529935  0.34309590  0.94645137  1
  Li  Li129  1  0.12887011  0.99023743  0.88688196  1
  Li  Li130  1  0.86136732  0.87112989  0.88688196  1
  Li  Li131  1  0.00976257  0.13863268  0.88688196  1
  Li  Li132  1  0.00976257  0.87112989  0.38688196  1
  Li  Li133  1  0.12887011  0.13863268  0.38688196  1
  Li  Li134  1  0.86136732  0.99023743  0.38688196  1
  Li  Li135  1  0.53779656  0.34309590  0.44645137  1
  Li  Li136  1  0.80529935  0.46220344  0.44645137  1
  Li  Li137  1  0.65690410  0.19470065  0.44645137  1
  Li  Li138  1  0.00000000  0.00000000  0.25000000  1
  Li  Li139  1  0.00000000  0.00000000  0.75000000  1
  Li  Li140  1  0.66666667  0.33333333  0.58333333  1
  Li  Li141  1  0.66666667  0.33333333  0.08333333  1
  Li  Li142  1  0.33333333  0.66666667  0.91666667  1
  Li  Li143  1  0.33333333  0.66666667  0.41666667  1
  Te  Te144  1  0.00000000  0.00000000  0.00000000  1
  Te  Te145  1  0.00000000  0.00000000  0.50000000  1
  Te  Te146  1  0.66666667  0.33333333  0.33333333  1
  Te  Te147  1  0.66666667  0.33333333  0.83333333  1
  Te  Te148  1  0.33333333  0.66666667  0.66666667  1
  Te  Te149  1  0.33333333  0.66666667  0.16666667  1
  Te  Te150  1  0.27841607  0.00000000  0.25000000  1
  Te  Te151  1  0.00000000  0.27841607  0.25000000  1
  Te  Te152  1  0.72158393  0.72158393  0.25000000  1
  Te  Te153  1  0.72158393  0.00000000  0.75000000  1
  Te  Te154  1  0.00000000  0.72158393  0.75000000  1
  Te  Te155  1  0.27841607  0.27841607  0.75000000  1
  Te  Te156  1  0.94508274  0.33333333  0.58333333  1
  Te  Te157  1  0.66666667  0.61174940  0.58333333  1
  Te  Te158  1  0.38825060  0.05491726  0.58333333  1
  Te  Te159  1  0.38825060  0.33333333  0.08333333  1
  Te  Te160  1  0.66666667  0.05491726  0.08333333  1
  Te  Te161  1  0.94508274  0.61174940  0.08333333  1
  Te  Te162  1  0.61174940  0.66666667  0.91666667  1
  Te  Te163  1  0.33333333  0.94508274  0.91666667  1
  Te  Te164  1  0.05491726  0.38825060  0.91666667  1
  Te  Te165  1  0.05491726  0.66666667  0.41666667  1
  Te  Te166  1  0.33333333  0.38825060  0.41666667  1
  Te  Te167  1  0.61174940  0.94508274  0.41666667  1
