# generated using pymatgen
data_Li2Si4Te3F12
_symmetry_space_group_name_H-M   'P 1'
_cell_length_a   6.98493188
_cell_length_b   6.98493188
_cell_length_c   13.91628582
_cell_angle_alpha   90.00000000
_cell_angle_beta   90.00000000
_cell_angle_gamma   90.00000000
_symmetry_Int_Tables_number   1
_chemical_formula_structural   Li2Si4Te3F12
_chemical_formula_sum   'Li8 Si16 Te12 F48'
_cell_volume   678.96547338
_cell_formula_units_Z   4
loop_
 _symmetry_equiv_pos_site_id
 _symmetry_equiv_pos_as_xyz
  1  'x, y, z'
loop_
 _atom_site_type_symbol
 _atom_site_label
 _atom_site_symmetry_multiplicity
 _atom_site_fract_x
 _atom_site_fract_y
 _atom_site_fract_z
 _atom_site_occupancy
  F  F0  1  0.00000000  0.00000000  0.50000000  1
  F  F1  1  0.50000000  0.00000000  0.00000000  1
  F  F2  1  0.25000000  0.75000000  0.75000000  1
  F  F3  1  0.25000000  0.25000000  0.25000000  1
  F  F4  1  0.50000000  0.50000000  0.00000000  1
  F  F5  1  0.00000000  0.50000000  0.50000000  1
  F  F6  1  0.75000000  0.25000000  0.25000000  1
  F  F7  1  0.75000000  0.75000000  0.75000000  1
  F  F8  1  0.40227004  0.56591465  0.92591967  1
  F  F9  1  0.09772996  -0.56591465  1.42591967  1
  F  F10  1  -0.31591465  1.15227004  1.17591967  1
  F  F11  1  0.81591465  -0.15227004  1.67591967  1
  F  F12  1  0.09772996  0.56591465  -0.42591967  1
  F  F13  1  0.40227004  -0.56591465  -0.92591967  1
  F  F14  1  0.81591465  1.15227004  -0.67591967  1
  F  F15  1  -0.31591465  -0.15227004  -0.17591967  1
  F  F16  1  -0.40227004  -0.56591465  -0.92591967  1
  F  F17  1  0.90227004  0.56591465  -0.42591967  1
  F  F18  1  1.31591465  -0.15227004  -0.17591967  1
  F  F19  1  0.18408535  1.15227004  -0.67591967  1
  F  F20  1  0.90227004  -0.56591465  1.42591967  1
  F  F21  1  -0.40227004  0.56591465  0.92591967  1
  F  F22  1  0.18408535  -0.15227004  1.67591967  1
  F  F23  1  1.31591465  1.15227004  1.17591967  1
  F  F24  1  0.90227004  1.06591465  1.42591967  1
  F  F25  1  0.59772996  -0.06591465  1.92591967  1
  F  F26  1  0.18408535  1.65227004  1.67591967  1
  F  F27  1  1.31591465  0.34772996  2.17591967  1
  F  F28  1  0.59772996  1.06591465  0.07408033  1
  F  F29  1  0.90227004  -0.06591465  -0.42591967  1
  F  F30  1  1.31591465  1.65227004  -0.17591967  1
  F  F31  1  0.18408535  0.34772996  0.32408033  1
  F  F32  1  0.09772996  -0.06591465  -0.42591967  1
  F  F33  1  1.40227004  1.06591465  0.07408033  1
  F  F34  1  1.81591465  0.34772996  0.32408033  1
  F  F35  1  0.68408535  1.65227004  -0.17591967  1
  F  F36  1  1.40227004  -0.06591465  1.92591967  1
  F  F37  1  0.09772996  1.06591465  1.42591967  1
  F  F38  1  0.68408535  0.34772996  2.17591967  1
  F  F39  1  1.81591465  1.65227004  1.67591967  1
  F  F40  1  0.00000000  0.00000000  0.00000000  1
  F  F41  1  0.50000000  0.00000000  0.50000000  1
  F  F42  1  0.25000000  0.75000000  0.25000000  1
  F  F43  1  0.25000000  0.25000000  0.75000000  1
  F  F44  1  0.50000000  0.50000000  0.50000000  1
  F  F45  1  0.00000000  0.50000000  0.00000000  1
  F  F46  1  0.75000000  0.25000000  0.75000000  1
  F  F47  1  0.75000000  0.75000000  0.25000000  1
  Li  Li48  1  0.00000000  0.25000000  0.46202151  1
  Li  Li49  1  0.00000000  0.75000000  0.71202151  1
  Li  Li50  1  0.50000000  0.25000000  0.03797849  1
  Li  Li51  1  0.50000000  0.75000000  0.78797849  1
  Li  Li52  1  0.50000000  0.75000000  0.96202151  1
  Li  Li53  1  0.50000000  0.25000000  0.21202151  1
  Li  Li54  1  0.00000000  0.75000000  0.53797849  1
  Li  Li55  1  0.00000000  0.25000000  0.28797849  1
  Si  Si56  1  0.13438808  0.38438808  0.87500000  1
  Si  Si57  1  0.36561192  0.61561192  0.37500000  1
  Si  Si58  1  0.86561192  0.88438808  0.12500000  1
  Si  Si59  1  0.63438808  0.11561192  0.62500000  1
  Si  Si60  1  0.86561192  0.61561192  0.12500000  1
  Si  Si61  1  0.63438808  0.38438808  0.62500000  1
  Si  Si62  1  0.13438808  0.11561192  0.87500000  1
  Si  Si63  1  0.36561192  0.88438808  0.37500000  1
  Si  Si64  1  0.63438808  0.88438808  0.37500000  1
  Si  Si65  1  0.86561192  0.11561192  0.87500000  1
  Si  Si66  1  0.36561192  0.38438808  0.62500000  1
  Si  Si67  1  0.13438808  0.61561192  0.12500000  1
  Si  Si68  1  0.36561192  0.11561192  0.62500000  1
  Si  Si69  1  0.13438808  0.88438808  0.12500000  1
  Si  Si70  1  0.63438808  0.61561192  0.37500000  1
  Si  Si71  1  0.86561192  0.38438808  0.87500000  1
  Te  Te72  1  0.00000000  0.25000000  0.99552268  1
  Te  Te73  1  0.00000000  0.75000000  0.24552268  1
  Te  Te74  1  0.50000000  0.25000000  0.50447732  1
  Te  Te75  1  0.50000000  0.75000000  0.25447732  1
  Te  Te76  1  0.50000000  0.75000000  0.49552268  1
  Te  Te77  1  0.50000000  0.25000000  0.74552268  1
  Te  Te78  1  0.00000000  0.75000000  0.00447732  1
  Te  Te79  1  0.00000000  0.25000000  0.75447732  1
  Te  Te80  1  0.00000000  0.75000000  0.12500000  1
  Te  Te81  1  0.50000000  0.75000000  0.37500000  1
  Te  Te82  1  0.50000000  0.25000000  0.62500000  1
  Te  Te83  1  0.00000000  0.25000000  0.87500000  1
