# generated using pymatgen
data_LiF
_symmetry_space_group_name_H-M   'P 1'
_cell_length_a   9.92049731
_cell_length_b   8.39845699
_cell_length_c   5.46154380
_cell_angle_alpha   90.00000000
_cell_angle_beta   90.00000000
_cell_angle_gamma   90.00000000
_symmetry_Int_Tables_number   1
_chemical_formula_structural   LiF
_chemical_formula_sum   'Li14 F14'
_cell_volume   455.03873409
_cell_formula_units_Z   14
loop_
 _symmetry_equiv_pos_site_id
 _symmetry_equiv_pos_as_xyz
  1  'x, y, z'
loop_
 _atom_site_type_symbol
 _atom_site_label
 _atom_site_symmetry_multiplicity
 _atom_site_fract_x
 _atom_site_fract_y
 _atom_site_fract_z
 _atom_site_occupancy
  F  F0  1  0.81511487  0.88252295  -0.00000000  1
  F  F1  1  0.18488513  0.11747705  0.00000000  1
  F  F2  1  0.68488513  0.38252295  0.00000000  1
  F  F3  1  0.31511487  0.61747705  0.00000000  1
  F  F4  1  0.59961168  0.15313336  0.19948307  1
  F  F5  1  -0.59961168  -0.15313336  0.19948307  1
  F  F6  1  -0.09961168  0.65313336  -0.19948307  1
  F  F7  1  1.09961168  0.34686664  -0.19948307  1
  F  F8  1  -0.59961168  -0.15313336  -0.19948307  1
  F  F9  1  0.59961168  0.15313336  -0.19948307  1
  F  F10  1  1.09961168  0.34686664  0.19948307  1
  F  F11  1  -0.09961168  0.65313336  0.19948307  1
  F  F12  1  0.00000000  0.00000000  0.00000000  1
  F  F13  1  0.50000000  0.50000000  0.00000000  1
  Li  Li14  1  0.29522232  0.27839395  -0.00000000  1
  Li  Li15  1  0.70477768  0.72160605  0.00000000  1
  Li  Li16  1  0.20477768  0.77839395  0.00000000  1
  Li  Li17  1  0.79522232  0.22160605  -0.00000000  1
  Li  Li18  1  0.98456767  0.22132009  0.65713251  1
  Li  Li19  1  0.01543233  0.77867991  0.65713251  1
  Li  Li20  1  0.51543233  0.72132009  0.34286749  1
  Li  Li21  1  0.48456767  0.27867991  0.34286749  1
  Li  Li22  1  0.01543233  0.77867991  0.34286749  1
  Li  Li23  1  0.98456767  0.22132009  0.34286749  1
  Li  Li24  1  0.48456767  0.27867991  0.65713251  1
  Li  Li25  1  0.51543233  0.72132009  0.65713251  1
  Li  Li26  1  0.00000000  0.50000000  0.00000000  1
  Li  Li27  1  0.50000000  0.00000000  0.00000000  1
