# generated using pymatgen
data_LiCaF3
_symmetry_space_group_name_H-M   'P 1'
_cell_length_a   7.73699757
_cell_length_b   7.73699757
_cell_length_c   23.79724333
_cell_angle_alpha   90.00000000
_cell_angle_beta   90.00000000
_cell_angle_gamma   120.00000000
_symmetry_Int_Tables_number   1
_chemical_formula_structural   LiCaF3
_chemical_formula_sum   'Li18 Ca18 F54'
_cell_volume   1233.67909064
_cell_formula_units_Z   18
loop_
 _symmetry_equiv_pos_site_id
 _symmetry_equiv_pos_as_xyz
  1  'x, y, z'
loop_
 _atom_site_type_symbol
 _atom_site_label
 _atom_site_symmetry_multiplicity
 _atom_site_fract_x
 _atom_site_fract_y
 _atom_site_fract_z
 _atom_site_occupancy
  Ca  Ca0  1  0.20801497  0.00000000  0.68130570  1
  Ca  Ca1  1  0.00000000  0.20801497  0.68130570  1
  Ca  Ca2  1  0.79198503  0.79198503  0.68130570  1
  Ca  Ca3  1  0.20801497  0.00000000  0.31869430  1
  Ca  Ca4  1  0.00000000  0.20801497  0.31869430  1
  Ca  Ca5  1  0.79198503  0.79198503  0.31869430  1
  Ca  Ca6  1  0.53969844  0.00000000  -0.00000000  1
  Ca  Ca7  1  0.00000000  0.53969844  0.00000000  1
  Ca  Ca8  1  0.46030156  0.46030156  -0.00000000  1
  Ca  Ca9  1  0.33333333  0.66666667  0.26485529  1
  Ca  Ca10  1  0.33333333  0.66666667  0.73514471  1
  Ca  Ca11  1  0.66666667  0.33333333  0.73514471  1
  Ca  Ca12  1  0.66666667  0.33333333  0.26485529  1
  Ca  Ca13  1  0.33333333  0.66666667  0.50000000  1
  Ca  Ca14  1  0.66666667  0.33333333  0.50000000  1
  Ca  Ca15  1  0.30915345  0.00000000  0.50000000  1
  Ca  Ca16  1  0.00000000  0.30915345  0.50000000  1
  Ca  Ca17  1  0.69084655  0.69084655  0.50000000  1
  F  F18  1  0.00000000  0.00000000  0.00000000  1
  F  F19  1  0.33333333  0.66666667  0.41461220  1
  F  F20  1  0.33333333  0.66666667  0.58538780  1
  F  F21  1  0.66666667  0.33333333  0.58538780  1
  F  F22  1  0.66666667  0.33333333  0.41461220  1
  F  F23  1  0.06581978  0.69732937  0.63265018  1
  F  F24  1  -0.69732937  -0.63150960  0.63265018  1
  F  F25  1  0.63150960  -0.06581978  0.63265018  1
  F  F26  1  0.06581978  0.69732937  -0.63265018  1
  F  F27  1  -0.69732937  -0.63150960  -0.63265018  1
  F  F28  1  0.63150960  -0.06581978  -0.63265018  1
  F  F29  1  0.69732937  0.06581978  -0.63265018  1
  F  F30  1  -0.63150960  -0.69732937  -0.63265018  1
  F  F31  1  -0.06581978  0.63150960  -0.63265018  1
  F  F32  1  0.69732937  0.06581978  0.63265018  1
  F  F33  1  -0.63150960  -0.69732937  0.63265018  1
  F  F34  1  -0.06581978  0.63150960  0.63265018  1
  F  F35  1  0.00000000  0.00000000  0.50000000  1
  F  F36  1  0.10495493  0.70688202  0.82282256  1
  F  F37  1  0.29311798  0.39807291  0.82282256  1
  F  F38  1  0.60192709  0.89504507  0.82282256  1
  F  F39  1  0.10495493  0.70688202  0.17717744  1
  F  F40  1  0.29311798  0.39807291  0.17717744  1
  F  F41  1  0.60192709  0.89504507  0.17717744  1
  F  F42  1  0.70688202  0.10495493  0.17717744  1
  F  F43  1  0.39807291  0.29311798  0.17717744  1
  F  F44  1  0.89504507  0.60192709  0.17717744  1
  F  F45  1  0.70688202  0.10495493  0.82282256  1
  F  F46  1  0.39807291  0.29311798  0.82282256  1
  F  F47  1  0.89504507  0.60192709  0.82282256  1
  F  F48  1  0.30594223  0.07478178  0.18419466  1
  F  F49  1  0.92521822  0.23116045  0.18419466  1
  F  F50  1  0.76883955  0.69405777  0.18419466  1
  F  F51  1  0.30594223  0.07478178  0.81580534  1
  F  F52  1  0.92521822  0.23116045  0.81580534  1
  F  F53  1  0.76883955  0.69405777  0.81580534  1
  F  F54  1  0.07478178  0.30594223  0.81580534  1
  F  F55  1  0.23116045  0.92521822  0.81580534  1
  F  F56  1  0.69405777  0.76883955  0.81580534  1
  F  F57  1  0.07478178  0.30594223  0.18419466  1
  F  F58  1  0.23116045  0.92521822  0.18419466  1
  F  F59  1  0.69405777  0.76883955  0.18419466  1
  F  F60  1  0.27552778  0.81364248  0.84730408  1
  F  F61  1  0.18635752  0.46188530  0.84730408  1
  F  F62  1  0.53811470  0.72447222  0.84730408  1
  F  F63  1  0.27552778  0.81364248  0.15269592  1
  F  F64  1  0.18635752  0.46188530  0.15269592  1
  F  F65  1  0.53811470  0.72447222  0.15269592  1
  F  F66  1  0.81364248  0.27552778  0.15269592  1
  F  F67  1  0.46188530  0.18635752  0.15269592  1
  F  F68  1  0.72447222  0.53811470  0.15269592  1
  F  F69  1  0.81364248  0.27552778  0.84730408  1
  F  F70  1  0.46188530  0.18635752  0.84730408  1
  F  F71  1  0.72447222  0.53811470  0.84730408  1
  Li  Li72  1  0.85893151  0.00000000  0.29471039  1
  Li  Li73  1  0.00000000  0.85893151  0.29471039  1
  Li  Li74  1  0.14106849  0.14106849  0.29471039  1
  Li  Li75  1  0.85893151  0.00000000  0.70528961  1
  Li  Li76  1  0.00000000  0.85893151  0.70528961  1
  Li  Li77  1  0.14106849  0.14106849  0.70528961  1
  Li  Li78  1  0.76884076  0.58301071  0.36716097  1
  Li  Li79  1  0.41698929  0.18583005  0.36716097  1
  Li  Li80  1  0.81416995  0.23115924  0.36716097  1
  Li  Li81  1  0.76884076  0.58301071  0.63283903  1
  Li  Li82  1  0.41698929  0.18583005  0.63283903  1
  Li  Li83  1  0.81416995  0.23115924  0.63283903  1
  Li  Li84  1  0.58301071  0.76884076  0.63283903  1
  Li  Li85  1  0.18583005  0.41698929  0.63283903  1
  Li  Li86  1  0.23115924  0.81416995  0.63283903  1
  Li  Li87  1  0.58301071  0.76884076  0.36716097  1
  Li  Li88  1  0.18583005  0.41698929  0.36716097  1
  Li  Li89  1  0.23115924  0.81416995  0.36716097  1
