# generated using pymatgen
data_LiYPSe
_symmetry_space_group_name_H-M   'P 1'
_cell_length_a   5.35865562
_cell_length_b   5.49176048
_cell_length_c   7.10670109
_cell_angle_alpha   94.09475733
_cell_angle_beta   98.91753018
_cell_angle_gamma   106.44701277
_symmetry_Int_Tables_number   1
_chemical_formula_structural   LiYPSe
_chemical_formula_sum   'Li2 Y2 P2 Se2'
_cell_volume   196.68458599
_cell_formula_units_Z   2
loop_
 _symmetry_equiv_pos_site_id
 _symmetry_equiv_pos_as_xyz
  1  'x, y, z'
loop_
 _atom_site_type_symbol
 _atom_site_label
 _atom_site_symmetry_multiplicity
 _atom_site_fract_x
 _atom_site_fract_y
 _atom_site_fract_z
 _atom_site_occupancy
  P  P0  1  0.00000000  0.00000000  0.00000000  1
  P  P1  1  0.33300000  0.66700000  0.25000000  1
  Se  Se2  1  0.66700000  0.33300000  0.50000000  1
  Se  Se3  1  0.00000000  0.00000000  0.75000000  1
  Li  Li4  1  0.09755375  0.95523201  0.80320669  1
  Li  Li5  1  0.76148976  0.86827533  0.79144351  1
  Y  Y6  1  0.44320516  0.22816720  0.85641878  1
  Y  Y7  1  0.63142919  0.55534819  0.57812224  1
