# generated using pymatgen
data_Li2Y2MoP3Se2
_symmetry_space_group_name_H-M   'P 1'
_cell_length_a   5.41079341
_cell_length_b   5.67639401
_cell_length_c   7.27051869
_cell_angle_alpha   93.99663932
_cell_angle_beta   98.70384955
_cell_angle_gamma   106.05291170
_symmetry_Int_Tables_number   1
_chemical_formula_structural   Li2Y2MoP3Se2
_chemical_formula_sum   'Li2 Y2 Mo1 P3 Se2'
_cell_volume   210.65898982
_cell_formula_units_Z   1
loop_
 _symmetry_equiv_pos_site_id
 _symmetry_equiv_pos_as_xyz
  1  'x, y, z'
loop_
 _atom_site_type_symbol
 _atom_site_label
 _atom_site_symmetry_multiplicity
 _atom_site_fract_x
 _atom_site_fract_y
 _atom_site_fract_z
 _atom_site_occupancy
  Se  Se0  1  0.12500000  0.00000000  0.25000000  1
  Se  Se1  1  0.00000000  0.00000000  0.00000000  1
  Y  Y2  1  0.37500000  0.00000000  0.25000000  1
  Y  Y3  1  0.25000000  0.25000000  0.25000000  1
  P  P4  1  0.00000000  0.25000000  0.12500000  1
  P  P5  1  0.36638024  0.67045006  0.98370653  1
  P  P6  1  0.66884815  0.99587640  0.72257016  1
  Mo  Mo7  1  0.68001252  0.64518217  0.28633248  1
  Li  Li8  1  0.48403043  0.85440103  0.26647882  1
  Li  Li9  1  0.14218822  0.95595595  0.69666908  1
