# generated using pymatgen
data_LiF
_symmetry_space_group_name_H-M   'P 1'
_cell_length_a   13.04796048
_cell_length_b   13.04796048
_cell_length_c   12.38935754
_cell_angle_alpha   90.00000000
_cell_angle_beta   90.00000000
_cell_angle_gamma   90.00000000
_symmetry_Int_Tables_number   1
_chemical_formula_structural   LiF
_chemical_formula_sum   'Li64 F64'
_cell_volume   2109.27910911
_cell_formula_units_Z   64
loop_
 _symmetry_equiv_pos_site_id
 _symmetry_equiv_pos_as_xyz
  1  'x, y, z'
loop_
 _atom_site_type_symbol
 _atom_site_label
 _atom_site_symmetry_multiplicity
 _atom_site_fract_x
 _atom_site_fract_y
 _atom_site_fract_z
 _atom_site_occupancy
  F  F0  1  0.22597518  0.13344296  0.85082664  1
  F  F1  1  0.27402482  -0.13344296  1.35082664  1
  F  F2  1  0.11655704  0.97597518  1.10082664  1
  F  F3  1  0.38344296  0.02402482  1.60082664  1
  F  F4  1  0.27402482  0.13344296  -0.85082664  1
  F  F5  1  0.22597518  -0.13344296  -0.35082664  1
  F  F6  1  0.38344296  0.97597518  -0.10082664  1
  F  F7  1  0.11655704  0.02402482  -0.60082664  1
  F  F8  1  -0.22597518  -0.13344296  -0.85082664  1
  F  F9  1  0.72597518  0.13344296  -0.35082664  1
  F  F10  1  0.88344296  0.02402482  -0.10082664  1
  F  F11  1  0.61655704  0.97597518  -0.60082664  1
  F  F12  1  0.72597518  -0.13344296  0.85082664  1
  F  F13  1  -0.22597518  0.13344296  1.35082664  1
  F  F14  1  0.61655704  0.02402482  1.10082664  1
  F  F15  1  0.88344296  0.97597518  1.60082664  1
  F  F16  1  0.72597518  0.63344296  1.35082664  1
  F  F17  1  0.77402482  0.36655704  1.85082664  1
  F  F18  1  0.61655704  1.47597518  1.60082664  1
  F  F19  1  0.88344296  0.52402482  2.10082664  1
  F  F20  1  0.77402482  0.63344296  -0.35082664  1
  F  F21  1  0.72597518  0.36655704  0.14917336  1
  F  F22  1  0.88344296  1.47597518  0.39917336  1
  F  F23  1  0.61655704  0.52402482  -0.10082664  1
  F  F24  1  0.27402482  0.36655704  -0.35082664  1
  F  F25  1  1.22597518  0.63344296  0.14917336  1
  F  F26  1  1.38344296  0.52402482  0.39917336  1
  F  F27  1  1.11655704  1.47597518  -0.10082664  1
  F  F28  1  1.22597518  0.36655704  1.35082664  1
  F  F29  1  0.27402482  0.63344296  1.85082664  1
  F  F30  1  1.11655704  0.52402482  1.60082664  1
  F  F31  1  1.38344296  1.47597518  2.10082664  1
  F  F32  1  0.00000000  0.00000000  0.00000000  1
  F  F33  1  0.50000000  0.00000000  0.50000000  1
  F  F34  1  0.25000000  0.75000000  0.25000000  1
  F  F35  1  0.25000000  0.25000000  0.75000000  1
  F  F36  1  0.50000000  0.00000000  0.00000000  1
  F  F37  1  0.00000000  0.00000000  0.50000000  1
  F  F38  1  0.25000000  0.75000000  0.75000000  1
  F  F39  1  0.25000000  0.25000000  0.25000000  1
  F  F40  1  0.50000000  0.50000000  0.50000000  1
  F  F41  1  0.00000000  0.50000000  0.00000000  1
  F  F42  1  0.75000000  0.25000000  0.75000000  1
  F  F43  1  0.75000000  0.75000000  0.25000000  1
  F  F44  1  0.00000000  0.50000000  0.50000000  1
  F  F45  1  0.50000000  0.50000000  0.00000000  1
  F  F46  1  0.75000000  0.25000000  0.25000000  1
  F  F47  1  0.75000000  0.75000000  0.75000000  1
  F  F48  1  0.18711267  0.00000000  0.25000000  1
  F  F49  1  0.31288733  0.00000000  0.75000000  1
  F  F50  1  0.25000000  0.93711267  0.50000000  1
  F  F51  1  0.25000000  0.06288733  -0.00000000  1
  F  F52  1  0.81288733  0.00000000  0.75000000  1
  F  F53  1  0.68711267  0.00000000  0.25000000  1
  F  F54  1  0.75000000  0.06288733  0.50000000  1
  F  F55  1  0.75000000  0.93711267  0.00000000  1
  F  F56  1  0.68711267  0.50000000  0.75000000  1
  F  F57  1  0.81288733  0.50000000  0.25000000  1
  F  F58  1  0.75000000  0.43711267  0.00000000  1
  F  F59  1  0.75000000  0.56288733  0.50000000  1
  F  F60  1  0.31288733  0.50000000  0.25000000  1
  F  F61  1  0.18711267  0.50000000  0.75000000  1
  F  F62  1  0.25000000  0.56288733  0.00000000  1
  F  F63  1  0.25000000  0.43711267  0.50000000  1
  Li  Li64  1  0.33154782  0.17016092  0.33241222  1
  Li  Li65  1  0.16845218  0.82983908  0.83241222  1
  Li  Li66  1  0.07983908  0.08154782  0.58241222  1
  Li  Li67  1  0.42016092  0.91845218  0.08241222  1
  Li  Li68  1  0.16845218  0.17016092  0.66758778  1
  Li  Li69  1  0.33154782  0.82983908  0.16758778  1
  Li  Li70  1  0.42016092  0.08154782  0.41758778  1
  Li  Li71  1  0.07983908  0.91845218  0.91758778  1
  Li  Li72  1  0.66845218  0.82983908  0.66758778  1
  Li  Li73  1  0.83154782  0.17016092  0.16758778  1
  Li  Li74  1  0.92016092  0.91845218  0.41758778  1
  Li  Li75  1  0.57983908  0.08154782  0.91758778  1
  Li  Li76  1  0.83154782  0.82983908  0.33241222  1
  Li  Li77  1  0.66845218  0.17016092  0.83241222  1
  Li  Li78  1  0.57983908  0.91845218  0.58241222  1
  Li  Li79  1  0.92016092  0.08154782  0.08241222  1
  Li  Li80  1  0.83154782  0.67016092  0.83241222  1
  Li  Li81  1  0.66845218  0.32983908  0.33241222  1
  Li  Li82  1  0.57983908  0.58154782  0.08241222  1
  Li  Li83  1  0.92016092  0.41845218  0.58241222  1
  Li  Li84  1  0.66845218  0.67016092  0.16758778  1
  Li  Li85  1  0.83154782  0.32983908  0.66758778  1
  Li  Li86  1  0.92016092  0.58154782  0.91758778  1
  Li  Li87  1  0.57983908  0.41845218  0.41758778  1
  Li  Li88  1  0.16845218  0.32983908  0.16758778  1
  Li  Li89  1  0.33154782  0.67016092  0.66758778  1
  Li  Li90  1  0.42016092  0.41845218  0.91758778  1
  Li  Li91  1  0.07983908  0.58154782  0.41758778  1
  Li  Li92  1  0.33154782  0.32983908  0.83241222  1
  Li  Li93  1  0.16845218  0.67016092  0.33241222  1
  Li  Li94  1  0.07983908  0.41845218  0.08241222  1
  Li  Li95  1  0.42016092  0.58154782  0.58241222  1
  Li  Li96  1  0.00000000  0.25000000  0.37500000  1
  Li  Li97  1  0.00000000  0.75000000  0.62500000  1
  Li  Li98  1  0.50000000  0.25000000  0.62500000  1
  Li  Li99  1  0.50000000  0.75000000  0.37500000  1
  Li  Li100  1  0.50000000  0.75000000  0.87500000  1
  Li  Li101  1  0.50000000  0.25000000  0.12500000  1
  Li  Li102  1  0.00000000  0.75000000  0.12500000  1
  Li  Li103  1  0.00000000  0.25000000  0.87500000  1
  Li  Li104  1  0.96305823  0.00000000  0.25000000  1
  Li  Li105  1  0.53694177  0.00000000  0.75000000  1
  Li  Li106  1  0.25000000  0.71305823  0.50000000  1
  Li  Li107  1  0.25000000  0.28694177  0.00000000  1
  Li  Li108  1  0.03694177  -0.00000000  0.75000000  1
  Li  Li109  1  0.46305823  0.00000000  0.25000000  1
  Li  Li110  1  0.75000000  0.28694177  0.50000000  1
  Li  Li111  1  0.75000000  0.71305823  0.00000000  1
  Li  Li112  1  0.46305823  0.50000000  0.75000000  1
  Li  Li113  1  0.03694177  0.50000000  0.25000000  1
  Li  Li114  1  0.75000000  0.21305823  0.00000000  1
  Li  Li115  1  0.75000000  0.78694177  0.50000000  1
  Li  Li116  1  0.53694177  0.50000000  0.25000000  1
  Li  Li117  1  0.96305823  0.50000000  0.75000000  1
  Li  Li118  1  0.25000000  0.78694177  0.00000000  1
  Li  Li119  1  0.25000000  0.21305823  0.50000000  1
  Li  Li120  1  0.00000000  0.25000000  0.12500000  1
  Li  Li121  1  0.00000000  0.75000000  0.37500000  1
  Li  Li122  1  0.00000000  0.75000000  0.87500000  1
  Li  Li123  1  0.00000000  0.25000000  0.62500000  1
  Li  Li124  1  0.50000000  0.75000000  0.62500000  1
  Li  Li125  1  0.50000000  0.25000000  0.87500000  1
  Li  Li126  1  0.50000000  0.25000000  0.37500000  1
  Li  Li127  1  0.50000000  0.75000000  0.12500000  1
