# generated using pymatgen
data_LiF
_symmetry_space_group_name_H-M   'P 1'
_cell_length_a   7.10668022
_cell_length_b   7.10668022
_cell_length_c   7.88870189
_cell_angle_alpha   90.00000000
_cell_angle_beta   90.00000000
_cell_angle_gamma   120.00000000
_symmetry_Int_Tables_number   1
_chemical_formula_structural   LiF
_chemical_formula_sum   'Li16 F16'
_cell_volume   345.04022206
_cell_formula_units_Z   16
loop_
 _symmetry_equiv_pos_site_id
 _symmetry_equiv_pos_as_xyz
  1  'x, y, z'
loop_
 _atom_site_type_symbol
 _atom_site_label
 _atom_site_symmetry_multiplicity
 _atom_site_fract_x
 _atom_site_fract_y
 _atom_site_fract_z
 _atom_site_occupancy
  F  F0  1  0.00000000  0.00000000  0.00000000  1
  F  F1  1  0.37993154  0.46881322  0.94147993  1
  F  F2  1  0.53118678  0.91111832  0.94147993  1
  F  F3  1  0.08888168  0.62006846  0.94147993  1
  F  F4  1  0.53118678  0.62006846  0.05852007  1
  F  F5  1  0.08888168  0.46881322  0.05852007  1
  F  F6  1  0.37993154  0.91111832  0.05852007  1
  F  F7  1  0.33333333  0.66666667  0.61180327  1
  F  F8  1  0.33333333  0.66666667  0.38819673  1
  F  F9  1  0.00000000  0.00000000  0.50000000  1
  F  F10  1  0.77001624  0.90440519  0.69351489  1
  F  F11  1  0.09559481  0.86561104  0.69351489  1
  F  F12  1  0.13438896  0.22998376  0.69351489  1
  F  F13  1  0.09559481  0.22998376  0.30648511  1
  F  F14  1  0.13438896  0.90440519  0.30648511  1
  F  F15  1  0.77001624  0.86561104  0.30648511  1
  Li  Li16  1  0.41486795  0.99463241  0.94231311  1
  Li  Li17  1  -0.99463241  -0.57976446  0.94231311  1
  Li  Li18  1  0.57976446  -0.41486795  0.94231311  1
  Li  Li19  1  -0.99463241  -0.41486795  -0.94231311  1
  Li  Li20  1  0.57976446  0.99463241  -0.94231311  1
  Li  Li21  1  0.41486795  -0.57976446  -0.94231311  1
  Li  Li22  1  0.66666667  0.33333333  -0.00000000  1
  Li  Li23  1  0.01549157  0.40780304  0.65909172  1
  Li  Li24  1  0.59219696  0.60768853  0.65909172  1
  Li  Li25  1  0.39231147  0.98450843  0.65909172  1
  Li  Li26  1  0.59219696  0.98450843  0.34090828  1
  Li  Li27  1  0.39231147  0.40780304  0.34090828  1
  Li  Li28  1  0.01549157  0.60768853  0.34090828  1
  Li  Li29  1  0.13640774  0.86359226  0.50000000  1
  Li  Li30  1  0.13640774  0.27281548  0.50000000  1
  Li  Li31  1  0.72718452  0.86359226  0.50000000  1
