# generated using pymatgen
data_LiF
_symmetry_space_group_name_H-M   'P 1'
_cell_length_a   10.46798704
_cell_length_b   14.49135042
_cell_length_c   7.65534918
_cell_angle_alpha   90.00000000
_cell_angle_beta   90.00000000
_cell_angle_gamma   90.00000000
_symmetry_Int_Tables_number   1
_chemical_formula_structural   LiF
_chemical_formula_sum   'Li44 F44'
_cell_volume   1161.28024841
_cell_formula_units_Z   44
loop_
 _symmetry_equiv_pos_site_id
 _symmetry_equiv_pos_as_xyz
  1  'x, y, z'
loop_
 _atom_site_type_symbol
 _atom_site_label
 _atom_site_symmetry_multiplicity
 _atom_site_fract_x
 _atom_site_fract_y
 _atom_site_fract_z
 _atom_site_occupancy
  F  F0  1  0.02303990  0.76271299  -0.00000000  1
  F  F1  1  0.97696010  0.23728701  -0.00000000  1
  F  F2  1  0.47696010  0.26271299  -0.00000000  1
  F  F3  1  0.52303990  0.73728701  -0.00000000  1
  F  F4  1  0.16729698  0.26338747  0.50000000  1
  F  F5  1  0.83270302  0.73661253  0.50000000  1
  F  F6  1  0.33270302  0.76338747  0.50000000  1
  F  F7  1  0.66729698  0.23661253  0.50000000  1
  F  F8  1  0.51430909  0.57817115  0.50000000  1
  F  F9  1  0.48569091  0.42182885  0.50000000  1
  F  F10  1  0.98569091  0.07817115  0.50000000  1
  F  F11  1  0.01430909  0.92182885  0.50000000  1
  F  F12  1  0.92326344  0.31794198  0.39513603  1
  F  F13  1  0.07673656  0.68205802  0.39513603  1
  F  F14  1  0.57673656  0.81794198  0.60486397  1
  F  F15  1  0.42326344  0.18205802  0.60486397  1
  F  F16  1  0.07673656  0.68205802  0.60486397  1
  F  F17  1  0.92326344  0.31794198  0.60486397  1
  F  F18  1  0.42326344  0.18205802  0.39513603  1
  F  F19  1  0.57673656  0.81794198  0.39513603  1
  F  F20  1  0.36635118  0.58560888  0.80363673  1
  F  F21  1  0.63364882  0.41439112  0.80363673  1
  F  F22  1  0.13364882  0.08560888  0.19636327  1
  F  F23  1  0.86635118  0.91439112  0.19636327  1
  F  F24  1  0.63364882  0.41439112  0.19636327  1
  F  F25  1  0.36635118  0.58560888  0.19636327  1
  F  F26  1  0.86635118  0.91439112  0.80363673  1
  F  F27  1  0.13364882  0.08560888  0.80363673  1
  F  F28  1  0.96011413  0.67419194  0.56183659  1
  F  F29  1  0.03988587  0.32580806  0.56183659  1
  F  F30  1  0.53988587  0.17419194  0.43816341  1
  F  F31  1  0.46011413  0.82580806  0.43816341  1
  F  F32  1  0.03988587  0.32580806  0.43816341  1
  F  F33  1  0.96011413  0.67419194  0.43816341  1
  F  F34  1  0.46011413  0.82580806  0.56183659  1
  F  F35  1  0.53988587  0.17419194  0.56183659  1
  F  F36  1  0.30190396  0.04636245  0.72044915  1
  F  F37  1  0.69809604  0.95363755  0.72044915  1
  F  F38  1  0.19809604  0.54636245  0.27955085  1
  F  F39  1  0.80190396  0.45363755  0.27955085  1
  F  F40  1  0.69809604  0.95363755  0.27955085  1
  F  F41  1  0.30190396  0.04636245  0.27955085  1
  F  F42  1  0.80190396  0.45363755  0.72044915  1
  F  F43  1  0.19809604  0.54636245  0.72044915  1
  Li  Li44  1  0.63622630  0.13074926  -0.00000000  1
  Li  Li45  1  0.36377370  0.86925074  0.00000000  1
  Li  Li46  1  0.86377370  0.63074926  -0.00000000  1
  Li  Li47  1  0.13622630  0.36925074  -0.00000000  1
  Li  Li48  1  0.00000000  0.50000000  0.50000000  1
  Li  Li49  1  0.50000000  0.00000000  0.50000000  1
  Li  Li50  1  0.45793398  0.93708754  0.13934037  1
  Li  Li51  1  -0.45793398  -0.93708754  0.13934037  1
  Li  Li52  1  0.04206602  1.43708754  -0.13934037  1
  Li  Li53  1  0.95793398  -0.43708754  -0.13934037  1
  Li  Li54  1  -0.45793398  -0.93708754  -0.13934037  1
  Li  Li55  1  0.45793398  0.93708754  -0.13934037  1
  Li  Li56  1  0.95793398  -0.43708754  0.13934037  1
  Li  Li57  1  0.04206602  1.43708754  0.13934037  1
  Li  Li58  1  0.01348008  0.15841703  0.34557654  1
  Li  Li59  1  0.98651992  0.84158297  0.34557654  1
  Li  Li60  1  0.48651992  0.65841703  0.65442346  1
  Li  Li61  1  0.51348008  0.34158297  0.65442346  1
  Li  Li62  1  0.98651992  0.84158297  0.65442346  1
  Li  Li63  1  0.01348008  0.15841703  0.65442346  1
  Li  Li64  1  0.51348008  0.34158297  0.34557654  1
  Li  Li65  1  0.48651992  0.65841703  0.34557654  1
  Li  Li66  1  0.74883608  0.82277480  -0.00000000  1
  Li  Li67  1  0.25116392  0.17722520  0.00000000  1
  Li  Li68  1  0.75116392  0.32277480  -0.00000000  1
  Li  Li69  1  0.24883608  0.67722520  -0.00000000  1
  Li  Li70  1  0.96283176  0.35790665  0.16796685  1
  Li  Li71  1  0.03716824  0.64209335  0.16796685  1
  Li  Li72  1  0.53716824  0.85790665  0.83203315  1
  Li  Li73  1  0.46283176  0.14209335  0.83203315  1
  Li  Li74  1  0.03716824  0.64209335  0.83203315  1
  Li  Li75  1  0.96283176  0.35790665  0.83203315  1
  Li  Li76  1  0.46283176  0.14209335  0.16796685  1
  Li  Li77  1  0.53716824  0.85790665  0.16796685  1
  Li  Li78  1  0.00000000  0.00000000  0.77457521  1
  Li  Li79  1  0.50000000  0.50000000  0.22542479  1
  Li  Li80  1  0.00000000  0.00000000  0.22542479  1
  Li  Li81  1  0.50000000  0.50000000  0.77457521  1
  Li  Li82  1  0.22375901  0.07077112  0.00000000  1
  Li  Li83  1  0.77624099  0.92922888  0.00000000  1
  Li  Li84  1  0.27624099  0.57077112  -0.00000000  1
  Li  Li85  1  0.72375901  0.42922888  0.00000000  1
  Li  Li86  1  0.00000000  0.50000000  -0.00000000  1
  Li  Li87  1  0.50000000  0.00000000  0.00000000  1
