# generated using pymatgen
data_LiF
_symmetry_space_group_name_H-M   'P 1'
_cell_length_a   12.53911760
_cell_length_b   14.22944080
_cell_length_c   9.47551691
_cell_angle_alpha   90.00000000
_cell_angle_beta   90.00000000
_cell_angle_gamma   90.00000000
_symmetry_Int_Tables_number   1
_chemical_formula_structural   LiF
_chemical_formula_sum   'Li58 F58'
_cell_volume   1690.66561472
_cell_formula_units_Z   58
loop_
 _symmetry_equiv_pos_site_id
 _symmetry_equiv_pos_as_xyz
  1  'x, y, z'
loop_
 _atom_site_type_symbol
 _atom_site_label
 _atom_site_symmetry_multiplicity
 _atom_site_fract_x
 _atom_site_fract_y
 _atom_site_fract_z
 _atom_site_occupancy
  F  F0  1  0.87800127  0.66160026  0.24190803  1
  F  F1  1  0.12199873  0.33839974  0.24190803  1
  F  F2  1  0.62199873  0.16160026  0.75809197  1
  F  F3  1  0.37800127  0.83839974  0.75809197  1
  F  F4  1  0.12199873  0.33839974  0.75809197  1
  F  F5  1  0.87800127  0.66160026  0.75809197  1
  F  F6  1  0.37800127  0.83839974  0.24190803  1
  F  F7  1  0.62199873  0.16160026  0.24190803  1
  F  F8  1  0.00000000  0.00000000  0.16967314  1
  F  F9  1  0.50000000  0.50000000  0.83032686  1
  F  F10  1  0.00000000  0.00000000  0.83032686  1
  F  F11  1  0.50000000  0.50000000  0.16967314  1
  F  F12  1  0.22004251  0.84305411  0.56625853  1
  F  F13  1  0.77995749  0.15694589  0.56625853  1
  F  F14  1  0.27995749  0.34305411  0.43374147  1
  F  F15  1  0.72004251  0.65694589  0.43374147  1
  F  F16  1  0.77995749  0.15694589  0.43374147  1
  F  F17  1  0.22004251  0.84305411  0.43374147  1
  F  F18  1  0.72004251  0.65694589  0.56625853  1
  F  F19  1  0.27995749  0.34305411  0.56625853  1
  F  F20  1  0.72294197  0.27361050  0.28540828  1
  F  F21  1  0.27705803  0.72638950  0.28540828  1
  F  F22  1  0.77705803  0.77361050  0.71459172  1
  F  F23  1  0.22294197  0.22638950  0.71459172  1
  F  F24  1  0.27705803  0.72638950  0.71459172  1
  F  F25  1  0.72294197  0.27361050  0.71459172  1
  F  F26  1  0.22294197  0.22638950  0.28540828  1
  F  F27  1  0.77705803  0.77361050  0.28540828  1
  F  F28  1  0.69300495  0.26603177  0.95150316  1
  F  F29  1  0.30699505  0.73396823  0.95150316  1
  F  F30  1  0.80699505  0.76603177  0.04849684  1
  F  F31  1  0.19300495  0.23396823  0.04849684  1
  F  F32  1  0.30699505  0.73396823  0.04849684  1
  F  F33  1  0.69300495  0.26603177  0.04849684  1
  F  F34  1  0.19300495  0.23396823  0.95150316  1
  F  F35  1  0.80699505  0.76603177  0.95150316  1
  F  F36  1  0.51857546  0.68774832  0.57349088  1
  F  F37  1  0.48142454  0.31225168  0.57349088  1
  F  F38  1  0.98142454  0.18774832  0.42650912  1
  F  F39  1  0.01857546  0.81225168  0.42650912  1
  F  F40  1  0.48142454  0.31225168  0.42650912  1
  F  F41  1  0.51857546  0.68774832  0.42650912  1
  F  F42  1  0.01857546  0.81225168  0.57349088  1
  F  F43  1  0.98142454  0.18774832  0.57349088  1
  F  F44  1  0.26267982  0.31029697  0.25152466  1
  F  F45  1  0.73732018  0.68970303  0.25152466  1
  F  F46  1  0.23732018  0.81029697  0.74847534  1
  F  F47  1  0.76267982  0.18970303  0.74847534  1
  F  F48  1  0.73732018  0.68970303  0.74847534  1
  F  F49  1  0.26267982  0.31029697  0.74847534  1
  F  F50  1  0.76267982  0.18970303  0.25152466  1
  F  F51  1  0.23732018  0.81029697  0.25152466  1
  F  F52  1  0.00000000  0.50000000  0.16704909  1
  F  F53  1  0.50000000  -0.00000000  0.83295091  1
  F  F54  1  0.00000000  0.50000000  0.83295091  1
  F  F55  1  0.50000000  -0.00000000  0.16704909  1
  F  F56  1  0.00000000  0.50000000  0.50000000  1
  F  F57  1  0.50000000  -0.00000000  0.50000000  1
  Li  Li58  1  0.09467709  0.91225097  -0.00000000  1
  Li  Li59  1  0.90532291  0.08774903  -0.00000000  1
  Li  Li60  1  0.40532291  0.41225097  -0.00000000  1
  Li  Li61  1  0.59467709  0.58774903  -0.00000000  1
  Li  Li62  1  0.85456326  0.07399547  0.37609105  1
  Li  Li63  1  -0.85456326  -0.07399547  0.37609105  1
  Li  Li64  1  -0.35456326  0.57399547  -0.37609105  1
  Li  Li65  1  1.35456326  0.42600453  -0.37609105  1
  Li  Li66  1  -0.85456326  -0.07399547  -0.37609105  1
  Li  Li67  1  0.85456326  0.07399547  -0.37609105  1
  Li  Li68  1  1.35456326  0.42600453  0.37609105  1
  Li  Li69  1  -0.35456326  0.57399547  0.37609105  1
  Li  Li70  1  0.00000000  0.00000000  0.00000000  1
  Li  Li71  1  0.50000000  0.50000000  0.00000000  1
  Li  Li72  1  0.31544621  0.19335037  0.39322164  1
  Li  Li73  1  0.68455379  0.80664963  0.39322164  1
  Li  Li74  1  0.18455379  0.69335037  0.60677836  1
  Li  Li75  1  0.81544621  0.30664963  0.60677836  1
  Li  Li76  1  0.68455379  0.80664963  0.60677836  1
  Li  Li77  1  0.31544621  0.19335037  0.60677836  1
  Li  Li78  1  0.81544621  0.30664963  0.39322164  1
  Li  Li79  1  0.18455379  0.69335037  0.39322164  1
  Li  Li80  1  0.00000000  0.50000000  0.31273979  1
  Li  Li81  1  0.50000000  -0.00000000  0.68726021  1
  Li  Li82  1  0.00000000  0.50000000  0.68726021  1
  Li  Li83  1  0.50000000  -0.00000000  0.31273979  1
  Li  Li84  1  0.40926277  0.57822724  0.50000000  1
  Li  Li85  1  0.59073723  0.42177276  0.50000000  1
  Li  Li86  1  0.09073723  0.07822724  0.50000000  1
  Li  Li87  1  0.90926277  0.92177276  0.50000000  1
  Li  Li88  1  0.88529474  0.44696808  0.38211180  1
  Li  Li89  1  0.11470526  0.55303192  0.38211180  1
  Li  Li90  1  0.61470526  0.94696808  0.61788820  1
  Li  Li91  1  0.38529474  0.05303192  0.61788820  1
  Li  Li92  1  0.11470526  0.55303192  0.61788820  1
  Li  Li93  1  0.88529474  0.44696808  0.61788820  1
  Li  Li94  1  0.38529474  0.05303192  0.38211180  1
  Li  Li95  1  0.61470526  0.94696808  0.38211180  1
  Li  Li96  1  0.00000000  0.00000000  0.62122785  1
  Li  Li97  1  0.50000000  0.50000000  0.37877215  1
  Li  Li98  1  0.00000000  0.00000000  0.37877215  1
  Li  Li99  1  0.50000000  0.50000000  0.62122785  1
  Li  Li100  1  0.47562670  0.30466604  0.88456778  1
  Li  Li101  1  0.52437330  0.69533396  0.88456778  1
  Li  Li102  1  0.02437330  0.80466604  0.11543222  1
  Li  Li103  1  0.97562670  0.19533396  0.11543222  1
  Li  Li104  1  0.52437330  0.69533396  0.11543222  1
  Li  Li105  1  0.47562670  0.30466604  0.11543222  1
  Li  Li106  1  0.97562670  0.19533396  0.88456778  1
  Li  Li107  1  0.02437330  0.80466604  0.88456778  1
  Li  Li108  1  0.87082842  0.48877953  0.00000000  1
  Li  Li109  1  0.12917158  0.51122047  0.00000000  1
  Li  Li110  1  0.62917158  0.98877953  -0.00000000  1
  Li  Li111  1  0.37082842  0.01122047  -0.00000000  1
  Li  Li112  1  0.80360669  0.54583315  0.50000000  1
  Li  Li113  1  0.19639331  0.45416685  0.50000000  1
  Li  Li114  1  0.69639331  0.04583315  0.50000000  1
  Li  Li115  1  0.30360669  0.95416685  0.50000000  1
