# generated using pymatgen
data_Li2Y2As4P2Se
_symmetry_space_group_name_H-M   'P 1'
_cell_length_a   4.14184487
_cell_length_b   4.34104750
_cell_length_c   6.68496182
_cell_angle_alpha   96.18422121
_cell_angle_beta   103.17817478
_cell_angle_gamma   114.38511743
_symmetry_Int_Tables_number   1
_chemical_formula_structural   Li2Y2As4P2Se
_chemical_formula_sum   'Li2 Y2 As4 P2 Se1'
_cell_volume   103.79198783
_cell_formula_units_Z   1
loop_
 _symmetry_equiv_pos_site_id
 _symmetry_equiv_pos_as_xyz
  1  'x, y, z'
loop_
 _atom_site_type_symbol
 _atom_site_label
 _atom_site_symmetry_multiplicity
 _atom_site_fract_x
 _atom_site_fract_y
 _atom_site_fract_z
 _atom_site_occupancy
  Se  Se0  1  0.12500000  0.00000000  0.25000000  1
  P  P1  1  0.00000000  0.00000000  0.00000000  1
  P  P2  1  0.37500000  0.00000000  0.25000000  1
  As  As3  1  0.25000000  0.25000000  0.25000000  1
  As  As4  1  0.00000000  0.25000000  0.12500000  1
  As  As5  1  0.37805367  0.43066970  0.84416927  1
  As  As6  1  0.26404258  0.45591185  0.60128391  1
  Li  Li7  1  0.83544367  0.18197392  0.61722756  1
  Li  Li8  1  0.30935255  0.79520126  0.64762377  1
  Y  Y9  1  0.07410695  0.78660464  0.05429444  1
  Y  Y10  1  0.81093769  0.36855555  0.92636325  1
