# generated using pymatgen
data_LiF
_symmetry_space_group_name_H-M   'P 1'
_cell_length_a   5.95833012
_cell_length_b   5.95833012
_cell_length_c   20.83968007
_cell_angle_alpha   90.00000000
_cell_angle_beta   90.00000000
_cell_angle_gamma   120.00000000
_symmetry_Int_Tables_number   1
_chemical_formula_structural   LiF
_chemical_formula_sum   'Li20 F20'
_cell_volume   640.72372057
_cell_formula_units_Z   20
loop_
 _symmetry_equiv_pos_site_id
 _symmetry_equiv_pos_as_xyz
  1  'x, y, z'
loop_
 _atom_site_type_symbol
 _atom_site_label
 _atom_site_symmetry_multiplicity
 _atom_site_fract_x
 _atom_site_fract_y
 _atom_site_fract_z
 _atom_site_occupancy
  F  F0  1  0.00000000  0.00000000  0.50000000  1
  F  F1  1  0.05747166  0.94252834  -0.00000000  1
  F  F2  1  0.05747166  0.11494333  0.00000000  1
  F  F3  1  0.88505667  0.94252834  0.00000000  1
  F  F4  1  0.71982508  0.96282305  0.78133936  1
  F  F5  1  0.03717695  0.75700202  0.78133936  1
  F  F6  1  0.24299798  0.28017492  0.78133936  1
  F  F7  1  0.03717695  0.28017492  0.21866064  1
  F  F8  1  0.24299798  0.96282305  0.21866064  1
  F  F9  1  0.71982508  0.75700202  0.21866064  1
  F  F10  1  0.54077479  0.95307900  0.11860917  1
  F  F11  1  0.04692100  0.58769579  0.11860917  1
  F  F12  1  0.41230421  0.45922521  0.11860917  1
  F  F13  1  0.04692100  0.45922521  0.88139083  1
  F  F14  1  0.41230421  0.95307900  0.88139083  1
  F  F15  1  0.54077479  0.58769579  0.88139083  1
  F  F16  1  0.88804914  0.11195086  0.50000000  1
  F  F17  1  0.88804914  0.77609829  0.50000000  1
  F  F18  1  0.22390171  0.11195086  0.50000000  1
  F  F19  1  0.33333333  0.66666667  0.50000000  1
  Li  Li20  1  0.33333333  0.66666667  0.14839508  1
  Li  Li21  1  0.33333333  0.66666667  0.85160492  1
  Li  Li22  1  0.00000000  0.00000000  0.40791639  1
  Li  Li23  1  0.00000000  0.00000000  0.59208361  1
  Li  Li24  1  0.45077058  0.62441332  0.64348354  1
  Li  Li25  1  -0.62441332  -0.17364273  0.64348354  1
  Li  Li26  1  0.17364273  -0.45077058  0.64348354  1
  Li  Li27  1  -0.62441332  -0.45077058  -0.64348354  1
  Li  Li28  1  0.17364273  0.62441332  -0.64348354  1
  Li  Li29  1  0.45077058  -0.17364273  -0.64348354  1
  Li  Li30  1  0.46799969  0.53200031  0.00000000  1
  Li  Li31  1  0.46799969  0.93599939  0.00000000  1
  Li  Li32  1  0.06400061  0.53200031  0.00000000  1
  Li  Li33  1  0.66666667  0.33333333  0.79780939  1
  Li  Li34  1  0.66666667  0.33333333  0.20219061  1
  Li  Li35  1  0.66666667  0.33333333  0.00000000  1
  Li  Li36  1  0.48355821  0.51644179  0.50000000  1
  Li  Li37  1  0.48355821  0.96711641  0.50000000  1
  Li  Li38  1  0.03288359  0.51644179  0.50000000  1
  Li  Li39  1  0.33333333  0.66666667  0.00000000  1
