# generated using pymatgen
data_Li3Y2As4(PSe)2
_symmetry_space_group_name_H-M   'P 1'
_cell_length_a   5.22869226
_cell_length_b   5.24401514
_cell_length_c   6.94925423
_cell_angle_alpha   94.28680501
_cell_angle_beta   99.33577011
_cell_angle_gamma   107.21839198
_symmetry_Int_Tables_number   1
_chemical_formula_structural   Li3Y2As4(PSe)2
_chemical_formula_sum   'Li3 Y2 As4 P2 Se2'
_cell_volume   178.06370252
_cell_formula_units_Z   1
loop_
 _symmetry_equiv_pos_site_id
 _symmetry_equiv_pos_as_xyz
  1  'x, y, z'
loop_
 _atom_site_type_symbol
 _atom_site_label
 _atom_site_symmetry_multiplicity
 _atom_site_fract_x
 _atom_site_fract_y
 _atom_site_fract_z
 _atom_site_occupancy
  Se  Se0  1  0.00000000  0.00000000  0.00000000  1
  Se  Se1  1  0.50000000  0.50000000  0.50000000  1
  P  P2  1  0.25000000  0.25000000  0.25000000  1
  P  P3  1  0.75000000  0.25000000  0.00000000  1
  As  As4  1  0.25000000  0.75000000  0.50000000  1
  As  As5  1  0.53089978  0.94830002  0.54515615  1
  As  As6  1  0.69888150  0.37532722  0.60663124  1
  As  As7  1  0.13243601  0.30782638  0.84889942  1
  Li  Li8  1  0.77140524  0.08481675  0.35611325  1
  Li  Li9  1  0.36012524  0.83668407  0.05138370  1
  Li  Li10  1  0.77001758  0.49923956  0.63938819  1
  Y  Y11  1  0.90355014  0.53422763  0.24579157  1
  Y  Y12  1  0.48587077  0.61562781  0.35634877  1
