# generated using pymatgen
data_LiF
_symmetry_space_group_name_H-M   'P 1'
_cell_length_a   11.58055813
_cell_length_b   11.58055813
_cell_length_c   9.77658657
_cell_angle_alpha   90.00000000
_cell_angle_beta   90.00000000
_cell_angle_gamma   90.00000000
_symmetry_Int_Tables_number   1
_chemical_formula_structural   LiF
_chemical_formula_sum   'Li44 F44'
_cell_volume   1311.13144058
_cell_formula_units_Z   44
loop_
 _symmetry_equiv_pos_site_id
 _symmetry_equiv_pos_as_xyz
  1  'x, y, z'
loop_
 _atom_site_type_symbol
 _atom_site_label
 _atom_site_symmetry_multiplicity
 _atom_site_fract_x
 _atom_site_fract_y
 _atom_site_fract_z
 _atom_site_occupancy
  F  F0  1  0.25417133  0.83755933  0.77305819  1
  F  F1  1  0.74582867  0.16244067  0.77305819  1
  F  F2  1  0.16244067  0.25417133  0.77305819  1
  F  F3  1  0.83755933  0.74582867  0.77305819  1
  F  F4  1  0.74582867  0.83755933  0.22694181  1
  F  F5  1  0.25417133  0.16244067  0.22694181  1
  F  F6  1  0.83755933  0.25417133  0.22694181  1
  F  F7  1  0.16244067  0.74582867  0.22694181  1
  F  F8  1  0.74582867  0.16244067  0.22694181  1
  F  F9  1  0.25417133  0.83755933  0.22694181  1
  F  F10  1  0.83755933  0.74582867  0.22694181  1
  F  F11  1  0.16244067  0.25417133  0.22694181  1
  F  F12  1  0.25417133  0.16244067  0.77305819  1
  F  F13  1  0.74582867  0.83755933  0.77305819  1
  F  F14  1  0.16244067  0.74582867  0.77305819  1
  F  F15  1  0.83755933  0.25417133  0.77305819  1
  F  F16  1  0.55317574  0.50000000  0.50000000  1
  F  F17  1  0.44682426  0.50000000  0.50000000  1
  F  F18  1  0.50000000  0.55317574  0.50000000  1
  F  F19  1  0.50000000  0.44682426  0.50000000  1
  F  F20  1  0.84722770  0.97124567  0.43857584  1
  F  F21  1  0.15277230  0.02875433  0.43857584  1
  F  F22  1  0.02875433  0.84722770  0.43857584  1
  F  F23  1  0.97124567  0.15277230  0.43857584  1
  F  F24  1  0.15277230  0.97124567  0.56142416  1
  F  F25  1  0.84722770  0.02875433  0.56142416  1
  F  F26  1  0.97124567  0.84722770  0.56142416  1
  F  F27  1  0.02875433  0.15277230  0.56142416  1
  F  F28  1  0.15277230  0.02875433  0.56142416  1
  F  F29  1  0.84722770  0.97124567  0.56142416  1
  F  F30  1  0.97124567  0.15277230  0.56142416  1
  F  F31  1  0.02875433  0.84722770  0.56142416  1
  F  F32  1  0.84722770  0.02875433  0.43857584  1
  F  F33  1  0.15277230  0.97124567  0.43857584  1
  F  F34  1  0.02875433  0.15277230  0.43857584  1
  F  F35  1  0.97124567  0.84722770  0.43857584  1
  F  F36  1  0.26233966  0.50000000  0.50000000  1
  F  F37  1  0.73766034  0.50000000  0.50000000  1
  F  F38  1  0.50000000  0.26233966  0.50000000  1
  F  F39  1  0.50000000  0.73766034  0.50000000  1
  F  F40  1  0.86616963  0.86616963  0.50000000  1
  F  F41  1  0.13383037  0.13383037  0.50000000  1
  F  F42  1  0.13383037  0.86616963  0.50000000  1
  F  F43  1  0.86616963  0.13383037  0.50000000  1
  Li  Li44  1  0.07079987  0.56580176  0.60520620  1
  Li  Li45  1  -0.07079987  -0.56580176  0.60520620  1
  Li  Li46  1  -0.56580176  0.07079987  0.60520620  1
  Li  Li47  1  0.56580176  -0.07079987  0.60520620  1
  Li  Li48  1  -0.07079987  0.56580176  -0.60520620  1
  Li  Li49  1  0.07079987  -0.56580176  -0.60520620  1
  Li  Li50  1  0.56580176  0.07079987  -0.60520620  1
  Li  Li51  1  -0.56580176  -0.07079987  -0.60520620  1
  Li  Li52  1  -0.07079987  -0.56580176  -0.60520620  1
  Li  Li53  1  0.07079987  0.56580176  -0.60520620  1
  Li  Li54  1  0.56580176  -0.07079987  -0.60520620  1
  Li  Li55  1  -0.56580176  0.07079987  -0.60520620  1
  Li  Li56  1  0.07079987  -0.56580176  0.60520620  1
  Li  Li57  1  -0.07079987  0.56580176  0.60520620  1
  Li  Li58  1  -0.56580176  -0.07079987  0.60520620  1
  Li  Li59  1  0.56580176  0.07079987  0.60520620  1
  Li  Li60  1  0.57462560  0.77621412  0.50000000  1
  Li  Li61  1  0.42537440  0.22378588  0.50000000  1
  Li  Li62  1  0.22378588  0.57462560  0.50000000  1
  Li  Li63  1  0.77621412  0.42537440  0.50000000  1
  Li  Li64  1  0.42537440  0.77621412  0.50000000  1
  Li  Li65  1  0.57462560  0.22378588  0.50000000  1
  Li  Li66  1  0.77621412  0.57462560  0.50000000  1
  Li  Li67  1  0.22378588  0.42537440  0.50000000  1
  Li  Li68  1  0.00000000  0.00000000  0.76785338  1
  Li  Li69  1  0.00000000  0.00000000  0.23214662  1
  Li  Li70  1  0.40705781  0.87957829  0.00000000  1
  Li  Li71  1  0.59294219  0.12042171  0.00000000  1
  Li  Li72  1  0.12042171  0.40705781  0.00000000  1
  Li  Li73  1  0.87957829  0.59294219  0.00000000  1
  Li  Li74  1  0.59294219  0.87957829  0.00000000  1
  Li  Li75  1  0.40705781  0.12042171  0.00000000  1
  Li  Li76  1  0.87957829  0.40705781  0.00000000  1
  Li  Li77  1  0.12042171  0.59294219  0.00000000  1
  Li  Li78  1  0.24193613  0.24193613  0.50000000  1
  Li  Li79  1  0.75806387  0.75806387  0.50000000  1
  Li  Li80  1  0.75806387  0.24193613  0.50000000  1
  Li  Li81  1  0.24193613  0.75806387  0.50000000  1
  Li  Li82  1  0.00000000  0.50000000  0.00000000  1
  Li  Li83  1  0.50000000  0.00000000  0.00000000  1
  Li  Li84  1  0.39823761  0.39823761  0.00000000  1
  Li  Li85  1  0.60176239  0.60176239  0.00000000  1
  Li  Li86  1  0.60176239  0.39823761  0.00000000  1
  Li  Li87  1  0.39823761  0.60176239  0.00000000  1
