# generated using pymatgen
data_LiTe4MoP2
_symmetry_space_group_name_H-M   'P 1'
_cell_length_a   5.04155526
_cell_length_b   5.22939713
_cell_length_c   7.09990339
_cell_angle_alpha   94.96716246
_cell_angle_beta   100.81744719
_cell_angle_gamma   109.95111745
_symmetry_Int_Tables_number   1
_chemical_formula_structural   LiTe4MoP2
_chemical_formula_sum   'Li1 Te4 Mo1 P2'
_cell_volume   170.50797298
_cell_formula_units_Z   1
loop_
 _symmetry_equiv_pos_site_id
 _symmetry_equiv_pos_as_xyz
  1  'x, y, z'
loop_
 _atom_site_type_symbol
 _atom_site_label
 _atom_site_symmetry_multiplicity
 _atom_site_fract_x
 _atom_site_fract_y
 _atom_site_fract_z
 _atom_site_occupancy
  Te  Te0  1  0.00000000  0.00000000  0.00000000  1
  Te  Te1  1  0.50000000  0.50000000  0.50000000  1
  Te  Te2  1  0.50000000  0.50000000  0.00000000  1
  Te  Te3  1  0.50000000  0.00000000  0.50000000  1
  P  P4  1  0.00000000  0.50000000  0.50000000  1
  P  P5  1  0.14229358  0.72905907  0.46858360  1
  Mo  Mo6  1  0.89946025  0.14935510  0.02329115  1
  Li  Li7  1  0.46451683  0.38800748  0.63139797  1
