# generated using pymatgen
data_Li4TeF2
_symmetry_space_group_name_H-M   'P 1'
_cell_length_a   21.54384056
_cell_length_b   21.54384056
_cell_length_c   8.62258502
_cell_angle_alpha   90.00000000
_cell_angle_beta   90.00000000
_cell_angle_gamma   120.00000000
_symmetry_Int_Tables_number   1
_chemical_formula_structural   Li4TeF2
_chemical_formula_sum   'Li96 Te24 F48'
_cell_volume   3465.88676494
_cell_formula_units_Z   24
loop_
 _symmetry_equiv_pos_site_id
 _symmetry_equiv_pos_as_xyz
  1  'x, y, z'
loop_
 _atom_site_type_symbol
 _atom_site_label
 _atom_site_symmetry_multiplicity
 _atom_site_fract_x
 _atom_site_fract_y
 _atom_site_fract_z
 _atom_site_occupancy
  F  F0  1  0.00000000  0.00000000  0.50000000  1
  F  F1  1  0.37852255  0.68624697  0.74595433  1
  F  F2  1  -0.68624697  -0.30772443  0.74595433  1
  F  F3  1  0.30772443  -0.37852255  0.74595433  1
  F  F4  1  0.37852255  0.68624697  -0.74595433  1
  F  F5  1  -0.68624697  -0.30772443  -0.74595433  1
  F  F6  1  0.30772443  -0.37852255  -0.74595433  1
  F  F7  1  0.68624697  0.37852255  -0.74595433  1
  F  F8  1  -0.30772443  -0.68624697  -0.74595433  1
  F  F9  1  -0.37852255  0.30772443  -0.74595433  1
  F  F10  1  0.68624697  0.37852255  0.74595433  1
  F  F11  1  -0.30772443  -0.68624697  0.74595433  1
  F  F12  1  -0.37852255  0.30772443  0.74595433  1
  F  F13  1  0.35516055  0.00000000  0.50000000  1
  F  F14  1  0.00000000  0.35516055  0.50000000  1
  F  F15  1  0.64483945  0.64483945  0.50000000  1
  F  F16  1  0.83296524  0.27075075  0.74898594  1
  F  F17  1  0.72924925  0.56221450  0.74898594  1
  F  F18  1  0.43778550  0.16703476  0.74898594  1
  F  F19  1  0.83296524  0.27075075  0.25101406  1
  F  F20  1  0.72924925  0.56221450  0.25101406  1
  F  F21  1  0.43778550  0.16703476  0.25101406  1
  F  F22  1  0.27075075  0.83296524  0.25101406  1
  F  F23  1  0.56221450  0.72924925  0.25101406  1
  F  F24  1  0.16703476  0.43778550  0.25101406  1
  F  F25  1  0.27075075  0.83296524  0.74898594  1
  F  F26  1  0.56221450  0.72924925  0.74898594  1
  F  F27  1  0.16703476  0.43778550  0.74898594  1
  F  F28  1  0.35002335  0.09360823  0.72660391  1
  F  F29  1  0.90639177  0.25641511  0.72660391  1
  F  F30  1  0.74358489  0.64997665  0.72660391  1
  F  F31  1  0.35002335  0.09360823  0.27339609  1
  F  F32  1  0.90639177  0.25641511  0.27339609  1
  F  F33  1  0.74358489  0.64997665  0.27339609  1
  F  F34  1  0.09360823  0.35002335  0.27339609  1
  F  F35  1  0.25641511  0.90639177  0.27339609  1
  F  F36  1  0.64997665  0.74358489  0.27339609  1
  F  F37  1  0.09360823  0.35002335  0.72660391  1
  F  F38  1  0.25641511  0.90639177  0.72660391  1
  F  F39  1  0.64997665  0.74358489  0.72660391  1
  F  F40  1  0.15476488  0.50557819  0.50000000  1
  F  F41  1  0.49442181  0.64918669  0.50000000  1
  F  F42  1  0.35081331  0.84523512  0.50000000  1
  F  F43  1  0.50557819  0.15476488  0.50000000  1
  F  F44  1  0.64918669  0.49442181  0.50000000  1
  F  F45  1  0.84523512  0.35081331  0.50000000  1
  F  F46  1  0.00000000  0.00000000  0.08305242  1
  F  F47  1  0.00000000  0.00000000  0.91694758  1
  Li  Li48  1  0.81692366  0.03587550  0.50000000  1
  Li  Li49  1  0.96412450  0.78104815  0.50000000  1
  Li  Li50  1  0.21895185  0.18307634  0.50000000  1
  Li  Li51  1  0.03587550  0.81692366  0.50000000  1
  Li  Li52  1  0.78104815  0.96412450  0.50000000  1
  Li  Li53  1  0.18307634  0.21895185  0.50000000  1
  Li  Li54  1  0.57597468  0.46520326  0.84774595  1
  Li  Li55  1  0.53479674  0.11077142  0.84774595  1
  Li  Li56  1  0.88922858  0.42402532  0.84774595  1
  Li  Li57  1  0.57597468  0.46520326  0.15225405  1
  Li  Li58  1  0.53479674  0.11077142  0.15225405  1
  Li  Li59  1  0.88922858  0.42402532  0.15225405  1
  Li  Li60  1  0.46520326  0.57597468  0.15225405  1
  Li  Li61  1  0.11077142  0.53479674  0.15225405  1
  Li  Li62  1  0.42402532  0.88922858  0.15225405  1
  Li  Li63  1  0.46520326  0.57597468  0.84774595  1
  Li  Li64  1  0.11077142  0.53479674  0.84774595  1
  Li  Li65  1  0.42402532  0.88922858  0.84774595  1
  Li  Li66  1  0.59790350  0.18640540  0.22814021  1
  Li  Li67  1  0.81359460  0.41149810  0.22814021  1
  Li  Li68  1  0.58850190  0.40209650  0.22814021  1
  Li  Li69  1  0.59790350  0.18640540  0.77185979  1
  Li  Li70  1  0.81359460  0.41149810  0.77185979  1
  Li  Li71  1  0.58850190  0.40209650  0.77185979  1
  Li  Li72  1  0.18640540  0.59790350  0.77185979  1
  Li  Li73  1  0.41149810  0.81359460  0.77185979  1
  Li  Li74  1  0.40209650  0.58850190  0.77185979  1
  Li  Li75  1  0.18640540  0.59790350  0.22814021  1
  Li  Li76  1  0.41149810  0.81359460  0.22814021  1
  Li  Li77  1  0.40209650  0.58850190  0.22814021  1
  Li  Li78  1  0.12524521  0.33477356  0.67229330  1
  Li  Li79  1  0.66522644  0.79047166  0.67229330  1
  Li  Li80  1  0.20952834  0.87475479  0.67229330  1
  Li  Li81  1  0.12524521  0.33477356  0.32770670  1
  Li  Li82  1  0.66522644  0.79047166  0.32770670  1
  Li  Li83  1  0.20952834  0.87475479  0.32770670  1
  Li  Li84  1  0.33477356  0.12524521  0.32770670  1
  Li  Li85  1  0.79047166  0.66522644  0.32770670  1
  Li  Li86  1  0.87475479  0.20952834  0.32770670  1
  Li  Li87  1  0.33477356  0.12524521  0.67229330  1
  Li  Li88  1  0.79047166  0.66522644  0.67229330  1
  Li  Li89  1  0.87475479  0.20952834  0.67229330  1
  Li  Li90  1  0.39547067  0.79609726  0.39102008  1
  Li  Li91  1  0.20390274  0.59937340  0.39102008  1
  Li  Li92  1  0.40062660  0.60452933  0.39102008  1
  Li  Li93  1  0.39547067  0.79609726  0.60897992  1
  Li  Li94  1  0.20390274  0.59937340  0.60897992  1
  Li  Li95  1  0.40062660  0.60452933  0.60897992  1
  Li  Li96  1  0.79609726  0.39547067  0.60897992  1
  Li  Li97  1  0.59937340  0.20390274  0.60897992  1
  Li  Li98  1  0.60452933  0.40062660  0.60897992  1
  Li  Li99  1  0.79609726  0.39547067  0.39102008  1
  Li  Li100  1  0.59937340  0.20390274  0.39102008  1
  Li  Li101  1  0.60452933  0.40062660  0.39102008  1
  Li  Li102  1  0.29588318  0.22285316  0.00000000  1
  Li  Li103  1  0.77714684  0.07303002  0.00000000  1
  Li  Li104  1  0.92696998  0.70411682  0.00000000  1
  Li  Li105  1  0.22285316  0.29588318  0.00000000  1
  Li  Li106  1  0.07303002  0.77714684  0.00000000  1
  Li  Li107  1  0.70411682  0.92696998  0.00000000  1
  Li  Li108  1  0.39134784  0.00000000  0.77010837  1
  Li  Li109  1  0.00000000  0.39134784  0.77010837  1
  Li  Li110  1  0.60865216  0.60865216  0.77010837  1
  Li  Li111  1  0.39134784  0.00000000  0.22989163  1
  Li  Li112  1  0.00000000  0.39134784  0.22989163  1
  Li  Li113  1  0.60865216  0.60865216  0.22989163  1
  Li  Li114  1  0.06683577  0.00000000  0.80092690  1
  Li  Li115  1  0.00000000  0.06683577  0.80092690  1
  Li  Li116  1  0.93316423  0.93316423  0.80092690  1
  Li  Li117  1  0.06683577  0.00000000  0.19907310  1
  Li  Li118  1  0.00000000  0.06683577  0.19907310  1
  Li  Li119  1  0.93316423  0.93316423  0.19907310  1
  Li  Li120  1  0.13698901  0.05777944  0.50000000  1
  Li  Li121  1  0.94222056  0.07920957  0.50000000  1
  Li  Li122  1  0.92079043  0.86301099  0.50000000  1
  Li  Li123  1  0.05777944  0.13698901  0.50000000  1
  Li  Li124  1  0.07920957  0.94222056  0.50000000  1
  Li  Li125  1  0.86301099  0.92079043  0.50000000  1
  Li  Li126  1  0.55262480  0.00000000  0.23169071  1
  Li  Li127  1  0.00000000  0.55262480  0.23169071  1
  Li  Li128  1  0.44737520  0.44737520  0.23169071  1
  Li  Li129  1  0.55262480  0.00000000  0.76830929  1
  Li  Li130  1  0.00000000  0.55262480  0.76830929  1
  Li  Li131  1  0.44737520  0.44737520  0.76830929  1
  Li  Li132  1  0.11866099  0.15526215  0.65210276  1
  Li  Li133  1  0.84473785  0.96339884  0.65210276  1
  Li  Li134  1  0.03660116  0.88133901  0.65210276  1
  Li  Li135  1  0.11866099  0.15526215  0.34789724  1
  Li  Li136  1  0.84473785  0.96339884  0.34789724  1
  Li  Li137  1  0.03660116  0.88133901  0.34789724  1
  Li  Li138  1  0.15526215  0.11866099  0.34789724  1
  Li  Li139  1  0.96339884  0.84473785  0.34789724  1
  Li  Li140  1  0.88133901  0.03660116  0.34789724  1
  Li  Li141  1  0.15526215  0.11866099  0.65210276  1
  Li  Li142  1  0.96339884  0.84473785  0.65210276  1
  Li  Li143  1  0.88133901  0.03660116  0.65210276  1
  Te  Te144  1  0.80561927  0.64583537  0.00000000  1
  Te  Te145  1  0.35416463  0.15978391  -0.00000000  1
  Te  Te146  1  0.84021609  0.19438073  0.00000000  1
  Te  Te147  1  0.64583537  0.80561927  0.00000000  1
  Te  Te148  1  0.15978391  0.35416463  0.00000000  1
  Te  Te149  1  0.19438073  0.84021609  0.00000000  1
  Te  Te150  1  0.20457458  0.57320939  0.00000000  1
  Te  Te151  1  0.42679061  0.63136520  0.00000000  1
  Te  Te152  1  0.36863480  0.79542542  0.00000000  1
  Te  Te153  1  0.57320939  0.20457458  0.00000000  1
  Te  Te154  1  0.63136520  0.42679061  0.00000000  1
  Te  Te155  1  0.79542542  0.36863480  0.00000000  1
  Te  Te156  1  0.69722381  0.16934158  -0.00000000  1
  Te  Te157  1  0.83065842  0.52788223  -0.00000000  1
  Te  Te158  1  0.47211777  0.30277619  0.00000000  1
  Te  Te159  1  0.16934158  0.69722381  -0.00000000  1
  Te  Te160  1  0.52788223  0.83065842  0.00000000  1
  Te  Te161  1  0.30277619  0.47211777  0.00000000  1
  Te  Te162  1  0.78960743  0.64260166  0.50000000  1
  Te  Te163  1  0.35739834  0.14700577  0.50000000  1
  Te  Te164  1  0.85299423  0.21039257  0.50000000  1
  Te  Te165  1  0.64260166  0.78960743  0.50000000  1
  Te  Te166  1  0.14700577  0.35739834  0.50000000  1
  Te  Te167  1  0.21039257  0.85299423  0.50000000  1
