# generated using pymatgen
data_LiAlOF
_symmetry_space_group_name_H-M   'P 1'
_cell_length_a   3.49932900
_cell_length_b   3.36516384
_cell_length_c   5.05009335
_cell_angle_alpha   98.76057817
_cell_angle_beta   96.25548650
_cell_angle_gamma   93.56102679
_symmetry_Int_Tables_number   1
_chemical_formula_structural   LiAlOF
_chemical_formula_sum   'Li1 Al1 O1 F1'
_cell_volume   58.23742190
_cell_formula_units_Z   1
loop_
 _symmetry_equiv_pos_site_id
 _symmetry_equiv_pos_as_xyz
  1  'x, y, z'
loop_
 _atom_site_type_symbol
 _atom_site_label
 _atom_site_symmetry_multiplicity
 _atom_site_fract_x
 _atom_site_fract_y
 _atom_site_fract_z
 _atom_site_occupancy
  F  F0  1  0.12500000  0.12500000  0.12500000  1
  O  O1  1  0.50000000  0.50000000  0.50000000  1
  Al  Al2  1  0.25000000  0.25000000  0.25000000  1
  Li  Li3  1  0.75000000  0.75000000  0.75000000  1
