# generated using pymatgen
data_LiF
_symmetry_space_group_name_H-M   'P 1'
_cell_length_a   8.89589105
_cell_length_b   9.25025737
_cell_length_c   7.92502264
_cell_angle_alpha   90.00000000
_cell_angle_beta   90.00000000
_cell_angle_gamma   90.00000000
_symmetry_Int_Tables_number   1
_chemical_formula_structural   LiF
_chemical_formula_sum   'Li28 F28'
_cell_volume   652.14442136
_cell_formula_units_Z   28
loop_
 _symmetry_equiv_pos_site_id
 _symmetry_equiv_pos_as_xyz
  1  'x, y, z'
loop_
 _atom_site_type_symbol
 _atom_site_label
 _atom_site_symmetry_multiplicity
 _atom_site_fract_x
 _atom_site_fract_y
 _atom_site_fract_z
 _atom_site_occupancy
  F  F0  1  0.28114412  0.20852418  0.93937456  1
  F  F1  1  0.71885588  0.79147582  0.93937456  1
  F  F2  1  0.21885588  0.70852418  0.06062544  1
  F  F3  1  0.78114412  0.29147582  0.06062544  1
  F  F4  1  0.71885588  0.79147582  0.06062544  1
  F  F5  1  0.28114412  0.20852418  0.06062544  1
  F  F6  1  0.78114412  0.29147582  0.93937456  1
  F  F7  1  0.21885588  0.70852418  0.93937456  1
  F  F8  1  0.88418010  0.12318157  0.76620305  1
  F  F9  1  0.11581990  0.87681843  0.76620305  1
  F  F10  1  0.61581990  0.62318157  0.23379695  1
  F  F11  1  0.38418010  0.37681843  0.23379695  1
  F  F12  1  0.11581990  0.87681843  0.23379695  1
  F  F13  1  0.88418010  0.12318157  0.23379695  1
  F  F14  1  0.38418010  0.37681843  0.76620305  1
  F  F15  1  0.61581990  0.62318157  0.76620305  1
  F  F16  1  0.63292174  0.22222392  -0.00000000  1
  F  F17  1  0.36707826  0.77777608  0.00000000  1
  F  F18  1  0.86707826  0.72222392  -0.00000000  1
  F  F19  1  0.13292174  0.27777608  0.00000000  1
  F  F20  1  0.90213373  0.84302241  0.96075338  1
  F  F21  1  0.09786627  0.15697759  0.96075338  1
  F  F22  1  0.59786627  0.34302241  0.03924662  1
  F  F23  1  0.40213373  0.65697759  0.03924662  1
  F  F24  1  0.09786627  0.15697759  0.03924662  1
  F  F25  1  0.90213373  0.84302241  0.03924662  1
  F  F26  1  0.40213373  0.65697759  0.96075338  1
  F  F27  1  0.59786627  0.34302241  0.96075338  1
  Li  Li28  1  0.68745256  0.30650530  0.50000000  1
  Li  Li29  1  0.31254744  0.69349470  0.50000000  1
  Li  Li30  1  0.81254744  0.80650530  0.50000000  1
  Li  Li31  1  0.18745256  0.19349470  0.50000000  1
  Li  Li32  1  0.00000000  0.50000000  0.17190622  1
  Li  Li33  1  0.50000000  0.00000000  0.82809378  1
  Li  Li34  1  0.00000000  0.50000000  0.82809378  1
  Li  Li35  1  0.50000000  0.00000000  0.17190622  1
  Li  Li36  1  0.66685108  0.87106026  0.23757023  1
  Li  Li37  1  -0.66685108  -0.87106026  0.23757023  1
  Li  Li38  1  -0.16685108  1.37106026  -0.23757023  1
  Li  Li39  1  1.16685108  -0.37106026  -0.23757023  1
  Li  Li40  1  -0.66685108  -0.87106026  -0.23757023  1
  Li  Li41  1  0.66685108  0.87106026  -0.23757023  1
  Li  Li42  1  1.16685108  -0.37106026  0.23757023  1
  Li  Li43  1  -0.16685108  1.37106026  0.23757023  1
  Li  Li44  1  0.71741631  0.99155965  0.50000000  1
  Li  Li45  1  0.28258369  0.00844035  0.50000000  1
  Li  Li46  1  0.78258369  0.49155965  0.50000000  1
  Li  Li47  1  0.21741631  0.50844035  0.50000000  1
  Li  Li48  1  0.63616565  0.85573446  0.00000000  1
  Li  Li49  1  0.36383435  0.14426554  -0.00000000  1
  Li  Li50  1  0.86383435  0.35573446  -0.00000000  1
  Li  Li51  1  0.13616565  0.64426554  -0.00000000  1
  Li  Li52  1  0.00000000  0.00000000  0.00000000  1
  Li  Li53  1  0.50000000  0.50000000  0.00000000  1
  Li  Li54  1  0.00000000  0.50000000  0.00000000  1
  Li  Li55  1  0.50000000  0.00000000  0.00000000  1
