# generated using pymatgen
data_LiF
_symmetry_space_group_name_H-M   'P 1'
_cell_length_a   6.50405691
_cell_length_b   6.50405691
_cell_length_c   58.99338084
_cell_angle_alpha   90.00000000
_cell_angle_beta   90.00000000
_cell_angle_gamma   90.00000000
_symmetry_Int_Tables_number   1
_chemical_formula_structural   LiF
_chemical_formula_sum   'Li64 F64'
_cell_volume   2495.58261474
_cell_formula_units_Z   64
loop_
 _symmetry_equiv_pos_site_id
 _symmetry_equiv_pos_as_xyz
  1  'x, y, z'
loop_
 _atom_site_type_symbol
 _atom_site_label
 _atom_site_symmetry_multiplicity
 _atom_site_fract_x
 _atom_site_fract_y
 _atom_site_fract_z
 _atom_site_occupancy
  F  F0  1  0.45931261  0.10512463  0.71587817  1
  F  F1  1  0.04068739  -0.10512463  1.21587817  1
  F  F2  1  0.14487537  1.20931261  0.96587817  1
  F  F3  1  0.35512463  -0.20931261  1.46587817  1
  F  F4  1  0.04068739  0.10512463  -0.71587817  1
  F  F5  1  0.45931261  -0.10512463  -0.21587817  1
  F  F6  1  0.35512463  1.20931261  0.03412183  1
  F  F7  1  0.14487537  -0.20931261  -0.46587817  1
  F  F8  1  -0.45931261  -0.10512463  -0.71587817  1
  F  F9  1  0.95931261  0.10512463  -0.21587817  1
  F  F10  1  0.85512463  -0.20931261  0.03412183  1
  F  F11  1  0.64487537  1.20931261  -0.46587817  1
  F  F12  1  0.95931261  -0.10512463  0.71587817  1
  F  F13  1  -0.45931261  0.10512463  1.21587817  1
  F  F14  1  0.64487537  -0.20931261  0.96587817  1
  F  F15  1  0.85512463  1.20931261  1.46587817  1
  F  F16  1  0.95931261  0.60512463  1.21587817  1
  F  F17  1  0.54068739  0.39487537  1.71587817  1
  F  F18  1  0.64487537  1.70931261  1.46587817  1
  F  F19  1  0.85512463  0.29068739  1.96587817  1
  F  F20  1  0.54068739  0.60512463  -0.21587817  1
  F  F21  1  0.95931261  0.39487537  0.28412183  1
  F  F22  1  0.85512463  1.70931261  0.53412183  1
  F  F23  1  0.64487537  0.29068739  0.03412183  1
  F  F24  1  0.04068739  0.39487537  -0.21587817  1
  F  F25  1  1.45931261  0.60512463  0.28412183  1
  F  F26  1  1.35512463  0.29068739  0.53412183  1
  F  F27  1  1.14487537  1.70931261  0.03412183  1
  F  F28  1  1.45931261  0.39487537  1.21587817  1
  F  F29  1  0.04068739  0.60512463  1.71587817  1
  F  F30  1  1.14487537  0.29068739  1.46587817  1
  F  F31  1  1.35512463  1.70931261  1.96587817  1
  F  F32  1  0.62612586  0.21798021  0.77372950  1
  F  F33  1  0.87387414  0.78201979  0.27372950  1
  F  F34  1  0.03201979  0.37612586  0.02372950  1
  F  F35  1  0.46798021  0.62387414  0.52372950  1
  F  F36  1  0.87387414  0.21798021  0.22627050  1
  F  F37  1  0.62612586  0.78201979  0.72627050  1
  F  F38  1  0.46798021  0.37612586  0.97627050  1
  F  F39  1  0.03201979  0.62387414  0.47627050  1
  F  F40  1  0.37387414  0.78201979  0.22627050  1
  F  F41  1  0.12612586  0.21798021  0.72627050  1
  F  F42  1  0.96798021  0.62387414  0.97627050  1
  F  F43  1  0.53201979  0.37612586  0.47627050  1
  F  F44  1  0.12612586  0.78201979  0.77372950  1
  F  F45  1  0.37387414  0.21798021  0.27372950  1
  F  F46  1  0.53201979  0.62387414  0.02372950  1
  F  F47  1  0.96798021  0.37612586  0.52372950  1
  F  F48  1  0.12612586  0.71798021  0.27372950  1
  F  F49  1  0.37387414  0.28201979  0.77372950  1
  F  F50  1  0.53201979  0.87612586  0.52372950  1
  F  F51  1  0.96798021  0.12387414  0.02372950  1
  F  F52  1  0.37387414  0.71798021  0.72627050  1
  F  F53  1  0.12612586  0.28201979  0.22627050  1
  F  F54  1  0.96798021  0.87612586  0.47627050  1
  F  F55  1  0.53201979  0.12387414  0.97627050  1
  F  F56  1  0.87387414  0.28201979  0.72627050  1
  F  F57  1  0.62612586  0.71798021  0.22627050  1
  F  F58  1  0.46798021  0.12387414  0.47627050  1
  F  F59  1  0.03201979  0.87612586  0.97627050  1
  F  F60  1  0.62612586  0.28201979  0.27372950  1
  F  F61  1  0.87387414  0.71798021  0.77372950  1
  F  F62  1  0.03201979  0.12387414  0.52372950  1
  F  F63  1  0.46798021  0.87612586  0.02372950  1
  Li  Li64  1  0.55501532  0.93413526  0.36745147  1
  Li  Li65  1  0.94498468  0.06586474  0.86745147  1
  Li  Li66  1  0.31586474  0.30501532  0.61745147  1
  Li  Li67  1  0.18413526  0.69498468  0.11745147  1
  Li  Li68  1  0.94498468  0.93413526  0.63254853  1
  Li  Li69  1  0.55501532  0.06586474  0.13254853  1
  Li  Li70  1  0.18413526  0.30501532  0.38254853  1
  Li  Li71  1  0.31586474  0.69498468  0.88254853  1
  Li  Li72  1  0.44498468  0.06586474  0.63254853  1
  Li  Li73  1  0.05501532  0.93413526  0.13254853  1
  Li  Li74  1  0.68413526  0.69498468  0.38254853  1
  Li  Li75  1  0.81586474  0.30501532  0.88254853  1
  Li  Li76  1  0.05501532  0.06586474  0.36745147  1
  Li  Li77  1  0.44498468  0.93413526  0.86745147  1
  Li  Li78  1  0.81586474  0.69498468  0.61745147  1
  Li  Li79  1  0.68413526  0.30501532  0.11745147  1
  Li  Li80  1  0.05501532  0.43413526  0.86745147  1
  Li  Li81  1  0.44498468  0.56586474  0.36745147  1
  Li  Li82  1  0.81586474  0.80501532  0.11745147  1
  Li  Li83  1  0.68413526  0.19498468  0.61745147  1
  Li  Li84  1  0.44498468  0.43413526  0.13254853  1
  Li  Li85  1  0.05501532  0.56586474  0.63254853  1
  Li  Li86  1  0.68413526  0.80501532  0.88254853  1
  Li  Li87  1  0.81586474  0.19498468  0.38254853  1
  Li  Li88  1  0.94498468  0.56586474  0.13254853  1
  Li  Li89  1  0.55501532  0.43413526  0.63254853  1
  Li  Li90  1  0.18413526  0.19498468  0.88254853  1
  Li  Li91  1  0.31586474  0.80501532  0.38254853  1
  Li  Li92  1  0.55501532  0.56586474  0.86745147  1
  Li  Li93  1  0.94498468  0.43413526  0.36745147  1
  Li  Li94  1  0.31586474  0.19498468  0.11745147  1
  Li  Li95  1  0.18413526  0.80501532  0.61745147  1
  Li  Li96  1  0.33518382  0.99367653  0.30581196  1
  Li  Li97  1  0.16481618  0.00632347  0.80581196  1
  Li  Li98  1  0.25632347  0.08518382  0.55581196  1
  Li  Li99  1  0.24367653  0.91481618  0.05581196  1
  Li  Li100  1  0.16481618  0.99367653  0.69418804  1
  Li  Li101  1  0.33518382  0.00632347  0.19418804  1
  Li  Li102  1  0.24367653  0.08518382  0.44418804  1
  Li  Li103  1  0.25632347  0.91481618  0.94418804  1
  Li  Li104  1  0.66481618  0.00632347  0.69418804  1
  Li  Li105  1  0.83518382  0.99367653  0.19418804  1
  Li  Li106  1  0.74367653  0.91481618  0.44418804  1
  Li  Li107  1  0.75632347  0.08518382  0.94418804  1
  Li  Li108  1  0.83518382  0.00632347  0.30581196  1
  Li  Li109  1  0.66481618  0.99367653  0.80581196  1
  Li  Li110  1  0.75632347  0.91481618  0.55581196  1
  Li  Li111  1  0.74367653  0.08518382  0.05581196  1
  Li  Li112  1  0.83518382  0.49367653  0.80581196  1
  Li  Li113  1  0.66481618  0.50632347  0.30581196  1
  Li  Li114  1  0.75632347  0.58518382  0.05581196  1
  Li  Li115  1  0.74367653  0.41481618  0.55581196  1
  Li  Li116  1  0.66481618  0.49367653  0.19418804  1
  Li  Li117  1  0.83518382  0.50632347  0.69418804  1
  Li  Li118  1  0.74367653  0.58518382  0.94418804  1
  Li  Li119  1  0.75632347  0.41481618  0.44418804  1
  Li  Li120  1  0.16481618  0.50632347  0.19418804  1
  Li  Li121  1  0.33518382  0.49367653  0.69418804  1
  Li  Li122  1  0.24367653  0.41481618  0.94418804  1
  Li  Li123  1  0.25632347  0.58518382  0.44418804  1
  Li  Li124  1  0.33518382  0.50632347  0.80581196  1
  Li  Li125  1  0.16481618  0.49367653  0.30581196  1
  Li  Li126  1  0.25632347  0.41481618  0.05581196  1
  Li  Li127  1  0.24367653  0.58518382  0.55581196  1
