# generated using pymatgen
data_LiY2P3Se
_symmetry_space_group_name_H-M   'P 1'
_cell_length_a   4.72359763
_cell_length_b   4.92083640
_cell_length_c   6.92091567
_cell_angle_alpha   95.13472871
_cell_angle_beta   100.48023756
_cell_angle_gamma   109.52303240
_symmetry_Int_Tables_number   1
_chemical_formula_structural   LiY2P3Se
_chemical_formula_sum   'Li1 Y2 P3 Se1'
_cell_volume   147.11860569
_cell_formula_units_Z   1
loop_
 _symmetry_equiv_pos_site_id
 _symmetry_equiv_pos_as_xyz
  1  'x, y, z'
loop_
 _atom_site_type_symbol
 _atom_site_label
 _atom_site_symmetry_multiplicity
 _atom_site_fract_x
 _atom_site_fract_y
 _atom_site_fract_z
 _atom_site_occupancy
  Se  Se0  1  0.12500000  0.12500000  0.12500000  1
  P  P1  1  0.50000000  0.50000000  0.50000000  1
  P  P2  1  0.25000000  0.25000000  0.25000000  1
  P  P3  1  0.75000000  0.75000000  0.75000000  1
  Li  Li4  1  0.48650682  0.18454316  0.77631795  1
  Y  Y5  1  0.41056106  0.85366346  0.61266224  1
  Y  Y6  1  0.54310047  0.47752437  0.92418055  1
