# generated using pymatgen
data_Li2Y2As4P2Se
_symmetry_space_group_name_H-M   'P 1'
_cell_length_a   5.62292014
_cell_length_b   5.80821693
_cell_length_c   7.03971892
_cell_angle_alpha   92.86000800
_cell_angle_beta   96.63931837
_cell_angle_gamma   101.98355171
_symmetry_Int_Tables_number   1
_chemical_formula_structural   Li2Y2As4P2Se
_chemical_formula_sum   'Li2 Y2 As4 P2 Se1'
_cell_volume   222.74542118
_cell_formula_units_Z   1
loop_
 _symmetry_equiv_pos_site_id
 _symmetry_equiv_pos_as_xyz
  1  'x, y, z'
loop_
 _atom_site_type_symbol
 _atom_site_label
 _atom_site_symmetry_multiplicity
 _atom_site_fract_x
 _atom_site_fract_y
 _atom_site_fract_z
 _atom_site_occupancy
  Se  Se0  1  0.12500000  0.00000000  0.25000000  1
  Y  Y1  1  0.00000000  0.00000000  0.00000000  1
  Y  Y2  1  0.37500000  0.00000000  0.25000000  1
  P  P3  1  0.25000000  0.25000000  0.25000000  1
  P  P4  1  0.00000000  0.25000000  0.12500000  1
  As  As5  1  0.20735676  0.21930564  0.33292611  1
  As  As6  1  0.94325863  0.25636136  0.18407786  1
  As  As7  1  0.30364273  0.91748471  0.19675724  1
  As  As8  1  0.84693387  0.81813648  0.73530000  1
  Li  Li9  1  0.73146877  0.31108111  0.44631945  1
  Li  Li10  1  0.71638857  0.36451701  0.60903384  1
