# generated using pymatgen
data_LiF
_symmetry_space_group_name_H-M   'P 1'
_cell_length_a   10.24125721
_cell_length_b   10.24125721
_cell_length_c   17.94850801
_cell_angle_alpha   90.00000000
_cell_angle_beta   90.00000000
_cell_angle_gamma   120.00000000
_symmetry_Int_Tables_number   1
_chemical_formula_structural   LiF
_chemical_formula_sum   'Li42 F42'
_cell_volume   1630.29250601
_cell_formula_units_Z   42
loop_
 _symmetry_equiv_pos_site_id
 _symmetry_equiv_pos_as_xyz
  1  'x, y, z'
loop_
 _atom_site_type_symbol
 _atom_site_label
 _atom_site_symmetry_multiplicity
 _atom_site_fract_x
 _atom_site_fract_y
 _atom_site_fract_z
 _atom_site_occupancy
  F  F0  1  0.23837356  0.76162644  0.00000000  1
  F  F1  1  0.23837356  0.47674712  0.00000000  1
  F  F2  1  0.52325288  0.76162644  0.00000000  1
  F  F3  1  0.40022717  0.55186875  0.31264951  1
  F  F4  1  0.44813125  0.84835842  0.31264951  1
  F  F5  1  0.15164158  0.59977283  0.31264951  1
  F  F6  1  0.44813125  0.59977283  0.68735049  1
  F  F7  1  0.15164158  0.55186875  0.68735049  1
  F  F8  1  0.40022717  0.84835842  0.68735049  1
  F  F9  1  0.00000000  0.00000000  0.75479926  1
  F  F10  1  0.00000000  0.00000000  0.24520074  1
  F  F11  1  0.33333333  0.66666667  0.00000000  1
  F  F12  1  0.83971688  0.86581749  0.64304133  1
  F  F13  1  0.13418251  0.97389940  0.64304133  1
  F  F14  1  0.02610060  0.16028312  0.64304133  1
  F  F15  1  0.13418251  0.16028312  0.35695867  1
  F  F16  1  0.02610060  0.86581749  0.35695867  1
  F  F17  1  0.83971688  0.97389940  0.35695867  1
  F  F18  1  0.43449516  0.21754811  0.89408934  1
  F  F19  1  0.78245189  0.21694705  0.89408934  1
  F  F20  1  0.78305295  0.56550484  0.89408934  1
  F  F21  1  0.78245189  0.56550484  0.10591066  1
  F  F22  1  0.78305295  0.21754811  0.10591066  1
  F  F23  1  0.43449516  0.21694705  0.10591066  1
  F  F24  1  0.97952409  0.59804543  0.77385741  1
  F  F25  1  0.40195457  0.38147867  0.77385741  1
  F  F26  1  0.61852133  0.02047591  0.77385741  1
  F  F27  1  0.40195457  0.02047591  0.22614259  1
  F  F28  1  0.61852133  0.59804543  0.22614259  1
  F  F29  1  0.97952409  0.38147867  0.22614259  1
  F  F30  1  0.97332691  0.80310828  0.94964319  1
  F  F31  1  0.19689172  0.17021863  0.94964319  1
  F  F32  1  0.82978137  0.02667309  0.94964319  1
  F  F33  1  0.19689172  0.02667309  0.05035681  1
  F  F34  1  0.82978137  0.80310828  0.05035681  1
  F  F35  1  0.97332691  0.17021863  0.05035681  1
  F  F36  1  0.80686108  0.26689006  0.74188553  1
  F  F37  1  0.73310994  0.53997101  0.74188553  1
  F  F38  1  0.46002899  0.19313892  0.74188553  1
  F  F39  1  0.73310994  0.19313892  0.25811447  1
  F  F40  1  0.46002899  0.26689006  0.25811447  1
  F  F41  1  0.80686108  0.53997101  0.25811447  1
  Li  Li42  1  0.06255746  0.62377549  0.13692043  1
  Li  Li43  1  -0.62377549  -0.56121803  0.13692043  1
  Li  Li44  1  0.56121803  -0.06255746  0.13692043  1
  Li  Li45  1  -0.62377549  -0.06255746  -0.13692043  1
  Li  Li46  1  0.56121803  0.62377549  -0.13692043  1
  Li  Li47  1  0.06255746  -0.56121803  -0.13692043  1
  Li  Li48  1  0.74381660  0.70821678  0.58998965  1
  Li  Li49  1  0.29178322  0.03559981  0.58998965  1
  Li  Li50  1  0.96440019  0.25618340  0.58998965  1
  Li  Li51  1  0.29178322  0.25618340  0.41001035  1
  Li  Li52  1  0.96440019  0.70821678  0.41001035  1
  Li  Li53  1  0.74381660  0.03559981  0.41001035  1
  Li  Li54  1  0.07194438  0.33328087  0.46796951  1
  Li  Li55  1  0.66671913  0.73866351  0.46796951  1
  Li  Li56  1  0.26133649  0.92805562  0.46796951  1
  Li  Li57  1  0.66671913  0.92805562  0.53203049  1
  Li  Li58  1  0.26133649  0.33328087  0.53203049  1
  Li  Li59  1  0.07194438  0.73866351  0.53203049  1
  Li  Li60  1  0.89918141  0.60189355  0.96039866  1
  Li  Li61  1  0.39810645  0.29728786  0.96039866  1
  Li  Li62  1  0.70271214  0.10081859  0.96039866  1
  Li  Li63  1  0.39810645  0.10081859  0.03960134  1
  Li  Li64  1  0.70271214  0.60189355  0.03960134  1
  Li  Li65  1  0.89918141  0.29728786  0.03960134  1
  Li  Li66  1  0.51122707  0.42102972  0.93561888  1
  Li  Li67  1  0.57897028  0.09019735  0.93561888  1
  Li  Li68  1  0.90980265  0.48877293  0.93561888  1
  Li  Li69  1  0.57897028  0.48877293  0.06438112  1
  Li  Li70  1  0.90980265  0.42102972  0.06438112  1
  Li  Li71  1  0.51122707  0.09019735  0.06438112  1
  Li  Li72  1  0.66666667  0.33333333  0.50000000  1
  Li  Li73  1  0.67654294  0.19164531  0.62992276  1
  Li  Li74  1  0.80835469  0.48489763  0.62992276  1
  Li  Li75  1  0.51510237  0.32345706  0.62992276  1
  Li  Li76  1  0.80835469  0.32345706  0.37007724  1
  Li  Li77  1  0.51510237  0.19164531  0.37007724  1
  Li  Li78  1  0.67654294  0.48489763  0.37007724  1
  Li  Li79  1  0.00000000  0.00000000  0.00000000  1
  Li  Li80  1  0.66666667  0.33333333  -0.00000000  1
  Li  Li81  1  0.00000000  0.00000000  0.50000000  1
  Li  Li82  1  0.33333333  0.66666667  0.83767317  1
  Li  Li83  1  0.33333333  0.66666667  0.16232683  1
