# generated using pymatgen
data_Li2Y(P2Se)2
_symmetry_space_group_name_H-M   'P 1'
_cell_length_a   4.42238198
_cell_length_b   4.61386857
_cell_length_c   6.99463289
_cell_angle_alpha   96.35732185
_cell_angle_beta   103.47503539
_cell_angle_gamma   113.73729003
_symmetry_Int_Tables_number   1
_chemical_formula_structural   Li2Y(P2Se)2
_chemical_formula_sum   'Li2 Y1 P4 Se2'
_cell_volume   123.65113464
_cell_formula_units_Z   1
loop_
 _symmetry_equiv_pos_site_id
 _symmetry_equiv_pos_as_xyz
  1  'x, y, z'
loop_
 _atom_site_type_symbol
 _atom_site_label
 _atom_site_symmetry_multiplicity
 _atom_site_fract_x
 _atom_site_fract_y
 _atom_site_fract_z
 _atom_site_occupancy
  Se  Se0  1  0.12500000  0.00000000  0.25000000  1
  Se  Se1  1  0.00000000  0.00000000  0.00000000  1
  Y  Y2  1  0.37500000  0.00000000  0.25000000  1
  P  P3  1  0.25000000  0.25000000  0.25000000  1
  P  P4  1  0.00000000  0.25000000  0.12500000  1
  P  P5  1  0.12666513  0.65506299  0.16562075  1
  P  P6  1  0.47843213  0.48084673  0.06977294  1
  Li  Li7  1  0.61625866  0.04699076  0.21407535  1
  Li  Li8  1  0.95381013  0.86891584  0.12540921  1
