# generated using pymatgen
data_Li2Y2As4P2Se
_symmetry_space_group_name_H-M   'P 1'
_cell_length_a   5.52262275
_cell_length_b   5.68291553
_cell_length_c   6.93373737
_cell_angle_alpha   93.61246889
_cell_angle_beta   96.84100779
_cell_angle_gamma   102.90050104
_symmetry_Int_Tables_number   1
_chemical_formula_structural   Li2Y2As4P2Se
_chemical_formula_sum   'Li2 Y2 As4 P2 Se1'
_cell_volume   209.70514921
_cell_formula_units_Z   1
loop_
 _symmetry_equiv_pos_site_id
 _symmetry_equiv_pos_as_xyz
  1  'x, y, z'
loop_
 _atom_site_type_symbol
 _atom_site_label
 _atom_site_symmetry_multiplicity
 _atom_site_fract_x
 _atom_site_fract_y
 _atom_site_fract_z
 _atom_site_occupancy
  Se  Se0  1  0.00000000  0.00000000  0.00000000  1
  P  P1  1  0.50000000  0.50000000  0.50000000  1
  P  P2  1  0.50000000  0.50000000  0.00000000  1
  As  As3  1  0.50000000  0.00000000  0.50000000  1
  As  As4  1  0.00000000  0.50000000  0.50000000  1
  As  As5  1  0.07114809  0.85520529  0.54010004  1
  As  As6  1  0.53018898  0.61973140  0.60088249  1
  Li  Li7  1  0.68499286  0.86761241  0.20456897  1
  Li  Li8  1  0.05453601  0.82493624  0.87483255  1
  Y  Y9  1  0.40612338  0.26002275  0.66666524  1
  Y  Y10  1  0.88445561  0.51544681  0.92442362  1
