# generated using pymatgen
data_Li2TiClOF
_symmetry_space_group_name_H-M   'P 1'
_cell_length_a   3.23680323
_cell_length_b   2.99798011
_cell_length_c   5.60983948
_cell_angle_alpha   104.87315975
_cell_angle_beta   105.90058871
_cell_angle_gamma   105.05448406
_symmetry_Int_Tables_number   1
_chemical_formula_structural   Li2TiClOF
_chemical_formula_sum   'Li2 Ti1 Cl1 O1 F1'
_cell_volume   47.30279345
_cell_formula_units_Z   1
loop_
 _symmetry_equiv_pos_site_id
 _symmetry_equiv_pos_as_xyz
  1  'x, y, z'
loop_
 _atom_site_type_symbol
 _atom_site_label
 _atom_site_symmetry_multiplicity
 _atom_site_fract_x
 _atom_site_fract_y
 _atom_site_fract_z
 _atom_site_occupancy
  F  F0  1  0.00000000  0.00000000  0.00000000  1
  O  O1  1  0.50000000  0.50000000  0.50000000  1
  Ti  Ti2  1  0.25000000  0.25000000  0.25000000  1
  Li  Li3  1  0.75000000  0.25000000  0.00000000  1
  Li  Li4  1  0.25000000  0.75000000  0.50000000  1
  Cl  Cl5  1  0.60456926  0.94256188  0.81442829  1
