# generated using pymatgen
data_LiYSbPSe
_symmetry_space_group_name_H-M   'P 1'
_cell_length_a   5.59131480
_cell_length_b   5.84579509
_cell_length_c   7.26253691
_cell_angle_alpha   93.56337963
_cell_angle_beta   97.33661999
_cell_angle_gamma   103.64823731
_symmetry_Int_Tables_number   1
_chemical_formula_structural   LiYSbPSe
_chemical_formula_sum   'Li2 Y2 Sb2 P2 Se2'
_cell_volume   227.73821739
_cell_formula_units_Z   2
loop_
 _symmetry_equiv_pos_site_id
 _symmetry_equiv_pos_as_xyz
  1  'x, y, z'
loop_
 _atom_site_type_symbol
 _atom_site_label
 _atom_site_symmetry_multiplicity
 _atom_site_fract_x
 _atom_site_fract_y
 _atom_site_fract_z
 _atom_site_occupancy
  Se  Se0  1  0.00000000  0.00000000  0.00000000  1
  Se  Se1  1  0.50000000  0.50000000  0.50000000  1
  Y  Y2  1  0.50000000  0.50000000  0.00000000  1
  Y  Y3  1  0.50000000  0.00000000  0.50000000  1
  P  P4  1  0.00000000  0.50000000  0.50000000  1
  P  P5  1  0.80567735  0.44033074  0.07601129  1
  Li  Li6  1  0.71010642  0.75098933  0.89823633  1
  Li  Li7  1  0.35716439  0.81804261  0.75245785  1
  Sb  Sb8  1  0.38069911  0.79223991  0.45287280  1
  Sb  Sb9  1  0.13897561  0.70579462  0.55217375  1
