# generated using pymatgen
data_LiF
_symmetry_space_group_name_H-M   'P 1'
_cell_length_a   10.53181317
_cell_length_b   10.53181317
_cell_length_c   9.59375651
_cell_angle_alpha   90.00000000
_cell_angle_beta   90.00000000
_cell_angle_gamma   90.00000000
_symmetry_Int_Tables_number   1
_chemical_formula_structural   LiF
_chemical_formula_sum   'Li45 F45'
_cell_volume   1064.13072988
_cell_formula_units_Z   45
loop_
 _symmetry_equiv_pos_site_id
 _symmetry_equiv_pos_as_xyz
  1  'x, y, z'
loop_
 _atom_site_type_symbol
 _atom_site_label
 _atom_site_symmetry_multiplicity
 _atom_site_fract_x
 _atom_site_fract_y
 _atom_site_fract_z
 _atom_site_occupancy
  F  F0  1  0.87595978  0.87595978  0.50000000  1
  F  F1  1  0.12404022  0.12404022  0.50000000  1
  F  F2  1  0.12404022  0.87595978  0.50000000  1
  F  F3  1  0.87595978  0.12404022  0.50000000  1
  F  F4  1  0.25234657  0.25234657  0.76442555  1
  F  F5  1  0.74765343  0.74765343  0.76442555  1
  F  F6  1  0.74765343  0.25234657  0.76442555  1
  F  F7  1  0.25234657  0.74765343  0.76442555  1
  F  F8  1  0.74765343  0.25234657  0.23557445  1
  F  F9  1  0.25234657  0.74765343  0.23557445  1
  F  F10  1  0.25234657  0.25234657  0.23557445  1
  F  F11  1  0.74765343  0.74765343  0.23557445  1
  F  F12  1  0.39390603  0.92084548  0.23580945  1
  F  F13  1  0.60609397  0.07915452  0.23580945  1
  F  F14  1  0.07915452  0.39390603  0.23580945  1
  F  F15  1  0.92084548  0.60609397  0.23580945  1
  F  F16  1  0.60609397  0.92084548  0.76419055  1
  F  F17  1  0.39390603  0.07915452  0.76419055  1
  F  F18  1  0.92084548  0.39390603  0.76419055  1
  F  F19  1  0.07915452  0.60609397  0.76419055  1
  F  F20  1  0.60609397  0.07915452  0.76419055  1
  F  F21  1  0.39390603  0.92084548  0.76419055  1
  F  F22  1  0.92084548  0.60609397  0.76419055  1
  F  F23  1  0.07915452  0.39390603  0.76419055  1
  F  F24  1  0.39390603  0.07915452  0.23580945  1
  F  F25  1  0.60609397  0.92084548  0.23580945  1
  F  F26  1  0.07915452  0.60609397  0.23580945  1
  F  F27  1  0.92084548  0.39390603  0.23580945  1
  F  F28  1  0.71516864  0.00000000  0.11381579  1
  F  F29  1  0.28483136  0.00000000  0.11381579  1
  F  F30  1  0.00000000  0.71516864  0.11381579  1
  F  F31  1  0.00000000  0.28483136  0.11381579  1
  F  F32  1  0.28483136  0.00000000  0.88618421  1
  F  F33  1  0.71516864  0.00000000  0.88618421  1
  F  F34  1  0.00000000  0.71516864  0.88618421  1
  F  F35  1  0.00000000  0.28483136  0.88618421  1
  F  F36  1  0.92266107  0.50000000  0.95724897  1
  F  F37  1  0.07733893  0.50000000  0.95724897  1
  F  F38  1  0.50000000  0.92266107  0.95724897  1
  F  F39  1  0.50000000  0.07733893  0.95724897  1
  F  F40  1  0.07733893  0.50000000  0.04275103  1
  F  F41  1  0.92266107  0.50000000  0.04275103  1
  F  F42  1  0.50000000  0.92266107  0.04275103  1
  F  F43  1  0.50000000  0.07733893  0.04275103  1
  F  F44  1  0.00000000  0.00000000  0.50000000  1
  Li  Li45  1  0.34959342  0.34959342  -0.00000000  1
  Li  Li46  1  0.65040658  0.65040658  -0.00000000  1
  Li  Li47  1  0.65040658  0.34959342  0.00000000  1
  Li  Li48  1  0.34959342  0.65040658  0.00000000  1
  Li  Li49  1  0.64980928  0.50000000  0.10642686  1
  Li  Li50  1  0.35019072  0.50000000  0.10642686  1
  Li  Li51  1  0.50000000  0.64980928  0.10642686  1
  Li  Li52  1  0.50000000  0.35019072  0.10642686  1
  Li  Li53  1  0.35019072  0.50000000  0.89357314  1
  Li  Li54  1  0.64980928  0.50000000  0.89357314  1
  Li  Li55  1  0.50000000  0.64980928  0.89357314  1
  Li  Li56  1  0.50000000  0.35019072  0.89357314  1
  Li  Li57  1  0.16199504  0.27400380  0.80731988  1
  Li  Li58  1  -0.16199504  -0.27400380  0.80731988  1
  Li  Li59  1  -0.27400380  0.16199504  0.80731988  1
  Li  Li60  1  0.27400380  -0.16199504  0.80731988  1
  Li  Li61  1  -0.16199504  0.27400380  -0.80731988  1
  Li  Li62  1  0.16199504  -0.27400380  -0.80731988  1
  Li  Li63  1  0.27400380  0.16199504  -0.80731988  1
  Li  Li64  1  -0.27400380  -0.16199504  -0.80731988  1
  Li  Li65  1  -0.16199504  -0.27400380  -0.80731988  1
  Li  Li66  1  0.16199504  0.27400380  -0.80731988  1
  Li  Li67  1  0.27400380  -0.16199504  -0.80731988  1
  Li  Li68  1  -0.27400380  0.16199504  -0.80731988  1
  Li  Li69  1  0.16199504  -0.27400380  0.80731988  1
  Li  Li70  1  -0.16199504  0.27400380  0.80731988  1
  Li  Li71  1  -0.27400380  -0.16199504  0.80731988  1
  Li  Li72  1  0.27400380  0.16199504  0.80731988  1
  Li  Li73  1  0.84733186  0.36364614  0.65585350  1
  Li  Li74  1  0.15266814  0.63635386  0.65585350  1
  Li  Li75  1  0.63635386  0.84733186  0.65585350  1
  Li  Li76  1  0.36364614  0.15266814  0.65585350  1
  Li  Li77  1  0.15266814  0.36364614  0.34414650  1
  Li  Li78  1  0.84733186  0.63635386  0.34414650  1
  Li  Li79  1  0.36364614  0.84733186  0.34414650  1
  Li  Li80  1  0.63635386  0.15266814  0.34414650  1
  Li  Li81  1  0.15266814  0.63635386  0.34414650  1
  Li  Li82  1  0.84733186  0.36364614  0.34414650  1
  Li  Li83  1  0.36364614  0.15266814  0.34414650  1
  Li  Li84  1  0.63635386  0.84733186  0.34414650  1
  Li  Li85  1  0.84733186  0.63635386  0.65585350  1
  Li  Li86  1  0.15266814  0.36364614  0.65585350  1
  Li  Li87  1  0.63635386  0.15266814  0.65585350  1
  Li  Li88  1  0.36364614  0.84733186  0.65585350  1
  Li  Li89  1  0.50000000  0.50000000  0.50000000  1
