# generated using pymatgen
data_Li4TeF2
_symmetry_space_group_name_H-M   'P 1'
_cell_length_a   16.09376399
_cell_length_b   16.09376399
_cell_length_c   11.38791945
_cell_angle_alpha   90.00000000
_cell_angle_beta   90.00000000
_cell_angle_gamma   90.00000000
_symmetry_Int_Tables_number   1
_chemical_formula_structural   Li4TeF2
_chemical_formula_sum   'Li96 Te24 F48'
_cell_volume   2949.57635361
_cell_formula_units_Z   24
loop_
 _symmetry_equiv_pos_site_id
 _symmetry_equiv_pos_as_xyz
  1  'x, y, z'
loop_
 _atom_site_type_symbol
 _atom_site_label
 _atom_site_symmetry_multiplicity
 _atom_site_fract_x
 _atom_site_fract_y
 _atom_site_fract_z
 _atom_site_occupancy
  F  F0  1  0.00000000  0.50000000  0.00000000  1
  F  F1  1  0.50000000  0.00000000  0.00000000  1
  F  F2  1  0.66871592  0.25024302  0.10774602  1
  F  F3  1  -0.66871592  -0.25024302  0.10774602  1
  F  F4  1  -0.25024302  0.66871592  0.10774602  1
  F  F5  1  0.25024302  -0.66871592  0.10774602  1
  F  F6  1  -0.66871592  0.25024302  -0.10774602  1
  F  F7  1  0.66871592  -0.25024302  -0.10774602  1
  F  F8  1  0.25024302  0.66871592  -0.10774602  1
  F  F9  1  -0.25024302  -0.66871592  -0.10774602  1
  F  F10  1  -0.66871592  -0.25024302  -0.10774602  1
  F  F11  1  0.66871592  0.25024302  -0.10774602  1
  F  F12  1  0.25024302  -0.66871592  -0.10774602  1
  F  F13  1  -0.25024302  0.66871592  -0.10774602  1
  F  F14  1  0.66871592  -0.25024302  0.10774602  1
  F  F15  1  -0.66871592  0.25024302  0.10774602  1
  F  F16  1  -0.25024302  -0.66871592  0.10774602  1
  F  F17  1  0.25024302  0.66871592  0.10774602  1
  F  F18  1  0.00000000  0.50000000  0.50000000  1
  F  F19  1  0.50000000  0.00000000  0.50000000  1
  F  F20  1  0.77843647  0.54688417  0.53138357  1
  F  F21  1  0.22156353  0.45311583  0.53138357  1
  F  F22  1  0.45311583  0.77843647  0.53138357  1
  F  F23  1  0.54688417  0.22156353  0.53138357  1
  F  F24  1  0.22156353  0.54688417  0.46861643  1
  F  F25  1  0.77843647  0.45311583  0.46861643  1
  F  F26  1  0.54688417  0.77843647  0.46861643  1
  F  F27  1  0.45311583  0.22156353  0.46861643  1
  F  F28  1  0.22156353  0.45311583  0.46861643  1
  F  F29  1  0.77843647  0.54688417  0.46861643  1
  F  F30  1  0.54688417  0.22156353  0.46861643  1
  F  F31  1  0.45311583  0.77843647  0.46861643  1
  F  F32  1  0.77843647  0.45311583  0.53138357  1
  F  F33  1  0.22156353  0.54688417  0.53138357  1
  F  F34  1  0.45311583  0.22156353  0.53138357  1
  F  F35  1  0.54688417  0.77843647  0.53138357  1
  F  F36  1  0.71418438  0.71418438  0.95863212  1
  F  F37  1  0.28581562  0.28581562  0.95863212  1
  F  F38  1  0.28581562  0.71418438  0.95863212  1
  F  F39  1  0.71418438  0.28581562  0.95863212  1
  F  F40  1  0.28581562  0.71418438  0.04136788  1
  F  F41  1  0.71418438  0.28581562  0.04136788  1
  F  F42  1  0.71418438  0.71418438  0.04136788  1
  F  F43  1  0.28581562  0.28581562  0.04136788  1
  F  F44  1  0.67633519  0.67633519  0.00000000  1
  F  F45  1  0.32366481  0.32366481  0.00000000  1
  F  F46  1  0.32366481  0.67633519  0.00000000  1
  F  F47  1  0.67633519  0.32366481  0.00000000  1
  Li  Li48  1  0.55409535  0.55409535  0.00000000  1
  Li  Li49  1  0.44590465  0.44590465  0.00000000  1
  Li  Li50  1  0.44590465  0.55409535  0.00000000  1
  Li  Li51  1  0.55409535  0.44590465  -0.00000000  1
  Li  Li52  1  0.21931920  0.32880636  0.55799737  1
  Li  Li53  1  0.78068080  0.67119364  0.55799737  1
  Li  Li54  1  0.67119364  0.21931920  0.55799737  1
  Li  Li55  1  0.32880636  0.78068080  0.55799737  1
  Li  Li56  1  0.78068080  0.32880636  0.44200263  1
  Li  Li57  1  0.21931920  0.67119364  0.44200263  1
  Li  Li58  1  0.32880636  0.21931920  0.44200263  1
  Li  Li59  1  0.67119364  0.78068080  0.44200263  1
  Li  Li60  1  0.78068080  0.67119364  0.44200263  1
  Li  Li61  1  0.21931920  0.32880636  0.44200263  1
  Li  Li62  1  0.32880636  0.78068080  0.44200263  1
  Li  Li63  1  0.67119364  0.21931920  0.44200263  1
  Li  Li64  1  0.21931920  0.67119364  0.55799737  1
  Li  Li65  1  0.78068080  0.32880636  0.55799737  1
  Li  Li66  1  0.67119364  0.78068080  0.55799737  1
  Li  Li67  1  0.32880636  0.21931920  0.55799737  1
  Li  Li68  1  0.79060705  0.79060705  0.05862735  1
  Li  Li69  1  0.20939295  0.20939295  0.05862735  1
  Li  Li70  1  0.20939295  0.79060705  0.05862735  1
  Li  Li71  1  0.79060705  0.20939295  0.05862735  1
  Li  Li72  1  0.20939295  0.79060705  0.94137265  1
  Li  Li73  1  0.79060705  0.20939295  0.94137265  1
  Li  Li74  1  0.79060705  0.79060705  0.94137265  1
  Li  Li75  1  0.20939295  0.20939295  0.94137265  1
  Li  Li76  1  0.21336706  0.21336706  0.78278860  1
  Li  Li77  1  0.78663294  0.78663294  0.78278860  1
  Li  Li78  1  0.78663294  0.21336706  0.78278860  1
  Li  Li79  1  0.21336706  0.78663294  0.78278860  1
  Li  Li80  1  0.78663294  0.21336706  0.21721140  1
  Li  Li81  1  0.21336706  0.78663294  0.21721140  1
  Li  Li82  1  0.21336706  0.21336706  0.21721140  1
  Li  Li83  1  0.78663294  0.78663294  0.21721140  1
  Li  Li84  1  0.63038924  0.30153800  0.50000000  1
  Li  Li85  1  0.36961076  0.69846200  0.50000000  1
  Li  Li86  1  0.69846200  0.63038924  0.50000000  1
  Li  Li87  1  0.30153800  0.36961076  0.50000000  1
  Li  Li88  1  0.36961076  0.30153800  0.50000000  1
  Li  Li89  1  0.63038924  0.69846200  0.50000000  1
  Li  Li90  1  0.30153800  0.63038924  0.50000000  1
  Li  Li91  1  0.69846200  0.36961076  0.50000000  1
  Li  Li92  1  0.39498955  0.39498955  0.70628086  1
  Li  Li93  1  0.60501045  0.60501045  0.70628086  1
  Li  Li94  1  0.60501045  0.39498955  0.70628086  1
  Li  Li95  1  0.39498955  0.60501045  0.70628086  1
  Li  Li96  1  0.60501045  0.39498955  0.29371914  1
  Li  Li97  1  0.39498955  0.60501045  0.29371914  1
  Li  Li98  1  0.39498955  0.39498955  0.29371914  1
  Li  Li99  1  0.60501045  0.60501045  0.29371914  1
  Li  Li100  1  0.82178376  0.00000000  0.86790713  1
  Li  Li101  1  0.17821624  0.00000000  0.86790713  1
  Li  Li102  1  0.00000000  0.82178376  0.86790713  1
  Li  Li103  1  0.00000000  0.17821624  0.86790713  1
  Li  Li104  1  0.17821624  0.00000000  0.13209287  1
  Li  Li105  1  0.82178376  0.00000000  0.13209287  1
  Li  Li106  1  0.00000000  0.82178376  0.13209287  1
  Li  Li107  1  0.00000000  0.17821624  0.13209287  1
  Li  Li108  1  0.23628965  0.00000000  0.24470913  1
  Li  Li109  1  0.76371035  0.00000000  0.24470913  1
  Li  Li110  1  0.00000000  0.23628965  0.24470913  1
  Li  Li111  1  0.00000000  0.76371035  0.24470913  1
  Li  Li112  1  0.76371035  0.00000000  0.75529087  1
  Li  Li113  1  0.23628965  0.00000000  0.75529087  1
  Li  Li114  1  0.00000000  0.23628965  0.75529087  1
  Li  Li115  1  0.00000000  0.76371035  0.75529087  1
  Li  Li116  1  0.84249594  0.50000000  0.85536726  1
  Li  Li117  1  0.15750406  0.50000000  0.85536726  1
  Li  Li118  1  0.50000000  0.84249594  0.85536726  1
  Li  Li119  1  0.50000000  0.15750406  0.85536726  1
  Li  Li120  1  0.15750406  0.50000000  0.14463274  1
  Li  Li121  1  0.84249594  0.50000000  0.14463274  1
  Li  Li122  1  0.50000000  0.84249594  0.14463274  1
  Li  Li123  1  0.50000000  0.15750406  0.14463274  1
  Li  Li124  1  0.32030111  0.11499415  0.23685283  1
  Li  Li125  1  0.67969889  0.88500585  0.23685283  1
  Li  Li126  1  0.88500585  0.32030111  0.23685283  1
  Li  Li127  1  0.11499415  0.67969889  0.23685283  1
  Li  Li128  1  0.67969889  0.11499415  0.76314717  1
  Li  Li129  1  0.32030111  0.88500585  0.76314717  1
  Li  Li130  1  0.11499415  0.32030111  0.76314717  1
  Li  Li131  1  0.88500585  0.67969889  0.76314717  1
  Li  Li132  1  0.67969889  0.88500585  0.76314717  1
  Li  Li133  1  0.32030111  0.11499415  0.76314717  1
  Li  Li134  1  0.11499415  0.67969889  0.76314717  1
  Li  Li135  1  0.88500585  0.32030111  0.76314717  1
  Li  Li136  1  0.32030111  0.88500585  0.23685283  1
  Li  Li137  1  0.67969889  0.11499415  0.23685283  1
  Li  Li138  1  0.88500585  0.67969889  0.23685283  1
  Li  Li139  1  0.11499415  0.32030111  0.23685283  1
  Li  Li140  1  0.78013941  0.50000000  0.00000000  1
  Li  Li141  1  0.21986059  0.50000000  0.00000000  1
  Li  Li142  1  0.50000000  0.78013941  0.00000000  1
  Li  Li143  1  0.50000000  0.21986059  0.00000000  1
  Te  Te144  1  0.33961910  0.50000000  0.50000000  1
  Te  Te145  1  0.66038090  0.50000000  0.50000000  1
  Te  Te146  1  0.50000000  0.33961910  0.50000000  1
  Te  Te147  1  0.50000000  0.66038090  0.50000000  1
  Te  Te148  1  0.68649664  0.00000000  0.50000000  1
  Te  Te149  1  0.31350336  0.00000000  0.50000000  1
  Te  Te150  1  0.00000000  0.68649664  0.50000000  1
  Te  Te151  1  0.00000000  0.31350336  0.50000000  1
  Te  Te152  1  0.79144652  0.70638520  0.14058115  1
  Te  Te153  1  0.20855348  0.29361480  0.14058115  1
  Te  Te154  1  0.29361480  0.79144652  0.14058115  1
  Te  Te155  1  0.70638520  0.20855348  0.14058115  1
  Te  Te156  1  0.20855348  0.70638520  0.85941885  1
  Te  Te157  1  0.79144652  0.29361480  0.85941885  1
  Te  Te158  1  0.70638520  0.79144652  0.85941885  1
  Te  Te159  1  0.29361480  0.20855348  0.85941885  1
  Te  Te160  1  0.20855348  0.29361480  0.85941885  1
  Te  Te161  1  0.79144652  0.70638520  0.85941885  1
  Te  Te162  1  0.70638520  0.20855348  0.85941885  1
  Te  Te163  1  0.29361480  0.79144652  0.85941885  1
  Te  Te164  1  0.79144652  0.29361480  0.14058115  1
  Te  Te165  1  0.20855348  0.70638520  0.14058115  1
  Te  Te166  1  0.29361480  0.20855348  0.14058115  1
  Te  Te167  1  0.70638520  0.79144652  0.14058115  1
