# generated using pymatgen
data_LiSb2P
_symmetry_space_group_name_H-M   'P 1'
_cell_length_a   4.71156983
_cell_length_b   4.75953970
_cell_length_c   5.95626231
_cell_angle_alpha   94.39128281
_cell_angle_beta   96.16811723
_cell_angle_gamma   102.31349101
_symmetry_Int_Tables_number   1
_chemical_formula_structural   LiSb2P
_chemical_formula_sum   'Li1 Sb2 P1'
_cell_volume   129.05823275
_cell_formula_units_Z   1
loop_
 _symmetry_equiv_pos_site_id
 _symmetry_equiv_pos_as_xyz
  1  'x, y, z'
loop_
 _atom_site_type_symbol
 _atom_site_label
 _atom_site_symmetry_multiplicity
 _atom_site_fract_x
 _atom_site_fract_y
 _atom_site_fract_z
 _atom_site_occupancy
  P  P0  1  0.12500000  0.12500000  0.12500000  1
  Li  Li1  1  0.50000000  0.50000000  0.50000000  1
  Sb  Sb2  1  0.25000000  0.25000000  0.25000000  1
  Sb  Sb3  1  0.75000000  0.75000000  0.75000000  1
