# generated using pymatgen
data_Li4TeF2
_symmetry_space_group_name_H-M   'P 1'
_cell_length_a   18.86979186
_cell_length_b   18.86979186
_cell_length_c   10.86975228
_cell_angle_alpha   90.00000000
_cell_angle_beta   90.00000000
_cell_angle_gamma   90.00000000
_symmetry_Int_Tables_number   1
_chemical_formula_structural   Li4TeF2
_chemical_formula_sum   'Li96 Te24 F48'
_cell_volume   3870.38231347
_cell_formula_units_Z   24
loop_
 _symmetry_equiv_pos_site_id
 _symmetry_equiv_pos_as_xyz
  1  'x, y, z'
loop_
 _atom_site_type_symbol
 _atom_site_label
 _atom_site_symmetry_multiplicity
 _atom_site_fract_x
 _atom_site_fract_y
 _atom_site_fract_z
 _atom_site_occupancy
  F  F0  1  0.10449124  0.13654708  0.64040647  1
  F  F1  1  -0.10449124  -0.13654708  0.64040647  1
  F  F2  1  -0.13654708  0.10449124  0.64040647  1
  F  F3  1  0.13654708  -0.10449124  0.64040647  1
  F  F4  1  -0.10449124  0.13654708  -0.64040647  1
  F  F5  1  0.10449124  -0.13654708  -0.64040647  1
  F  F6  1  0.13654708  0.10449124  -0.64040647  1
  F  F7  1  -0.13654708  -0.10449124  -0.64040647  1
  F  F8  1  -0.10449124  -0.13654708  -0.64040647  1
  F  F9  1  0.10449124  0.13654708  -0.64040647  1
  F  F10  1  0.13654708  -0.10449124  -0.64040647  1
  F  F11  1  -0.13654708  0.10449124  -0.64040647  1
  F  F12  1  0.10449124  -0.13654708  0.64040647  1
  F  F13  1  -0.10449124  0.13654708  0.64040647  1
  F  F14  1  -0.13654708  -0.10449124  0.64040647  1
  F  F15  1  0.13654708  0.10449124  0.64040647  1
  F  F16  1  0.20890768  0.38070752  0.18348277  1
  F  F17  1  0.79109232  0.61929248  0.18348277  1
  F  F18  1  0.61929248  0.20890768  0.18348277  1
  F  F19  1  0.38070752  0.79109232  0.18348277  1
  F  F20  1  0.79109232  0.38070752  0.81651723  1
  F  F21  1  0.20890768  0.61929248  0.81651723  1
  F  F22  1  0.38070752  0.20890768  0.81651723  1
  F  F23  1  0.61929248  0.79109232  0.81651723  1
  F  F24  1  0.79109232  0.61929248  0.81651723  1
  F  F25  1  0.20890768  0.38070752  0.81651723  1
  F  F26  1  0.38070752  0.79109232  0.81651723  1
  F  F27  1  0.61929248  0.20890768  0.81651723  1
  F  F28  1  0.20890768  0.61929248  0.18348277  1
  F  F29  1  0.79109232  0.38070752  0.18348277  1
  F  F30  1  0.61929248  0.79109232  0.18348277  1
  F  F31  1  0.38070752  0.20890768  0.18348277  1
  F  F32  1  0.73469469  0.43358526  0.24494159  1
  F  F33  1  0.26530531  0.56641474  0.24494159  1
  F  F34  1  0.56641474  0.73469469  0.24494159  1
  F  F35  1  0.43358526  0.26530531  0.24494159  1
  F  F36  1  0.26530531  0.43358526  0.75505841  1
  F  F37  1  0.73469469  0.56641474  0.75505841  1
  F  F38  1  0.43358526  0.73469469  0.75505841  1
  F  F39  1  0.56641474  0.26530531  0.75505841  1
  F  F40  1  0.26530531  0.56641474  0.75505841  1
  F  F41  1  0.73469469  0.43358526  0.75505841  1
  F  F42  1  0.43358526  0.26530531  0.75505841  1
  F  F43  1  0.56641474  0.73469469  0.75505841  1
  F  F44  1  0.73469469  0.56641474  0.24494159  1
  F  F45  1  0.26530531  0.43358526  0.24494159  1
  F  F46  1  0.56641474  0.26530531  0.24494159  1
  F  F47  1  0.43358526  0.73469469  0.24494159  1
  Li  Li48  1  0.41406300  0.92927844  0.66593176  1
  Li  Li49  1  0.58593700  0.07072156  0.66593176  1
  Li  Li50  1  0.07072156  0.41406300  0.66593176  1
  Li  Li51  1  0.92927844  0.58593700  0.66593176  1
  Li  Li52  1  0.58593700  0.92927844  0.33406824  1
  Li  Li53  1  0.41406300  0.07072156  0.33406824  1
  Li  Li54  1  0.92927844  0.41406300  0.33406824  1
  Li  Li55  1  0.07072156  0.58593700  0.33406824  1
  Li  Li56  1  0.58593700  0.07072156  0.33406824  1
  Li  Li57  1  0.41406300  0.92927844  0.33406824  1
  Li  Li58  1  0.92927844  0.58593700  0.33406824  1
  Li  Li59  1  0.07072156  0.41406300  0.33406824  1
  Li  Li60  1  0.41406300  0.07072156  0.66593176  1
  Li  Li61  1  0.58593700  0.92927844  0.66593176  1
  Li  Li62  1  0.07072156  0.58593700  0.66593176  1
  Li  Li63  1  0.92927844  0.41406300  0.66593176  1
  Li  Li64  1  0.56433134  0.38193613  0.38512126  1
  Li  Li65  1  0.43566866  0.61806387  0.38512126  1
  Li  Li66  1  0.61806387  0.56433134  0.38512126  1
  Li  Li67  1  0.38193613  0.43566866  0.38512126  1
  Li  Li68  1  0.43566866  0.38193613  0.61487874  1
  Li  Li69  1  0.56433134  0.61806387  0.61487874  1
  Li  Li70  1  0.38193613  0.56433134  0.61487874  1
  Li  Li71  1  0.61806387  0.43566866  0.61487874  1
  Li  Li72  1  0.43566866  0.61806387  0.61487874  1
  Li  Li73  1  0.56433134  0.38193613  0.61487874  1
  Li  Li74  1  0.38193613  0.43566866  0.61487874  1
  Li  Li75  1  0.61806387  0.56433134  0.61487874  1
  Li  Li76  1  0.56433134  0.61806387  0.38512126  1
  Li  Li77  1  0.43566866  0.38193613  0.38512126  1
  Li  Li78  1  0.61806387  0.43566866  0.38512126  1
  Li  Li79  1  0.38193613  0.56433134  0.38512126  1
  Li  Li80  1  0.39243961  0.50000000  0.50000000  1
  Li  Li81  1  0.60756039  0.50000000  0.50000000  1
  Li  Li82  1  0.50000000  0.39243961  0.50000000  1
  Li  Li83  1  0.50000000  0.60756039  0.50000000  1
  Li  Li84  1  0.74054783  0.18521906  0.93041439  1
  Li  Li85  1  0.25945217  0.81478094  0.93041439  1
  Li  Li86  1  0.81478094  0.74054783  0.93041439  1
  Li  Li87  1  0.18521906  0.25945217  0.93041439  1
  Li  Li88  1  0.25945217  0.18521906  0.06958561  1
  Li  Li89  1  0.74054783  0.81478094  0.06958561  1
  Li  Li90  1  0.18521906  0.74054783  0.06958561  1
  Li  Li91  1  0.81478094  0.25945217  0.06958561  1
  Li  Li92  1  0.25945217  0.81478094  0.06958561  1
  Li  Li93  1  0.74054783  0.18521906  0.06958561  1
  Li  Li94  1  0.18521906  0.25945217  0.06958561  1
  Li  Li95  1  0.81478094  0.74054783  0.06958561  1
  Li  Li96  1  0.74054783  0.81478094  0.93041439  1
  Li  Li97  1  0.25945217  0.18521906  0.93041439  1
  Li  Li98  1  0.81478094  0.25945217  0.93041439  1
  Li  Li99  1  0.18521906  0.74054783  0.93041439  1
  Li  Li100  1  0.65161863  0.05442839  0.00000000  1
  Li  Li101  1  0.34838137  0.94557161  0.00000000  1
  Li  Li102  1  0.94557161  0.65161863  -0.00000000  1
  Li  Li103  1  0.05442839  0.34838137  -0.00000000  1
  Li  Li104  1  0.34838137  0.05442839  -0.00000000  1
  Li  Li105  1  0.65161863  0.94557161  -0.00000000  1
  Li  Li106  1  0.05442839  0.65161863  -0.00000000  1
  Li  Li107  1  0.94557161  0.34838137  0.00000000  1
  Li  Li108  1  0.28766631  0.28766631  0.30105554  1
  Li  Li109  1  0.71233369  0.71233369  0.30105554  1
  Li  Li110  1  0.71233369  0.28766631  0.30105554  1
  Li  Li111  1  0.28766631  0.71233369  0.30105554  1
  Li  Li112  1  0.71233369  0.28766631  0.69894446  1
  Li  Li113  1  0.28766631  0.71233369  0.69894446  1
  Li  Li114  1  0.28766631  0.28766631  0.69894446  1
  Li  Li115  1  0.71233369  0.71233369  0.69894446  1
  Li  Li116  1  0.09222295  0.50000000  0.50000000  1
  Li  Li117  1  0.90777705  0.50000000  0.50000000  1
  Li  Li118  1  0.50000000  0.09222295  0.50000000  1
  Li  Li119  1  0.50000000  0.90777705  0.50000000  1
  Li  Li120  1  0.17104232  0.33302935  0.50000000  1
  Li  Li121  1  0.82895768  0.66697065  0.50000000  1
  Li  Li122  1  0.66697065  0.17104232  0.50000000  1
  Li  Li123  1  0.33302935  0.82895768  0.50000000  1
  Li  Li124  1  0.82895768  0.33302935  0.50000000  1
  Li  Li125  1  0.17104232  0.66697065  0.50000000  1
  Li  Li126  1  0.33302935  0.17104232  0.50000000  1
  Li  Li127  1  0.66697065  0.82895768  0.50000000  1
  Li  Li128  1  0.77873013  0.40949143  0.93202025  1
  Li  Li129  1  0.22126987  0.59050857  0.93202025  1
  Li  Li130  1  0.59050857  0.77873013  0.93202025  1
  Li  Li131  1  0.40949143  0.22126987  0.93202025  1
  Li  Li132  1  0.22126987  0.40949143  0.06797975  1
  Li  Li133  1  0.77873013  0.59050857  0.06797975  1
  Li  Li134  1  0.40949143  0.77873013  0.06797975  1
  Li  Li135  1  0.59050857  0.22126987  0.06797975  1
  Li  Li136  1  0.22126987  0.59050857  0.06797975  1
  Li  Li137  1  0.77873013  0.40949143  0.06797975  1
  Li  Li138  1  0.40949143  0.22126987  0.06797975  1
  Li  Li139  1  0.59050857  0.77873013  0.06797975  1
  Li  Li140  1  0.77873013  0.59050857  0.93202025  1
  Li  Li141  1  0.22126987  0.40949143  0.93202025  1
  Li  Li142  1  0.59050857  0.22126987  0.93202025  1
  Li  Li143  1  0.40949143  0.77873013  0.93202025  1
  Te  Te144  1  0.06353691  0.00000000  0.00000000  1
  Te  Te145  1  0.93646309  0.00000000  0.00000000  1
  Te  Te146  1  0.00000000  0.06353691  -0.00000000  1
  Te  Te147  1  0.00000000  0.93646309  0.00000000  1
  Te  Te148  1  0.00000000  0.00000000  0.80588897  1
  Te  Te149  1  0.00000000  0.00000000  0.19411103  1
  Te  Te150  1  0.53778227  0.84847909  0.00000000  1
  Te  Te151  1  0.46221773  0.15152091  -0.00000000  1
  Te  Te152  1  0.15152091  0.53778227  0.00000000  1
  Te  Te153  1  0.84847909  0.46221773  0.00000000  1
  Te  Te154  1  0.46221773  0.84847909  0.00000000  1
  Te  Te155  1  0.53778227  0.15152091  0.00000000  1
  Te  Te156  1  0.84847909  0.53778227  0.00000000  1
  Te  Te157  1  0.15152091  0.46221773  -0.00000000  1
  Te  Te158  1  0.17263102  0.00000000  0.50000000  1
  Te  Te159  1  0.82736898  -0.00000000  0.50000000  1
  Te  Te160  1  0.00000000  0.17263102  0.50000000  1
  Te  Te161  1  0.00000000  0.82736898  0.50000000  1
  Te  Te162  1  0.50000000  0.50000000  0.50000000  1
  Te  Te163  1  0.05490266  -0.00000000  0.50000000  1
  Te  Te164  1  0.94509734  0.00000000  0.50000000  1
  Te  Te165  1  0.00000000  0.05490266  0.50000000  1
  Te  Te166  1  0.00000000  0.94509734  0.50000000  1
  Te  Te167  1  0.50000000  0.50000000  0.00000000  1
