# generated using pymatgen
data_LiYMoP
_symmetry_space_group_name_H-M   'P 1'
_cell_length_a   5.10430662
_cell_length_b   5.29003782
_cell_length_c   6.68129255
_cell_angle_alpha   93.94179407
_cell_angle_beta   97.44538884
_cell_angle_gamma   103.99343204
_symmetry_Int_Tables_number   1
_chemical_formula_structural   LiYMoP
_chemical_formula_sum   'Li2 Y2 Mo2 P2'
_cell_volume   172.63675857
_cell_formula_units_Z   2
loop_
 _symmetry_equiv_pos_site_id
 _symmetry_equiv_pos_as_xyz
  1  'x, y, z'
loop_
 _atom_site_type_symbol
 _atom_site_label
 _atom_site_symmetry_multiplicity
 _atom_site_fract_x
 _atom_site_fract_y
 _atom_site_fract_z
 _atom_site_occupancy
  Y  Y0  1  0.00000000  0.00000000  0.00000000  1
  Y  Y1  1  0.33300000  0.66700000  0.25000000  1
  P  P2  1  0.66700000  0.33300000  0.50000000  1
  P  P3  1  0.00000000  0.00000000  0.75000000  1
  Mo  Mo4  1  0.75594744  0.21291935  0.31328993  1
  Mo  Mo5  1  0.96883845  0.25395346  0.07699297  1
  Li  Li6  1  0.89798232  0.48890396  0.24314333  1
  Li  Li7  1  0.03484859  0.19826258  0.49813594  1
