# generated using pymatgen
data_LiF
_symmetry_space_group_name_H-M   'P 1'
_cell_length_a   7.63229526
_cell_length_b   7.63229526
_cell_length_c   19.84210959
_cell_angle_alpha   90.00000000
_cell_angle_beta   90.00000000
_cell_angle_gamma   120.00000000
_symmetry_Int_Tables_number   1
_chemical_formula_structural   LiF
_chemical_formula_sum   'Li42 F42'
_cell_volume   1000.98783834
_cell_formula_units_Z   42
loop_
 _symmetry_equiv_pos_site_id
 _symmetry_equiv_pos_as_xyz
  1  'x, y, z'
loop_
 _atom_site_type_symbol
 _atom_site_label
 _atom_site_symmetry_multiplicity
 _atom_site_fract_x
 _atom_site_fract_y
 _atom_site_fract_z
 _atom_site_occupancy
  F  F0  1  0.33333333  0.66666667  0.72246666  1
  F  F1  1  0.66666667  0.33333333  0.22246666  1
  F  F2  1  0.66666667  0.33333333  0.27753334  1
  F  F3  1  0.33333333  0.66666667  0.77753334  1
  F  F4  1  0.29555917  0.24727146  0.02537699  1
  F  F5  1  0.75272854  0.04828770  0.02537699  1
  F  F6  1  0.95171230  0.70444083  0.02537699  1
  F  F7  1  0.70444083  0.75272854  0.52537699  1
  F  F8  1  0.24727146  0.95171230  0.52537699  1
  F  F9  1  0.04828770  0.29555917  0.52537699  1
  F  F10  1  0.70444083  0.75272854  0.97462301  1
  F  F11  1  0.24727146  0.95171230  0.97462301  1
  F  F12  1  0.04828770  0.29555917  0.97462301  1
  F  F13  1  0.29555917  0.24727146  0.47462301  1
  F  F14  1  0.75272854  0.04828770  0.47462301  1
  F  F15  1  0.95171230  0.70444083  0.47462301  1
  F  F16  1  0.70676485  0.90205563  0.58029155  1
  F  F17  1  0.09794437  0.80470922  0.58029155  1
  F  F18  1  0.19529078  0.29323515  0.58029155  1
  F  F19  1  0.29323515  0.09794437  0.08029155  1
  F  F20  1  0.90205563  0.19529078  0.08029155  1
  F  F21  1  0.80470922  0.70676485  0.08029155  1
  F  F22  1  0.29323515  0.09794437  0.41970845  1
  F  F23  1  0.90205563  0.19529078  0.41970845  1
  F  F24  1  0.80470922  0.70676485  0.41970845  1
  F  F25  1  0.70676485  0.90205563  0.91970845  1
  F  F26  1  0.09794437  0.80470922  0.91970845  1
  F  F27  1  0.19529078  0.29323515  0.91970845  1
  F  F28  1  0.00000000  0.00000000  0.03550043  1
  F  F29  1  0.00000000  0.00000000  0.53550043  1
  F  F30  1  0.00000000  0.00000000  0.96449957  1
  F  F31  1  0.00000000  0.00000000  0.46449957  1
  F  F32  1  0.50000000  0.00000000  -0.00000000  1
  F  F33  1  0.00000000  0.50000000  0.00000000  1
  F  F34  1  0.50000000  0.50000000  -0.00000000  1
  F  F35  1  0.50000000  0.00000000  0.50000000  1
  F  F36  1  0.00000000  0.50000000  0.50000000  1
  F  F37  1  0.50000000  0.50000000  0.50000000  1
  F  F38  1  0.33333333  0.66666667  0.65282637  1
  F  F39  1  0.66666667  0.33333333  0.15282637  1
  F  F40  1  0.66666667  0.33333333  0.34717363  1
  F  F41  1  0.33333333  0.66666667  0.84717363  1
  Li  Li42  1  0.62311667  0.75127547  0.58029263  1
  Li  Li43  1  -0.75127547  -0.12815880  0.58029263  1
  Li  Li44  1  0.12815880  -0.62311667  0.58029263  1
  Li  Li45  1  -0.62311667  -0.75127547  1.08029263  1
  Li  Li46  1  0.75127547  0.12815880  1.08029263  1
  Li  Li47  1  -0.12815880  0.62311667  1.08029263  1
  Li  Li48  1  -0.62311667  -0.75127547  -0.58029263  1
  Li  Li49  1  0.75127547  0.12815880  -0.58029263  1
  Li  Li50  1  -0.12815880  0.62311667  -0.58029263  1
  Li  Li51  1  0.62311667  0.75127547  -0.08029263  1
  Li  Li52  1  -0.75127547  -0.12815880  -0.08029263  1
  Li  Li53  1  0.12815880  -0.62311667  -0.08029263  1
  Li  Li54  1  0.62994890  0.46419589  0.25000000  1
  Li  Li55  1  0.53580411  0.16575300  0.25000000  1
  Li  Li56  1  0.83424700  0.37005110  0.25000000  1
  Li  Li57  1  0.37005110  0.53580411  0.75000000  1
  Li  Li58  1  0.46419589  0.83424700  0.75000000  1
  Li  Li59  1  0.16575300  0.62994890  0.75000000  1
  Li  Li60  1  0.00000000  0.00000000  0.66374117  1
  Li  Li61  1  0.00000000  0.00000000  0.16374117  1
  Li  Li62  1  0.00000000  0.00000000  0.33625883  1
  Li  Li63  1  0.00000000  0.00000000  0.83625883  1
  Li  Li64  1  0.85214765  0.81466141  0.34678201  1
  Li  Li65  1  0.18533859  0.03748625  0.34678201  1
  Li  Li66  1  0.96251375  0.14785235  0.34678201  1
  Li  Li67  1  0.14785235  0.18533859  0.84678201  1
  Li  Li68  1  0.81466141  0.96251375  0.84678201  1
  Li  Li69  1  0.03748625  0.85214765  0.84678201  1
  Li  Li70  1  0.14785235  0.18533859  0.65321799  1
  Li  Li71  1  0.81466141  0.96251375  0.65321799  1
  Li  Li72  1  0.03748625  0.85214765  0.65321799  1
  Li  Li73  1  0.85214765  0.81466141  0.15321799  1
  Li  Li74  1  0.18533859  0.03748625  0.15321799  1
  Li  Li75  1  0.96251375  0.14785235  0.15321799  1
  Li  Li76  1  0.44273818  0.30674722  0.25000000  1
  Li  Li77  1  0.69325278  0.13599095  0.25000000  1
  Li  Li78  1  0.86400905  0.55726182  0.25000000  1
  Li  Li79  1  0.55726182  0.69325278  0.75000000  1
  Li  Li80  1  0.30674722  0.86400905  0.75000000  1
  Li  Li81  1  0.13599095  0.44273818  0.75000000  1
  Li  Li82  1  0.00000000  0.00000000  0.25000000  1
  Li  Li83  1  0.00000000  0.00000000  0.75000000  1
