# generated using pymatgen
data_LiF
_symmetry_space_group_name_H-M   'P 1'
_cell_length_a   8.06092896
_cell_length_b   8.06092896
_cell_length_c   13.67964413
_cell_angle_alpha   90.00000000
_cell_angle_beta   90.00000000
_cell_angle_gamma   90.00000000
_symmetry_Int_Tables_number   1
_chemical_formula_structural   LiF
_chemical_formula_sum   'Li64 F64'
_cell_volume   888.88379056
_cell_formula_units_Z   64
loop_
 _symmetry_equiv_pos_site_id
 _symmetry_equiv_pos_as_xyz
  1  'x, y, z'
loop_
 _atom_site_type_symbol
 _atom_site_label
 _atom_site_symmetry_multiplicity
 _atom_site_fract_x
 _atom_site_fract_y
 _atom_site_fract_z
 _atom_site_occupancy
  F  F0  1  0.29065769  0.00000000  0.25000000  1
  F  F1  1  0.20934231  0.00000000  0.75000000  1
  F  F2  1  0.25000000  0.04065769  0.50000000  1
  F  F3  1  0.25000000  0.95934231  0.00000000  1
  F  F4  1  0.70934231  0.00000000  0.75000000  1
  F  F5  1  0.79065769  0.00000000  0.25000000  1
  F  F6  1  0.75000000  0.95934231  0.50000000  1
  F  F7  1  0.75000000  0.04065769  -0.00000000  1
  F  F8  1  0.79065769  0.50000000  0.75000000  1
  F  F9  1  0.70934231  0.50000000  0.25000000  1
  F  F10  1  0.75000000  0.54065769  0.00000000  1
  F  F11  1  0.75000000  0.45934231  0.50000000  1
  F  F12  1  0.20934231  0.50000000  0.25000000  1
  F  F13  1  0.29065769  0.50000000  0.75000000  1
  F  F14  1  0.25000000  0.45934231  0.00000000  1
  F  F15  1  0.25000000  0.54065769  0.50000000  1
  F  F16  1  0.03328210  0.90756005  0.57710014  1
  F  F17  1  0.46671790  0.09243995  0.07710014  1
  F  F18  1  0.34243995  0.78328210  0.82710014  1
  F  F19  1  0.15756005  0.21671790  0.32710014  1
  F  F20  1  0.46671790  0.90756005  0.42289986  1
  F  F21  1  0.03328210  0.09243995  0.92289986  1
  F  F22  1  0.15756005  0.78328210  0.17289986  1
  F  F23  1  0.34243995  0.21671790  0.67289986  1
  F  F24  1  0.96671790  0.09243995  0.42289986  1
  F  F25  1  0.53328210  0.90756005  0.92289986  1
  F  F26  1  0.65756005  0.21671790  0.17289986  1
  F  F27  1  0.84243995  0.78328210  0.67289986  1
  F  F28  1  0.53328210  0.09243995  0.57710014  1
  F  F29  1  0.96671790  0.90756005  0.07710014  1
  F  F30  1  0.84243995  0.21671790  0.82710014  1
  F  F31  1  0.65756005  0.78328210  0.32710014  1
  F  F32  1  0.53328210  0.40756005  0.07710014  1
  F  F33  1  0.96671790  0.59243995  0.57710014  1
  F  F34  1  0.84243995  0.28328210  0.32710014  1
  F  F35  1  0.65756005  0.71671790  0.82710014  1
  F  F36  1  0.96671790  0.40756005  0.92289986  1
  F  F37  1  0.53328210  0.59243995  0.42289986  1
  F  F38  1  0.65756005  0.28328210  0.67289986  1
  F  F39  1  0.84243995  0.71671790  0.17289986  1
  F  F40  1  0.46671790  0.59243995  0.92289986  1
  F  F41  1  0.03328210  0.40756005  0.42289986  1
  F  F42  1  0.15756005  0.71671790  0.67289986  1
  F  F43  1  0.34243995  0.28328210  0.17289986  1
  F  F44  1  0.03328210  0.59243995  0.07710014  1
  F  F45  1  0.46671790  0.40756005  0.57710014  1
  F  F46  1  0.34243995  0.71671790  0.32710014  1
  F  F47  1  0.15756005  0.28328210  0.82710014  1
  F  F48  1  0.00000000  0.25000000  0.95420169  1
  F  F49  1  0.00000000  0.75000000  0.20420169  1
  F  F50  1  0.50000000  0.25000000  0.04579831  1
  F  F51  1  0.50000000  0.75000000  0.79579831  1
  F  F52  1  0.00000000  0.75000000  0.04579831  1
  F  F53  1  0.00000000  0.25000000  0.79579831  1
  F  F54  1  0.50000000  0.75000000  0.95420169  1
  F  F55  1  0.50000000  0.25000000  0.20420169  1
  F  F56  1  0.50000000  0.75000000  0.45420169  1
  F  F57  1  0.50000000  0.25000000  0.70420169  1
  F  F58  1  0.00000000  0.75000000  0.54579831  1
  F  F59  1  0.00000000  0.25000000  0.29579831  1
  F  F60  1  0.50000000  0.25000000  0.54579831  1
  F  F61  1  0.50000000  0.75000000  0.29579831  1
  F  F62  1  0.00000000  0.25000000  0.45420169  1
  F  F63  1  0.00000000  0.75000000  0.70420169  1
  Li  Li64  1  0.38241270  0.78387917  0.68526499  1
  Li  Li65  1  0.11758730  -0.78387917  1.18526499  1
  Li  Li66  1  -0.53387917  1.13241270  0.93526499  1
  Li  Li67  1  1.03387917  -0.13241270  1.43526499  1
  Li  Li68  1  0.11758730  0.78387917  -0.68526499  1
  Li  Li69  1  0.38241270  -0.78387917  -0.18526499  1
  Li  Li70  1  1.03387917  1.13241270  0.06473501  1
  Li  Li71  1  -0.53387917  -0.13241270  -0.43526499  1
  Li  Li72  1  -0.38241270  -0.78387917  -0.68526499  1
  Li  Li73  1  0.88241270  0.78387917  -0.18526499  1
  Li  Li74  1  1.53387917  -0.13241270  0.06473501  1
  Li  Li75  1  -0.03387917  1.13241270  -0.43526499  1
  Li  Li76  1  0.88241270  -0.78387917  0.68526499  1
  Li  Li77  1  -0.38241270  0.78387917  1.18526499  1
  Li  Li78  1  -0.03387917  -0.13241270  0.93526499  1
  Li  Li79  1  1.53387917  1.13241270  1.43526499  1
  Li  Li80  1  0.88241270  1.28387917  1.18526499  1
  Li  Li81  1  0.61758730  -0.28387917  1.68526499  1
  Li  Li82  1  -0.03387917  1.63241270  1.43526499  1
  Li  Li83  1  1.53387917  0.36758730  1.93526499  1
  Li  Li84  1  0.61758730  1.28387917  -0.18526499  1
  Li  Li85  1  0.88241270  -0.28387917  0.31473501  1
  Li  Li86  1  1.53387917  1.63241270  0.56473501  1
  Li  Li87  1  -0.03387917  0.36758730  0.06473501  1
  Li  Li88  1  0.11758730  -0.28387917  -0.18526499  1
  Li  Li89  1  1.38241270  1.28387917  0.31473501  1
  Li  Li90  1  2.03387917  0.36758730  0.56473501  1
  Li  Li91  1  0.46612083  1.63241270  0.06473501  1
  Li  Li92  1  1.38241270  -0.28387917  1.18526499  1
  Li  Li93  1  0.11758730  1.28387917  1.68526499  1
  Li  Li94  1  0.46612083  0.36758730  1.43526499  1
  Li  Li95  1  2.03387917  1.63241270  1.93526499  1
  Li  Li96  1  0.12274455  0.50697468  0.56640110  1
  Li  Li97  1  0.37725545  0.49302532  0.06640110  1
  Li  Li98  1  0.74302532  0.87274455  0.81640110  1
  Li  Li99  1  0.75697468  0.12725545  0.31640110  1
  Li  Li100  1  0.37725545  0.50697468  0.43359890  1
  Li  Li101  1  0.12274455  0.49302532  0.93359890  1
  Li  Li102  1  0.75697468  0.87274455  0.18359890  1
  Li  Li103  1  0.74302532  0.12725545  0.68359890  1
  Li  Li104  1  0.87725545  0.49302532  0.43359890  1
  Li  Li105  1  0.62274455  0.50697468  0.93359890  1
  Li  Li106  1  0.25697468  0.12725545  0.18359890  1
  Li  Li107  1  0.24302532  0.87274455  0.68359890  1
  Li  Li108  1  0.62274455  0.49302532  0.56640110  1
  Li  Li109  1  0.87725545  0.50697468  0.06640110  1
  Li  Li110  1  0.24302532  0.12725545  0.81640110  1
  Li  Li111  1  0.25697468  0.87274455  0.31640110  1
  Li  Li112  1  0.62274455  0.00697468  0.06640110  1
  Li  Li113  1  0.87725545  0.99302532  0.56640110  1
  Li  Li114  1  0.24302532  0.37274455  0.31640110  1
  Li  Li115  1  0.25697468  0.62725545  0.81640110  1
  Li  Li116  1  0.87725545  0.00697468  0.93359890  1
  Li  Li117  1  0.62274455  0.99302532  0.43359890  1
  Li  Li118  1  0.25697468  0.37274455  0.68359890  1
  Li  Li119  1  0.24302532  0.62725545  0.18359890  1
  Li  Li120  1  0.37725545  0.99302532  0.93359890  1
  Li  Li121  1  0.12274455  0.00697468  0.43359890  1
  Li  Li122  1  0.75697468  0.62725545  0.68359890  1
  Li  Li123  1  0.74302532  0.37274455  0.18359890  1
  Li  Li124  1  0.12274455  0.99302532  0.06640110  1
  Li  Li125  1  0.37725545  0.00697468  0.56640110  1
  Li  Li126  1  0.74302532  0.62725545  0.31640110  1
  Li  Li127  1  0.75697468  0.37274455  0.81640110  1
