# generated using pymatgen
data_LiCaF3
_symmetry_space_group_name_H-M   'P 1'
_cell_length_a   15.17514986
_cell_length_b   15.17514986
_cell_length_c   7.06698051
_cell_angle_alpha   90.00000000
_cell_angle_beta   90.00000000
_cell_angle_gamma   120.00000000
_symmetry_Int_Tables_number   1
_chemical_formula_structural   LiCaF3
_chemical_formula_sum   'Li18 Ca18 F54'
_cell_volume   1409.38778383
_cell_formula_units_Z   18
loop_
 _symmetry_equiv_pos_site_id
 _symmetry_equiv_pos_as_xyz
  1  'x, y, z'
loop_
 _atom_site_type_symbol
 _atom_site_label
 _atom_site_symmetry_multiplicity
 _atom_site_fract_x
 _atom_site_fract_y
 _atom_site_fract_z
 _atom_site_occupancy
  Ca  Ca0  1  0.08309930  0.00000000  0.25000000  1
  Ca  Ca1  1  0.00000000  0.08309930  0.25000000  1
  Ca  Ca2  1  0.91690070  0.91690070  0.25000000  1
  Ca  Ca3  1  0.91690070  -0.00000000  0.75000000  1
  Ca  Ca4  1  0.00000000  0.91690070  0.75000000  1
  Ca  Ca5  1  0.08309930  0.08309930  0.75000000  1
  Ca  Ca6  1  0.74976597  0.33333333  0.58333333  1
  Ca  Ca7  1  0.66666667  0.41643263  0.58333333  1
  Ca  Ca8  1  0.58356737  0.25023403  0.58333333  1
  Ca  Ca9  1  0.58356737  0.33333333  0.08333333  1
  Ca  Ca10  1  0.66666667  0.25023403  0.08333333  1
  Ca  Ca11  1  0.74976597  0.41643263  0.08333333  1
  Ca  Ca12  1  0.41643263  0.66666667  0.91666667  1
  Ca  Ca13  1  0.33333333  0.74976597  0.91666667  1
  Ca  Ca14  1  0.25023403  0.58356737  0.91666667  1
  Ca  Ca15  1  0.25023403  0.66666667  0.41666667  1
  Ca  Ca16  1  0.33333333  0.58356737  0.41666667  1
  Ca  Ca17  1  0.41643263  0.74976597  0.41666667  1
  F  F18  1  0.88917655  0.14638319  0.92394586  1
  F  F19  1  -0.14638319  0.74279335  0.92394586  1
  F  F20  1  -0.74279335  -0.88917655  0.92394586  1
  F  F21  1  0.14638319  0.88917655  -0.42394586  1
  F  F22  1  0.74279335  -0.14638319  -0.42394586  1
  F  F23  1  -0.88917655  -0.74279335  -0.42394586  1
  F  F24  1  -0.88917655  -0.14638319  -0.92394586  1
  F  F25  1  0.14638319  -0.74279335  -0.92394586  1
  F  F26  1  0.74279335  0.88917655  -0.92394586  1
  F  F27  1  -0.14638319  -0.88917655  1.42394586  1
  F  F28  1  -0.74279335  0.14638319  1.42394586  1
  F  F29  1  0.88917655  0.74279335  1.42394586  1
  F  F30  1  1.55584321  0.47971652  1.25727919  1
  F  F31  1  0.52028348  1.07612669  1.25727919  1
  F  F32  1  -0.07612669  -0.55584321  1.25727919  1
  F  F33  1  0.81304986  1.22250988  -0.09061253  1
  F  F34  1  1.40946002  0.18695014  -0.09061253  1
  F  F35  1  -0.22250988  -0.40946002  -0.09061253  1
  F  F36  1  -0.22250988  0.18695014  -0.59061253  1
  F  F37  1  0.81304986  -0.40946002  -0.59061253  1
  F  F38  1  1.40946002  1.22250988  -0.59061253  1
  F  F39  1  0.52028348  -0.55584321  1.75727919  1
  F  F40  1  -0.07612669  0.47971652  1.75727919  1
  F  F41  1  1.55584321  1.07612669  1.75727919  1
  F  F42  1  1.22250988  0.81304986  1.59061253  1
  F  F43  1  0.18695014  1.40946002  1.59061253  1
  F  F44  1  -0.40946002  -0.22250988  1.59061253  1
  F  F45  1  0.47971652  1.55584321  0.24272081  1
  F  F46  1  1.07612669  0.52028348  0.24272081  1
  F  F47  1  -0.55584321  -0.07612669  0.24272081  1
  F  F48  1  -0.55584321  0.52028348  -0.25727919  1
  F  F49  1  0.47971652  -0.07612669  -0.25727919  1
  F  F50  1  1.07612669  1.55584321  -0.25727919  1
  F  F51  1  0.18695014  -0.22250988  2.09061253  1
  F  F52  1  -0.40946002  0.81304986  2.09061253  1
  F  F53  1  1.22250988  1.40946002  2.09061253  1
  F  F54  1  0.50000000  0.00000000  0.00000000  1
  F  F55  1  0.00000000  0.50000000  0.00000000  1
  F  F56  1  0.50000000  0.50000000  0.00000000  1
  F  F57  1  0.00000000  0.50000000  0.50000000  1
  F  F58  1  0.50000000  0.00000000  0.50000000  1
  F  F59  1  0.50000000  0.50000000  0.50000000  1
  F  F60  1  0.16666667  0.33333333  0.33333333  1
  F  F61  1  0.66666667  0.83333333  0.33333333  1
  F  F62  1  0.16666667  0.83333333  0.33333333  1
  F  F63  1  0.66666667  0.83333333  0.83333333  1
  F  F64  1  0.16666667  0.33333333  0.83333333  1
  F  F65  1  0.16666667  0.83333333  0.83333333  1
  F  F66  1  0.83333333  0.66666667  0.66666667  1
  F  F67  1  0.33333333  0.16666667  0.66666667  1
  F  F68  1  0.83333333  0.16666667  0.66666667  1
  F  F69  1  0.33333333  0.16666667  0.16666667  1
  F  F70  1  0.83333333  0.66666667  0.16666667  1
  F  F71  1  0.83333333  0.16666667  0.16666667  1
  Li  Li72  1  0.22690617  -0.00000000  0.25000000  1
  Li  Li73  1  0.00000000  0.22690617  0.25000000  1
  Li  Li74  1  0.77309383  0.77309383  0.25000000  1
  Li  Li75  1  0.77309383  0.00000000  0.75000000  1
  Li  Li76  1  0.00000000  0.77309383  0.75000000  1
  Li  Li77  1  0.22690617  0.22690617  0.75000000  1
  Li  Li78  1  0.89357284  0.33333333  0.58333333  1
  Li  Li79  1  0.66666667  0.56023950  0.58333333  1
  Li  Li80  1  0.43976050  0.10642716  0.58333333  1
  Li  Li81  1  0.43976050  0.33333333  0.08333333  1
  Li  Li82  1  0.66666667  0.10642716  0.08333333  1
  Li  Li83  1  0.89357284  0.56023950  0.08333333  1
  Li  Li84  1  0.56023950  0.66666667  0.91666667  1
  Li  Li85  1  0.33333333  0.89357284  0.91666667  1
  Li  Li86  1  0.10642716  0.43976050  0.91666667  1
  Li  Li87  1  0.10642716  0.66666667  0.41666667  1
  Li  Li88  1  0.33333333  0.43976050  0.41666667  1
  Li  Li89  1  0.56023950  0.89357284  0.41666667  1
