# generated using pymatgen
data_LiF
_symmetry_space_group_name_H-M   'P 1'
_cell_length_a   13.36875264
_cell_length_b   13.36875264
_cell_length_c   5.35409581
_cell_angle_alpha   90.00000000
_cell_angle_beta   90.00000000
_cell_angle_gamma   90.00000000
_symmetry_Int_Tables_number   1
_chemical_formula_structural   LiF
_chemical_formula_sum   'Li56 F56'
_cell_volume   956.90299339
_cell_formula_units_Z   56
loop_
 _symmetry_equiv_pos_site_id
 _symmetry_equiv_pos_as_xyz
  1  'x, y, z'
loop_
 _atom_site_type_symbol
 _atom_site_label
 _atom_site_symmetry_multiplicity
 _atom_site_fract_x
 _atom_site_fract_y
 _atom_site_fract_z
 _atom_site_occupancy
  F  F0  1  0.00000000  0.00000000  0.00000000  1
  F  F1  1  0.50000000  -0.00000000  0.50000000  1
  F  F2  1  0.25000000  0.75000000  0.25000000  1
  F  F3  1  0.25000000  0.25000000  0.75000000  1
  F  F4  1  0.50000000  -0.00000000  0.00000000  1
  F  F5  1  0.00000000  0.00000000  0.50000000  1
  F  F6  1  0.25000000  0.75000000  0.75000000  1
  F  F7  1  0.25000000  0.25000000  0.25000000  1
  F  F8  1  0.50000000  0.50000000  0.50000000  1
  F  F9  1  0.00000000  0.50000000  0.00000000  1
  F  F10  1  0.75000000  0.25000000  0.75000000  1
  F  F11  1  0.75000000  0.75000000  0.25000000  1
  F  F12  1  0.00000000  0.50000000  0.50000000  1
  F  F13  1  0.50000000  0.50000000  0.00000000  1
  F  F14  1  0.75000000  0.25000000  0.25000000  1
  F  F15  1  0.75000000  0.75000000  0.75000000  1
  F  F16  1  0.72999282  0.20014104  0.38417171  1
  F  F17  1  0.77000718  0.79985896  0.88417171  1
  F  F18  1  0.04985896  0.47999282  0.63417171  1
  F  F19  1  0.45014104  0.52000718  0.13417171  1
  F  F20  1  0.77000718  0.20014104  0.61582829  1
  F  F21  1  0.72999282  0.79985896  0.11582829  1
  F  F22  1  0.45014104  0.47999282  0.36582829  1
  F  F23  1  0.04985896  0.52000718  0.86582829  1
  F  F24  1  0.27000718  0.79985896  0.61582829  1
  F  F25  1  0.22999282  0.20014104  0.11582829  1
  F  F26  1  0.95014104  0.52000718  0.36582829  1
  F  F27  1  0.54985896  0.47999282  0.86582829  1
  F  F28  1  0.22999282  0.79985896  0.38417171  1
  F  F29  1  0.27000718  0.20014104  0.88417171  1
  F  F30  1  0.54985896  0.52000718  0.63417171  1
  F  F31  1  0.95014104  0.47999282  0.13417171  1
  F  F32  1  0.22999282  0.70014104  0.88417171  1
  F  F33  1  0.27000718  0.29985896  0.38417171  1
  F  F34  1  0.54985896  0.97999282  0.13417171  1
  F  F35  1  0.95014104  0.02000718  0.63417171  1
  F  F36  1  0.27000718  0.70014104  0.11582829  1
  F  F37  1  0.22999282  0.29985896  0.61582829  1
  F  F38  1  0.95014104  0.97999282  0.86582829  1
  F  F39  1  0.54985896  0.02000718  0.36582829  1
  F  F40  1  0.77000718  0.29985896  0.11582829  1
  F  F41  1  0.72999282  0.70014104  0.61582829  1
  F  F42  1  0.45014104  0.02000718  0.86582829  1
  F  F43  1  0.04985896  0.97999282  0.36582829  1
  F  F44  1  0.72999282  0.29985896  0.88417171  1
  F  F45  1  0.77000718  0.70014104  0.38417171  1
  F  F46  1  0.04985896  0.02000718  0.13417171  1
  F  F47  1  0.45014104  0.97999282  0.63417171  1
  F  F48  1  0.00000000  0.25000000  0.37500000  1
  F  F49  1  0.00000000  0.75000000  0.62500000  1
  F  F50  1  0.50000000  0.25000000  0.62500000  1
  F  F51  1  0.50000000  0.75000000  0.37500000  1
  F  F52  1  0.50000000  0.75000000  0.87500000  1
  F  F53  1  0.50000000  0.25000000  0.12500000  1
  F  F54  1  0.00000000  0.75000000  0.12500000  1
  F  F55  1  0.00000000  0.25000000  0.87500000  1
  Li  Li56  1  0.59198096  0.22254522  0.44538772  1
  Li  Li57  1  -0.09198096  -0.22254522  0.94538772  1
  Li  Li58  1  0.02745478  1.34198096  0.69538772  1
  Li  Li59  1  0.47254522  -0.34198096  1.19538772  1
  Li  Li60  1  -0.09198096  0.22254522  -0.44538772  1
  Li  Li61  1  0.59198096  -0.22254522  0.05461228  1
  Li  Li62  1  0.47254522  1.34198096  0.30461228  1
  Li  Li63  1  0.02745478  -0.34198096  -0.19538772  1
  Li  Li64  1  -0.59198096  -0.22254522  -0.44538772  1
  Li  Li65  1  1.09198096  0.22254522  0.05461228  1
  Li  Li66  1  0.97254522  -0.34198096  0.30461228  1
  Li  Li67  1  0.52745478  1.34198096  -0.19538772  1
  Li  Li68  1  1.09198096  -0.22254522  0.44538772  1
  Li  Li69  1  -0.59198096  0.22254522  0.94538772  1
  Li  Li70  1  0.52745478  -0.34198096  0.69538772  1
  Li  Li71  1  0.97254522  1.34198096  1.19538772  1
  Li  Li72  1  1.09198096  0.72254522  0.94538772  1
  Li  Li73  1  0.40801904  0.27745478  1.44538772  1
  Li  Li74  1  0.52745478  1.84198096  1.19538772  1
  Li  Li75  1  0.97254522  0.15801904  1.69538772  1
  Li  Li76  1  0.40801904  0.72254522  0.05461228  1
  Li  Li77  1  1.09198096  0.27745478  0.55461228  1
  Li  Li78  1  0.97254522  1.84198096  0.80461228  1
  Li  Li79  1  0.52745478  0.15801904  0.30461228  1
  Li  Li80  1  -0.09198096  0.27745478  0.05461228  1
  Li  Li81  1  1.59198096  0.72254522  0.55461228  1
  Li  Li82  1  1.47254522  0.15801904  0.80461228  1
  Li  Li83  1  1.02745478  1.84198096  0.30461228  1
  Li  Li84  1  1.59198096  0.27745478  0.94538772  1
  Li  Li85  1  -0.09198096  0.72254522  1.44538772  1
  Li  Li86  1  1.02745478  0.15801904  1.19538772  1
  Li  Li87  1  1.47254522  1.84198096  1.69538772  1
  Li  Li88  1  0.00000000  0.25000000  0.12500000  1
  Li  Li89  1  0.00000000  0.75000000  0.37500000  1
  Li  Li90  1  0.00000000  0.75000000  0.87500000  1
  Li  Li91  1  0.00000000  0.25000000  0.62500000  1
  Li  Li92  1  0.50000000  0.75000000  0.62500000  1
  Li  Li93  1  0.50000000  0.25000000  0.87500000  1
  Li  Li94  1  0.50000000  0.25000000  0.37500000  1
  Li  Li95  1  0.50000000  0.75000000  0.12500000  1
  Li  Li96  1  0.18553520  0.43553520  0.12500000  1
  Li  Li97  1  0.31446480  0.56446480  0.62500000  1
  Li  Li98  1  0.81446480  0.93553520  0.37500000  1
  Li  Li99  1  0.68553520  0.06446480  0.87500000  1
  Li  Li100  1  0.81446480  0.56446480  0.87500000  1
  Li  Li101  1  0.68553520  0.43553520  0.37500000  1
  Li  Li102  1  0.18553520  0.06446480  0.62500000  1
  Li  Li103  1  0.31446480  0.93553520  0.12500000  1
  Li  Li104  1  0.68553520  0.93553520  0.62500000  1
  Li  Li105  1  0.81446480  0.06446480  0.12500000  1
  Li  Li106  1  0.31446480  0.43553520  0.87500000  1
  Li  Li107  1  0.18553520  0.56446480  0.37500000  1
  Li  Li108  1  0.31446480  0.06446480  0.37500000  1
  Li  Li109  1  0.18553520  0.93553520  0.87500000  1
  Li  Li110  1  0.68553520  0.56446480  0.12500000  1
  Li  Li111  1  0.81446480  0.43553520  0.62500000  1
