# generated using pymatgen
data_LiY2Cu3(SbP)2
_symmetry_space_group_name_H-M   'P 1'
_cell_length_a   4.87869820
_cell_length_b   5.05542577
_cell_length_c   6.84922240
_cell_angle_alpha   94.77498586
_cell_angle_beta   99.69581884
_cell_angle_gamma   108.07656152
_symmetry_Int_Tables_number   1
_chemical_formula_structural   LiY2Cu3(SbP)2
_chemical_formula_sum   'Li1 Y2 Cu3 Sb2 P2'
_cell_volume   156.63305070
_cell_formula_units_Z   1
loop_
 _symmetry_equiv_pos_site_id
 _symmetry_equiv_pos_as_xyz
  1  'x, y, z'
loop_
 _atom_site_type_symbol
 _atom_site_label
 _atom_site_symmetry_multiplicity
 _atom_site_fract_x
 _atom_site_fract_y
 _atom_site_fract_z
 _atom_site_occupancy
  Cu  Cu0  1  0.12500000  0.00000000  0.25000000  1
  Cu  Cu1  1  0.00000000  0.00000000  0.00000000  1
  Cu  Cu2  1  0.37500000  0.00000000  0.25000000  1
  Y  Y3  1  0.25000000  0.25000000  0.25000000  1
  Y  Y4  1  0.00000000  0.25000000  0.12500000  1
  P  P5  1  0.67941772  0.51465707  0.82101710  1
  P  P6  1  0.61637573  0.06107273  0.18468946  1
  Li  Li7  1  0.57408457  0.40632536  0.90559085  1
  Sb  Sb8  1  0.64727994  0.99916280  0.97997673  1
  Sb  Sb9  1  0.29722259  0.97741120  0.65661064  1
