# generated using pymatgen
data_Li3Y2P3Se2
_symmetry_space_group_name_H-M   'P 1'
_cell_length_a   5.62944062
_cell_length_b   5.67194125
_cell_length_c   7.12215980
_cell_angle_alpha   93.56782540
_cell_angle_beta   97.76998199
_cell_angle_gamma   104.33053664
_symmetry_Int_Tables_number   1
_chemical_formula_structural   Li3Y2P3Se2
_chemical_formula_sum   'Li3 Y2 P3 Se2'
_cell_volume   217.22320732
_cell_formula_units_Z   1
loop_
 _symmetry_equiv_pos_site_id
 _symmetry_equiv_pos_as_xyz
  1  'x, y, z'
loop_
 _atom_site_type_symbol
 _atom_site_label
 _atom_site_symmetry_multiplicity
 _atom_site_fract_x
 _atom_site_fract_y
 _atom_site_fract_z
 _atom_site_occupancy
  Se  Se0  1  0.12500000  0.12500000  0.12500000  1
  Se  Se1  1  0.50000000  0.50000000  0.50000000  1
  Y  Y2  1  0.25000000  0.25000000  0.25000000  1
  Y  Y3  1  0.75000000  0.75000000  0.75000000  1
  P  P4  1  0.00306919  0.52015843  0.72401942  1
  P  P5  1  0.06453817  0.15129926  0.79659805  1
  P  P6  1  0.09334534  0.71586199  0.64010930  1
  Li  Li7  1  0.83390468  0.78070485  0.51238536  1
  Li  Li8  1  0.93810419  0.05383548  0.59729886  1
  Li  Li9  1  0.07090422  0.67995088  0.33522686  1
