# generated using pymatgen
data_LiF
_symmetry_space_group_name_H-M   'P 1'
_cell_length_a   13.06548126
_cell_length_b   7.54956927
_cell_length_c   10.74854235
_cell_angle_alpha   90.00000000
_cell_angle_beta   90.00000000
_cell_angle_gamma   90.00000000
_symmetry_Int_Tables_number   1
_chemical_formula_structural   LiF
_chemical_formula_sum   'Li30 F30'
_cell_volume   1060.22284434
_cell_formula_units_Z   30
loop_
 _symmetry_equiv_pos_site_id
 _symmetry_equiv_pos_as_xyz
  1  'x, y, z'
loop_
 _atom_site_type_symbol
 _atom_site_label
 _atom_site_symmetry_multiplicity
 _atom_site_fract_x
 _atom_site_fract_y
 _atom_site_fract_z
 _atom_site_occupancy
  F  F0  1  0.23663779  0.06882585  0.69680602  1
  F  F1  1  0.76336221  0.93117415  0.69680602  1
  F  F2  1  0.26336221  0.56882585  0.30319398  1
  F  F3  1  0.73663779  0.43117415  0.30319398  1
  F  F4  1  0.76336221  0.93117415  0.30319398  1
  F  F5  1  0.23663779  0.06882585  0.30319398  1
  F  F6  1  0.73663779  0.43117415  0.69680602  1
  F  F7  1  0.26336221  0.56882585  0.69680602  1
  F  F8  1  0.05039132  0.68704459  0.00000000  1
  F  F9  1  0.94960868  0.31295541  0.00000000  1
  F  F10  1  0.44960868  0.18704459  0.00000000  1
  F  F11  1  0.55039132  0.81295541  0.00000000  1
  F  F12  1  0.00000000  0.50000000  -0.00000000  1
  F  F13  1  0.50000000  0.00000000  0.00000000  1
  F  F14  1  0.17280484  0.07399463  0.17100546  1
  F  F15  1  0.82719516  0.92600537  0.17100546  1
  F  F16  1  0.32719516  0.57399463  0.82899454  1
  F  F17  1  0.67280484  0.42600537  0.82899454  1
  F  F18  1  0.82719516  0.92600537  0.82899454  1
  F  F19  1  0.17280484  0.07399463  0.82899454  1
  F  F20  1  0.67280484  0.42600537  0.17100546  1
  F  F21  1  0.32719516  0.57399463  0.17100546  1
  F  F22  1  0.22454454  0.50735081  0.50000000  1
  F  F23  1  0.77545546  0.49264919  0.50000000  1
  F  F24  1  0.27545546  0.00735081  0.50000000  1
  F  F25  1  0.72454454  0.99264919  0.50000000  1
  F  F26  1  0.39792306  0.95307277  0.00000000  1
  F  F27  1  0.60207694  0.04692723  0.00000000  1
  F  F28  1  0.10207694  0.45307277  0.00000000  1
  F  F29  1  0.89792306  0.54692723  0.00000000  1
  Li  Li30  1  0.00000000  0.00000000  0.63312557  1
  Li  Li31  1  0.50000000  0.50000000  0.36687443  1
  Li  Li32  1  0.00000000  0.00000000  0.36687443  1
  Li  Li33  1  0.50000000  0.50000000  0.63312557  1
  Li  Li34  1  0.06806411  0.23638167  0.50000000  1
  Li  Li35  1  0.93193589  0.76361833  0.50000000  1
  Li  Li36  1  0.43193589  0.73638167  0.50000000  1
  Li  Li37  1  0.56806411  0.26361833  0.50000000  1
  Li  Li38  1  0.71895225  0.33939960  0.50000000  1
  Li  Li39  1  0.28104775  0.66060040  0.50000000  1
  Li  Li40  1  0.78104775  0.83939960  0.50000000  1
  Li  Li41  1  0.21895225  0.16060040  0.50000000  1
  Li  Li42  1  0.35060164  0.89337109  0.39717652  1
  Li  Li43  1  -0.35060164  -0.89337109  0.39717652  1
  Li  Li44  1  0.14939836  1.39337109  -0.39717652  1
  Li  Li45  1  0.85060164  -0.39337109  -0.39717652  1
  Li  Li46  1  -0.35060164  -0.89337109  -0.39717652  1
  Li  Li47  1  0.35060164  0.89337109  -0.39717652  1
  Li  Li48  1  0.85060164  -0.39337109  0.39717652  1
  Li  Li49  1  0.14939836  1.39337109  0.39717652  1
  Li  Li50  1  0.00000000  0.00000000  0.50000000  1
  Li  Li51  1  0.50000000  0.50000000  0.50000000  1
  Li  Li52  1  0.04799788  0.17786587  0.00000000  1
  Li  Li53  1  0.95200212  0.82213413  0.00000000  1
  Li  Li54  1  0.45200212  0.67786587  0.00000000  1
  Li  Li55  1  0.54799788  0.32213413  0.00000000  1
  Li  Li56  1  0.00000000  0.50000000  0.50000000  1
  Li  Li57  1  0.50000000  0.00000000  0.50000000  1
  Li  Li58  1  0.00000000  0.00000000  0.00000000  1
  Li  Li59  1  0.50000000  0.50000000  0.00000000  1
