# generated using pymatgen
data_Li4TeF2
_symmetry_space_group_name_H-M   'P 1'
_cell_length_a   9.77553636
_cell_length_b   9.77553636
_cell_length_c   23.16717894
_cell_angle_alpha   90.00000000
_cell_angle_beta   90.00000000
_cell_angle_gamma   120.00000000
_symmetry_Int_Tables_number   1
_chemical_formula_structural   Li4TeF2
_chemical_formula_sum   'Li96 Te24 F48'
_cell_volume   1917.27749909
_cell_formula_units_Z   24
loop_
 _symmetry_equiv_pos_site_id
 _symmetry_equiv_pos_as_xyz
  1  'x, y, z'
loop_
 _atom_site_type_symbol
 _atom_site_label
 _atom_site_symmetry_multiplicity
 _atom_site_fract_x
 _atom_site_fract_y
 _atom_site_fract_z
 _atom_site_occupancy
  F  F0  1  0.57587113  0.03666059  0.03887252  1
  F  F1  1  -0.03666059  0.53921054  0.03887252  1
  F  F2  1  -0.53921054  -0.57587113  0.03887252  1
  F  F3  1  0.03666059  0.57587113  0.46112748  1
  F  F4  1  0.53921054  -0.03666059  0.46112748  1
  F  F5  1  -0.57587113  -0.53921054  0.46112748  1
  F  F6  1  -0.57587113  -0.03666059  -0.03887252  1
  F  F7  1  0.03666059  -0.53921054  -0.03887252  1
  F  F8  1  0.53921054  0.57587113  -0.03887252  1
  F  F9  1  -0.03666059  -0.57587113  0.53887252  1
  F  F10  1  -0.53921054  0.03666059  0.53887252  1
  F  F11  1  0.57587113  0.53921054  0.53887252  1
  F  F12  1  1.24253780  0.36999392  0.37220585  1
  F  F13  1  0.63000608  0.87254387  0.37220585  1
  F  F14  1  0.12745613  -0.24253780  0.37220585  1
  F  F15  1  0.70332726  0.90920447  0.79446081  1
  F  F16  1  1.20587721  0.29667274  0.79446081  1
  F  F17  1  0.09079553  -0.20587721  0.79446081  1
  F  F18  1  0.09079553  0.29667274  0.29446081  1
  F  F19  1  0.70332726  -0.20587721  0.29446081  1
  F  F20  1  1.20587721  0.90920447  0.29446081  1
  F  F21  1  0.63000608  -0.24253780  0.87220585  1
  F  F22  1  0.12745613  0.36999392  0.87220585  1
  F  F23  1  1.24253780  0.87254387  0.87220585  1
  F  F24  1  0.90920447  0.70332726  0.70553919  1
  F  F25  1  0.29667274  1.20587721  0.70553919  1
  F  F26  1  -0.20587721  0.09079553  0.70553919  1
  F  F27  1  0.36999392  1.24253780  1.12779415  1
  F  F28  1  0.87254387  0.63000608  1.12779415  1
  F  F29  1  -0.24253780  0.12745613  1.12779415  1
  F  F30  1  -0.24253780  0.63000608  0.62779415  1
  F  F31  1  0.36999392  0.12745613  0.62779415  1
  F  F32  1  0.87254387  1.24253780  0.62779415  1
  F  F33  1  0.29667274  0.09079553  1.20553919  1
  F  F34  1  -0.20587721  0.70332726  1.20553919  1
  F  F35  1  0.90920447  1.20587721  1.20553919  1
  F  F36  1  0.00000000  0.00000000  0.38497868  1
  F  F37  1  0.00000000  0.00000000  0.11502132  1
  F  F38  1  0.00000000  0.00000000  0.61502132  1
  F  F39  1  0.00000000  0.00000000  0.88497868  1
  F  F40  1  0.66666667  0.33333333  0.71831201  1
  F  F41  1  0.66666667  0.33333333  0.44835466  1
  F  F42  1  0.66666667  0.33333333  0.94835466  1
  F  F43  1  0.66666667  0.33333333  0.21831201  1
  F  F44  1  0.33333333  0.66666667  0.05164534  1
  F  F45  1  0.33333333  0.66666667  0.78168799  1
  F  F46  1  0.33333333  0.66666667  0.28168799  1
  F  F47  1  0.33333333  0.66666667  0.55164534  1
  Li  Li48  1  0.52396782  0.78985228  0.09196656  1
  Li  Li49  1  0.21014772  0.73411554  0.09196656  1
  Li  Li50  1  0.26588446  0.47603218  0.09196656  1
  Li  Li51  1  0.78985228  0.52396782  0.40803344  1
  Li  Li52  1  0.73411554  0.21014772  0.40803344  1
  Li  Li53  1  0.47603218  0.26588446  0.40803344  1
  Li  Li54  1  0.47603218  0.21014772  0.90803344  1
  Li  Li55  1  0.78985228  0.26588446  0.90803344  1
  Li  Li56  1  0.73411554  0.52396782  0.90803344  1
  Li  Li57  1  0.21014772  0.47603218  0.59196656  1
  Li  Li58  1  0.26588446  0.78985228  0.59196656  1
  Li  Li59  1  0.52396782  0.73411554  0.59196656  1
  Li  Li60  1  0.19063449  0.12318562  0.42529989  1
  Li  Li61  1  0.87681438  0.06744887  0.42529989  1
  Li  Li62  1  0.93255113  0.80936551  0.42529989  1
  Li  Li63  1  0.45651895  0.85730115  0.74136678  1
  Li  Li64  1  0.40078221  0.54348105  0.74136678  1
  Li  Li65  1  0.14269885  0.59921779  0.74136678  1
  Li  Li66  1  0.14269885  0.54348105  0.24136678  1
  Li  Li67  1  0.45651895  0.59921779  0.24136678  1
  Li  Li68  1  0.40078221  0.85730115  0.24136678  1
  Li  Li69  1  0.87681438  0.80936551  0.92529989  1
  Li  Li70  1  0.93255113  0.12318562  0.92529989  1
  Li  Li71  1  0.19063449  0.06744887  0.92529989  1
  Li  Li72  1  0.85730115  0.45651895  0.75863322  1
  Li  Li73  1  0.54348105  0.40078221  0.75863322  1
  Li  Li74  1  0.59921779  0.14269885  0.75863322  1
  Li  Li75  1  0.12318562  0.19063449  0.07470011  1
  Li  Li76  1  0.06744887  0.87681438  0.07470011  1
  Li  Li77  1  0.80936551  0.93255113  0.07470011  1
  Li  Li78  1  0.80936551  0.87681438  0.57470011  1
  Li  Li79  1  0.12318562  0.93255113  0.57470011  1
  Li  Li80  1  0.06744887  0.19063449  0.57470011  1
  Li  Li81  1  0.54348105  0.14269885  0.25863322  1
  Li  Li82  1  0.59921779  0.45651895  0.25863322  1
  Li  Li83  1  0.85730115  0.40078221  0.25863322  1
  Li  Li84  1  0.39511911  0.42510866  0.34809917  1
  Li  Li85  1  0.57489134  0.97001045  0.34809917  1
  Li  Li86  1  0.02998955  0.60488089  0.34809917  1
  Li  Li87  1  0.42510866  0.39511911  0.15190083  1
  Li  Li88  1  0.97001045  0.57489134  0.15190083  1
  Li  Li89  1  0.60488089  0.02998955  0.15190083  1
  Li  Li90  1  0.60488089  0.57489134  0.65190083  1
  Li  Li91  1  0.42510866  0.02998955  0.65190083  1
  Li  Li92  1  0.97001045  0.39511911  0.65190083  1
  Li  Li93  1  0.57489134  0.60488089  0.84809917  1
  Li  Li94  1  0.02998955  0.42510866  0.84809917  1
  Li  Li95  1  0.39511911  0.97001045  0.84809917  1
  Li  Li96  1  0.06178577  0.75844199  0.68143251  1
  Li  Li97  1  0.24155801  0.30334378  0.68143251  1
  Li  Li98  1  0.69665622  0.93821423  0.68143251  1
  Li  Li99  1  0.09177532  0.72845244  0.48523416  1
  Li  Li100  1  0.63667712  0.90822468  0.48523416  1
  Li  Li101  1  0.27154756  0.36332288  0.48523416  1
  Li  Li102  1  0.27154756  0.90822468  0.98523416  1
  Li  Li103  1  0.09177532  0.36332288  0.98523416  1
  Li  Li104  1  0.63667712  0.72845244  0.98523416  1
  Li  Li105  1  0.24155801  0.93821423  0.18143251  1
  Li  Li106  1  0.69665622  0.75844199  0.18143251  1
  Li  Li107  1  0.06178577  0.30334378  0.18143251  1
  Li  Li108  1  0.72845244  0.09177532  0.01476584  1
  Li  Li109  1  0.90822468  0.63667712  0.01476584  1
  Li  Li110  1  0.36332288  0.27154756  0.01476584  1
  Li  Li111  1  0.75844199  0.06178577  0.81856749  1
  Li  Li112  1  0.30334378  0.24155801  0.81856749  1
  Li  Li113  1  0.93821423  0.69665622  0.81856749  1
  Li  Li114  1  0.93821423  0.24155801  0.31856749  1
  Li  Li115  1  0.75844199  0.69665622  0.31856749  1
  Li  Li116  1  0.30334378  0.06178577  0.31856749  1
  Li  Li117  1  0.90822468  0.27154756  0.51476584  1
  Li  Li118  1  0.36332288  0.09177532  0.51476584  1
  Li  Li119  1  0.72845244  0.63667712  0.51476584  1
  Li  Li120  1  0.30644293  0.00000000  0.25000000  1
  Li  Li121  1  0.00000000  0.30644293  0.25000000  1
  Li  Li122  1  0.69355707  0.69355707  0.25000000  1
  Li  Li123  1  0.69355707  -0.00000000  0.75000000  1
  Li  Li124  1  0.00000000  0.69355707  0.75000000  1
  Li  Li125  1  0.30644293  0.30644293  0.75000000  1
  Li  Li126  1  0.97310960  0.33333333  0.58333333  1
  Li  Li127  1  0.66666667  0.63977627  0.58333333  1
  Li  Li128  1  0.36022373  0.02689040  0.58333333  1
  Li  Li129  1  0.36022373  0.33333333  0.08333333  1
  Li  Li130  1  0.66666667  0.02689040  0.08333333  1
  Li  Li131  1  0.97310960  0.63977627  0.08333333  1
  Li  Li132  1  0.63977627  0.66666667  0.91666667  1
  Li  Li133  1  0.33333333  0.97310960  0.91666667  1
  Li  Li134  1  0.02689040  0.36022373  0.91666667  1
  Li  Li135  1  0.02689040  0.66666667  0.41666667  1
  Li  Li136  1  0.33333333  0.36022373  0.41666667  1
  Li  Li137  1  0.63977627  0.97310960  0.41666667  1
  Li  Li138  1  0.00000000  0.00000000  0.25000000  1
  Li  Li139  1  0.00000000  0.00000000  0.75000000  1
  Li  Li140  1  0.66666667  0.33333333  0.58333333  1
  Li  Li141  1  0.66666667  0.33333333  0.08333333  1
  Li  Li142  1  0.33333333  0.66666667  0.91666667  1
  Li  Li143  1  0.33333333  0.66666667  0.41666667  1
  Te  Te144  1  0.50000000  -0.00000000  0.00000000  1
  Te  Te145  1  0.00000000  0.50000000  0.00000000  1
  Te  Te146  1  0.50000000  0.50000000  0.00000000  1
  Te  Te147  1  0.00000000  0.50000000  0.50000000  1
  Te  Te148  1  0.50000000  -0.00000000  0.50000000  1
  Te  Te149  1  0.50000000  0.50000000  0.50000000  1
  Te  Te150  1  0.16666667  0.33333333  0.33333333  1
  Te  Te151  1  0.66666667  0.83333333  0.33333333  1
  Te  Te152  1  0.16666667  0.83333333  0.33333333  1
  Te  Te153  1  0.66666667  0.83333333  0.83333333  1
  Te  Te154  1  0.16666667  0.33333333  0.83333333  1
  Te  Te155  1  0.16666667  0.83333333  0.83333333  1
  Te  Te156  1  0.83333333  0.66666667  0.66666667  1
  Te  Te157  1  0.33333333  0.16666667  0.66666667  1
  Te  Te158  1  0.83333333  0.16666667  0.66666667  1
  Te  Te159  1  0.33333333  0.16666667  0.16666667  1
  Te  Te160  1  0.83333333  0.66666667  0.16666667  1
  Te  Te161  1  0.83333333  0.16666667  0.16666667  1
  Te  Te162  1  0.00000000  0.00000000  0.00000000  1
  Te  Te163  1  0.00000000  0.00000000  0.50000000  1
  Te  Te164  1  0.66666667  0.33333333  0.33333333  1
  Te  Te165  1  0.66666667  0.33333333  0.83333333  1
  Te  Te166  1  0.33333333  0.66666667  0.66666667  1
  Te  Te167  1  0.33333333  0.66666667  0.16666667  1
