# generated using pymatgen
data_LiF
_symmetry_space_group_name_H-M   'P 1'
_cell_length_a   9.33869940
_cell_length_b   9.33869940
_cell_length_c   10.01794448
_cell_angle_alpha   90.00000000
_cell_angle_beta   90.00000000
_cell_angle_gamma   90.00000000
_symmetry_Int_Tables_number   1
_chemical_formula_structural   LiF
_chemical_formula_sum   'Li64 F64'
_cell_volume   873.67802624
_cell_formula_units_Z   64
loop_
 _symmetry_equiv_pos_site_id
 _symmetry_equiv_pos_as_xyz
  1  'x, y, z'
loop_
 _atom_site_type_symbol
 _atom_site_label
 _atom_site_symmetry_multiplicity
 _atom_site_fract_x
 _atom_site_fract_y
 _atom_site_fract_z
 _atom_site_occupancy
  F  F0  1  0.69531036  0.59729805  0.90336513  1
  F  F1  1  0.80468964  0.40270195  0.40336513  1
  F  F2  1  0.65270195  0.44531036  0.15336513  1
  F  F3  1  0.84729805  0.55468964  0.65336513  1
  F  F4  1  0.80468964  0.59729805  0.09663487  1
  F  F5  1  0.69531036  0.40270195  0.59663487  1
  F  F6  1  0.84729805  0.44531036  0.84663487  1
  F  F7  1  0.65270195  0.55468964  0.34663487  1
  F  F8  1  0.30468964  0.40270195  0.09663487  1
  F  F9  1  0.19531036  0.59729805  0.59663487  1
  F  F10  1  0.34729805  0.55468964  0.84663487  1
  F  F11  1  0.15270195  0.44531036  0.34663487  1
  F  F12  1  0.19531036  0.40270195  0.90336513  1
  F  F13  1  0.30468964  0.59729805  0.40336513  1
  F  F14  1  0.15270195  0.55468964  0.15336513  1
  F  F15  1  0.34729805  0.44531036  0.65336513  1
  F  F16  1  0.19531036  0.09729805  0.40336513  1
  F  F17  1  0.30468964  0.90270195  0.90336513  1
  F  F18  1  0.15270195  0.94531036  0.65336513  1
  F  F19  1  0.34729805  0.05468964  0.15336513  1
  F  F20  1  0.30468964  0.09729805  0.59663487  1
  F  F21  1  0.19531036  0.90270195  0.09663487  1
  F  F22  1  0.34729805  0.94531036  0.34663487  1
  F  F23  1  0.15270195  0.05468964  0.84663487  1
  F  F24  1  0.80468964  0.90270195  0.59663487  1
  F  F25  1  0.69531036  0.09729805  0.09663487  1
  F  F26  1  0.84729805  0.05468964  0.34663487  1
  F  F27  1  0.65270195  0.94531036  0.84663487  1
  F  F28  1  0.69531036  0.90270195  0.40336513  1
  F  F29  1  0.80468964  0.09729805  0.90336513  1
  F  F30  1  0.65270195  0.05468964  0.65336513  1
  F  F31  1  0.84729805  0.94531036  0.15336513  1
  F  F32  1  0.96750022  0.59163348  0.92101289  1
  F  F33  1  0.53249978  0.40836652  0.42101289  1
  F  F34  1  0.65836652  0.71750022  0.17101289  1
  F  F35  1  0.84163348  0.28249978  0.67101289  1
  F  F36  1  0.53249978  0.59163348  0.07898711  1
  F  F37  1  0.96750022  0.40836652  0.57898711  1
  F  F38  1  0.84163348  0.71750022  0.82898711  1
  F  F39  1  0.65836652  0.28249978  0.32898711  1
  F  F40  1  0.03249978  0.40836652  0.07898711  1
  F  F41  1  0.46750022  0.59163348  0.57898711  1
  F  F42  1  0.34163348  0.28249978  0.82898711  1
  F  F43  1  0.15836652  0.71750022  0.32898711  1
  F  F44  1  0.46750022  0.40836652  0.92101289  1
  F  F45  1  0.03249978  0.59163348  0.42101289  1
  F  F46  1  0.15836652  0.28249978  0.17101289  1
  F  F47  1  0.34163348  0.71750022  0.67101289  1
  F  F48  1  0.46750022  0.09163348  0.42101289  1
  F  F49  1  0.03249978  0.90836652  0.92101289  1
  F  F50  1  0.15836652  0.21750022  0.67101289  1
  F  F51  1  0.34163348  0.78249978  0.17101289  1
  F  F52  1  0.03249978  0.09163348  0.57898711  1
  F  F53  1  0.46750022  0.90836652  0.07898711  1
  F  F54  1  0.34163348  0.21750022  0.32898711  1
  F  F55  1  0.15836652  0.78249978  0.82898711  1
  F  F56  1  0.53249978  0.90836652  0.57898711  1
  F  F57  1  0.96750022  0.09163348  0.07898711  1
  F  F58  1  0.84163348  0.78249978  0.32898711  1
  F  F59  1  0.65836652  0.21750022  0.82898711  1
  F  F60  1  0.96750022  0.90836652  0.42101289  1
  F  F61  1  0.53249978  0.09163348  0.92101289  1
  F  F62  1  0.65836652  0.78249978  0.67101289  1
  F  F63  1  0.84163348  0.21750022  0.17101289  1
  Li  Li64  1  0.00000000  0.25000000  0.12500000  1
  Li  Li65  1  0.00000000  0.75000000  0.37500000  1
  Li  Li66  1  0.00000000  0.75000000  0.87500000  1
  Li  Li67  1  0.00000000  0.25000000  0.62500000  1
  Li  Li68  1  0.50000000  0.75000000  0.62500000  1
  Li  Li69  1  0.50000000  0.25000000  0.87500000  1
  Li  Li70  1  0.50000000  0.25000000  0.37500000  1
  Li  Li71  1  0.50000000  0.75000000  0.12500000  1
  Li  Li72  1  0.13330548  0.50776568  0.01583583  1
  Li  Li73  1  0.36669452  -0.50776568  0.51583583  1
  Li  Li74  1  -0.25776568  0.88330548  0.26583583  1
  Li  Li75  1  0.75776568  0.11669452  0.76583583  1
  Li  Li76  1  0.36669452  0.50776568  -0.01583583  1
  Li  Li77  1  0.13330548  -0.50776568  0.48416417  1
  Li  Li78  1  0.75776568  0.88330548  0.73416417  1
  Li  Li79  1  -0.25776568  0.11669452  0.23416417  1
  Li  Li80  1  -0.13330548  -0.50776568  -0.01583583  1
  Li  Li81  1  0.63330548  0.50776568  0.48416417  1
  Li  Li82  1  1.25776568  0.11669452  0.73416417  1
  Li  Li83  1  0.24223432  0.88330548  0.23416417  1
  Li  Li84  1  0.63330548  -0.50776568  0.01583583  1
  Li  Li85  1  -0.13330548  0.50776568  0.51583583  1
  Li  Li86  1  0.24223432  0.11669452  0.26583583  1
  Li  Li87  1  1.25776568  0.88330548  0.76583583  1
  Li  Li88  1  0.63330548  1.00776568  0.51583583  1
  Li  Li89  1  0.86669452  -0.00776568  1.01583583  1
  Li  Li90  1  0.24223432  1.38330548  0.76583583  1
  Li  Li91  1  1.25776568  0.61669452  1.26583583  1
  Li  Li92  1  0.86669452  1.00776568  0.48416417  1
  Li  Li93  1  0.63330548  -0.00776568  0.98416417  1
  Li  Li94  1  1.25776568  1.38330548  1.23416417  1
  Li  Li95  1  0.24223432  0.61669452  0.73416417  1
  Li  Li96  1  0.36669452  -0.00776568  0.48416417  1
  Li  Li97  1  1.13330548  1.00776568  0.98416417  1
  Li  Li98  1  1.75776568  0.61669452  1.23416417  1
  Li  Li99  1  0.74223432  1.38330548  0.73416417  1
  Li  Li100  1  1.13330548  -0.00776568  0.51583583  1
  Li  Li101  1  0.36669452  1.00776568  1.01583583  1
  Li  Li102  1  0.74223432  0.61669452  0.76583583  1
  Li  Li103  1  1.75776568  1.38330548  1.26583583  1
  Li  Li104  1  0.41375281  -0.00000000  0.25000000  1
  Li  Li105  1  0.08624719  -0.00000000  0.75000000  1
  Li  Li106  1  0.25000000  0.16375281  0.50000000  1
  Li  Li107  1  0.25000000  0.83624719  0.00000000  1
  Li  Li108  1  0.58624719  0.00000000  0.75000000  1
  Li  Li109  1  0.91375281  0.00000000  0.25000000  1
  Li  Li110  1  0.75000000  0.83624719  0.50000000  1
  Li  Li111  1  0.75000000  0.16375281  -0.00000000  1
  Li  Li112  1  0.91375281  0.50000000  0.75000000  1
  Li  Li113  1  0.58624719  0.50000000  0.25000000  1
  Li  Li114  1  0.75000000  0.66375281  -0.00000000  1
  Li  Li115  1  0.75000000  0.33624719  0.50000000  1
  Li  Li116  1  0.08624719  0.50000000  0.25000000  1
  Li  Li117  1  0.41375281  0.50000000  0.75000000  1
  Li  Li118  1  0.25000000  0.33624719  0.00000000  1
  Li  Li119  1  0.25000000  0.66375281  0.50000000  1
  Li  Li120  1  0.00000000  0.25000000  0.37500000  1
  Li  Li121  1  0.00000000  0.75000000  0.62500000  1
  Li  Li122  1  0.50000000  0.25000000  0.62500000  1
  Li  Li123  1  0.50000000  0.75000000  0.37500000  1
  Li  Li124  1  0.50000000  0.75000000  0.87500000  1
  Li  Li125  1  0.50000000  0.25000000  0.12500000  1
  Li  Li126  1  0.00000000  0.75000000  0.12500000  1
  Li  Li127  1  0.00000000  0.25000000  0.87500000  1
