# generated using pymatgen
data_LiY2MoP3
_symmetry_space_group_name_H-M   'P 1'
_cell_length_a   4.12631482
_cell_length_b   4.35099440
_cell_length_c   6.84451891
_cell_angle_alpha   96.36043305
_cell_angle_beta   103.85170088
_cell_angle_gamma   115.54733167
_symmetry_Int_Tables_number   1
_chemical_formula_structural   LiY2MoP3
_chemical_formula_sum   'Li1 Y2 Mo1 P3'
_cell_volume   104.38248770
_cell_formula_units_Z   1
loop_
 _symmetry_equiv_pos_site_id
 _symmetry_equiv_pos_as_xyz
  1  'x, y, z'
loop_
 _atom_site_type_symbol
 _atom_site_label
 _atom_site_symmetry_multiplicity
 _atom_site_fract_x
 _atom_site_fract_y
 _atom_site_fract_z
 _atom_site_occupancy
  Y  Y0  1  0.00000000  0.00000000  0.00000000  1
  Y  Y1  1  0.33300000  0.66700000  0.25000000  1
  P  P2  1  0.66700000  0.33300000  0.50000000  1
  P  P3  1  0.00000000  0.00000000  0.75000000  1
  P  P4  1  0.48437612  0.06254084  0.96597902  1
  Mo  Mo5  1  0.71112071  0.59605594  0.86171110  1
  Li  Li6  1  0.70961023  0.06491927  0.95585194  1
