# generated using pymatgen
data_Li2Y2MoP2Se
_symmetry_space_group_name_H-M   'P 1'
_cell_length_a   4.60405147
_cell_length_b   4.88779110
_cell_length_c   6.72583996
_cell_angle_alpha   95.28320475
_cell_angle_beta   100.37917250
_cell_angle_gamma   107.94682037
_symmetry_Int_Tables_number   1
_chemical_formula_structural   Li2Y2MoP2Se
_chemical_formula_sum   'Li2 Y2 Mo1 P2 Se1'
_cell_volume   139.86245754
_cell_formula_units_Z   1
loop_
 _symmetry_equiv_pos_site_id
 _symmetry_equiv_pos_as_xyz
  1  'x, y, z'
loop_
 _atom_site_type_symbol
 _atom_site_label
 _atom_site_symmetry_multiplicity
 _atom_site_fract_x
 _atom_site_fract_y
 _atom_site_fract_z
 _atom_site_occupancy
  Se  Se0  1  0.12500000  0.00000000  0.25000000  1
  P  P1  1  0.00000000  0.00000000  0.00000000  1
  P  P2  1  0.37500000  0.00000000  0.25000000  1
  Mo  Mo3  1  0.25000000  0.25000000  0.25000000  1
  Li  Li4  1  0.00000000  0.25000000  0.12500000  1
  Li  Li5  1  0.93139266  0.81487110  0.97092847  1
  Y  Y6  1  0.19170626  0.85567422  0.95341280  1
  Y  Y7  1  0.67172934  0.72738255  0.93475649  1
