# generated using pymatgen
data_LiF
_symmetry_space_group_name_H-M   'P 1'
_cell_length_a   10.85210904
_cell_length_b   10.85210904
_cell_length_c   6.26432672
_cell_angle_alpha   90.00000000
_cell_angle_beta   90.00000000
_cell_angle_gamma   90.00000000
_symmetry_Int_Tables_number   1
_chemical_formula_structural   LiF
_chemical_formula_sum   'Li24 F24'
_cell_volume   737.73892380
_cell_formula_units_Z   24
loop_
 _symmetry_equiv_pos_site_id
 _symmetry_equiv_pos_as_xyz
  1  'x, y, z'
loop_
 _atom_site_type_symbol
 _atom_site_label
 _atom_site_symmetry_multiplicity
 _atom_site_fract_x
 _atom_site_fract_y
 _atom_site_fract_z
 _atom_site_occupancy
  F  F0  1  0.93101158  0.56172641  0.88537264  1
  F  F1  1  -0.93101158  -0.56172641  0.88537264  1
  F  F2  1  -0.56172641  0.93101158  0.88537264  1
  F  F3  1  0.56172641  -0.93101158  0.88537264  1
  F  F4  1  -0.93101158  0.56172641  -0.88537264  1
  F  F5  1  0.93101158  -0.56172641  -0.88537264  1
  F  F6  1  0.56172641  0.93101158  -0.88537264  1
  F  F7  1  -0.56172641  -0.93101158  -0.88537264  1
  F  F8  1  -0.93101158  -0.56172641  -0.88537264  1
  F  F9  1  0.93101158  0.56172641  -0.88537264  1
  F  F10  1  0.56172641  -0.93101158  -0.88537264  1
  F  F11  1  -0.56172641  0.93101158  -0.88537264  1
  F  F12  1  0.93101158  -0.56172641  0.88537264  1
  F  F13  1  -0.93101158  0.56172641  0.88537264  1
  F  F14  1  -0.56172641  -0.93101158  0.88537264  1
  F  F15  1  0.56172641  0.93101158  0.88537264  1
  F  F16  1  0.00000000  0.00000000  0.00000000  1
  F  F17  1  0.90435380  0.90435380  0.50000000  1
  F  F18  1  0.09564620  0.09564620  0.50000000  1
  F  F19  1  0.09564620  0.90435380  0.50000000  1
  F  F20  1  0.90435380  0.09564620  0.50000000  1
  F  F21  1  0.00000000  0.00000000  0.84266863  1
  F  F22  1  0.00000000  0.00000000  0.15733137  1
  F  F23  1  0.00000000  0.00000000  0.50000000  1
  Li  Li24  1  0.25728396  0.50000000  0.18410974  1
  Li  Li25  1  0.74271604  0.50000000  0.18410974  1
  Li  Li26  1  0.50000000  0.25728396  0.18410974  1
  Li  Li27  1  0.50000000  0.74271604  0.18410974  1
  Li  Li28  1  0.74271604  0.50000000  0.81589026  1
  Li  Li29  1  0.25728396  0.50000000  0.81589026  1
  Li  Li30  1  0.50000000  0.25728396  0.81589026  1
  Li  Li31  1  0.50000000  0.74271604  0.81589026  1
  Li  Li32  1  0.36446015  -0.00000000  0.33569933  1
  Li  Li33  1  0.63553985  -0.00000000  0.33569933  1
  Li  Li34  1  0.00000000  0.36446015  0.33569933  1
  Li  Li35  1  0.00000000  0.63553985  0.33569933  1
  Li  Li36  1  0.63553985  -0.00000000  0.66430067  1
  Li  Li37  1  0.36446015  -0.00000000  0.66430067  1
  Li  Li38  1  0.00000000  0.36446015  0.66430067  1
  Li  Li39  1  0.00000000  0.63553985  0.66430067  1
  Li  Li40  1  0.93369575  0.30373264  0.50000000  1
  Li  Li41  1  0.06630425  0.69626736  0.50000000  1
  Li  Li42  1  0.69626736  0.93369575  0.50000000  1
  Li  Li43  1  0.30373264  0.06630425  0.50000000  1
  Li  Li44  1  0.06630425  0.30373264  0.50000000  1
  Li  Li45  1  0.93369575  0.69626736  0.50000000  1
  Li  Li46  1  0.30373264  0.93369575  0.50000000  1
  Li  Li47  1  0.69626736  0.06630425  0.50000000  1
