# generated using pymatgen
data_LiF
_symmetry_space_group_name_H-M   'P 1'
_cell_length_a   13.68812960
_cell_length_b   13.68812960
_cell_length_c   6.05211669
_cell_angle_alpha   90.00000000
_cell_angle_beta   90.00000000
_cell_angle_gamma   120.00000000
_symmetry_Int_Tables_number   1
_chemical_formula_structural   LiF
_chemical_formula_sum   'Li29 F29'
_cell_volume   982.03313400
_cell_formula_units_Z   29
loop_
 _symmetry_equiv_pos_site_id
 _symmetry_equiv_pos_as_xyz
  1  'x, y, z'
loop_
 _atom_site_type_symbol
 _atom_site_label
 _atom_site_symmetry_multiplicity
 _atom_site_fract_x
 _atom_site_fract_y
 _atom_site_fract_z
 _atom_site_occupancy
  F  F0  1  0.80461298  0.57327884  0.33866480  1
  F  F1  1  0.42672116  0.23133414  0.33866480  1
  F  F2  1  0.76866586  0.19538702  0.33866480  1
  F  F3  1  0.42672116  0.19538702  0.66133520  1
  F  F4  1  0.76866586  0.57327884  0.66133520  1
  F  F5  1  0.80461298  0.23133414  0.66133520  1
  F  F6  1  0.94582350  0.22516090  0.19278805  1
  F  F7  1  0.77483910  0.72066260  0.19278805  1
  F  F8  1  0.27933740  0.05417650  0.19278805  1
  F  F9  1  0.77483910  0.05417650  0.80721195  1
  F  F10  1  0.27933740  0.22516090  0.80721195  1
  F  F11  1  0.94582350  0.72066260  0.80721195  1
  F  F12  1  0.79974667  0.20025333  0.00000000  1
  F  F13  1  0.79974667  0.59949333  0.00000000  1
  F  F14  1  0.40050667  0.20025333  0.00000000  1
  F  F15  1  0.85792676  0.01179146  0.36214577  1
  F  F16  1  0.98820854  0.84613530  0.36214577  1
  F  F17  1  0.15386470  0.14207324  0.36214577  1
  F  F18  1  0.98820854  0.14207324  0.63785423  1
  F  F19  1  0.15386470  0.01179146  0.63785423  1
  F  F20  1  0.85792676  0.84613530  0.63785423  1
  F  F21  1  0.12731229  0.91507582  0.50502898  1
  F  F22  1  0.08492418  0.21223648  0.50502898  1
  F  F23  1  0.78776352  0.87268771  0.50502898  1
  F  F24  1  0.08492418  0.87268771  0.49497102  1
  F  F25  1  0.78776352  0.91507582  0.49497102  1
  F  F26  1  0.12731229  0.21223648  0.49497102  1
  F  F27  1  0.00000000  0.00000000  0.00000000  1
  F  F28  1  0.66666667  0.33333333  0.50000000  1
  Li  Li29  1  0.33333333  0.66666667  0.50000000  1
  Li  Li30  1  0.48820111  0.51179889  0.00000000  1
  Li  Li31  1  0.48820111  0.97640222  0.00000000  1
  Li  Li32  1  0.02359778  0.51179889  0.00000000  1
  Li  Li33  1  0.46841951  0.53158049  0.50000000  1
  Li  Li34  1  0.46841951  0.93683902  0.50000000  1
  Li  Li35  1  0.06316098  0.53158049  0.50000000  1
  Li  Li36  1  0.32174660  0.13328700  0.23730078  1
  Li  Li37  1  -0.13328700  0.18845960  0.23730078  1
  Li  Li38  1  -0.18845960  -0.32174660  0.23730078  1
  Li  Li39  1  -0.13328700  -0.32174660  -0.23730078  1
  Li  Li40  1  -0.18845960  0.13328700  -0.23730078  1
  Li  Li41  1  0.32174660  0.18845960  -0.23730078  1
  Li  Li42  1  0.66666667  0.33333333  0.00000000  1
  Li  Li43  1  0.29959548  0.70040452  0.00000000  1
  Li  Li44  1  0.29959548  0.59919096  0.00000000  1
  Li  Li45  1  0.40080904  0.70040452  0.00000000  1
  Li  Li46  1  0.11765695  0.44421260  0.38185790  1
  Li  Li47  1  0.55578740  0.67344435  0.38185790  1
  Li  Li48  1  0.32655565  0.88234305  0.38185790  1
  Li  Li49  1  0.55578740  0.88234305  0.61814210  1
  Li  Li50  1  0.32655565  0.44421260  0.61814210  1
  Li  Li51  1  0.11765695  0.67344435  0.61814210  1
  Li  Li52  1  0.67030428  0.43958791  0.97088441  1
  Li  Li53  1  0.56041209  0.23071636  0.97088441  1
  Li  Li54  1  0.76928364  0.32969572  0.97088441  1
  Li  Li55  1  0.56041209  0.32969572  0.02911559  1
  Li  Li56  1  0.76928364  0.43958791  0.02911559  1
  Li  Li57  1  0.67030428  0.23071636  0.02911559  1
