# generated using pymatgen
data_Li4TeF2
_symmetry_space_group_name_H-M   'P 1'
_cell_length_a   10.61310566
_cell_length_b   10.61310566
_cell_length_c   30.78282890
_cell_angle_alpha   90.00000000
_cell_angle_beta   90.00000000
_cell_angle_gamma   120.00000000
_symmetry_Int_Tables_number   1
_chemical_formula_structural   Li4TeF2
_chemical_formula_sum   'Li96 Te24 F48'
_cell_volume   3002.78429720
_cell_formula_units_Z   24
loop_
 _symmetry_equiv_pos_site_id
 _symmetry_equiv_pos_as_xyz
  1  'x, y, z'
loop_
 _atom_site_type_symbol
 _atom_site_label
 _atom_site_symmetry_multiplicity
 _atom_site_fract_x
 _atom_site_fract_y
 _atom_site_fract_z
 _atom_site_occupancy
  F  F0  1  0.57928028  0.00263391  0.62761619  1
  F  F1  1  -0.00263391  0.57664638  0.62761619  1
  F  F2  1  -0.57664638  -0.57928028  0.62761619  1
  F  F3  1  0.00263391  0.57928028  -0.12761619  1
  F  F4  1  0.57664638  -0.00263391  -0.12761619  1
  F  F5  1  -0.57928028  -0.57664638  -0.12761619  1
  F  F6  1  -0.57928028  -0.00263391  -0.62761619  1
  F  F7  1  0.00263391  -0.57664638  -0.62761619  1
  F  F8  1  0.57664638  0.57928028  -0.62761619  1
  F  F9  1  -0.00263391  -0.57928028  1.12761619  1
  F  F10  1  -0.57664638  0.00263391  1.12761619  1
  F  F11  1  0.57928028  0.57664638  1.12761619  1
  F  F12  1  1.24594695  0.33596724  0.96094952  1
  F  F13  1  0.66403276  0.90997971  0.96094952  1
  F  F14  1  0.09002029  -0.24594695  0.96094952  1
  F  F15  1  0.66930057  0.91261362  0.20571714  1
  F  F16  1  1.24331304  0.33069943  0.20571714  1
  F  F17  1  0.08738638  -0.24331304  0.20571714  1
  F  F18  1  0.08738638  0.33069943  -0.29428286  1
  F  F19  1  0.66930057  -0.24331304  -0.29428286  1
  F  F20  1  1.24331304  0.91261362  -0.29428286  1
  F  F21  1  0.66403276  -0.24594695  1.46094952  1
  F  F22  1  0.09002029  0.33596724  1.46094952  1
  F  F23  1  1.24594695  0.90997971  1.46094952  1
  F  F24  1  0.91261362  0.66930057  1.29428286  1
  F  F25  1  0.33069943  1.24331304  1.29428286  1
  F  F26  1  -0.24331304  0.08738638  1.29428286  1
  F  F27  1  0.33596724  1.24594695  0.53905048  1
  F  F28  1  0.90997971  0.66403276  0.53905048  1
  F  F29  1  -0.24594695  0.09002029  0.53905048  1
  F  F30  1  -0.24594695  0.66403276  0.03905048  1
  F  F31  1  0.33596724  0.09002029  0.03905048  1
  F  F32  1  0.90997971  1.24594695  0.03905048  1
  F  F33  1  0.33069943  0.08738638  1.79428286  1
  F  F34  1  -0.24331304  0.66930057  1.79428286  1
  F  F35  1  0.91261362  1.24331304  1.79428286  1
  F  F36  1  0.00000000  0.00000000  0.33091669  1
  F  F37  1  0.00000000  0.00000000  0.16908331  1
  F  F38  1  0.00000000  0.00000000  0.66908331  1
  F  F39  1  0.00000000  0.00000000  0.83091669  1
  F  F40  1  0.66666667  0.33333333  0.66425003  1
  F  F41  1  0.66666667  0.33333333  0.50241664  1
  F  F42  1  0.66666667  0.33333333  0.00241664  1
  F  F43  1  0.66666667  0.33333333  0.16425003  1
  F  F44  1  0.33333333  0.66666667  0.99758336  1
  F  F45  1  0.33333333  0.66666667  0.83574997  1
  F  F46  1  0.33333333  0.66666667  0.33574997  1
  F  F47  1  0.33333333  0.66666667  0.49758336  1
  Li  Li48  1  0.00000000  0.00000000  0.00000000  1
  Li  Li49  1  0.00000000  0.00000000  0.50000000  1
  Li  Li50  1  0.66666667  0.33333333  0.33333333  1
  Li  Li51  1  0.66666667  0.33333333  0.83333333  1
  Li  Li52  1  0.33333333  0.66666667  0.66666667  1
  Li  Li53  1  0.33333333  0.66666667  0.16666667  1
  Li  Li54  1  0.00353696  0.75268944  0.70911422  1
  Li  Li55  1  0.24731056  0.25084752  0.70911422  1
  Li  Li56  1  0.74915248  0.99646304  0.70911422  1
  Li  Li57  1  0.75268944  0.00353696  0.79088578  1
  Li  Li58  1  0.25084752  0.24731056  0.79088578  1
  Li  Li59  1  0.99646304  0.74915248  0.79088578  1
  Li  Li60  1  0.99646304  0.24731056  0.29088578  1
  Li  Li61  1  0.75268944  0.74915248  0.29088578  1
  Li  Li62  1  0.25084752  0.00353696  0.29088578  1
  Li  Li63  1  0.24731056  0.99646304  0.20911422  1
  Li  Li64  1  0.74915248  0.75268944  0.20911422  1
  Li  Li65  1  0.00353696  0.25084752  0.20911422  1
  Li  Li66  1  0.67020363  0.08602277  0.04244755  1
  Li  Li67  1  0.91397723  0.58418086  0.04244755  1
  Li  Li68  1  0.41581914  0.32979637  0.04244755  1
  Li  Li69  1  0.41935611  0.33687030  0.12421911  1
  Li  Li70  1  0.91751419  0.58064389  0.12421911  1
  Li  Li71  1  0.66312970  0.08248581  0.12421911  1
  Li  Li72  1  0.66312970  0.58064389  0.62421911  1
  Li  Li73  1  0.41935611  0.08248581  0.62421911  1
  Li  Li74  1  0.91751419  0.33687030  0.62421911  1
  Li  Li75  1  0.91397723  0.32979637  0.54244755  1
  Li  Li76  1  0.41581914  0.08602277  0.54244755  1
  Li  Li77  1  0.67020363  0.58418086  0.54244755  1
  Li  Li78  1  0.33687030  0.41935611  0.37578089  1
  Li  Li79  1  0.58064389  0.91751419  0.37578089  1
  Li  Li80  1  0.08248581  0.66312970  0.37578089  1
  Li  Li81  1  0.08602277  0.67020363  0.45755245  1
  Li  Li82  1  0.58418086  0.91397723  0.45755245  1
  Li  Li83  1  0.32979637  0.41581914  0.45755245  1
  Li  Li84  1  0.32979637  0.91397723  0.95755245  1
  Li  Li85  1  0.08602277  0.41581914  0.95755245  1
  Li  Li86  1  0.58418086  0.67020363  0.95755245  1
  Li  Li87  1  0.58064389  0.66312970  0.87578089  1
  Li  Li88  1  0.08248581  0.41935611  0.87578089  1
  Li  Li89  1  0.33687030  0.91751419  0.87578089  1
  Li  Li90  1  0.50000000  0.00000000  0.00000000  1
  Li  Li91  1  0.00000000  0.50000000  -0.00000000  1
  Li  Li92  1  0.50000000  0.50000000  0.00000000  1
  Li  Li93  1  0.00000000  0.50000000  0.50000000  1
  Li  Li94  1  0.50000000  0.00000000  0.50000000  1
  Li  Li95  1  0.50000000  0.50000000  0.50000000  1
  Li  Li96  1  0.16666667  0.33333333  0.33333333  1
  Li  Li97  1  0.66666667  0.83333333  0.33333333  1
  Li  Li98  1  0.16666667  0.83333333  0.33333333  1
  Li  Li99  1  0.66666667  0.83333333  0.83333333  1
  Li  Li100  1  0.16666667  0.33333333  0.83333333  1
  Li  Li101  1  0.16666667  0.83333333  0.83333333  1
  Li  Li102  1  0.83333333  0.66666667  0.66666667  1
  Li  Li103  1  0.33333333  0.16666667  0.66666667  1
  Li  Li104  1  0.83333333  0.16666667  0.66666667  1
  Li  Li105  1  0.33333333  0.16666667  0.16666667  1
  Li  Li106  1  0.83333333  0.66666667  0.16666667  1
  Li  Li107  1  0.83333333  0.16666667  0.16666667  1
  Li  Li108  1  0.17503105  0.98731857  0.07054060  1
  Li  Li109  1  0.01268143  0.18771248  0.07054060  1
  Li  Li110  1  0.81228752  0.82496895  0.07054060  1
  Li  Li111  1  0.98731857  0.17503105  0.42945940  1
  Li  Li112  1  0.18771248  0.01268143  0.42945940  1
  Li  Li113  1  0.82496895  0.81228752  0.42945940  1
  Li  Li114  1  0.82496895  0.01268143  0.92945940  1
  Li  Li115  1  0.98731857  0.81228752  0.92945940  1
  Li  Li116  1  0.18771248  0.17503105  0.92945940  1
  Li  Li117  1  0.01268143  0.82496895  0.57054060  1
  Li  Li118  1  0.81228752  0.98731857  0.57054060  1
  Li  Li119  1  0.17503105  0.18771248  0.57054060  1
  Li  Li120  1  0.84169771  0.32065190  0.40387393  1
  Li  Li121  1  0.67934810  0.52104581  0.40387393  1
  Li  Li122  1  0.47895419  0.15830229  0.40387393  1
  Li  Li123  1  0.65398524  0.50836438  0.76279273  1
  Li  Li124  1  0.85437914  0.34601476  0.76279273  1
  Li  Li125  1  0.49163562  0.14562086  0.76279273  1
  Li  Li126  1  0.49163562  0.34601476  0.26279273  1
  Li  Li127  1  0.65398524  0.14562086  0.26279273  1
  Li  Li128  1  0.85437914  0.50836438  0.26279273  1
  Li  Li129  1  0.67934810  0.15830229  0.90387393  1
  Li  Li130  1  0.47895419  0.32065190  0.90387393  1
  Li  Li131  1  0.84169771  0.52104581  0.90387393  1
  Li  Li132  1  0.50836438  0.65398524  0.73720727  1
  Li  Li133  1  0.34601476  0.85437914  0.73720727  1
  Li  Li134  1  0.14562086  0.49163562  0.73720727  1
  Li  Li135  1  0.32065190  0.84169771  0.09612607  1
  Li  Li136  1  0.52104581  0.67934810  0.09612607  1
  Li  Li137  1  0.15830229  0.47895419  0.09612607  1
  Li  Li138  1  0.15830229  0.67934810  0.59612607  1
  Li  Li139  1  0.32065190  0.47895419  0.59612607  1
  Li  Li140  1  0.52104581  0.84169771  0.59612607  1
  Li  Li141  1  0.34601476  0.49163562  0.23720727  1
  Li  Li142  1  0.14562086  0.65398524  0.23720727  1
  Li  Li143  1  0.50836438  0.85437914  0.23720727  1
  Te  Te144  1  0.74940515  0.00000000  0.25000000  1
  Te  Te145  1  0.00000000  0.74940515  0.25000000  1
  Te  Te146  1  0.25059485  0.25059485  0.25000000  1
  Te  Te147  1  0.25059485  -0.00000000  0.75000000  1
  Te  Te148  1  0.00000000  0.25059485  0.75000000  1
  Te  Te149  1  0.74940515  0.74940515  0.75000000  1
  Te  Te150  1  0.41607182  0.33333333  0.58333333  1
  Te  Te151  1  0.66666667  0.08273849  0.58333333  1
  Te  Te152  1  0.91726151  0.58392818  0.58333333  1
  Te  Te153  1  0.91726151  0.33333333  0.08333333  1
  Te  Te154  1  0.66666667  0.58392818  0.08333333  1
  Te  Te155  1  0.41607182  0.08273849  0.08333333  1
  Te  Te156  1  0.08273849  0.66666667  0.91666667  1
  Te  Te157  1  0.33333333  0.41607182  0.91666667  1
  Te  Te158  1  0.58392818  0.91726151  0.91666667  1
  Te  Te159  1  0.58392818  0.66666667  0.41666667  1
  Te  Te160  1  0.33333333  0.91726151  0.41666667  1
  Te  Te161  1  0.08273849  0.41607182  0.41666667  1
  Te  Te162  1  0.00000000  0.00000000  0.25000000  1
  Te  Te163  1  0.00000000  0.00000000  0.75000000  1
  Te  Te164  1  0.66666667  0.33333333  0.58333333  1
  Te  Te165  1  0.66666667  0.33333333  0.08333333  1
  Te  Te166  1  0.33333333  0.66666667  0.91666667  1
  Te  Te167  1  0.33333333  0.66666667  0.41666667  1
