# generated using pymatgen
data_LiF
_symmetry_space_group_name_H-M   'P 1'
_cell_length_a   9.74595931
_cell_length_b   9.74595931
_cell_length_c   9.74595931
_cell_angle_alpha   90.00000000
_cell_angle_beta   90.00000000
_cell_angle_gamma   90.00000000
_symmetry_Int_Tables_number   1
_chemical_formula_structural   LiF
_chemical_formula_sum   'Li48 F48'
_cell_volume   925.70749723
_cell_formula_units_Z   48
loop_
 _symmetry_equiv_pos_site_id
 _symmetry_equiv_pos_as_xyz
  1  'x, y, z'
loop_
 _atom_site_type_symbol
 _atom_site_label
 _atom_site_symmetry_multiplicity
 _atom_site_fract_x
 _atom_site_fract_y
 _atom_site_fract_z
 _atom_site_occupancy
  F  F0  1  0.74572986  0.85136769  0.30294536  1
  F  F1  1  -0.24572986  -0.85136769  0.80294536  1
  F  F2  1  -0.74572986  1.35136769  0.19705464  1
  F  F3  1  1.24572986  -0.35136769  -0.30294536  1
  F  F4  1  0.30294536  0.74572986  0.85136769  1
  F  F5  1  0.80294536  -0.24572986  -0.85136769  1
  F  F6  1  0.19705464  -0.74572986  1.35136769  1
  F  F7  1  -0.30294536  1.24572986  -0.35136769  1
  F  F8  1  0.85136769  0.30294536  0.74572986  1
  F  F9  1  -0.85136769  0.80294536  -0.24572986  1
  F  F10  1  1.35136769  0.19705464  -0.74572986  1
  F  F11  1  -0.35136769  -0.30294536  1.24572986  1
  F  F12  1  1.60136769  0.99572986  -0.05294536  1
  F  F13  1  -0.10136769  0.00427014  0.44705464  1
  F  F14  1  1.10136769  -0.49572986  1.05294536  1
  F  F15  1  -0.60136769  1.49572986  0.55294536  1
  F  F16  1  1.49572986  0.55294536  -0.60136769  1
  F  F17  1  -0.49572986  1.05294536  1.10136769  1
  F  F18  1  0.00427014  0.44705464  -0.10136769  1
  F  F19  1  0.99572986  -0.05294536  1.60136769  1
  F  F20  1  1.05294536  1.10136769  -0.49572986  1
  F  F21  1  0.55294536  -0.60136769  1.49572986  1
  F  F22  1  -0.05294536  1.60136769  0.99572986  1
  F  F23  1  0.44705464  -0.10136769  0.00427014  1
  F  F24  1  1.24572986  1.35136769  0.80294536  1
  F  F25  1  0.25427014  -0.35136769  1.30294536  1
  F  F26  1  -0.24572986  1.85136769  0.69705464  1
  F  F27  1  1.74572986  0.14863231  0.19705464  1
  F  F28  1  0.80294536  1.24572986  1.35136769  1
  F  F29  1  1.30294536  0.25427014  -0.35136769  1
  F  F30  1  0.69705464  -0.24572986  1.85136769  1
  F  F31  1  0.19705464  1.74572986  0.14863231  1
  F  F32  1  1.35136769  0.80294536  1.24572986  1
  F  F33  1  -0.35136769  1.30294536  0.25427014  1
  F  F34  1  1.85136769  0.69705464  -0.24572986  1
  F  F35  1  0.14863231  0.19705464  1.74572986  1
  F  F36  1  2.10136769  1.49572986  0.44705464  1
  F  F37  1  0.39863231  0.50427014  0.94705464  1
  F  F38  1  1.60136769  0.00427014  1.55294536  1
  F  F39  1  -0.10136769  1.99572986  1.05294536  1
  F  F40  1  1.99572986  1.05294536  -0.10136769  1
  F  F41  1  0.00427014  1.55294536  1.60136769  1
  F  F42  1  0.50427014  0.94705464  0.39863231  1
  F  F43  1  1.49572986  0.44705464  2.10136769  1
  F  F44  1  1.55294536  1.60136769  0.00427014  1
  F  F45  1  1.05294536  -0.10136769  1.99572986  1
  F  F46  1  0.44705464  2.10136769  1.49572986  1
  F  F47  1  0.94705464  0.39863231  0.50427014  1
  Li  Li48  1  0.29364540  0.29364540  0.29364540  1
  Li  Li49  1  0.20635460  0.70635460  0.79364540  1
  Li  Li50  1  0.70635460  0.79364540  0.20635460  1
  Li  Li51  1  0.79364540  0.20635460  0.70635460  1
  Li  Li52  1  0.04364540  0.54364540  0.95635460  1
  Li  Li53  1  0.45635460  0.45635460  0.45635460  1
  Li  Li54  1  0.54364540  0.95635460  0.04364540  1
  Li  Li55  1  0.95635460  0.04364540  0.54364540  1
  Li  Li56  1  0.79364540  0.79364540  0.79364540  1
  Li  Li57  1  0.70635460  0.20635460  0.29364540  1
  Li  Li58  1  0.20635460  0.29364540  0.70635460  1
  Li  Li59  1  0.29364540  0.70635460  0.20635460  1
  Li  Li60  1  0.54364540  0.04364540  0.45635460  1
  Li  Li61  1  0.95635460  0.95635460  0.95635460  1
  Li  Li62  1  0.04364540  0.45635460  0.54364540  1
  Li  Li63  1  0.45635460  0.54364540  0.04364540  1
  Li  Li64  1  0.12500000  0.31242615  0.56242615  1
  Li  Li65  1  0.37500000  0.68757385  0.06242615  1
  Li  Li66  1  0.87500000  0.81242615  0.93757385  1
  Li  Li67  1  0.62500000  0.18757385  0.43757385  1
  Li  Li68  1  0.56242615  0.12500000  0.31242615  1
  Li  Li69  1  0.06242615  0.37500000  0.68757385  1
  Li  Li70  1  0.93757385  0.87500000  0.81242615  1
  Li  Li71  1  0.43757385  0.62500000  0.18757385  1
  Li  Li72  1  0.31242615  0.56242615  0.12500000  1
  Li  Li73  1  0.68757385  0.06242615  0.37500000  1
  Li  Li74  1  0.81242615  0.93757385  0.87500000  1
  Li  Li75  1  0.18757385  0.43757385  0.62500000  1
  Li  Li76  1  0.62500000  0.81242615  0.06242615  1
  Li  Li77  1  0.87500000  0.18757385  0.56242615  1
  Li  Li78  1  0.37500000  0.31242615  0.43757385  1
  Li  Li79  1  0.12500000  0.68757385  0.93757385  1
  Li  Li80  1  0.06242615  0.62500000  0.81242615  1
  Li  Li81  1  0.56242615  0.87500000  0.18757385  1
  Li  Li82  1  0.43757385  0.37500000  0.31242615  1
  Li  Li83  1  0.93757385  0.12500000  0.68757385  1
  Li  Li84  1  0.81242615  0.06242615  0.62500000  1
  Li  Li85  1  0.18757385  0.56242615  0.87500000  1
  Li  Li86  1  0.31242615  0.43757385  0.37500000  1
  Li  Li87  1  0.68757385  0.93757385  0.12500000  1
  Li  Li88  1  0.12500000  0.12500000  0.12500000  1
  Li  Li89  1  0.37500000  0.87500000  0.62500000  1
  Li  Li90  1  0.87500000  0.62500000  0.37500000  1
  Li  Li91  1  0.62500000  0.37500000  0.87500000  1
  Li  Li92  1  0.62500000  0.62500000  0.62500000  1
  Li  Li93  1  0.87500000  0.37500000  0.12500000  1
  Li  Li94  1  0.37500000  0.12500000  0.87500000  1
  Li  Li95  1  0.12500000  0.87500000  0.37500000  1
