# generated using pymatgen
data_LiPSeF6
_symmetry_space_group_name_H-M   'P 1'
_cell_length_a   4.90110503
_cell_length_b   4.86860622
_cell_length_c   5.32531205
_cell_angle_alpha   93.39671500
_cell_angle_beta   91.33311495
_cell_angle_gamma   94.13294575
_symmetry_Int_Tables_number   1
_chemical_formula_structural   LiPSeF6
_chemical_formula_sum   'Li1 P1 Se1 F6'
_cell_volume   126.46871222
_cell_formula_units_Z   1
loop_
 _symmetry_equiv_pos_site_id
 _symmetry_equiv_pos_as_xyz
  1  'x, y, z'
loop_
 _atom_site_type_symbol
 _atom_site_label
 _atom_site_symmetry_multiplicity
 _atom_site_fract_x
 _atom_site_fract_y
 _atom_site_fract_z
 _atom_site_occupancy
  Se  Se0  1  0.00000000  0.00000000  0.00000000  1
  F  F1  1  0.33300000  0.66700000  0.25000000  1
  F  F2  1  0.66700000  0.33300000  0.50000000  1
  F  F3  1  0.00000000  0.00000000  0.75000000  1
  F  F4  1  0.13710621  0.92140077  0.37591538  1
  F  F5  1  0.64628451  0.53482308  0.00205830  1
  F  F6  1  0.41058175  0.80456720  0.26971988  1
  P  P7  1  0.26690447  0.60568334  0.57128177  1
  Li  Li8  1  0.34655594  0.36182648  0.97165369  1
