# generated using pymatgen
data_Li2Y2Te4P3
_symmetry_space_group_name_H-M   'P 1'
_cell_length_a   5.42494854
_cell_length_b   5.53794996
_cell_length_c   7.41494945
_cell_angle_alpha   94.12762940
_cell_angle_beta   98.98911872
_cell_angle_gamma   106.57904681
_symmetry_Int_Tables_number   1
_chemical_formula_structural   Li2Y2Te4P3
_chemical_formula_sum   'Li2 Y2 Te4 P3'
_cell_volume   209.27988506
_cell_formula_units_Z   1
loop_
 _symmetry_equiv_pos_site_id
 _symmetry_equiv_pos_as_xyz
  1  'x, y, z'
loop_
 _atom_site_type_symbol
 _atom_site_label
 _atom_site_symmetry_multiplicity
 _atom_site_fract_x
 _atom_site_fract_y
 _atom_site_fract_z
 _atom_site_occupancy
  Te  Te0  1  0.00000000  0.00000000  0.00000000  1
  Te  Te1  1  0.50000000  0.50000000  0.50000000  1
  Te  Te2  1  0.50000000  0.50000000  0.00000000  1
  Te  Te3  1  0.50000000  0.00000000  0.50000000  1
  P  P4  1  0.00000000  0.50000000  0.50000000  1
  P  P5  1  0.20914872  0.86489922  0.37528692  1
  P  P6  1  0.96731899  0.15208197  0.14751288  1
  Li  Li7  1  0.57017843  0.81578253  0.87209065  1
  Li  Li8  1  0.31857399  0.61606631  0.32477029  1
  Y  Y9  1  0.51481613  0.89135963  0.76291730  1
  Y  Y10  1  0.54285940  0.16985775  0.80478811  1
