# generated using pymatgen
data_Li4TeF2
_symmetry_space_group_name_H-M   'P 1'
_cell_length_a   12.30126112
_cell_length_b   12.30126112
_cell_length_c   19.31764628
_cell_angle_alpha   90.00000000
_cell_angle_beta   90.00000000
_cell_angle_gamma   90.00000000
_symmetry_Int_Tables_number   1
_chemical_formula_structural   Li4TeF2
_chemical_formula_sum   'Li96 Te24 F48'
_cell_volume   2923.16604087
_cell_formula_units_Z   24
loop_
 _symmetry_equiv_pos_site_id
 _symmetry_equiv_pos_as_xyz
  1  'x, y, z'
loop_
 _atom_site_type_symbol
 _atom_site_label
 _atom_site_symmetry_multiplicity
 _atom_site_fract_x
 _atom_site_fract_y
 _atom_site_fract_z
 _atom_site_occupancy
  F  F0  1  0.68432844  0.68432844  0.72338329  1
  F  F1  1  0.31567156  0.31567156  0.72338329  1
  F  F2  1  0.31567156  0.68432844  0.72338329  1
  F  F3  1  0.68432844  0.31567156  0.72338329  1
  F  F4  1  0.31567156  0.68432844  0.27661671  1
  F  F5  1  0.68432844  0.31567156  0.27661671  1
  F  F6  1  0.68432844  0.68432844  0.27661671  1
  F  F7  1  0.31567156  0.31567156  0.27661671  1
  F  F8  1  0.00000000  0.00000000  0.50000000  1
  F  F9  1  0.37156678  0.00000000  0.45939197  1
  F  F10  1  0.62843322  -0.00000000  0.45939197  1
  F  F11  1  0.00000000  0.37156678  0.45939197  1
  F  F12  1  0.00000000  0.62843322  0.45939197  1
  F  F13  1  0.62843322  -0.00000000  0.54060803  1
  F  F14  1  0.37156678  0.00000000  0.54060803  1
  F  F15  1  0.00000000  0.37156678  0.54060803  1
  F  F16  1  0.00000000  0.62843322  0.54060803  1
  F  F17  1  0.40905010  0.50000000  0.00000000  1
  F  F18  1  0.59094990  0.50000000  0.00000000  1
  F  F19  1  0.50000000  0.40905010  0.00000000  1
  F  F20  1  0.50000000  0.59094990  0.00000000  1
  F  F21  1  0.78381547  0.03888405  0.58288255  1
  F  F22  1  -0.78381547  -0.03888405  0.58288255  1
  F  F23  1  -0.03888405  0.78381547  0.58288255  1
  F  F24  1  0.03888405  -0.78381547  0.58288255  1
  F  F25  1  -0.78381547  0.03888405  -0.58288255  1
  F  F26  1  0.78381547  -0.03888405  -0.58288255  1
  F  F27  1  0.03888405  0.78381547  -0.58288255  1
  F  F28  1  -0.03888405  -0.78381547  -0.58288255  1
  F  F29  1  -0.78381547  -0.03888405  -0.58288255  1
  F  F30  1  0.78381547  0.03888405  -0.58288255  1
  F  F31  1  0.03888405  -0.78381547  -0.58288255  1
  F  F32  1  -0.03888405  0.78381547  -0.58288255  1
  F  F33  1  0.78381547  -0.03888405  0.58288255  1
  F  F34  1  -0.78381547  0.03888405  0.58288255  1
  F  F35  1  -0.03888405  -0.78381547  0.58288255  1
  F  F36  1  0.03888405  0.78381547  0.58288255  1
  F  F37  1  0.14515439  0.50000000  0.66749658  1
  F  F38  1  0.85484561  0.50000000  0.66749658  1
  F  F39  1  0.50000000  0.14515439  0.66749658  1
  F  F40  1  0.50000000  0.85484561  0.66749658  1
  F  F41  1  0.85484561  0.50000000  0.33250342  1
  F  F42  1  0.14515439  0.50000000  0.33250342  1
  F  F43  1  0.50000000  0.14515439  0.33250342  1
  F  F44  1  0.50000000  0.85484561  0.33250342  1
  F  F45  1  0.50000000  0.50000000  0.28889668  1
  F  F46  1  0.50000000  0.50000000  0.71110332  1
  F  F47  1  0.00000000  0.00000000  0.00000000  1
  Li  Li48  1  0.23799879  0.14638434  0.37091500  1
  Li  Li49  1  0.76200121  0.85361566  0.37091500  1
  Li  Li50  1  0.85361566  0.23799879  0.37091500  1
  Li  Li51  1  0.14638434  0.76200121  0.37091500  1
  Li  Li52  1  0.76200121  0.14638434  0.62908500  1
  Li  Li53  1  0.23799879  0.85361566  0.62908500  1
  Li  Li54  1  0.14638434  0.23799879  0.62908500  1
  Li  Li55  1  0.85361566  0.76200121  0.62908500  1
  Li  Li56  1  0.76200121  0.85361566  0.62908500  1
  Li  Li57  1  0.23799879  0.14638434  0.62908500  1
  Li  Li58  1  0.14638434  0.76200121  0.62908500  1
  Li  Li59  1  0.85361566  0.23799879  0.62908500  1
  Li  Li60  1  0.23799879  0.85361566  0.37091500  1
  Li  Li61  1  0.76200121  0.14638434  0.37091500  1
  Li  Li62  1  0.85361566  0.76200121  0.37091500  1
  Li  Li63  1  0.14638434  0.23799879  0.37091500  1
  Li  Li64  1  0.79528165  0.79528165  0.69503833  1
  Li  Li65  1  0.20471835  0.20471835  0.69503833  1
  Li  Li66  1  0.20471835  0.79528165  0.69503833  1
  Li  Li67  1  0.79528165  0.20471835  0.69503833  1
  Li  Li68  1  0.20471835  0.79528165  0.30496167  1
  Li  Li69  1  0.79528165  0.20471835  0.30496167  1
  Li  Li70  1  0.79528165  0.79528165  0.30496167  1
  Li  Li71  1  0.20471835  0.20471835  0.30496167  1
  Li  Li72  1  0.60016637  0.00000000  0.73204938  1
  Li  Li73  1  0.39983363  0.00000000  0.73204938  1
  Li  Li74  1  0.00000000  0.60016637  0.73204938  1
  Li  Li75  1  0.00000000  0.39983363  0.73204938  1
  Li  Li76  1  0.39983363  0.00000000  0.26795062  1
  Li  Li77  1  0.60016637  0.00000000  0.26795062  1
  Li  Li78  1  0.00000000  0.60016637  0.26795062  1
  Li  Li79  1  0.00000000  0.39983363  0.26795062  1
  Li  Li80  1  0.23451897  0.23451897  0.12489885  1
  Li  Li81  1  0.76548103  0.76548103  0.12489885  1
  Li  Li82  1  0.76548103  0.23451897  0.12489885  1
  Li  Li83  1  0.23451897  0.76548103  0.12489885  1
  Li  Li84  1  0.76548103  0.23451897  0.87510115  1
  Li  Li85  1  0.23451897  0.76548103  0.87510115  1
  Li  Li86  1  0.23451897  0.23451897  0.87510115  1
  Li  Li87  1  0.76548103  0.76548103  0.87510115  1
  Li  Li88  1  0.67011650  0.55586371  0.85430536  1
  Li  Li89  1  0.32988350  0.44413629  0.85430536  1
  Li  Li90  1  0.44413629  0.67011650  0.85430536  1
  Li  Li91  1  0.55586371  0.32988350  0.85430536  1
  Li  Li92  1  0.32988350  0.55586371  0.14569464  1
  Li  Li93  1  0.67011650  0.44413629  0.14569464  1
  Li  Li94  1  0.55586371  0.67011650  0.14569464  1
  Li  Li95  1  0.44413629  0.32988350  0.14569464  1
  Li  Li96  1  0.32988350  0.44413629  0.14569464  1
  Li  Li97  1  0.67011650  0.55586371  0.14569464  1
  Li  Li98  1  0.55586371  0.32988350  0.14569464  1
  Li  Li99  1  0.44413629  0.67011650  0.14569464  1
  Li  Li100  1  0.67011650  0.44413629  0.85430536  1
  Li  Li101  1  0.32988350  0.55586371  0.85430536  1
  Li  Li102  1  0.44413629  0.32988350  0.85430536  1
  Li  Li103  1  0.55586371  0.67011650  0.85430536  1
  Li  Li104  1  0.50000000  0.50000000  0.38488640  1
  Li  Li105  1  0.50000000  0.50000000  0.61511360  1
  Li  Li106  1  0.41138142  0.26277358  0.24674392  1
  Li  Li107  1  0.58861858  0.73722642  0.24674392  1
  Li  Li108  1  0.73722642  0.41138142  0.24674392  1
  Li  Li109  1  0.26277358  0.58861858  0.24674392  1
  Li  Li110  1  0.58861858  0.26277358  0.75325608  1
  Li  Li111  1  0.41138142  0.73722642  0.75325608  1
  Li  Li112  1  0.26277358  0.41138142  0.75325608  1
  Li  Li113  1  0.73722642  0.58861858  0.75325608  1
  Li  Li114  1  0.58861858  0.73722642  0.75325608  1
  Li  Li115  1  0.41138142  0.26277358  0.75325608  1
  Li  Li116  1  0.26277358  0.58861858  0.75325608  1
  Li  Li117  1  0.73722642  0.41138142  0.75325608  1
  Li  Li118  1  0.41138142  0.73722642  0.24674392  1
  Li  Li119  1  0.58861858  0.26277358  0.24674392  1
  Li  Li120  1  0.73722642  0.58861858  0.24674392  1
  Li  Li121  1  0.26277358  0.41138142  0.24674392  1
  Li  Li122  1  0.11601652  0.21955585  0.85237755  1
  Li  Li123  1  0.88398348  0.78044415  0.85237755  1
  Li  Li124  1  0.78044415  0.11601652  0.85237755  1
  Li  Li125  1  0.21955585  0.88398348  0.85237755  1
  Li  Li126  1  0.88398348  0.21955585  0.14762245  1
  Li  Li127  1  0.11601652  0.78044415  0.14762245  1
  Li  Li128  1  0.21955585  0.11601652  0.14762245  1
  Li  Li129  1  0.78044415  0.88398348  0.14762245  1
  Li  Li130  1  0.88398348  0.78044415  0.14762245  1
  Li  Li131  1  0.11601652  0.21955585  0.14762245  1
  Li  Li132  1  0.21955585  0.88398348  0.14762245  1
  Li  Li133  1  0.78044415  0.11601652  0.14762245  1
  Li  Li134  1  0.11601652  0.78044415  0.85237755  1
  Li  Li135  1  0.88398348  0.21955585  0.85237755  1
  Li  Li136  1  0.78044415  0.88398348  0.85237755  1
  Li  Li137  1  0.21955585  0.11601652  0.85237755  1
  Li  Li138  1  0.87351179  0.87351179  0.00000000  1
  Li  Li139  1  0.12648821  0.12648821  0.00000000  1
  Li  Li140  1  0.12648821  0.87351179  0.00000000  1
  Li  Li141  1  0.87351179  0.12648821  -0.00000000  1
  Li  Li142  1  0.00000000  0.50000000  0.50000000  1
  Li  Li143  1  0.50000000  -0.00000000  0.50000000  1
  Te  Te144  1  0.24701231  0.58887745  0.10050513  1
  Te  Te145  1  0.75298769  0.41112255  0.10050513  1
  Te  Te146  1  0.41112255  0.24701231  0.10050513  1
  Te  Te147  1  0.58887745  0.75298769  0.10050513  1
  Te  Te148  1  0.75298769  0.58887745  0.89949487  1
  Te  Te149  1  0.24701231  0.41112255  0.89949487  1
  Te  Te150  1  0.58887745  0.24701231  0.89949487  1
  Te  Te151  1  0.41112255  0.75298769  0.89949487  1
  Te  Te152  1  0.75298769  0.41112255  0.89949487  1
  Te  Te153  1  0.24701231  0.58887745  0.89949487  1
  Te  Te154  1  0.58887745  0.75298769  0.89949487  1
  Te  Te155  1  0.41112255  0.24701231  0.89949487  1
  Te  Te156  1  0.24701231  0.41112255  0.10050513  1
  Te  Te157  1  0.75298769  0.58887745  0.10050513  1
  Te  Te158  1  0.41112255  0.75298769  0.10050513  1
  Te  Te159  1  0.58887745  0.24701231  0.10050513  1
  Te  Te160  1  0.26969571  0.00000000  0.22765624  1
  Te  Te161  1  0.73030429  0.00000000  0.22765624  1
  Te  Te162  1  0.00000000  0.26969571  0.22765624  1
  Te  Te163  1  0.00000000  0.73030429  0.22765624  1
  Te  Te164  1  0.73030429  0.00000000  0.77234376  1
  Te  Te165  1  0.26969571  0.00000000  0.77234376  1
  Te  Te166  1  0.00000000  0.26969571  0.77234376  1
  Te  Te167  1  0.00000000  0.73030429  0.77234376  1
