# generated using pymatgen
data_LiF
_symmetry_space_group_name_H-M   'P 1'
_cell_length_a   11.03771381
_cell_length_b   9.10441509
_cell_length_c   11.04368468
_cell_angle_alpha   90.00000000
_cell_angle_beta   90.00000000
_cell_angle_gamma   90.00000000
_symmetry_Int_Tables_number   1
_chemical_formula_structural   LiF
_chemical_formula_sum   'Li28 F28'
_cell_volume   1109.80116758
_cell_formula_units_Z   28
loop_
 _symmetry_equiv_pos_site_id
 _symmetry_equiv_pos_as_xyz
  1  'x, y, z'
loop_
 _atom_site_type_symbol
 _atom_site_label
 _atom_site_symmetry_multiplicity
 _atom_site_fract_x
 _atom_site_fract_y
 _atom_site_fract_z
 _atom_site_occupancy
  F  F0  1  0.83889608  0.20799907  0.50000000  1
  F  F1  1  0.16110392  0.79200093  0.50000000  1
  F  F2  1  0.66110392  0.70799907  0.50000000  1
  F  F3  1  0.33889608  0.29200093  0.50000000  1
  F  F4  1  0.87540213  0.60296337  0.05708101  1
  F  F5  1  0.12459787  0.39703663  0.05708101  1
  F  F6  1  0.62459787  0.10296337  0.94291899  1
  F  F7  1  0.37540213  0.89703663  0.94291899  1
  F  F8  1  0.12459787  0.39703663  0.94291899  1
  F  F9  1  0.87540213  0.60296337  0.94291899  1
  F  F10  1  0.37540213  0.89703663  0.05708101  1
  F  F11  1  0.62459787  0.10296337  0.05708101  1
  F  F12  1  0.20717386  0.67566372  0.86902189  1
  F  F13  1  0.79282614  0.32433628  0.86902189  1
  F  F14  1  0.29282614  0.17566372  0.13097811  1
  F  F15  1  0.70717386  0.82433628  0.13097811  1
  F  F16  1  0.79282614  0.32433628  0.13097811  1
  F  F17  1  0.20717386  0.67566372  0.13097811  1
  F  F18  1  0.70717386  0.82433628  0.86902189  1
  F  F19  1  0.29282614  0.17566372  0.86902189  1
  F  F20  1  0.72787123  0.16921089  0.00000000  1
  F  F21  1  0.27212877  0.83078911  0.00000000  1
  F  F22  1  0.77212877  0.66921089  -0.00000000  1
  F  F23  1  0.22787123  0.33078911  0.00000000  1
  F  F24  1  0.00000000  0.50000000  0.00000000  1
  F  F25  1  0.50000000  0.00000000  0.00000000  1
  F  F26  1  0.00000000  0.00000000  0.50000000  1
  F  F27  1  0.50000000  0.50000000  0.50000000  1
  Li  Li28  1  0.00000000  0.50000000  0.50000000  1
  Li  Li29  1  0.50000000  0.00000000  0.50000000  1
  Li  Li30  1  0.65836554  0.73633249  0.19626899  1
  Li  Li31  1  -0.65836554  -0.73633249  0.19626899  1
  Li  Li32  1  -0.15836554  1.23633249  -0.19626899  1
  Li  Li33  1  1.15836554  -0.23633249  -0.19626899  1
  Li  Li34  1  -0.65836554  -0.73633249  -0.19626899  1
  Li  Li35  1  0.65836554  0.73633249  -0.19626899  1
  Li  Li36  1  1.15836554  -0.23633249  0.19626899  1
  Li  Li37  1  -0.15836554  1.23633249  0.19626899  1
  Li  Li38  1  0.00000000  0.00000000  0.77653087  1
  Li  Li39  1  0.50000000  0.50000000  0.22346913  1
  Li  Li40  1  0.00000000  0.00000000  0.22346913  1
  Li  Li41  1  0.50000000  0.50000000  0.77653087  1
  Li  Li42  1  0.21616600  0.91774742  0.50000000  1
  Li  Li43  1  0.78383400  0.08225258  0.50000000  1
  Li  Li44  1  0.28383400  0.41774742  0.50000000  1
  Li  Li45  1  0.71616600  0.58225258  0.50000000  1
  Li  Li46  1  0.00000000  0.00000000  0.00000000  1
  Li  Li47  1  0.50000000  0.50000000  0.00000000  1
  Li  Li48  1  0.14875430  0.31228003  0.15753562  1
  Li  Li49  1  0.85124570  0.68771997  0.15753562  1
  Li  Li50  1  0.35124570  0.81228003  0.84246438  1
  Li  Li51  1  0.64875430  0.18771997  0.84246438  1
  Li  Li52  1  0.85124570  0.68771997  0.84246438  1
  Li  Li53  1  0.14875430  0.31228003  0.84246438  1
  Li  Li54  1  0.64875430  0.18771997  0.15753562  1
  Li  Li55  1  0.35124570  0.81228003  0.15753562  1
