# generated using pymatgen
data_LiF
_symmetry_space_group_name_H-M   'P 1'
_cell_length_a   8.10661221
_cell_length_b   9.28026325
_cell_length_c   7.81210835
_cell_angle_alpha   90.00000000
_cell_angle_beta   90.00000000
_cell_angle_gamma   90.00000000
_symmetry_Int_Tables_number   1
_chemical_formula_structural   LiF
_chemical_formula_sum   'Li26 F26'
_cell_volume   587.71659329
_cell_formula_units_Z   26
loop_
 _symmetry_equiv_pos_site_id
 _symmetry_equiv_pos_as_xyz
  1  'x, y, z'
loop_
 _atom_site_type_symbol
 _atom_site_label
 _atom_site_symmetry_multiplicity
 _atom_site_fract_x
 _atom_site_fract_y
 _atom_site_fract_z
 _atom_site_occupancy
  F  F0  1  0.36514334  0.15935304  0.00000000  1
  F  F1  1  0.63485666  0.84064696  0.00000000  1
  F  F2  1  0.13485666  0.65935304  0.00000000  1
  F  F3  1  0.86514334  0.34064696  0.00000000  1
  F  F4  1  0.60823310  0.01741083  0.00000000  1
  F  F5  1  0.39176690  0.98258917  0.00000000  1
  F  F6  1  0.89176690  0.51741083  0.00000000  1
  F  F7  1  0.10823310  0.48258917  0.00000000  1
  F  F8  1  0.56730029  0.33198573  0.11041918  1
  F  F9  1  -0.56730029  -0.33198573  0.11041918  1
  F  F10  1  -0.06730029  0.83198573  -0.11041918  1
  F  F11  1  1.06730029  0.16801427  -0.11041918  1
  F  F12  1  -0.56730029  -0.33198573  -0.11041918  1
  F  F13  1  0.56730029  0.33198573  -0.11041918  1
  F  F14  1  1.06730029  0.16801427  0.11041918  1
  F  F15  1  -0.06730029  0.83198573  0.11041918  1
  F  F16  1  0.00000000  0.50000000  0.10754257  1
  F  F17  1  0.50000000  0.00000000  0.89245743  1
  F  F18  1  0.00000000  0.50000000  0.89245743  1
  F  F19  1  0.50000000  0.00000000  0.10754257  1
  F  F20  1  0.00000000  0.50000000  0.50000000  1
  F  F21  1  0.50000000  0.00000000  0.50000000  1
  F  F22  1  0.00000000  0.00000000  0.93583746  1
  F  F23  1  0.50000000  0.50000000  0.06416254  1
  F  F24  1  0.00000000  0.00000000  0.06416254  1
  F  F25  1  0.50000000  0.50000000  0.93583746  1
  Li  Li26  1  0.31279263  0.95710406  0.59145010  1
  Li  Li27  1  0.68720737  0.04289594  0.59145010  1
  Li  Li28  1  0.18720737  0.45710406  0.40854990  1
  Li  Li29  1  0.81279263  0.54289594  0.40854990  1
  Li  Li30  1  0.68720737  0.04289594  0.40854990  1
  Li  Li31  1  0.31279263  0.95710406  0.40854990  1
  Li  Li32  1  0.81279263  0.54289594  0.59145010  1
  Li  Li33  1  0.18720737  0.45710406  0.59145010  1
  Li  Li34  1  0.65283694  0.69311048  0.59009627  1
  Li  Li35  1  0.34716306  0.30688952  0.59009627  1
  Li  Li36  1  0.84716306  0.19311048  0.40990373  1
  Li  Li37  1  0.15283694  0.80688952  0.40990373  1
  Li  Li38  1  0.34716306  0.30688952  0.40990373  1
  Li  Li39  1  0.65283694  0.69311048  0.40990373  1
  Li  Li40  1  0.15283694  0.80688952  0.59009627  1
  Li  Li41  1  0.84716306  0.19311048  0.59009627  1
  Li  Li42  1  0.00000000  0.50000000  0.71988714  1
  Li  Li43  1  0.50000000  0.00000000  0.28011286  1
  Li  Li44  1  0.00000000  0.50000000  0.28011286  1
  Li  Li45  1  0.50000000  0.00000000  0.71988714  1
  Li  Li46  1  0.00000000  0.00000000  0.66899040  1
  Li  Li47  1  0.50000000  0.50000000  0.33100960  1
  Li  Li48  1  0.00000000  0.00000000  0.33100960  1
  Li  Li49  1  0.50000000  0.50000000  0.66899040  1
  Li  Li50  1  0.00000000  0.00000000  0.50000000  1
  Li  Li51  1  0.50000000  0.50000000  0.50000000  1
