# generated using pymatgen
data_Li4TeF2
_symmetry_space_group_name_H-M   'P 1'
_cell_length_a   10.56985481
_cell_length_b   10.56985481
_cell_length_c   25.09475069
_cell_angle_alpha   90.00000000
_cell_angle_beta   90.00000000
_cell_angle_gamma   90.00000000
_symmetry_Int_Tables_number   1
_chemical_formula_structural   Li4TeF2
_chemical_formula_sum   'Li96 Te24 F48'
_cell_volume   2803.63148677
_cell_formula_units_Z   24
loop_
 _symmetry_equiv_pos_site_id
 _symmetry_equiv_pos_as_xyz
  1  'x, y, z'
loop_
 _atom_site_type_symbol
 _atom_site_label
 _atom_site_symmetry_multiplicity
 _atom_site_fract_x
 _atom_site_fract_y
 _atom_site_fract_z
 _atom_site_occupancy
  F  F0  1  0.68108613  0.00000000  0.69448799  1
  F  F1  1  0.31891387  0.00000000  0.69448799  1
  F  F2  1  0.00000000  0.68108613  0.69448799  1
  F  F3  1  0.00000000  0.31891387  0.69448799  1
  F  F4  1  0.31891387  0.00000000  0.30551201  1
  F  F5  1  0.68108613  0.00000000  0.30551201  1
  F  F6  1  0.00000000  0.68108613  0.30551201  1
  F  F7  1  0.00000000  0.31891387  0.30551201  1
  F  F8  1  0.24025932  0.50000000  0.50000000  1
  F  F9  1  0.75974068  0.50000000  0.50000000  1
  F  F10  1  0.50000000  0.24025932  0.50000000  1
  F  F11  1  0.50000000  0.75974068  0.50000000  1
  F  F12  1  0.59345930  0.59345930  0.78417568  1
  F  F13  1  0.40654070  0.40654070  0.78417568  1
  F  F14  1  0.40654070  0.59345930  0.78417568  1
  F  F15  1  0.59345930  0.40654070  0.78417568  1
  F  F16  1  0.40654070  0.59345930  0.21582432  1
  F  F17  1  0.59345930  0.40654070  0.21582432  1
  F  F18  1  0.59345930  0.59345930  0.21582432  1
  F  F19  1  0.40654070  0.40654070  0.21582432  1
  F  F20  1  0.24972164  0.16199237  0.40307680  1
  F  F21  1  -0.24972164  -0.16199237  0.40307680  1
  F  F22  1  -0.16199237  0.24972164  0.40307680  1
  F  F23  1  0.16199237  -0.24972164  0.40307680  1
  F  F24  1  -0.24972164  0.16199237  -0.40307680  1
  F  F25  1  0.24972164  -0.16199237  -0.40307680  1
  F  F26  1  0.16199237  0.24972164  -0.40307680  1
  F  F27  1  -0.16199237  -0.24972164  -0.40307680  1
  F  F28  1  -0.24972164  -0.16199237  -0.40307680  1
  F  F29  1  0.24972164  0.16199237  -0.40307680  1
  F  F30  1  0.16199237  -0.24972164  -0.40307680  1
  F  F31  1  -0.16199237  0.24972164  -0.40307680  1
  F  F32  1  0.24972164  -0.16199237  0.40307680  1
  F  F33  1  -0.24972164  0.16199237  0.40307680  1
  F  F34  1  -0.16199237  -0.24972164  0.40307680  1
  F  F35  1  0.16199237  0.24972164  0.40307680  1
  F  F36  1  0.68944687  0.20712645  0.50000000  1
  F  F37  1  0.31055313  0.79287355  0.50000000  1
  F  F38  1  0.79287355  0.68944687  0.50000000  1
  F  F39  1  0.20712645  0.31055313  0.50000000  1
  F  F40  1  0.31055313  0.20712645  0.50000000  1
  F  F41  1  0.68944687  0.79287355  0.50000000  1
  F  F42  1  0.20712645  0.68944687  0.50000000  1
  F  F43  1  0.79287355  0.31055313  0.50000000  1
  F  F44  1  0.05431291  0.00000000  0.00000000  1
  F  F45  1  0.94568709  0.00000000  0.00000000  1
  F  F46  1  0.00000000  0.05431291  0.00000000  1
  F  F47  1  0.00000000  0.94568709  0.00000000  1
  Li  Li48  1  0.78516339  0.78516339  0.21932089  1
  Li  Li49  1  0.21483661  0.21483661  0.21932089  1
  Li  Li50  1  0.21483661  0.78516339  0.21932089  1
  Li  Li51  1  0.78516339  0.21483661  0.21932089  1
  Li  Li52  1  0.21483661  0.78516339  0.78067911  1
  Li  Li53  1  0.78516339  0.21483661  0.78067911  1
  Li  Li54  1  0.78516339  0.78516339  0.78067911  1
  Li  Li55  1  0.21483661  0.21483661  0.78067911  1
  Li  Li56  1  0.00000000  0.00000000  0.56970034  1
  Li  Li57  1  0.00000000  0.00000000  0.43029966  1
  Li  Li58  1  0.66755023  0.66755023  0.93035913  1
  Li  Li59  1  0.33244977  0.33244977  0.93035913  1
  Li  Li60  1  0.33244977  0.66755023  0.93035913  1
  Li  Li61  1  0.66755023  0.33244977  0.93035913  1
  Li  Li62  1  0.33244977  0.66755023  0.06964087  1
  Li  Li63  1  0.66755023  0.33244977  0.06964087  1
  Li  Li64  1  0.66755023  0.66755023  0.06964087  1
  Li  Li65  1  0.33244977  0.33244977  0.06964087  1
  Li  Li66  1  0.34645500  0.81343603  0.73349916  1
  Li  Li67  1  0.65354500  0.18656397  0.73349916  1
  Li  Li68  1  0.18656397  0.34645500  0.73349916  1
  Li  Li69  1  0.81343603  0.65354500  0.73349916  1
  Li  Li70  1  0.65354500  0.81343603  0.26650084  1
  Li  Li71  1  0.34645500  0.18656397  0.26650084  1
  Li  Li72  1  0.81343603  0.34645500  0.26650084  1
  Li  Li73  1  0.18656397  0.65354500  0.26650084  1
  Li  Li74  1  0.65354500  0.18656397  0.26650084  1
  Li  Li75  1  0.34645500  0.81343603  0.26650084  1
  Li  Li76  1  0.81343603  0.65354500  0.26650084  1
  Li  Li77  1  0.18656397  0.34645500  0.26650084  1
  Li  Li78  1  0.34645500  0.18656397  0.73349916  1
  Li  Li79  1  0.65354500  0.81343603  0.73349916  1
  Li  Li80  1  0.18656397  0.65354500  0.73349916  1
  Li  Li81  1  0.81343603  0.34645500  0.73349916  1
  Li  Li82  1  0.59361152  0.82167568  0.38454939  1
  Li  Li83  1  0.40638848  0.17832432  0.38454939  1
  Li  Li84  1  0.17832432  0.59361152  0.38454939  1
  Li  Li85  1  0.82167568  0.40638848  0.38454939  1
  Li  Li86  1  0.40638848  0.82167568  0.61545061  1
  Li  Li87  1  0.59361152  0.17832432  0.61545061  1
  Li  Li88  1  0.82167568  0.59361152  0.61545061  1
  Li  Li89  1  0.17832432  0.40638848  0.61545061  1
  Li  Li90  1  0.40638848  0.17832432  0.61545061  1
  Li  Li91  1  0.59361152  0.82167568  0.61545061  1
  Li  Li92  1  0.82167568  0.40638848  0.61545061  1
  Li  Li93  1  0.17832432  0.59361152  0.61545061  1
  Li  Li94  1  0.59361152  0.17832432  0.38454939  1
  Li  Li95  1  0.40638848  0.82167568  0.38454939  1
  Li  Li96  1  0.17832432  0.40638848  0.38454939  1
  Li  Li97  1  0.82167568  0.59361152  0.38454939  1
  Li  Li98  1  0.22689838  0.00000000  0.54910618  1
  Li  Li99  1  0.77310162  0.00000000  0.54910618  1
  Li  Li100  1  0.00000000  0.22689838  0.54910618  1
  Li  Li101  1  0.00000000  0.77310162  0.54910618  1
  Li  Li102  1  0.77310162  0.00000000  0.45089382  1
  Li  Li103  1  0.22689838  0.00000000  0.45089382  1
  Li  Li104  1  0.00000000  0.22689838  0.45089382  1
  Li  Li105  1  0.00000000  0.77310162  0.45089382  1
  Li  Li106  1  0.30958699  0.08660580  0.13197108  1
  Li  Li107  1  0.69041301  0.91339420  0.13197108  1
  Li  Li108  1  0.91339420  0.30958699  0.13197108  1
  Li  Li109  1  0.08660580  0.69041301  0.13197108  1
  Li  Li110  1  0.69041301  0.08660580  0.86802892  1
  Li  Li111  1  0.30958699  0.91339420  0.86802892  1
  Li  Li112  1  0.08660580  0.30958699  0.86802892  1
  Li  Li113  1  0.91339420  0.69041301  0.86802892  1
  Li  Li114  1  0.69041301  0.91339420  0.86802892  1
  Li  Li115  1  0.30958699  0.08660580  0.86802892  1
  Li  Li116  1  0.08660580  0.69041301  0.86802892  1
  Li  Li117  1  0.91339420  0.30958699  0.86802892  1
  Li  Li118  1  0.30958699  0.91339420  0.13197108  1
  Li  Li119  1  0.69041301  0.08660580  0.13197108  1
  Li  Li120  1  0.91339420  0.69041301  0.13197108  1
  Li  Li121  1  0.08660580  0.30958699  0.13197108  1
  Li  Li122  1  0.87857226  0.50000000  0.32473607  1
  Li  Li123  1  0.12142774  0.50000000  0.32473607  1
  Li  Li124  1  0.50000000  0.87857226  0.32473607  1
  Li  Li125  1  0.50000000  0.12142774  0.32473607  1
  Li  Li126  1  0.12142774  0.50000000  0.67526393  1
  Li  Li127  1  0.87857226  0.50000000  0.67526393  1
  Li  Li128  1  0.50000000  0.87857226  0.67526393  1
  Li  Li129  1  0.50000000  0.12142774  0.67526393  1
  Li  Li130  1  0.82400355  0.82400355  0.50000000  1
  Li  Li131  1  0.17599645  0.17599645  0.50000000  1
  Li  Li132  1  0.17599645  0.82400355  0.50000000  1
  Li  Li133  1  0.82400355  0.17599645  0.50000000  1
  Li  Li134  1  0.30980480  0.30980480  0.73529587  1
  Li  Li135  1  0.69019520  0.69019520  0.73529587  1
  Li  Li136  1  0.69019520  0.30980480  0.73529587  1
  Li  Li137  1  0.30980480  0.69019520  0.73529587  1
  Li  Li138  1  0.69019520  0.30980480  0.26470413  1
  Li  Li139  1  0.30980480  0.69019520  0.26470413  1
  Li  Li140  1  0.30980480  0.30980480  0.26470413  1
  Li  Li141  1  0.69019520  0.69019520  0.26470413  1
  Li  Li142  1  0.00000000  0.00000000  0.71525930  1
  Li  Li143  1  0.00000000  0.00000000  0.28474070  1
  Te  Te144  1  0.00000000  0.50000000  0.50000000  1
  Te  Te145  1  0.50000000  0.00000000  0.50000000  1
  Te  Te146  1  0.28009855  0.40325654  0.87979655  1
  Te  Te147  1  0.71990145  0.59674346  0.87979655  1
  Te  Te148  1  0.59674346  0.28009855  0.87979655  1
  Te  Te149  1  0.40325654  0.71990145  0.87979655  1
  Te  Te150  1  0.71990145  0.40325654  0.12020345  1
  Te  Te151  1  0.28009855  0.59674346  0.12020345  1
  Te  Te152  1  0.40325654  0.28009855  0.12020345  1
  Te  Te153  1  0.59674346  0.71990145  0.12020345  1
  Te  Te154  1  0.71990145  0.59674346  0.12020345  1
  Te  Te155  1  0.28009855  0.40325654  0.12020345  1
  Te  Te156  1  0.40325654  0.71990145  0.12020345  1
  Te  Te157  1  0.59674346  0.28009855  0.12020345  1
  Te  Te158  1  0.28009855  0.59674346  0.87979655  1
  Te  Te159  1  0.71990145  0.40325654  0.87979655  1
  Te  Te160  1  0.59674346  0.71990145  0.87979655  1
  Te  Te161  1  0.40325654  0.28009855  0.87979655  1
  Te  Te162  1  0.50000000  0.50000000  0.50000000  1
  Te  Te163  1  0.34766207  0.50000000  0.00000000  1
  Te  Te164  1  0.65233793  0.50000000  0.00000000  1
  Te  Te165  1  0.50000000  0.34766207  0.00000000  1
  Te  Te166  1  0.50000000  0.65233793  0.00000000  1
  Te  Te167  1  0.00000000  0.00000000  0.50000000  1
