# generated using pymatgen
data_LiY2(PSe)2
_symmetry_space_group_name_H-M   'P 1'
_cell_length_a   5.52209456
_cell_length_b   5.69197258
_cell_length_c   7.27650233
_cell_angle_alpha   93.90147592
_cell_angle_beta   98.49660344
_cell_angle_gamma   105.67067814
_symmetry_Int_Tables_number   1
_chemical_formula_structural   LiY2(PSe)2
_chemical_formula_sum   'Li1 Y2 P2 Se2'
_cell_volume   216.39014822
_cell_formula_units_Z   1
loop_
 _symmetry_equiv_pos_site_id
 _symmetry_equiv_pos_as_xyz
  1  'x, y, z'
loop_
 _atom_site_type_symbol
 _atom_site_label
 _atom_site_symmetry_multiplicity
 _atom_site_fract_x
 _atom_site_fract_y
 _atom_site_fract_z
 _atom_site_occupancy
  Se  Se0  1  0.00000000  0.00000000  0.00000000  1
  Se  Se1  1  0.50000000  0.50000000  0.50000000  1
  Y  Y2  1  0.25000000  0.25000000  0.25000000  1
  Y  Y3  1  0.75000000  0.25000000  0.00000000  1
  P  P4  1  0.25000000  0.75000000  0.50000000  1
  P  P5  1  0.80328248  0.28415581  0.72513797  1
  Li  Li6  1  0.31952362  0.55408287  0.19358787  1
