# generated using pymatgen
data_LiY2P3Se2
_symmetry_space_group_name_H-M   'P 1'
_cell_length_a   5.18387667
_cell_length_b   5.30359916
_cell_length_c   7.10762314
_cell_angle_alpha   94.44958007
_cell_angle_beta   99.69026033
_cell_angle_gamma   107.87219467
_symmetry_Int_Tables_number   1
_chemical_formula_structural   LiY2P3Se2
_chemical_formula_sum   'Li1 Y2 P3 Se2'
_cell_volume   181.58004684
_cell_formula_units_Z   1
loop_
 _symmetry_equiv_pos_site_id
 _symmetry_equiv_pos_as_xyz
  1  'x, y, z'
loop_
 _atom_site_type_symbol
 _atom_site_label
 _atom_site_symmetry_multiplicity
 _atom_site_fract_x
 _atom_site_fract_y
 _atom_site_fract_z
 _atom_site_occupancy
  Se  Se0  1  0.12500000  0.12500000  0.12500000  1
  Se  Se1  1  0.50000000  0.50000000  0.50000000  1
  P  P2  1  0.25000000  0.25000000  0.25000000  1
  P  P3  1  0.75000000  0.75000000  0.75000000  1
  P  P4  1  0.70857113  0.43379708  0.02523096  1
  Li  Li5  1  0.92952610  0.32651629  0.16247767  1
  Y  Y6  1  0.63766705  0.78911967  0.20416971  1
  Y  Y7  1  0.85557678  0.45194624  0.67044222  1
