# generated using pymatgen
data_LiSb2PSeF6
_symmetry_space_group_name_H-M   'P 1'
_cell_length_a   4.55475772
_cell_length_b   4.62292431
_cell_length_c   5.42560255
_cell_angle_alpha   94.19080489
_cell_angle_beta   93.74569123
_cell_angle_gamma   98.39394895
_symmetry_Int_Tables_number   1
_chemical_formula_structural   LiSb2PSeF6
_chemical_formula_sum   'Li1 Sb2 P1 Se1 F6'
_cell_volume   112.38226457
_cell_formula_units_Z   1
loop_
 _symmetry_equiv_pos_site_id
 _symmetry_equiv_pos_as_xyz
  1  'x, y, z'
loop_
 _atom_site_type_symbol
 _atom_site_label
 _atom_site_symmetry_multiplicity
 _atom_site_fract_x
 _atom_site_fract_y
 _atom_site_fract_z
 _atom_site_occupancy
  Se  Se0  1  0.00000000  0.00000000  0.00000000  1
  F  F1  1  0.50000000  0.50000000  0.50000000  1
  F  F2  1  0.50000000  0.50000000  0.00000000  1
  F  F3  1  0.50000000  0.00000000  0.50000000  1
  F  F4  1  0.00000000  0.50000000  0.50000000  1
  F  F5  1  0.22857830  0.58314001  0.17579605  1
  F  F6  1  0.93540991  0.79060525  0.75495719  1
  P  P7  1  0.27369187  0.78659576  0.50647544  1
  Li  Li8  1  0.17340868  0.61919513  0.06538068  1
  Sb  Sb9  1  0.96528287  0.09647307  0.54618511  1
  Sb  Sb10  1  0.59242012  0.49130926  0.67949361  1
