# generated using pymatgen
data_LiYSbAs2P
_symmetry_space_group_name_H-M   'P 1'
_cell_length_a   5.03377967
_cell_length_b   5.18986322
_cell_length_c   6.96096500
_cell_angle_alpha   94.56514042
_cell_angle_beta   99.53897085
_cell_angle_gamma   107.70441318
_symmetry_Int_Tables_number   1
_chemical_formula_structural   LiYSbAs2P
_chemical_formula_sum   'Li2 Y2 Sb2 As4 P2'
_cell_volume   169.20108023
_cell_formula_units_Z   2
loop_
 _symmetry_equiv_pos_site_id
 _symmetry_equiv_pos_as_xyz
  1  'x, y, z'
loop_
 _atom_site_type_symbol
 _atom_site_label
 _atom_site_symmetry_multiplicity
 _atom_site_fract_x
 _atom_site_fract_y
 _atom_site_fract_z
 _atom_site_occupancy
  Y  Y0  1  0.00000000  0.00000000  0.00000000  1
  Y  Y1  1  0.50000000  0.50000000  0.50000000  1
  P  P2  1  0.50000000  0.50000000  0.00000000  1
  P  P3  1  0.50000000  0.00000000  0.50000000  1
  As  As4  1  0.00000000  0.50000000  0.50000000  1
  As  As5  1  0.06692813  0.36512315  0.31397780  1
  As  As6  1  0.40863085  0.51997443  0.32426923  1
  As  As7  1  0.44520781  0.14150337  0.71256850  1
  Li  Li8  1  0.82287248  0.62011310  0.78958094  1
  Li  Li9  1  0.85673754  0.86457882  0.06060169  1
  Sb  Sb10  1  0.20842102  0.13749845  0.71352967  1
  Sb  Sb11  1  0.17449636  0.36971045  0.82971303  1
