# generated using pymatgen
data_LiYAs2P
_symmetry_space_group_name_H-M   'P 1'
_cell_length_a   5.22979527
_cell_length_b   5.36338724
_cell_length_c   7.05691747
_cell_angle_alpha   94.33633095
_cell_angle_beta   99.44362730
_cell_angle_gamma   107.41731798
_symmetry_Int_Tables_number   1
_chemical_formula_structural   LiYAs2P
_chemical_formula_sum   'Li2 Y2 As4 P2'
_cell_volume   184.66412563
_cell_formula_units_Z   2
loop_
 _symmetry_equiv_pos_site_id
 _symmetry_equiv_pos_as_xyz
  1  'x, y, z'
loop_
 _atom_site_type_symbol
 _atom_site_label
 _atom_site_symmetry_multiplicity
 _atom_site_fract_x
 _atom_site_fract_y
 _atom_site_fract_z
 _atom_site_occupancy
  P  P0  1  0.12500000  0.12500000  0.12500000  1
  P  P1  1  0.50000000  0.50000000  0.50000000  1
  As  As2  1  0.25000000  0.25000000  0.25000000  1
  As  As3  1  0.75000000  0.75000000  0.75000000  1
  As  As4  1  0.80034585  0.87608143  0.53759460  1
  As  As5  1  0.02926250  0.11703209  0.51024803  1
  Li  Li6  1  0.32486123  0.34570516  0.32318558  1
  Li  Li7  1  0.84435188  0.04328337  0.97785120  1
  Y  Y8  1  0.03890371  0.58789053  0.21273385  1
  Y  Y9  1  0.84804331  0.42757899  0.19272620  1
