# generated using pymatgen
data_LiF
_symmetry_space_group_name_H-M   'P 1'
_cell_length_a   6.23738755
_cell_length_b   6.23738755
_cell_length_c   15.99818418
_cell_angle_alpha   90.00000000
_cell_angle_beta   90.00000000
_cell_angle_gamma   120.00000000
_symmetry_Int_Tables_number   1
_chemical_formula_structural   LiF
_chemical_formula_sum   'Li23 F23'
_cell_volume   539.02236209
_cell_formula_units_Z   23
loop_
 _symmetry_equiv_pos_site_id
 _symmetry_equiv_pos_as_xyz
  1  'x, y, z'
loop_
 _atom_site_type_symbol
 _atom_site_label
 _atom_site_symmetry_multiplicity
 _atom_site_fract_x
 _atom_site_fract_y
 _atom_site_fract_z
 _atom_site_occupancy
  F  F0  1  0.58443905  0.71784949  0.30116212  1
  F  F1  1  0.28215051  0.86658956  0.30116212  1
  F  F2  1  0.13341044  0.41556095  0.30116212  1
  F  F3  1  0.28215051  0.41556095  0.69883788  1
  F  F4  1  0.13341044  0.71784949  0.69883788  1
  F  F5  1  0.58443905  0.86658956  0.69883788  1
  F  F6  1  0.42593766  0.13426385  0.38917142  1
  F  F7  1  0.86573615  0.29167381  0.38917142  1
  F  F8  1  0.70832619  0.57406234  0.38917142  1
  F  F9  1  0.86573615  0.57406234  0.61082858  1
  F  F10  1  0.70832619  0.13426385  0.61082858  1
  F  F11  1  0.42593766  0.29167381  0.61082858  1
  F  F12  1  0.94179092  0.05820908  0.50000000  1
  F  F13  1  0.94179092  0.88358184  0.50000000  1
  F  F14  1  0.11641816  0.05820908  0.50000000  1
  F  F15  1  0.18731220  0.33573938  0.07925349  1
  F  F16  1  0.66426062  0.85157282  0.07925349  1
  F  F17  1  0.14842718  0.81268780  0.07925349  1
  F  F18  1  0.66426062  0.81268780  0.92074651  1
  F  F19  1  0.14842718  0.33573938  0.92074651  1
  F  F20  1  0.18731220  0.85157282  0.92074651  1
  F  F21  1  0.00000000  0.00000000  0.50000000  1
  F  F22  1  0.66666667  0.33333333  0.50000000  1
  Li  Li23  1  0.80063983  0.19936017  0.50000000  1
  Li  Li24  1  0.80063983  0.60127966  0.50000000  1
  Li  Li25  1  0.39872034  0.19936017  0.50000000  1
  Li  Li26  1  0.64511211  0.99959519  0.94702011  1
  Li  Li27  1  -0.99959519  -0.35448308  0.94702011  1
  Li  Li28  1  0.35448308  -0.64511211  0.94702011  1
  Li  Li29  1  -0.99959519  -0.64511211  -0.94702011  1
  Li  Li30  1  0.35448308  0.99959519  -0.94702011  1
  Li  Li31  1  0.64511211  -0.35448308  -0.94702011  1
  Li  Li32  1  0.33333333  0.66666667  0.50000000  1
  Li  Li33  1  0.66666667  0.33333333  0.39352509  1
  Li  Li34  1  0.66666667  0.33333333  0.60647491  1
  Li  Li35  1  0.53403164  0.46596836  0.50000000  1
  Li  Li36  1  0.53403164  0.06806329  0.50000000  1
  Li  Li37  1  0.93193671  0.46596836  0.50000000  1
  Li  Li38  1  0.33333333  0.66666667  0.00000000  1
  Li  Li39  1  0.01657130  0.23335656  0.37764605  1
  Li  Li40  1  0.76664344  0.78321474  0.37764605  1
  Li  Li41  1  0.21678526  0.98342870  0.37764605  1
  Li  Li42  1  0.76664344  0.98342870  0.62235395  1
  Li  Li43  1  0.21678526  0.23335656  0.62235395  1
  Li  Li44  1  0.01657130  0.78321474  0.62235395  1
  Li  Li45  1  0.00000000  0.00000000  0.00000000  1
