# generated using pymatgen
data_LiF
_symmetry_space_group_name_H-M   'P 1'
_cell_length_a   5.72208627
_cell_length_b   7.74616681
_cell_length_c   8.34136014
_cell_angle_alpha   90.00000000
_cell_angle_beta   90.00000000
_cell_angle_gamma   90.00000000
_symmetry_Int_Tables_number   1
_chemical_formula_structural   LiF
_chemical_formula_sum   'Li18 F18'
_cell_volume   369.72440521
_cell_formula_units_Z   18
loop_
 _symmetry_equiv_pos_site_id
 _symmetry_equiv_pos_as_xyz
  1  'x, y, z'
loop_
 _atom_site_type_symbol
 _atom_site_label
 _atom_site_symmetry_multiplicity
 _atom_site_fract_x
 _atom_site_fract_y
 _atom_site_fract_z
 _atom_site_occupancy
  F  F0  1  0.15288620  0.45715834  0.50000000  1
  F  F1  1  0.84711380  0.54284166  0.50000000  1
  F  F2  1  0.34711380  0.95715834  0.50000000  1
  F  F3  1  0.65288620  0.04284166  0.50000000  1
  F  F4  1  0.70784694  0.04310424  0.92429343  1
  F  F5  1  0.29215306  0.95689576  0.92429343  1
  F  F6  1  0.79215306  0.54310424  0.07570657  1
  F  F7  1  0.20784694  0.45689576  0.07570657  1
  F  F8  1  0.29215306  0.95689576  0.07570657  1
  F  F9  1  0.70784694  0.04310424  0.07570657  1
  F  F10  1  0.20784694  0.45689576  0.92429343  1
  F  F11  1  0.79215306  0.54310424  0.92429343  1
  F  F12  1  0.00000000  0.00000000  0.00000000  1
  F  F13  1  0.50000000  0.50000000  0.00000000  1
  F  F14  1  0.00000000  0.50000000  0.79315081  1
  F  F15  1  0.50000000  0.00000000  0.20684919  1
  F  F16  1  0.00000000  0.50000000  0.20684919  1
  F  F17  1  0.50000000  0.00000000  0.79315081  1
  Li  Li18  1  0.00000000  0.00000000  0.50000000  1
  Li  Li19  1  0.50000000  0.50000000  0.50000000  1
  Li  Li20  1  0.00000000  0.50000000  0.50000000  1
  Li  Li21  1  0.50000000  0.00000000  0.50000000  1
  Li  Li22  1  0.00000000  0.50000000  0.00000000  1
  Li  Li23  1  0.50000000  0.00000000  -0.00000000  1
  Li  Li24  1  0.69723332  0.38769591  0.50000000  1
  Li  Li25  1  0.30276668  0.61230409  0.50000000  1
  Li  Li26  1  0.80276668  0.88769591  0.50000000  1
  Li  Li27  1  0.19723332  0.11230409  0.50000000  1
  Li  Li28  1  0.33211995  0.57618654  0.68108501  1
  Li  Li29  1  -0.33211995  -0.57618654  0.68108501  1
  Li  Li30  1  0.16788005  1.07618654  -0.68108501  1
  Li  Li31  1  0.83211995  -0.07618654  -0.68108501  1
  Li  Li32  1  -0.33211995  -0.57618654  -0.68108501  1
  Li  Li33  1  0.33211995  0.57618654  -0.68108501  1
  Li  Li34  1  0.83211995  -0.07618654  0.68108501  1
  Li  Li35  1  0.16788005  1.07618654  0.68108501  1
