# generated using pymatgen
data_LiYP2
_symmetry_space_group_name_H-M   'P 1'
_cell_length_a   4.80691073
_cell_length_b   5.12010884
_cell_length_c   7.11498673
_cell_angle_alpha   95.05702539
_cell_angle_beta   101.01314996
_cell_angle_gamma   110.31206110
_symmetry_Int_Tables_number   1
_chemical_formula_structural   LiYP2
_chemical_formula_sum   'Li2 Y2 P4'
_cell_volume   158.91419219
_cell_formula_units_Z   2
loop_
 _symmetry_equiv_pos_site_id
 _symmetry_equiv_pos_as_xyz
  1  'x, y, z'
loop_
 _atom_site_type_symbol
 _atom_site_label
 _atom_site_symmetry_multiplicity
 _atom_site_fract_x
 _atom_site_fract_y
 _atom_site_fract_z
 _atom_site_occupancy
  Y  Y0  1  0.12500000  0.12500000  0.12500000  1
  Y  Y1  1  0.50000000  0.50000000  0.50000000  1
  P  P2  1  0.25000000  0.25000000  0.25000000  1
  P  P3  1  0.75000000  0.75000000  0.75000000  1
  P  P4  1  0.09385457  0.18298108  0.88420934  1
  P  P5  1  0.48954002  0.36023310  0.53524609  1
  Li  Li6  1  0.86099790  0.16460875  0.27941054  1
  Li  Li7  1  0.58358143  0.62616300  0.73162951  1
