# generated using pymatgen
data_LiF
_symmetry_space_group_name_H-M   'P 1'
_cell_length_a   8.66757515
_cell_length_b   6.04551205
_cell_length_c   4.87560479
_cell_angle_alpha   90.00000000
_cell_angle_beta   90.00000000
_cell_angle_gamma   90.00000000
_symmetry_Int_Tables_number   1
_chemical_formula_structural   LiF
_chemical_formula_sum   'Li24 F24'
_cell_volume   255.48134966
_cell_formula_units_Z   24
loop_
 _symmetry_equiv_pos_site_id
 _symmetry_equiv_pos_as_xyz
  1  'x, y, z'
loop_
 _atom_site_type_symbol
 _atom_site_label
 _atom_site_symmetry_multiplicity
 _atom_site_fract_x
 _atom_site_fract_y
 _atom_site_fract_z
 _atom_site_occupancy
  F  F0  1  0.74444955  0.25000000  0.04830253  1
  F  F1  1  0.75555045  0.75000000  0.54830253  1
  F  F2  1  0.25555045  0.75000000  0.95169747  1
  F  F3  1  0.24444955  0.25000000  0.45169747  1
  F  F4  1  0.18347102  0.25000000  0.31210796  1
  F  F5  1  0.31652898  0.75000000  0.81210796  1
  F  F6  1  0.81652898  0.75000000  0.68789204  1
  F  F7  1  0.68347102  0.25000000  0.18789204  1
  F  F8  1  0.91416981  0.82913280  0.86483862  1
  F  F9  1  0.58583019  0.17086720  0.36483862  1
  F  F10  1  0.08583019  0.32913280  0.13516138  1
  F  F11  1  0.41416981  0.67086720  0.63516138  1
  F  F12  1  0.08583019  0.17086720  0.13516138  1
  F  F13  1  0.41416981  0.82913280  0.63516138  1
  F  F14  1  0.91416981  0.67086720  0.86483862  1
  F  F15  1  0.58583019  0.32913280  0.36483862  1
  F  F16  1  0.66576269  0.84802787  0.31116984  1
  F  F17  1  0.83423731  0.15197213  0.81116984  1
  F  F18  1  0.33423731  0.34802787  0.68883016  1
  F  F19  1  0.16576269  0.65197213  0.18883016  1
  F  F20  1  0.33423731  0.15197213  0.68883016  1
  F  F21  1  0.16576269  0.84802787  0.18883016  1
  F  F22  1  0.66576269  0.65197213  0.31116984  1
  F  F23  1  0.83423731  0.34802787  0.81116984  1
  Li  Li24  1  0.98029810  0.25000000  0.26810032  1
  Li  Li25  1  0.51970190  0.75000000  0.76810032  1
  Li  Li26  1  0.01970190  0.75000000  0.73189968  1
  Li  Li27  1  0.48029810  0.25000000  0.23189968  1
  Li  Li28  1  0.87937027  0.54485350  0.29693709  1
  Li  Li29  1  -0.37937027  -0.54485350  0.79693709  1
  Li  Li30  1  -0.87937027  1.04485350  -0.29693709  1
  Li  Li31  1  1.37937027  -0.04485350  0.20306291  1
  Li  Li32  1  -0.87937027  -0.54485350  -0.29693709  1
  Li  Li33  1  1.37937027  0.54485350  0.20306291  1
  Li  Li34  1  0.87937027  -0.04485350  0.29693709  1
  Li  Li35  1  -0.37937027  1.04485350  0.79693709  1
  Li  Li36  1  0.00000000  0.00000000  0.00000000  1
  Li  Li37  1  0.50000000  0.00000000  0.50000000  1
  Li  Li38  1  0.00000000  0.50000000  -0.00000000  1
  Li  Li39  1  0.50000000  0.50000000  0.50000000  1
  Li  Li40  1  0.28045162  0.25000000  0.19508413  1
  Li  Li41  1  0.21954838  0.75000000  0.69508413  1
  Li  Li42  1  0.71954838  0.75000000  0.80491587  1
  Li  Li43  1  0.78045162  0.25000000  0.30491587  1
  Li  Li44  1  0.00000000  0.00000000  0.50000000  1
  Li  Li45  1  0.50000000  0.00000000  -0.00000000  1
  Li  Li46  1  0.00000000  0.50000000  0.50000000  1
  Li  Li47  1  0.50000000  0.50000000  -0.00000000  1
