# generated using pymatgen
data_LiF
_symmetry_space_group_name_H-M   'P 1'
_cell_length_a   10.15848608
_cell_length_b   10.15848608
_cell_length_c   8.21580982
_cell_angle_alpha   90.00000000
_cell_angle_beta   90.00000000
_cell_angle_gamma   120.00000000
_symmetry_Int_Tables_number   1
_chemical_formula_structural   LiF
_chemical_formula_sum   'Li22 F22'
_cell_volume   734.24160403
_cell_formula_units_Z   22
loop_
 _symmetry_equiv_pos_site_id
 _symmetry_equiv_pos_as_xyz
  1  'x, y, z'
loop_
 _atom_site_type_symbol
 _atom_site_label
 _atom_site_symmetry_multiplicity
 _atom_site_fract_x
 _atom_site_fract_y
 _atom_site_fract_z
 _atom_site_occupancy
  F  F0  1  0.66666667  0.33333333  0.00000000  1
  F  F1  1  0.00000000  0.00000000  0.55506696  1
  F  F2  1  0.00000000  0.00000000  0.44493304  1
  F  F3  1  0.33333333  0.66666667  0.00000000  1
  F  F4  1  0.00000000  0.00000000  0.34006491  1
  F  F5  1  0.00000000  0.00000000  0.65993509  1
  F  F6  1  0.28209271  0.73330071  0.18790411  1
  F  F7  1  0.26669929  0.54879200  0.18790411  1
  F  F8  1  0.45120800  0.71790729  0.18790411  1
  F  F9  1  0.26669929  0.71790729  0.81209589  1
  F  F10  1  0.45120800  0.73330071  0.81209589  1
  F  F11  1  0.28209271  0.54879200  0.81209589  1
  F  F12  1  0.89981554  0.43106761  0.56555298  1
  F  F13  1  0.56893239  0.46874792  0.56555298  1
  F  F14  1  0.53125208  0.10018446  0.56555298  1
  F  F15  1  0.56893239  0.10018446  0.43444702  1
  F  F16  1  0.53125208  0.43106761  0.43444702  1
  F  F17  1  0.89981554  0.46874792  0.43444702  1
  F  F18  1  0.33333333  0.66666667  0.26561006  1
  F  F19  1  0.33333333  0.66666667  0.73438994  1
  F  F20  1  0.66666667  0.33333333  0.21697004  1
  F  F21  1  0.66666667  0.33333333  0.78302996  1
  Li  Li22  1  0.21126760  0.92838335  0.66954736  1
  Li  Li23  1  -0.92838335  -0.71711576  0.66954736  1
  Li  Li24  1  0.71711576  -0.21126760  0.66954736  1
  Li  Li25  1  -0.92838335  -0.21126760  -0.66954736  1
  Li  Li26  1  0.71711576  0.92838335  -0.66954736  1
  Li  Li27  1  0.21126760  -0.71711576  -0.66954736  1
  Li  Li28  1  0.11233378  0.70918492  0.71735307  1
  Li  Li29  1  0.29081508  0.40314886  0.71735307  1
  Li  Li30  1  0.59685114  0.88766622  0.71735307  1
  Li  Li31  1  0.29081508  0.88766622  0.28264693  1
  Li  Li32  1  0.59685114  0.70918492  0.28264693  1
  Li  Li33  1  0.11233378  0.40314886  0.28264693  1
  Li  Li34  1  0.00000000  0.00000000  0.00000000  1
  Li  Li35  1  0.91287308  0.08712692  0.00000000  1
  Li  Li36  1  0.91287308  0.82574615  0.00000000  1
  Li  Li37  1  0.17425385  0.08712692  -0.00000000  1
  Li  Li38  1  0.76147739  0.23852261  0.50000000  1
  Li  Li39  1  0.76147739  0.52295478  0.50000000  1
  Li  Li40  1  0.47704522  0.23852261  0.50000000  1
  Li  Li41  1  0.92689459  0.07310541  0.50000000  1
  Li  Li42  1  0.92689459  0.85378918  0.50000000  1
  Li  Li43  1  0.14621082  0.07310541  0.50000000  1
