# generated using pymatgen
data_LiF
_symmetry_space_group_name_H-M   'P 1'
_cell_length_a   6.01063218
_cell_length_b   3.29394463
_cell_length_c   6.10573812
_cell_angle_alpha   90.00000000
_cell_angle_beta   90.00000000
_cell_angle_gamma   90.00000000
_symmetry_Int_Tables_number   1
_chemical_formula_structural   LiF
_chemical_formula_sum   'Li8 F8'
_cell_volume   120.88561377
_cell_formula_units_Z   8
loop_
 _symmetry_equiv_pos_site_id
 _symmetry_equiv_pos_as_xyz
  1  'x, y, z'
loop_
 _atom_site_type_symbol
 _atom_site_label
 _atom_site_symmetry_multiplicity
 _atom_site_fract_x
 _atom_site_fract_y
 _atom_site_fract_z
 _atom_site_occupancy
  F  F0  1  0.80622598  0.50866468  0.50000000  1
  F  F1  1  0.19377402  0.49133532  0.50000000  1
  F  F2  1  0.69377402  0.00866468  0.50000000  1
  F  F3  1  0.30622598  0.99133532  0.50000000  1
  F  F4  1  0.11171186  0.77942706  -0.00000000  1
  F  F5  1  0.88828814  0.22057294  0.00000000  1
  F  F6  1  0.38828814  0.27942706  0.00000000  1
  F  F7  1  0.61171186  0.72057294  -0.00000000  1
  Li  Li8  1  0.63234298  0.73149764  0.67059686  1
  Li  Li9  1  -0.63234298  -0.73149764  0.67059686  1
  Li  Li10  1  -0.13234298  1.23149764  -0.67059686  1
  Li  Li11  1  1.13234298  -0.23149764  -0.67059686  1
  Li  Li12  1  -0.63234298  -0.73149764  -0.67059686  1
  Li  Li13  1  0.63234298  0.73149764  -0.67059686  1
  Li  Li14  1  1.13234298  -0.23149764  0.67059686  1
  Li  Li15  1  -0.13234298  1.23149764  0.67059686  1
