# generated using pymatgen
data_LiF
_symmetry_space_group_name_H-M   'P 1'
_cell_length_a   10.49824561
_cell_length_b   10.49824561
_cell_length_c   6.46920351
_cell_angle_alpha   90.00000000
_cell_angle_beta   90.00000000
_cell_angle_gamma   120.00000000
_symmetry_Int_Tables_number   1
_chemical_formula_structural   LiF
_chemical_formula_sum   'Li22 F22'
_cell_volume   617.46863619
_cell_formula_units_Z   22
loop_
 _symmetry_equiv_pos_site_id
 _symmetry_equiv_pos_as_xyz
  1  'x, y, z'
loop_
 _atom_site_type_symbol
 _atom_site_label
 _atom_site_symmetry_multiplicity
 _atom_site_fract_x
 _atom_site_fract_y
 _atom_site_fract_z
 _atom_site_occupancy
  F  F0  1  0.33333333  0.66666667  0.00000000  1
  F  F1  1  0.13558733  0.57126727  0.04962355  1
  F  F2  1  0.42873273  0.56432006  0.04962355  1
  F  F3  1  0.43567994  0.86441267  0.04962355  1
  F  F4  1  0.42873273  0.86441267  0.95037645  1
  F  F5  1  0.43567994  0.57126727  0.95037645  1
  F  F6  1  0.13558733  0.56432006  0.95037645  1
  F  F7  1  0.78507819  0.62783739  0.86660344  1
  F  F8  1  0.37216261  0.15724080  0.86660344  1
  F  F9  1  0.84275920  0.21492181  0.86660344  1
  F  F10  1  0.37216261  0.21492181  0.13339656  1
  F  F11  1  0.84275920  0.62783739  0.13339656  1
  F  F12  1  0.78507819  0.15724080  0.13339656  1
  F  F13  1  0.66666667  0.33333333  0.68650038  1
  F  F14  1  0.66666667  0.33333333  0.31349962  1
  F  F15  1  0.66666667  0.33333333  0.50000000  1
  F  F16  1  0.46706049  0.10375361  0.37031256  1
  F  F17  1  0.89624639  0.36330689  0.37031256  1
  F  F18  1  0.63669311  0.53293951  0.37031256  1
  F  F19  1  0.89624639  0.53293951  0.62968744  1
  F  F20  1  0.63669311  0.10375361  0.62968744  1
  F  F21  1  0.46706049  0.36330689  0.62968744  1
  Li  Li22  1  0.00000000  0.00000000  0.00000000  1
  Li  Li23  1  0.66666667  0.33333333  0.00000000  1
  Li  Li24  1  0.65926200  0.10809857  0.86459466  1
  Li  Li25  1  -0.10809857  0.55116343  0.86459466  1
  Li  Li26  1  -0.55116343  -0.65926200  0.86459466  1
  Li  Li27  1  -0.10809857  -0.65926200  -0.86459466  1
  Li  Li28  1  -0.55116343  0.10809857  -0.86459466  1
  Li  Li29  1  0.65926200  0.55116343  -0.86459466  1
  Li  Li30  1  0.33333333  0.66666667  0.50000000  1
  Li  Li31  1  0.86775935  0.66307556  0.33582665  1
  Li  Li32  1  0.33692444  0.20468379  0.33582665  1
  Li  Li33  1  0.79531621  0.13224065  0.33582665  1
  Li  Li34  1  0.33692444  0.13224065  0.66417335  1
  Li  Li35  1  0.79531621  0.66307556  0.66417335  1
  Li  Li36  1  0.86775935  0.20468379  0.66417335  1
  Li  Li37  1  0.00064583  0.38055760  0.37305677  1
  Li  Li38  1  0.61944240  0.62008823  0.37305677  1
  Li  Li39  1  0.37991177  0.99935417  0.37305677  1
  Li  Li40  1  0.61944240  0.99935417  0.62694323  1
  Li  Li41  1  0.37991177  0.38055760  0.62694323  1
  Li  Li42  1  0.00064583  0.62008823  0.62694323  1
  Li  Li43  1  0.00000000  0.00000000  0.50000000  1
