# generated using pymatgen
data_Li2Y2P3Se
_symmetry_space_group_name_H-M   'P 1'
_cell_length_a   5.42116082
_cell_length_b   5.77628874
_cell_length_c   7.16363543
_cell_angle_alpha   93.36282326
_cell_angle_beta   97.47126506
_cell_angle_gamma   103.62747737
_symmetry_Int_Tables_number   1
_chemical_formula_structural   Li2Y2P3Se
_chemical_formula_sum   'Li2 Y2 P3 Se1'
_cell_volume   215.22735892
_cell_formula_units_Z   1
loop_
 _symmetry_equiv_pos_site_id
 _symmetry_equiv_pos_as_xyz
  1  'x, y, z'
loop_
 _atom_site_type_symbol
 _atom_site_label
 _atom_site_symmetry_multiplicity
 _atom_site_fract_x
 _atom_site_fract_y
 _atom_site_fract_z
 _atom_site_occupancy
  P  P0  1  0.00000000  0.00000000  0.00000000  1
  P  P1  1  0.33300000  0.66700000  0.25000000  1
  P  P2  1  0.66700000  0.33300000  0.50000000  1
  Se  Se3  1  0.00000000  0.00000000  0.75000000  1
  Li  Li4  1  0.89523824  0.24718471  0.29152997  1
  Li  Li5  1  0.70694003  0.64937093  0.45446050  1
  Y  Y6  1  0.11106546  0.59018948  0.08639966  1
  Y  Y7  1  0.72991254  0.57298867  0.24027894  1
