# generated using pymatgen
data_LiCaF3
_symmetry_space_group_name_H-M   'P 1'
_cell_length_a   12.71717378
_cell_length_b   12.71717378
_cell_length_c   11.70946158
_cell_angle_alpha   90.00000000
_cell_angle_beta   90.00000000
_cell_angle_gamma   120.00000000
_symmetry_Int_Tables_number   1
_chemical_formula_structural   LiCaF3
_chemical_formula_sum   'Li18 Ca18 F54'
_cell_volume   1640.01858451
_cell_formula_units_Z   18
loop_
 _symmetry_equiv_pos_site_id
 _symmetry_equiv_pos_as_xyz
  1  'x, y, z'
loop_
 _atom_site_type_symbol
 _atom_site_label
 _atom_site_symmetry_multiplicity
 _atom_site_fract_x
 _atom_site_fract_y
 _atom_site_fract_z
 _atom_site_occupancy
  Ca  Ca0  1  0.46074273  -0.00000000  0.25000000  1
  Ca  Ca1  1  0.00000000  0.46074273  0.25000000  1
  Ca  Ca2  1  0.53925727  0.53925727  0.25000000  1
  Ca  Ca3  1  0.53925727  0.00000000  0.75000000  1
  Ca  Ca4  1  0.00000000  0.53925727  0.75000000  1
  Ca  Ca5  1  0.46074273  0.46074273  0.75000000  1
  Ca  Ca6  1  0.12740940  0.33333333  0.58333333  1
  Ca  Ca7  1  0.66666667  0.79407607  0.58333333  1
  Ca  Ca8  1  0.20592393  0.87259060  0.58333333  1
  Ca  Ca9  1  0.20592393  0.33333333  0.08333333  1
  Ca  Ca10  1  0.66666667  0.87259060  0.08333333  1
  Ca  Ca11  1  0.12740940  0.79407607  0.08333333  1
  Ca  Ca12  1  0.79407607  0.66666667  0.91666667  1
  Ca  Ca13  1  0.33333333  0.12740940  0.91666667  1
  Ca  Ca14  1  0.87259060  0.20592393  0.91666667  1
  Ca  Ca15  1  0.87259060  0.66666667  0.41666667  1
  Ca  Ca16  1  0.33333333  0.20592393  0.41666667  1
  Ca  Ca17  1  0.79407607  0.12740940  0.41666667  1
  F  F18  1  0.07171731  0.83640028  0.97398660  1
  F  F19  1  -0.83640028  -0.76468297  0.97398660  1
  F  F20  1  0.76468297  -0.07171731  0.97398660  1
  F  F21  1  0.83640028  0.07171731  -0.47398660  1
  F  F22  1  -0.76468297  -0.83640028  -0.47398660  1
  F  F23  1  -0.07171731  0.76468297  -0.47398660  1
  F  F24  1  -0.07171731  -0.83640028  -0.97398660  1
  F  F25  1  0.83640028  0.76468297  -0.97398660  1
  F  F26  1  -0.76468297  0.07171731  -0.97398660  1
  F  F27  1  -0.83640028  -0.07171731  1.47398660  1
  F  F28  1  0.76468297  0.83640028  1.47398660  1
  F  F29  1  0.07171731  -0.76468297  1.47398660  1
  F  F30  1  0.73838398  1.16973361  1.30731993  1
  F  F31  1  -0.16973361  -0.43134964  1.30731993  1
  F  F32  1  1.43134964  0.26161602  1.30731993  1
  F  F33  1  1.50306695  0.40505064  -0.14065326  1
  F  F34  1  -0.09801630  -0.50306695  -0.14065326  1
  F  F35  1  0.59494936  1.09801630  -0.14065326  1
  F  F36  1  0.59494936  -0.50306695  -0.64065326  1
  F  F37  1  1.50306695  1.09801630  -0.64065326  1
  F  F38  1  -0.09801630  0.40505064  -0.64065326  1
  F  F39  1  -0.16973361  0.26161602  1.80731993  1
  F  F40  1  1.43134964  1.16973361  1.80731993  1
  F  F41  1  0.73838398  -0.43134964  1.80731993  1
  F  F42  1  0.40505064  1.50306695  1.64065326  1
  F  F43  1  -0.50306695  -0.09801630  1.64065326  1
  F  F44  1  1.09801630  0.59494936  1.64065326  1
  F  F45  1  1.16973361  0.73838398  0.19268007  1
  F  F46  1  -0.43134964  -0.16973361  0.19268007  1
  F  F47  1  0.26161602  1.43134964  0.19268007  1
  F  F48  1  0.26161602  -0.16973361  -0.30731993  1
  F  F49  1  1.16973361  1.43134964  -0.30731993  1
  F  F50  1  -0.43134964  0.73838398  -0.30731993  1
  F  F51  1  -0.50306695  0.59494936  2.14065326  1
  F  F52  1  1.09801630  1.50306695  2.14065326  1
  F  F53  1  0.40505064  -0.09801630  2.14065326  1
  F  F54  1  0.00000000  0.00000000  0.39236178  1
  F  F55  1  0.00000000  0.00000000  0.10763822  1
  F  F56  1  0.00000000  0.00000000  0.60763822  1
  F  F57  1  0.00000000  0.00000000  0.89236178  1
  F  F58  1  0.66666667  0.33333333  0.72569511  1
  F  F59  1  0.66666667  0.33333333  0.44097155  1
  F  F60  1  0.66666667  0.33333333  0.94097155  1
  F  F61  1  0.66666667  0.33333333  0.22569511  1
  F  F62  1  0.33333333  0.66666667  0.05902845  1
  F  F63  1  0.33333333  0.66666667  0.77430489  1
  F  F64  1  0.33333333  0.66666667  0.27430489  1
  F  F65  1  0.33333333  0.66666667  0.55902845  1
  F  F66  1  0.00000000  0.00000000  0.25000000  1
  F  F67  1  0.00000000  0.00000000  0.75000000  1
  F  F68  1  0.66666667  0.33333333  0.58333333  1
  F  F69  1  0.66666667  0.33333333  0.08333333  1
  F  F70  1  0.33333333  0.66666667  0.91666667  1
  F  F71  1  0.33333333  0.66666667  0.41666667  1
  Li  Li72  1  0.27111437  0.00000000  0.25000000  1
  Li  Li73  1  0.00000000  0.27111437  0.25000000  1
  Li  Li74  1  0.72888563  0.72888563  0.25000000  1
  Li  Li75  1  0.72888563  0.00000000  0.75000000  1
  Li  Li76  1  0.00000000  0.72888563  0.75000000  1
  Li  Li77  1  0.27111437  0.27111437  0.75000000  1
  Li  Li78  1  0.93778104  0.33333333  0.58333333  1
  Li  Li79  1  0.66666667  0.60444771  0.58333333  1
  Li  Li80  1  0.39555229  0.06221896  0.58333333  1
  Li  Li81  1  0.39555229  0.33333333  0.08333333  1
  Li  Li82  1  0.66666667  0.06221896  0.08333333  1
  Li  Li83  1  0.93778104  0.60444771  0.08333333  1
  Li  Li84  1  0.60444771  0.66666667  0.91666667  1
  Li  Li85  1  0.33333333  0.93778104  0.91666667  1
  Li  Li86  1  0.06221896  0.39555229  0.91666667  1
  Li  Li87  1  0.06221896  0.66666667  0.41666667  1
  Li  Li88  1  0.33333333  0.39555229  0.41666667  1
  Li  Li89  1  0.60444771  0.93778104  0.41666667  1
