# generated using pymatgen
data_Li2Y2As4P2Se
_symmetry_space_group_name_H-M   'P 1'
_cell_length_a   5.48511750
_cell_length_b   5.61028928
_cell_length_c   6.89761995
_cell_angle_alpha   93.36202942
_cell_angle_beta   96.98195736
_cell_angle_gamma   102.90134304
_symmetry_Int_Tables_number   1
_chemical_formula_structural   Li2Y2As4P2Se
_chemical_formula_sum   'Li2 Y2 As4 P2 Se1'
_cell_volume   204.55966990
_cell_formula_units_Z   1
loop_
 _symmetry_equiv_pos_site_id
 _symmetry_equiv_pos_as_xyz
  1  'x, y, z'
loop_
 _atom_site_type_symbol
 _atom_site_label
 _atom_site_symmetry_multiplicity
 _atom_site_fract_x
 _atom_site_fract_y
 _atom_site_fract_z
 _atom_site_occupancy
  Se  Se0  1  0.12500000  0.00000000  0.25000000  1
  Y  Y1  1  0.00000000  0.00000000  0.00000000  1
  Y  Y2  1  0.37500000  0.00000000  0.25000000  1
  P  P3  1  0.25000000  0.25000000  0.25000000  1
  P  P4  1  0.00000000  0.25000000  0.12500000  1
  As  As5  1  0.48885066  0.17503215  0.70834525  1
  As  As6  1  0.50109872  0.42601544  0.35282701  1
  As  As7  1  0.87877546  0.63457807  0.13076266  1
  As  As8  1  0.85001206  0.00425026  0.08988332  1
  Li  Li9  1  0.87382013  0.96866945  0.35936365  1
  Li  Li10  1  0.95204960  0.11448521  0.73476049  1
