# generated using pymatgen
data_Li4TeF2
_symmetry_space_group_name_H-M   'P 1'
_cell_length_a   11.87407385
_cell_length_b   11.87407385
_cell_length_c   11.87407385
_cell_angle_alpha   90.00000000
_cell_angle_beta   90.00000000
_cell_angle_gamma   90.00000000
_symmetry_Int_Tables_number   1
_chemical_formula_structural   Li4TeF2
_chemical_formula_sum   'Li96 Te24 F48'
_cell_volume   1674.16877430
_cell_formula_units_Z   24
loop_
 _symmetry_equiv_pos_site_id
 _symmetry_equiv_pos_as_xyz
  1  'x, y, z'
loop_
 _atom_site_type_symbol
 _atom_site_label
 _atom_site_symmetry_multiplicity
 _atom_site_fract_x
 _atom_site_fract_y
 _atom_site_fract_z
 _atom_site_occupancy
  F  F0  1  0.12500000  0.75286485  0.49713515  1
  F  F1  1  0.37500000  0.24713515  0.99713515  1
  F  F2  1  0.87500000  0.25286485  0.00286485  1
  F  F3  1  0.62500000  0.74713515  0.50286485  1
  F  F4  1  0.49713515  0.12500000  0.75286485  1
  F  F5  1  0.99713515  0.37500000  0.24713515  1
  F  F6  1  0.00286485  0.87500000  0.25286485  1
  F  F7  1  0.50286485  0.62500000  0.74713515  1
  F  F8  1  0.75286485  0.49713515  0.12500000  1
  F  F9  1  0.24713515  0.99713515  0.37500000  1
  F  F10  1  0.25286485  0.00286485  0.87500000  1
  F  F11  1  0.74713515  0.50286485  0.62500000  1
  F  F12  1  0.62500000  0.25286485  0.99713515  1
  F  F13  1  0.87500000  0.74713515  0.49713515  1
  F  F14  1  0.37500000  0.75286485  0.50286485  1
  F  F15  1  0.12500000  0.24713515  0.00286485  1
  F  F16  1  0.99713515  0.62500000  0.25286485  1
  F  F17  1  0.49713515  0.87500000  0.74713515  1
  F  F18  1  0.50286485  0.37500000  0.75286485  1
  F  F19  1  0.00286485  0.12500000  0.24713515  1
  F  F20  1  0.25286485  0.99713515  0.62500000  1
  F  F21  1  0.74713515  0.49713515  0.87500000  1
  F  F22  1  0.75286485  0.50286485  0.37500000  1
  F  F23  1  0.24713515  0.00286485  0.12500000  1
  F  F24  1  0.58180324  0.00000000  0.25000000  1
  F  F25  1  0.91819676  0.00000000  0.75000000  1
  F  F26  1  0.25000000  0.58180324  0.00000000  1
  F  F27  1  0.75000000  0.91819676  0.00000000  1
  F  F28  1  0.00000000  0.25000000  0.58180324  1
  F  F29  1  0.00000000  0.75000000  0.91819676  1
  F  F30  1  0.75000000  0.83180324  0.00000000  1
  F  F31  1  0.75000000  0.16819676  0.50000000  1
  F  F32  1  0.33180324  0.50000000  0.25000000  1
  F  F33  1  0.66819676  0.00000000  0.25000000  1
  F  F34  1  0.00000000  0.25000000  0.66819676  1
  F  F35  1  0.50000000  0.25000000  0.33180324  1
  F  F36  1  0.08180324  0.50000000  0.75000000  1
  F  F37  1  0.41819676  0.50000000  0.25000000  1
  F  F38  1  0.75000000  0.08180324  0.50000000  1
  F  F39  1  0.25000000  0.41819676  0.50000000  1
  F  F40  1  0.50000000  0.75000000  0.08180324  1
  F  F41  1  0.50000000  0.25000000  0.41819676  1
  F  F42  1  0.25000000  0.33180324  0.50000000  1
  F  F43  1  0.25000000  0.66819676  0.00000000  1
  F  F44  1  0.83180324  0.00000000  0.75000000  1
  F  F45  1  0.16819676  0.50000000  0.75000000  1
  F  F46  1  0.50000000  0.75000000  0.16819676  1
  F  F47  1  0.00000000  0.75000000  0.83180324  1
  Li  Li48  1  0.07010864  0.26573111  0.05882017  1
  Li  Li49  1  0.42989136  -0.26573111  0.55882017  1
  Li  Li50  1  -0.07010864  0.76573111  0.44117983  1
  Li  Li51  1  0.57010864  0.23426889  -0.05882017  1
  Li  Li52  1  0.05882017  0.07010864  0.26573111  1
  Li  Li53  1  0.55882017  0.42989136  -0.26573111  1
  Li  Li54  1  0.44117983  -0.07010864  0.76573111  1
  Li  Li55  1  -0.05882017  0.57010864  0.23426889  1
  Li  Li56  1  0.26573111  0.05882017  0.07010864  1
  Li  Li57  1  -0.26573111  0.55882017  0.42989136  1
  Li  Li58  1  0.76573111  0.44117983  -0.07010864  1
  Li  Li59  1  0.23426889  -0.05882017  0.57010864  1
  Li  Li60  1  1.01573111  0.32010864  0.19117983  1
  Li  Li61  1  0.48426889  0.67989136  0.69117983  1
  Li  Li62  1  0.51573111  0.17989136  0.80882017  1
  Li  Li63  1  -0.01573111  0.82010864  0.30882017  1
  Li  Li64  1  0.82010864  0.30882017  -0.01573111  1
  Li  Li65  1  0.17989136  0.80882017  0.51573111  1
  Li  Li66  1  0.67989136  0.69117983  0.48426889  1
  Li  Li67  1  0.32010864  0.19117983  1.01573111  1
  Li  Li68  1  0.80882017  0.51573111  0.17989136  1
  Li  Li69  1  0.30882017  -0.01573111  0.82010864  1
  Li  Li70  1  0.19117983  1.01573111  0.32010864  1
  Li  Li71  1  0.69117983  0.48426889  0.67989136  1
  Li  Li72  1  0.57010864  0.76573111  0.55882017  1
  Li  Li73  1  0.92989136  0.23426889  1.05882017  1
  Li  Li74  1  0.42989136  1.26573111  0.94117983  1
  Li  Li75  1  1.07010864  0.73426889  0.44117983  1
  Li  Li76  1  0.55882017  0.57010864  0.76573111  1
  Li  Li77  1  1.05882017  0.92989136  0.23426889  1
  Li  Li78  1  0.94117983  0.42989136  1.26573111  1
  Li  Li79  1  0.44117983  1.07010864  0.73426889  1
  Li  Li80  1  0.76573111  0.55882017  0.57010864  1
  Li  Li81  1  0.23426889  1.05882017  0.92989136  1
  Li  Li82  1  1.26573111  0.94117983  0.42989136  1
  Li  Li83  1  0.73426889  0.44117983  1.07010864  1
  Li  Li84  1  1.51573111  0.82010864  0.69117983  1
  Li  Li85  1  0.98426889  1.17989136  1.19117983  1
  Li  Li86  1  1.01573111  0.67989136  1.30882017  1
  Li  Li87  1  0.48426889  1.32010864  0.80882017  1
  Li  Li88  1  1.32010864  0.80882017  0.48426889  1
  Li  Li89  1  0.67989136  1.30882017  1.01573111  1
  Li  Li90  1  1.17989136  1.19117983  0.98426889  1
  Li  Li91  1  0.82010864  0.69117983  1.51573111  1
  Li  Li92  1  1.30882017  1.01573111  0.67989136  1
  Li  Li93  1  0.80882017  0.48426889  1.32010864  1
  Li  Li94  1  0.69117983  1.51573111  0.82010864  1
  Li  Li95  1  1.19117983  0.98426889  1.17989136  1
  Li  Li96  1  0.61157106  0.97750874  0.94692491  1
  Li  Li97  1  0.88842894  0.02249126  0.44692491  1
  Li  Li98  1  0.38842894  0.47750874  0.55307509  1
  Li  Li99  1  0.11157106  0.52249126  0.05307509  1
  Li  Li100  1  0.94692491  0.61157106  0.97750874  1
  Li  Li101  1  0.44692491  0.88842894  0.02249126  1
  Li  Li102  1  0.55307509  0.38842894  0.47750874  1
  Li  Li103  1  0.05307509  0.11157106  0.52249126  1
  Li  Li104  1  0.97750874  0.94692491  0.61157106  1
  Li  Li105  1  0.02249126  0.44692491  0.88842894  1
  Li  Li106  1  0.47750874  0.55307509  0.38842894  1
  Li  Li107  1  0.52249126  0.05307509  0.11157106  1
  Li  Li108  1  0.72750874  0.86157106  0.30307509  1
  Li  Li109  1  0.77249126  0.13842894  0.80307509  1
  Li  Li110  1  0.22750874  0.63842894  0.69692491  1
  Li  Li111  1  0.27249126  0.36157106  0.19692491  1
  Li  Li112  1  0.36157106  0.19692491  0.27249126  1
  Li  Li113  1  0.63842894  0.69692491  0.22750874  1
  Li  Li114  1  0.13842894  0.80307509  0.77249126  1
  Li  Li115  1  0.86157106  0.30307509  0.72750874  1
  Li  Li116  1  0.69692491  0.22750874  0.63842894  1
  Li  Li117  1  0.19692491  0.27249126  0.36157106  1
  Li  Li118  1  0.30307509  0.72750874  0.86157106  1
  Li  Li119  1  0.80307509  0.77249126  0.13842894  1
  Li  Li120  1  0.11157106  0.47750874  0.44692491  1
  Li  Li121  1  0.38842894  0.52249126  0.94692491  1
  Li  Li122  1  0.88842894  0.97750874  0.05307509  1
  Li  Li123  1  0.61157106  0.02249126  0.55307509  1
  Li  Li124  1  0.44692491  0.11157106  0.47750874  1
  Li  Li125  1  0.94692491  0.38842894  0.52249126  1
  Li  Li126  1  0.05307509  0.88842894  0.97750874  1
  Li  Li127  1  0.55307509  0.61157106  0.02249126  1
  Li  Li128  1  0.47750874  0.44692491  0.11157106  1
  Li  Li129  1  0.52249126  0.94692491  0.38842894  1
  Li  Li130  1  0.97750874  0.05307509  0.88842894  1
  Li  Li131  1  0.02249126  0.55307509  0.61157106  1
  Li  Li132  1  0.22750874  0.36157106  0.80307509  1
  Li  Li133  1  0.27249126  0.63842894  0.30307509  1
  Li  Li134  1  0.72750874  0.13842894  0.19692491  1
  Li  Li135  1  0.77249126  0.86157106  0.69692491  1
  Li  Li136  1  0.86157106  0.69692491  0.77249126  1
  Li  Li137  1  0.13842894  0.19692491  0.72750874  1
  Li  Li138  1  0.63842894  0.30307509  0.27249126  1
  Li  Li139  1  0.36157106  0.80307509  0.22750874  1
  Li  Li140  1  0.19692491  0.72750874  0.13842894  1
  Li  Li141  1  0.69692491  0.77249126  0.86157106  1
  Li  Li142  1  0.80307509  0.22750874  0.36157106  1
  Li  Li143  1  0.30307509  0.27249126  0.63842894  1
  Te  Te144  1  0.87500000  0.87500000  0.87500000  1
  Te  Te145  1  0.62500000  0.12500000  0.37500000  1
  Te  Te146  1  0.12500000  0.37500000  0.62500000  1
  Te  Te147  1  0.37500000  0.62500000  0.12500000  1
  Te  Te148  1  0.37500000  0.37500000  0.37500000  1
  Te  Te149  1  0.12500000  0.62500000  0.87500000  1
  Te  Te150  1  0.62500000  0.87500000  0.12500000  1
  Te  Te151  1  0.87500000  0.12500000  0.62500000  1
  Te  Te152  1  0.00097780  0.00097780  0.00097780  1
  Te  Te153  1  0.49902220  0.99902220  0.50097780  1
  Te  Te154  1  0.99902220  0.50097780  0.49902220  1
  Te  Te155  1  0.50097780  0.49902220  0.99902220  1
  Te  Te156  1  0.75097780  0.25097780  0.24902220  1
  Te  Te157  1  0.74902220  0.74902220  0.74902220  1
  Te  Te158  1  0.25097780  0.24902220  0.75097780  1
  Te  Te159  1  0.24902220  0.75097780  0.25097780  1
  Te  Te160  1  0.50097780  0.50097780  0.50097780  1
  Te  Te161  1  0.99902220  0.49902220  0.00097780  1
  Te  Te162  1  0.49902220  0.00097780  0.99902220  1
  Te  Te163  1  0.00097780  0.99902220  0.49902220  1
  Te  Te164  1  0.25097780  0.75097780  0.74902220  1
  Te  Te165  1  0.24902220  0.24902220  0.24902220  1
  Te  Te166  1  0.75097780  0.74902220  0.25097780  1
  Te  Te167  1  0.74902220  0.25097780  0.75097780  1
