# generated using pymatgen
data_LiF
_symmetry_space_group_name_H-M   'P 1'
_cell_length_a   4.16865136
_cell_length_b   4.16865136
_cell_length_c   12.45827230
_cell_angle_alpha   90.00000000
_cell_angle_beta   90.00000000
_cell_angle_gamma   120.00000000
_symmetry_Int_Tables_number   1
_chemical_formula_structural   LiF
_chemical_formula_sum   'Li6 F6'
_cell_volume   187.49064408
_cell_formula_units_Z   6
loop_
 _symmetry_equiv_pos_site_id
 _symmetry_equiv_pos_as_xyz
  1  'x, y, z'
loop_
 _atom_site_type_symbol
 _atom_site_label
 _atom_site_symmetry_multiplicity
 _atom_site_fract_x
 _atom_site_fract_y
 _atom_site_fract_z
 _atom_site_occupancy
  F  F0  1  0.94758916  0.30012112  0.73913464  1
  F  F1  1  -0.30012112  0.64746804  0.73913464  1
  F  F2  1  -0.64746804  -0.94758916  0.73913464  1
  F  F3  1  -0.30012112  -0.94758916  -0.73913464  1
  F  F4  1  -0.64746804  0.30012112  -0.73913464  1
  F  F5  1  0.94758916  0.64746804  -0.73913464  1
  Li  Li6  1  0.33333333  0.66666667  0.19199338  1
  Li  Li7  1  0.33333333  0.66666667  0.80800662  1
  Li  Li8  1  0.55159864  0.44840136  0.00000000  1
  Li  Li9  1  0.55159864  0.10319728  0.00000000  1
  Li  Li10  1  0.89680272  0.44840136  -0.00000000  1
  Li  Li11  1  0.33333333  0.66666667  0.50000000  1
