# generated using pymatgen
data_Li2Ca3F8
_symmetry_space_group_name_H-M   'P 1'
_cell_length_a   19.35054035
_cell_length_b   19.35054035
_cell_length_c   5.43371431
_cell_angle_alpha   90.00000000
_cell_angle_beta   90.00000000
_cell_angle_gamma   90.00000000
_symmetry_Int_Tables_number   1
_chemical_formula_structural   Li2Ca3F8
_chemical_formula_sum   'Li16 Ca24 F64'
_cell_volume   2034.61852363
_cell_formula_units_Z   8
loop_
 _symmetry_equiv_pos_site_id
 _symmetry_equiv_pos_as_xyz
  1  'x, y, z'
loop_
 _atom_site_type_symbol
 _atom_site_label
 _atom_site_symmetry_multiplicity
 _atom_site_fract_x
 _atom_site_fract_y
 _atom_site_fract_z
 _atom_site_occupancy
  Ca  Ca0  1  0.17498391  0.42498391  0.12500000  1
  Ca  Ca1  1  0.32501609  0.57501609  0.62500000  1
  Ca  Ca2  1  0.82501609  0.92498391  0.37500000  1
  Ca  Ca3  1  0.67498391  0.07501609  0.87500000  1
  Ca  Ca4  1  0.82501609  0.57501609  0.87500000  1
  Ca  Ca5  1  0.67498391  0.42498391  0.37500000  1
  Ca  Ca6  1  0.17498391  0.07501609  0.62500000  1
  Ca  Ca7  1  0.32501609  0.92498391  0.12500000  1
  Ca  Ca8  1  0.67498391  0.92498391  0.62500000  1
  Ca  Ca9  1  0.82501609  0.07501609  0.12500000  1
  Ca  Ca10  1  0.32501609  0.42498391  0.87500000  1
  Ca  Ca11  1  0.17498391  0.57501609  0.37500000  1
  Ca  Ca12  1  0.32501609  0.07501609  0.37500000  1
  Ca  Ca13  1  0.17498391  0.92498391  0.87500000  1
  Ca  Ca14  1  0.67498391  0.57501609  0.12500000  1
  Ca  Ca15  1  0.82501609  0.42498391  0.62500000  1
  Ca  Ca16  1  0.00000000  0.25000000  0.37500000  1
  Ca  Ca17  1  0.00000000  0.75000000  0.62500000  1
  Ca  Ca18  1  0.50000000  0.25000000  0.62500000  1
  Ca  Ca19  1  0.50000000  0.75000000  0.37500000  1
  Ca  Ca20  1  0.50000000  0.75000000  0.87500000  1
  Ca  Ca21  1  0.50000000  0.25000000  0.12500000  1
  Ca  Ca22  1  0.00000000  0.75000000  0.12500000  1
  Ca  Ca23  1  0.00000000  0.25000000  0.87500000  1
  F  F24  1  0.54283757  0.40528772  0.46150473  1
  F  F25  1  -0.04283757  -0.40528772  0.96150473  1
  F  F26  1  -0.15528772  1.29283757  0.71150473  1
  F  F27  1  0.65528772  -0.29283757  1.21150473  1
  F  F28  1  -0.04283757  0.40528772  -0.46150473  1
  F  F29  1  0.54283757  -0.40528772  0.03849527  1
  F  F30  1  0.65528772  1.29283757  0.28849527  1
  F  F31  1  -0.15528772  -0.29283757  -0.21150473  1
  F  F32  1  -0.54283757  -0.40528772  -0.46150473  1
  F  F33  1  1.04283757  0.40528772  0.03849527  1
  F  F34  1  1.15528772  -0.29283757  0.28849527  1
  F  F35  1  0.34471228  1.29283757  -0.21150473  1
  F  F36  1  1.04283757  -0.40528772  0.46150473  1
  F  F37  1  -0.54283757  0.40528772  0.96150473  1
  F  F38  1  0.34471228  -0.29283757  0.71150473  1
  F  F39  1  1.15528772  1.29283757  1.21150473  1
  F  F40  1  1.04283757  0.90528772  0.96150473  1
  F  F41  1  0.45716243  0.09471228  1.46150473  1
  F  F42  1  0.34471228  1.79283757  1.21150473  1
  F  F43  1  1.15528772  0.20716243  1.71150473  1
  F  F44  1  0.45716243  0.90528772  0.03849527  1
  F  F45  1  1.04283757  0.09471228  0.53849527  1
  F  F46  1  1.15528772  1.79283757  0.78849527  1
  F  F47  1  0.34471228  0.20716243  0.28849527  1
  F  F48  1  -0.04283757  0.09471228  0.03849527  1
  F  F49  1  1.54283757  0.90528772  0.53849527  1
  F  F50  1  1.65528772  0.20716243  0.78849527  1
  F  F51  1  0.84471228  1.79283757  0.28849527  1
  F  F52  1  1.54283757  0.09471228  0.96150473  1
  F  F53  1  -0.04283757  0.90528772  1.46150473  1
  F  F54  1  0.84471228  0.20716243  1.21150473  1
  F  F55  1  1.65528772  1.79283757  1.71150473  1
  F  F56  1  0.12377782  0.96405602  0.29269928  1
  F  F57  1  0.37622218  0.03594398  0.79269928  1
  F  F58  1  0.28594398  0.87377782  0.54269928  1
  F  F59  1  0.21405602  0.12622218  0.04269928  1
  F  F60  1  0.37622218  0.96405602  0.70730072  1
  F  F61  1  0.12377782  0.03594398  0.20730072  1
  F  F62  1  0.21405602  0.87377782  0.45730072  1
  F  F63  1  0.28594398  0.12622218  0.95730072  1
  F  F64  1  0.87622218  0.03594398  0.70730072  1
  F  F65  1  0.62377782  0.96405602  0.20730072  1
  F  F66  1  0.71405602  0.12622218  0.45730072  1
  F  F67  1  0.78594398  0.87377782  0.95730072  1
  F  F68  1  0.62377782  0.03594398  0.29269928  1
  F  F69  1  0.87622218  0.96405602  0.79269928  1
  F  F70  1  0.78594398  0.12622218  0.54269928  1
  F  F71  1  0.71405602  0.87377782  0.04269928  1
  F  F72  1  0.62377782  0.46405602  0.79269928  1
  F  F73  1  0.87622218  0.53594398  0.29269928  1
  F  F74  1  0.78594398  0.37377782  0.04269928  1
  F  F75  1  0.71405602  0.62622218  0.54269928  1
  F  F76  1  0.87622218  0.46405602  0.20730072  1
  F  F77  1  0.62377782  0.53594398  0.70730072  1
  F  F78  1  0.71405602  0.37377782  0.95730072  1
  F  F79  1  0.78594398  0.62622218  0.45730072  1
  F  F80  1  0.37622218  0.53594398  0.20730072  1
  F  F81  1  0.12377782  0.46405602  0.70730072  1
  F  F82  1  0.21405602  0.62622218  0.95730072  1
  F  F83  1  0.28594398  0.37377782  0.45730072  1
  F  F84  1  0.12377782  0.53594398  0.79269928  1
  F  F85  1  0.37622218  0.46405602  0.29269928  1
  F  F86  1  0.28594398  0.62622218  0.04269928  1
  F  F87  1  0.21405602  0.37377782  0.54269928  1
  Li  Li88  1  0.97311692  -0.00000000  0.25000000  1
  Li  Li89  1  0.52688308  0.00000000  0.75000000  1
  Li  Li90  1  0.25000000  0.72311692  0.50000000  1
  Li  Li91  1  0.25000000  0.27688308  0.00000000  1
  Li  Li92  1  0.02688308  0.00000000  0.75000000  1
  Li  Li93  1  0.47311692  -0.00000000  0.25000000  1
  Li  Li94  1  0.75000000  0.27688308  0.50000000  1
  Li  Li95  1  0.75000000  0.72311692  -0.00000000  1
  Li  Li96  1  0.47311692  0.50000000  0.75000000  1
  Li  Li97  1  0.02688308  0.50000000  0.25000000  1
  Li  Li98  1  0.75000000  0.22311692  0.00000000  1
  Li  Li99  1  0.75000000  0.77688308  0.50000000  1
  Li  Li100  1  0.52688308  0.50000000  0.25000000  1
  Li  Li101  1  0.97311692  0.50000000  0.75000000  1
  Li  Li102  1  0.25000000  0.77688308  0.00000000  1
  Li  Li103  1  0.25000000  0.22311692  0.50000000  1
