# generated using pymatgen
data_Li2Y2Cu3P2Se
_symmetry_space_group_name_H-M   'P 1'
_cell_length_a   5.10573172
_cell_length_b   5.36701933
_cell_length_c   6.71209002
_cell_angle_alpha   93.76759388
_cell_angle_beta   97.41084684
_cell_angle_gamma   103.78853377
_symmetry_Int_Tables_number   1
_chemical_formula_structural   Li2Y2Cu3P2Se
_chemical_formula_sum   'Li2 Y2 Cu3 P2 Se1'
_cell_volume   176.24530671
_cell_formula_units_Z   1
loop_
 _symmetry_equiv_pos_site_id
 _symmetry_equiv_pos_as_xyz
  1  'x, y, z'
loop_
 _atom_site_type_symbol
 _atom_site_label
 _atom_site_symmetry_multiplicity
 _atom_site_fract_x
 _atom_site_fract_y
 _atom_site_fract_z
 _atom_site_occupancy
  Se  Se0  1  0.00000000  0.00000000  0.00000000  1
  Cu  Cu1  1  0.50000000  0.50000000  0.50000000  1
  Cu  Cu2  1  0.25000000  0.25000000  0.25000000  1
  Cu  Cu3  1  0.75000000  0.25000000  0.00000000  1
  Y  Y4  1  0.25000000  0.75000000  0.50000000  1
  Y  Y5  1  0.84036237  0.51279571  0.73833602  1
  P  P6  1  0.28978074  0.80838983  0.40426890  1
  P  P7  1  0.94849093  0.87856476  0.10703931  1
  Li  Li8  1  0.73773328  0.68977799  0.97065809  1
  Li  Li9  1  0.58075823  0.29936460  0.84563601  1
