# generated using pymatgen
data_Li3ScAlOF
_symmetry_space_group_name_H-M   'P 1'
_cell_length_a   3.33967936
_cell_length_b   3.21631829
_cell_length_c   5.88849189
_cell_angle_alpha   113.17699158
_cell_angle_beta   102.29664725
_cell_angle_gamma   104.54604209
_symmetry_Int_Tables_number   1
_chemical_formula_structural   Li3ScAlOF
_chemical_formula_sum   'Li3 Sc1 Al1 O1 F1'
_cell_volume   52.71354314
_cell_formula_units_Z   1
loop_
 _symmetry_equiv_pos_site_id
 _symmetry_equiv_pos_as_xyz
  1  'x, y, z'
loop_
 _atom_site_type_symbol
 _atom_site_label
 _atom_site_symmetry_multiplicity
 _atom_site_fract_x
 _atom_site_fract_y
 _atom_site_fract_z
 _atom_site_occupancy
  F  F0  1  0.00000000  0.00000000  0.00000000  1
  O  O1  1  0.50000000  0.50000000  0.50000000  1
  Sc  Sc2  1  0.25000000  0.25000000  0.25000000  1
  Al  Al3  1  0.75000000  0.25000000  0.00000000  1
  Li  Li4  1  0.25000000  0.75000000  0.50000000  1
  Li  Li5  1  0.62299194  0.31700357  0.49862181  1
  Li  Li6  1  0.53656462  0.61489261  0.82673327  1
