# generated using pymatgen
data_LiF
_symmetry_space_group_name_H-M   'P 1'
_cell_length_a   16.29370195
_cell_length_b   16.29370195
_cell_length_c   6.57791356
_cell_angle_alpha   90.00000000
_cell_angle_beta   90.00000000
_cell_angle_gamma   90.00000000
_symmetry_Int_Tables_number   1
_chemical_formula_structural   LiF
_chemical_formula_sum   'Li64 F64'
_cell_volume   1746.33555949
_cell_formula_units_Z   64
loop_
 _symmetry_equiv_pos_site_id
 _symmetry_equiv_pos_as_xyz
  1  'x, y, z'
loop_
 _atom_site_type_symbol
 _atom_site_label
 _atom_site_symmetry_multiplicity
 _atom_site_fract_x
 _atom_site_fract_y
 _atom_site_fract_z
 _atom_site_occupancy
  F  F0  1  0.00000000  0.25000000  0.37500000  1
  F  F1  1  0.00000000  0.75000000  0.62500000  1
  F  F2  1  0.50000000  0.25000000  0.62500000  1
  F  F3  1  0.50000000  0.75000000  0.37500000  1
  F  F4  1  0.50000000  0.75000000  0.87500000  1
  F  F5  1  0.50000000  0.25000000  0.12500000  1
  F  F6  1  0.00000000  0.75000000  0.12500000  1
  F  F7  1  0.00000000  0.25000000  0.87500000  1
  F  F8  1  0.14195158  0.39195158  0.12500000  1
  F  F9  1  0.35804842  0.60804842  0.62500000  1
  F  F10  1  0.85804842  0.89195158  0.37500000  1
  F  F11  1  0.64195158  0.10804842  0.87500000  1
  F  F12  1  0.85804842  0.60804842  0.87500000  1
  F  F13  1  0.64195158  0.39195158  0.37500000  1
  F  F14  1  0.14195158  0.10804842  0.62500000  1
  F  F15  1  0.35804842  0.89195158  0.12500000  1
  F  F16  1  0.64195158  0.89195158  0.62500000  1
  F  F17  1  0.85804842  0.10804842  0.12500000  1
  F  F18  1  0.35804842  0.39195158  0.87500000  1
  F  F19  1  0.14195158  0.60804842  0.37500000  1
  F  F20  1  0.35804842  0.10804842  0.37500000  1
  F  F21  1  0.14195158  0.89195158  0.87500000  1
  F  F22  1  0.64195158  0.60804842  0.12500000  1
  F  F23  1  0.85804842  0.39195158  0.62500000  1
  F  F24  1  0.08057844  0.00930430  0.63460803  1
  F  F25  1  0.41942156  0.99069570  0.13460803  1
  F  F26  1  0.24069570  0.83057844  0.88460803  1
  F  F27  1  0.25930430  0.16942156  0.38460803  1
  F  F28  1  0.41942156  0.00930430  0.36539197  1
  F  F29  1  0.08057844  0.99069570  0.86539197  1
  F  F30  1  0.25930430  0.83057844  0.11539197  1
  F  F31  1  0.24069570  0.16942156  0.61539197  1
  F  F32  1  0.91942156  0.99069570  0.36539197  1
  F  F33  1  0.58057844  0.00930430  0.86539197  1
  F  F34  1  0.75930430  0.16942156  0.11539197  1
  F  F35  1  0.74069570  0.83057844  0.61539197  1
  F  F36  1  0.58057844  0.99069570  0.63460803  1
  F  F37  1  0.91942156  0.00930430  0.13460803  1
  F  F38  1  0.74069570  0.16942156  0.88460803  1
  F  F39  1  0.75930430  0.83057844  0.38460803  1
  F  F40  1  0.58057844  0.50930430  0.13460803  1
  F  F41  1  0.91942156  0.49069570  0.63460803  1
  F  F42  1  0.74069570  0.33057844  0.38460803  1
  F  F43  1  0.75930430  0.66942156  0.88460803  1
  F  F44  1  0.91942156  0.50930430  0.86539197  1
  F  F45  1  0.58057844  0.49069570  0.36539197  1
  F  F46  1  0.75930430  0.33057844  0.61539197  1
  F  F47  1  0.74069570  0.66942156  0.11539197  1
  F  F48  1  0.41942156  0.49069570  0.86539197  1
  F  F49  1  0.08057844  0.50930430  0.36539197  1
  F  F50  1  0.25930430  0.66942156  0.61539197  1
  F  F51  1  0.24069570  0.33057844  0.11539197  1
  F  F52  1  0.08057844  0.49069570  0.13460803  1
  F  F53  1  0.41942156  0.50930430  0.63460803  1
  F  F54  1  0.24069570  0.66942156  0.38460803  1
  F  F55  1  0.25930430  0.33057844  0.88460803  1
  F  F56  1  0.00000000  0.25000000  0.12500000  1
  F  F57  1  0.00000000  0.75000000  0.37500000  1
  F  F58  1  0.00000000  0.75000000  0.87500000  1
  F  F59  1  0.00000000  0.25000000  0.62500000  1
  F  F60  1  0.50000000  0.75000000  0.62500000  1
  F  F61  1  0.50000000  0.25000000  0.87500000  1
  F  F62  1  0.50000000  0.25000000  0.37500000  1
  F  F63  1  0.50000000  0.75000000  0.12500000  1
  Li  Li64  1  0.75981845  0.61905451  0.77545332  1
  Li  Li65  1  -0.25981845  -0.61905451  1.27545332  1
  Li  Li66  1  -0.36905451  1.50981845  1.02545332  1
  Li  Li67  1  0.86905451  -0.50981845  1.52545332  1
  Li  Li68  1  -0.25981845  0.61905451  -0.77545332  1
  Li  Li69  1  0.75981845  -0.61905451  -0.27545332  1
  Li  Li70  1  0.86905451  1.50981845  -0.02545332  1
  Li  Li71  1  -0.36905451  -0.50981845  -0.52545332  1
  Li  Li72  1  -0.75981845  -0.61905451  -0.77545332  1
  Li  Li73  1  1.25981845  0.61905451  -0.27545332  1
  Li  Li74  1  1.36905451  -0.50981845  -0.02545332  1
  Li  Li75  1  0.13094549  1.50981845  -0.52545332  1
  Li  Li76  1  1.25981845  -0.61905451  0.77545332  1
  Li  Li77  1  -0.75981845  0.61905451  1.27545332  1
  Li  Li78  1  0.13094549  -0.50981845  1.02545332  1
  Li  Li79  1  1.36905451  1.50981845  1.52545332  1
  Li  Li80  1  1.25981845  1.11905451  1.27545332  1
  Li  Li81  1  0.24018155  -0.11905451  1.77545332  1
  Li  Li82  1  0.13094549  2.00981845  1.52545332  1
  Li  Li83  1  1.36905451  -0.00981845  2.02545332  1
  Li  Li84  1  0.24018155  1.11905451  -0.27545332  1
  Li  Li85  1  1.25981845  -0.11905451  0.22454668  1
  Li  Li86  1  1.36905451  2.00981845  0.47454668  1
  Li  Li87  1  0.13094549  -0.00981845  -0.02545332  1
  Li  Li88  1  -0.25981845  -0.11905451  -0.27545332  1
  Li  Li89  1  1.75981845  1.11905451  0.22454668  1
  Li  Li90  1  1.86905451  -0.00981845  0.47454668  1
  Li  Li91  1  0.63094549  2.00981845  -0.02545332  1
  Li  Li92  1  1.75981845  -0.11905451  1.27545332  1
  Li  Li93  1  -0.25981845  1.11905451  1.77545332  1
  Li  Li94  1  0.63094549  -0.00981845  1.52545332  1
  Li  Li95  1  1.86905451  2.00981845  2.02545332  1
  Li  Li96  1  0.44139795  0.91776353  0.60494022  1
  Li  Li97  1  0.05860205  0.08223647  0.10494022  1
  Li  Li98  1  0.33223647  0.19139795  0.85494022  1
  Li  Li99  1  0.16776353  0.80860205  0.35494022  1
  Li  Li100  1  0.05860205  0.91776353  0.39505978  1
  Li  Li101  1  0.44139795  0.08223647  0.89505978  1
  Li  Li102  1  0.16776353  0.19139795  0.14505978  1
  Li  Li103  1  0.33223647  0.80860205  0.64505978  1
  Li  Li104  1  0.55860205  0.08223647  0.39505978  1
  Li  Li105  1  0.94139795  0.91776353  0.89505978  1
  Li  Li106  1  0.66776353  0.80860205  0.14505978  1
  Li  Li107  1  0.83223647  0.19139795  0.64505978  1
  Li  Li108  1  0.94139795  0.08223647  0.60494022  1
  Li  Li109  1  0.55860205  0.91776353  0.10494022  1
  Li  Li110  1  0.83223647  0.80860205  0.85494022  1
  Li  Li111  1  0.66776353  0.19139795  0.35494022  1
  Li  Li112  1  0.94139795  0.41776353  0.10494022  1
  Li  Li113  1  0.55860205  0.58223647  0.60494022  1
  Li  Li114  1  0.83223647  0.69139795  0.35494022  1
  Li  Li115  1  0.66776353  0.30860205  0.85494022  1
  Li  Li116  1  0.55860205  0.41776353  0.89505978  1
  Li  Li117  1  0.94139795  0.58223647  0.39505978  1
  Li  Li118  1  0.66776353  0.69139795  0.64505978  1
  Li  Li119  1  0.83223647  0.30860205  0.14505978  1
  Li  Li120  1  0.05860205  0.58223647  0.89505978  1
  Li  Li121  1  0.44139795  0.41776353  0.39505978  1
  Li  Li122  1  0.16776353  0.30860205  0.64505978  1
  Li  Li123  1  0.33223647  0.69139795  0.14505978  1
  Li  Li124  1  0.44139795  0.58223647  0.10494022  1
  Li  Li125  1  0.05860205  0.41776353  0.60494022  1
  Li  Li126  1  0.33223647  0.30860205  0.35494022  1
  Li  Li127  1  0.16776353  0.69139795  0.85494022  1
