# generated using pymatgen
data_Li2YAs2(PSe)2
_symmetry_space_group_name_H-M   'P 1'
_cell_length_a   5.13860244
_cell_length_b   5.25889855
_cell_length_c   7.09599022
_cell_angle_alpha   94.80677398
_cell_angle_beta   100.27168801
_cell_angle_gamma   108.35213759
_symmetry_Int_Tables_number   1
_chemical_formula_structural   Li2YAs2(PSe)2
_chemical_formula_sum   'Li2 Y1 As2 P2 Se2'
_cell_volume   177.06599186
_cell_formula_units_Z   1
loop_
 _symmetry_equiv_pos_site_id
 _symmetry_equiv_pos_as_xyz
  1  'x, y, z'
loop_
 _atom_site_type_symbol
 _atom_site_label
 _atom_site_symmetry_multiplicity
 _atom_site_fract_x
 _atom_site_fract_y
 _atom_site_fract_z
 _atom_site_occupancy
  Se  Se0  1  0.12500000  0.00000000  0.25000000  1
  Se  Se1  1  0.00000000  0.00000000  0.00000000  1
  P  P2  1  0.37500000  0.00000000  0.25000000  1
  P  P3  1  0.25000000  0.25000000  0.25000000  1
  As  As4  1  0.00000000  0.25000000  0.12500000  1
  As  As5  1  0.51725094  0.72480434  0.70198847  1
  Li  Li6  1  0.97735650  0.08991988  0.50707713  1
  Li  Li7  1  0.34857969  0.10785905  0.43119368  1
  Y  Y8  1  0.16246927  0.62601467  0.60501348  1
