# generated using pymatgen
data_Li2Y2Te4MoP3
_symmetry_space_group_name_H-M   'P 1'
_cell_length_a   4.45623638
_cell_length_b   4.74540463
_cell_length_c   6.86865418
_cell_angle_alpha   95.92247004
_cell_angle_beta   102.89790848
_cell_angle_gamma   113.78820829
_symmetry_Int_Tables_number   1
_chemical_formula_structural   Li2Y2Te4MoP3
_chemical_formula_sum   'Li2 Y2 Te4 Mo1 P3'
_cell_volume   126.47940025
_cell_formula_units_Z   1
loop_
 _symmetry_equiv_pos_site_id
 _symmetry_equiv_pos_as_xyz
  1  'x, y, z'
loop_
 _atom_site_type_symbol
 _atom_site_label
 _atom_site_symmetry_multiplicity
 _atom_site_fract_x
 _atom_site_fract_y
 _atom_site_fract_z
 _atom_site_occupancy
  Te  Te0  1  0.12500000  0.00000000  0.25000000  1
  Te  Te1  1  0.00000000  0.00000000  0.00000000  1
  Te  Te2  1  0.37500000  0.00000000  0.25000000  1
  Te  Te3  1  0.25000000  0.25000000  0.25000000  1
  P  P4  1  0.00000000  0.25000000  0.12500000  1
  P  P5  1  0.96763903  0.21142632  0.78118065  1
  P  P6  1  0.17501636  0.45461395  0.16599593  1
  Mo  Mo7  1  0.38387016  0.70096500  0.85607037  1
  Li  Li8  1  0.09345529  0.73449011  0.05281988  1
  Li  Li9  1  0.09418995  0.44249329  0.44483159  1
  Y  Y10  1  0.45611034  0.24566699  0.29328042  1
  Y  Y11  1  0.04113366  0.93730089  0.84505323  1
