# generated using pymatgen
data_LiY2Te4(PSe)2
_symmetry_space_group_name_H-M   'P 1'
_cell_length_a   4.88053459
_cell_length_b   5.03893889
_cell_length_c   6.89177254
_cell_angle_alpha   94.82910754
_cell_angle_beta   99.92813608
_cell_angle_gamma   108.47343700
_symmetry_Int_Tables_number   1
_chemical_formula_structural   LiY2Te4(PSe)2
_chemical_formula_sum   'Li1 Y2 Te4 P2 Se2'
_cell_volume   156.58886170
_cell_formula_units_Z   1
loop_
 _symmetry_equiv_pos_site_id
 _symmetry_equiv_pos_as_xyz
  1  'x, y, z'
loop_
 _atom_site_type_symbol
 _atom_site_label
 _atom_site_symmetry_multiplicity
 _atom_site_fract_x
 _atom_site_fract_y
 _atom_site_fract_z
 _atom_site_occupancy
  Se  Se0  1  0.00000000  0.00000000  0.00000000  1
  Se  Se1  1  0.50000000  0.50000000  0.50000000  1
  Te  Te2  1  0.50000000  0.50000000  0.00000000  1
  Te  Te3  1  0.50000000  0.00000000  0.50000000  1
  Te  Te4  1  0.00000000  0.50000000  0.50000000  1
  Te  Te5  1  0.83607756  0.46918933  0.97972947  1
  Y  Y6  1  0.27803902  0.24423577  0.10072475  1
  Y  Y7  1  0.78612601  0.02401485  0.71657297  1
  P  P8  1  0.88078405  0.28674012  0.40502844  1
  P  P9  1  0.94722162  0.24098153  0.57977942  1
  Li  Li10  1  0.56267896  0.08196259  0.61660116  1
