# generated using pymatgen
data_LiF
_symmetry_space_group_name_H-M   'P 1'
_cell_length_a   5.72720580
_cell_length_b   7.27602039
_cell_length_c   10.12269568
_cell_angle_alpha   90.00000000
_cell_angle_beta   90.00000000
_cell_angle_gamma   90.00000000
_symmetry_Int_Tables_number   1
_chemical_formula_structural   LiF
_chemical_formula_sum   'Li24 F24'
_cell_volume   421.82554575
_cell_formula_units_Z   24
loop_
 _symmetry_equiv_pos_site_id
 _symmetry_equiv_pos_as_xyz
  1  'x, y, z'
loop_
 _atom_site_type_symbol
 _atom_site_label
 _atom_site_symmetry_multiplicity
 _atom_site_fract_x
 _atom_site_fract_y
 _atom_site_fract_z
 _atom_site_occupancy
  F  F0  1  0.00000000  0.00000000  0.50000000  1
  F  F1  1  0.50000000  0.00000000  0.00000000  1
  F  F2  1  0.00000000  0.50000000  0.50000000  1
  F  F3  1  0.50000000  0.50000000  -0.00000000  1
  F  F4  1  0.14192790  0.25000000  0.95760472  1
  F  F5  1  0.35807210  0.75000000  0.45760472  1
  F  F6  1  0.85807210  0.75000000  0.04239528  1
  F  F7  1  0.64192790  0.25000000  0.54239528  1
  F  F8  1  0.44290352  0.25000000  0.21954056  1
  F  F9  1  0.05709648  0.75000000  0.71954056  1
  F  F10  1  0.55709648  0.75000000  0.78045944  1
  F  F11  1  0.94290352  0.25000000  0.28045944  1
  F  F12  1  0.17332986  0.00822380  0.83304991  1
  F  F13  1  0.32667014  0.99177620  0.33304991  1
  F  F14  1  0.82667014  0.50822380  0.16695009  1
  F  F15  1  0.67332986  0.49177620  0.66695009  1
  F  F16  1  0.82667014  0.99177620  0.16695009  1
  F  F17  1  0.67332986  0.00822380  0.66695009  1
  F  F18  1  0.17332986  0.49177620  0.83304991  1
  F  F19  1  0.32667014  0.50822380  0.33304991  1
  F  F20  1  0.00000000  0.00000000  0.00000000  1
  F  F21  1  0.50000000  0.00000000  0.50000000  1
  F  F22  1  0.00000000  0.50000000  0.00000000  1
  F  F23  1  0.50000000  0.50000000  0.50000000  1
  Li  Li24  1  0.76444283  0.51546038  0.76750649  1
  Li  Li25  1  -0.26444283  -0.51546038  1.26750649  1
  Li  Li26  1  -0.76444283  1.01546038  -0.76750649  1
  Li  Li27  1  1.26444283  -0.01546038  -0.26750649  1
  Li  Li28  1  -0.76444283  -0.51546038  -0.76750649  1
  Li  Li29  1  1.26444283  0.51546038  -0.26750649  1
  Li  Li30  1  0.76444283  -0.01546038  0.76750649  1
  Li  Li31  1  -0.26444283  1.01546038  1.26750649  1
  Li  Li32  1  0.39323322  0.60770002  0.07409229  1
  Li  Li33  1  0.10676678  0.39229998  0.57409229  1
  Li  Li34  1  0.60676678  0.10770002  0.92590771  1
  Li  Li35  1  0.89323322  0.89229998  0.42590771  1
  Li  Li36  1  0.60676678  0.39229998  0.92590771  1
  Li  Li37  1  0.89323322  0.60770002  0.42590771  1
  Li  Li38  1  0.39323322  0.89229998  0.07409229  1
  Li  Li39  1  0.10676678  0.10770002  0.57409229  1
  Li  Li40  1  0.71461548  0.98679355  0.56809702  1
  Li  Li41  1  0.78538452  0.01320645  0.06809702  1
  Li  Li42  1  0.28538452  0.48679355  0.43190298  1
  Li  Li43  1  0.21461548  0.51320645  0.93190298  1
  Li  Li44  1  0.28538452  0.01320645  0.43190298  1
  Li  Li45  1  0.21461548  0.98679355  0.93190298  1
  Li  Li46  1  0.71461548  0.51320645  0.56809702  1
  Li  Li47  1  0.78538452  0.48679355  0.06809702  1
