# generated using pymatgen
data_Li2YTiOF
_symmetry_space_group_name_H-M   'P 1'
_cell_length_a   3.26032434
_cell_length_b   3.13702404
_cell_length_c   5.49420614
_cell_angle_alpha   99.60855192
_cell_angle_beta   102.88581045
_cell_angle_gamma   111.57906745
_symmetry_Int_Tables_number   1
_chemical_formula_structural   Li2YTiOF
_chemical_formula_sum   'Li2 Y1 Ti1 O1 F1'
_cell_volume   48.98033837
_cell_formula_units_Z   1
loop_
 _symmetry_equiv_pos_site_id
 _symmetry_equiv_pos_as_xyz
  1  'x, y, z'
loop_
 _atom_site_type_symbol
 _atom_site_label
 _atom_site_symmetry_multiplicity
 _atom_site_fract_x
 _atom_site_fract_y
 _atom_site_fract_z
 _atom_site_occupancy
  F  F0  1  0.00000000  0.00000000  0.00000000  1
  Li  Li1  1  0.50000000  0.50000000  0.50000000  1
  Li  Li2  1  0.25000000  0.25000000  0.25000000  1
  O  O3  1  0.75000000  0.25000000  0.00000000  1
  Ti  Ti4  1  0.25000000  0.75000000  0.50000000  1
  Y  Y5  1  0.20135400  0.26412001  0.03942113  1
