# generated using pymatgen
data_Li2Y2Sb2P3
_symmetry_space_group_name_H-M   'P 1'
_cell_length_a   3.96269837
_cell_length_b   4.16191220
_cell_length_c   6.74230410
_cell_angle_alpha   96.56793163
_cell_angle_beta   104.30358964
_cell_angle_gamma   116.38077097
_symmetry_Int_Tables_number   1
_chemical_formula_structural   Li2Y2Sb2P3
_chemical_formula_sum   'Li2 Y2 Sb2 P3'
_cell_volume   93.25509618
_cell_formula_units_Z   1
loop_
 _symmetry_equiv_pos_site_id
 _symmetry_equiv_pos_as_xyz
  1  'x, y, z'
loop_
 _atom_site_type_symbol
 _atom_site_label
 _atom_site_symmetry_multiplicity
 _atom_site_fract_x
 _atom_site_fract_y
 _atom_site_fract_z
 _atom_site_occupancy
  Y  Y0  1  0.00000000  0.00000000  0.00000000  1
  Y  Y1  1  0.33300000  0.66700000  0.25000000  1
  P  P2  1  0.66700000  0.33300000  0.50000000  1
  P  P3  1  0.00000000  0.00000000  0.75000000  1
  P  P4  1  0.83761329  0.68293478  0.36721360  1
  Li  Li5  1  0.16923988  0.92937367  0.05773141  1
  Li  Li6  1  0.11638288  0.16423546  0.85933433  1
  Sb  Sb7  1  0.11441490  0.89685693  0.39706884  1
  Sb  Sb8  1  0.75897113  0.47522952  0.68205057  1
