# generated using pymatgen
data_LiY2As4PSe
_symmetry_space_group_name_H-M   'P 1'
_cell_length_a   4.72590800
_cell_length_b   4.77136617
_cell_length_c   6.35776095
_cell_angle_alpha   94.74616759
_cell_angle_beta   98.50698869
_cell_angle_gamma   106.19483428
_symmetry_Int_Tables_number   1
_chemical_formula_structural   LiY2As4PSe
_chemical_formula_sum   'Li1 Y2 As4 P1 Se1'
_cell_volume   134.99248667
_cell_formula_units_Z   1
loop_
 _symmetry_equiv_pos_site_id
 _symmetry_equiv_pos_as_xyz
  1  'x, y, z'
loop_
 _atom_site_type_symbol
 _atom_site_label
 _atom_site_symmetry_multiplicity
 _atom_site_fract_x
 _atom_site_fract_y
 _atom_site_fract_z
 _atom_site_occupancy
  Se  Se0  1  0.12500000  0.00000000  0.25000000  1
  Y  Y1  1  0.00000000  0.00000000  0.00000000  1
  Y  Y2  1  0.37500000  0.00000000  0.25000000  1
  P  P3  1  0.25000000  0.25000000  0.25000000  1
  As  As4  1  0.00000000  0.25000000  0.12500000  1
  As  As5  1  0.49629289  0.52524273  0.42838905  1
  As  As6  1  0.77131083  0.63426067  0.30110112  1
  As  As7  1  0.61391371  0.54751376  0.72438361  1
  Li  Li8  1  0.41325649  0.57266169  0.35425232  1
