# generated using pymatgen
data_Li3AlCuMoP3
_symmetry_space_group_name_H-M   'P 1'
_cell_length_a   5.46246727
_cell_length_b   5.79148684
_cell_length_c   7.10694238
_cell_angle_alpha   98.53832944
_cell_angle_beta   102.04805354
_cell_angle_gamma   106.14518753
_symmetry_Int_Tables_number   1
_chemical_formula_structural   Li3AlCuMoP3
_chemical_formula_sum   'Li3 Al1 Cu1 Mo1 P3'
_cell_volume   206.04251731
_cell_formula_units_Z   1
loop_
 _symmetry_equiv_pos_site_id
 _symmetry_equiv_pos_as_xyz
  1  'x, y, z'
loop_
 _atom_site_type_symbol
 _atom_site_label
 _atom_site_symmetry_multiplicity
 _atom_site_fract_x
 _atom_site_fract_y
 _atom_site_fract_z
 _atom_site_occupancy
  Al  Al0  1  0.00000000  0.00000000  0.00000000  1
  Cu  Cu1  1  0.50000000  0.50000000  0.50000000  1
  P  P2  1  0.50000000  0.50000000  0.00000000  1
  P  P3  1  0.50000000  0.00000000  0.50000000  1
  P  P4  1  0.00000000  0.50000000  0.50000000  1
  Mo  Mo5  1  0.84666728  0.73461116  0.98651446  1
  Li  Li6  1  0.02054213  0.53478172  0.97763867  1
  Li  Li7  1  0.89347866  0.00697759  0.26588747  1
  Li  Li8  1  0.71214625  0.96919732  0.66866890  1
