# generated using pymatgen
data_Li6Y2Al(P2Se)2
_symmetry_space_group_name_H-M   'P 1'
_cell_length_a   7.62360863
_cell_length_b   8.04058616
_cell_length_c   8.23735389
_cell_angle_alpha   90.00000000
_cell_angle_beta   90.00000000
_cell_angle_gamma   90.00000000
_symmetry_Int_Tables_number   1
_chemical_formula_structural   Li6Y2Al(P2Se)2
_chemical_formula_sum   'Li6 Y2 Al1 P4 Se2'
_cell_volume   504.93564223
_cell_formula_units_Z   1
loop_
 _symmetry_equiv_pos_site_id
 _symmetry_equiv_pos_as_xyz
  1  'x, y, z'
loop_
 _atom_site_type_symbol
 _atom_site_label
 _atom_site_symmetry_multiplicity
 _atom_site_fract_x
 _atom_site_fract_y
 _atom_site_fract_z
 _atom_site_occupancy
  Al  Al0  1  0.00000000  0.00000000  0.00000000  1
  Se  Se1  1  0.50000000  0.50000000  0.50000000  1
  Se  Se2  1  0.25000000  0.25000000  0.25000000  1
  P  P3  1  0.75000000  0.25000000  0.00000000  1
  P  P4  1  0.25000000  0.75000000  0.50000000  1
  P  P5  1  0.96279654  0.69178815  0.43743273  1
  P  P6  1  0.70520254  0.54638211  0.61394373  1
  Li  Li7  1  0.61141861  0.80233458  0.53514447  1
  Li  Li8  1  0.34885869  0.39922358  0.80841034  1
  Li  Li9  1  0.02368606  0.90721473  0.44469968  1
  Li  Li10  1  0.49413207  0.42686606  0.55338688  1
  Li  Li11  1  0.08581721  0.76149762  0.00465154  1
  Li  Li12  1  0.82288505  0.84311429  0.59208769  1
  Y  Y13  1  0.81997299  0.99003967  0.35939203  1
  Y  Y14  1  0.42718783  0.38840836  0.11522242  1
