# generated using pymatgen
data_Li3Hf3B(SeF)6
_symmetry_space_group_name_H-M   'P 1'
_cell_length_a   17.87826103
_cell_length_b   25.47573111
_cell_length_c   13.46736029
_cell_angle_alpha   90.00000000
_cell_angle_beta   90.00000000
_cell_angle_gamma   90.00000000
_symmetry_Int_Tables_number   1
_chemical_formula_structural   Li3Hf3B(SeF)6
_chemical_formula_sum   'Li48 Hf48 B16 Se96 F96'
_cell_volume   6133.86776617
_cell_formula_units_Z   16
loop_
 _symmetry_equiv_pos_site_id
 _symmetry_equiv_pos_as_xyz
  1  'x, y, z'
loop_
 _atom_site_type_symbol
 _atom_site_label
 _atom_site_symmetry_multiplicity
 _atom_site_fract_x
 _atom_site_fract_y
 _atom_site_fract_z
 _atom_site_occupancy
  B  B0  1  0.82558112  0.45745864  0.82945199  1
  B  B1  1  0.67441888  0.54254136  0.32945199  1
  B  B2  1  0.17441888  0.95745864  0.17054801  1
  B  B3  1  0.32558112  0.04254136  0.67054801  1
  B  B4  1  0.17441888  0.54254136  0.17054801  1
  B  B5  1  0.32558112  0.45745864  0.67054801  1
  B  B6  1  0.82558112  0.04254136  0.82945199  1
  B  B7  1  0.67441888  0.95745864  0.32945199  1
  B  B8  1  0.04527747  0.58187211  0.16862643  1
  B  B9  1  0.45472253  0.41812789  0.66862643  1
  B  B10  1  0.95472253  0.08187211  0.83137357  1
  B  B11  1  0.54527747  0.91812789  0.33137357  1
  B  B12  1  0.95472253  0.41812789  0.83137357  1
  B  B13  1  0.54527747  0.58187211  0.33137357  1
  B  B14  1  0.04527747  0.91812789  0.16862643  1
  B  B15  1  0.45472253  0.08187211  0.66862643  1
  F  F16  1  0.29064405  0.25000000  0.57969213  1
  F  F17  1  0.20935595  0.75000000  0.07969213  1
  F  F18  1  0.70935595  0.75000000  0.42030787  1
  F  F19  1  0.79064405  0.25000000  0.92030787  1
  F  F20  1  0.72587009  0.07016090  0.04300975  1
  F  F21  1  -0.22587009  -0.07016090  0.54300975  1
  F  F22  1  -0.72587009  0.57016090  -0.04300975  1
  F  F23  1  1.22587009  0.42983910  0.45699025  1
  F  F24  1  -0.72587009  -0.07016090  -0.04300975  1
  F  F25  1  1.22587009  0.07016090  0.45699025  1
  F  F26  1  0.72587009  0.42983910  0.04300975  1
  F  F27  1  -0.22587009  0.57016090  0.54300975  1
  F  F28  1  0.22037406  0.37600740  0.64375930  1
  F  F29  1  0.27962594  0.62399260  0.14375930  1
  F  F30  1  0.77962594  0.87600740  0.35624070  1
  F  F31  1  0.72037406  0.12399260  0.85624070  1
  F  F32  1  0.77962594  0.62399260  0.35624070  1
  F  F33  1  0.72037406  0.37600740  0.85624070  1
  F  F34  1  0.22037406  0.12399260  0.64375930  1
  F  F35  1  0.27962594  0.87600740  0.14375930  1
  F  F36  1  0.06009989  0.62426390  0.27235672  1
  F  F37  1  0.43990011  0.37573610  0.77235672  1
  F  F38  1  0.93990011  0.12426390  0.72764328  1
  F  F39  1  0.56009989  0.87573610  0.22764328  1
  F  F40  1  0.93990011  0.37573610  0.72764328  1
  F  F41  1  0.56009989  0.62426390  0.22764328  1
  F  F42  1  0.06009989  0.87573610  0.27235672  1
  F  F43  1  0.43990011  0.12426390  0.77235672  1
  F  F44  1  0.33925056  0.25000000  0.05438038  1
  F  F45  1  0.16074944  0.75000000  0.55438038  1
  F  F46  1  0.66074944  0.75000000  0.94561962  1
  F  F47  1  0.83925056  0.25000000  0.44561962  1
  F  F48  1  0.36522431  0.43450636  0.52166578  1
  F  F49  1  0.13477569  0.56549364  0.02166578  1
  F  F50  1  0.63477569  0.93450636  0.47833422  1
  F  F51  1  0.86522431  0.06549364  0.97833422  1
  F  F52  1  0.63477569  0.56549364  0.47833422  1
  F  F53  1  0.86522431  0.43450636  0.97833422  1
  F  F54  1  0.36522431  0.06549364  0.52166578  1
  F  F55  1  0.13477569  0.93450636  0.02166578  1
  F  F56  1  0.00000000  0.00000000  0.50000000  1
  F  F57  1  0.50000000  0.00000000  0.00000000  1
  F  F58  1  0.00000000  0.50000000  0.50000000  1
  F  F59  1  0.50000000  0.50000000  0.00000000  1
  F  F60  1  0.00000000  0.00000000  0.00000000  1
  F  F61  1  0.50000000  0.00000000  0.50000000  1
  F  F62  1  0.00000000  0.50000000  0.00000000  1
  F  F63  1  0.50000000  0.50000000  0.50000000  1
  F  F64  1  0.56485079  0.44679863  0.87501869  1
  F  F65  1  0.93514921  0.55320137  0.37501869  1
  F  F66  1  0.43514921  0.94679863  0.12498131  1
  F  F67  1  0.06485079  0.05320137  0.62498131  1
  F  F68  1  0.43514921  0.55320137  0.12498131  1
  F  F69  1  0.06485079  0.44679863  0.62498131  1
  F  F70  1  0.56485079  0.05320137  0.87501869  1
  F  F71  1  0.93514921  0.94679863  0.37501869  1
  F  F72  1  0.64169594  0.59286267  0.17603602  1
  F  F73  1  0.85830406  0.40713733  0.67603602  1
  F  F74  1  0.35830406  0.09286267  0.82396398  1
  F  F75  1  0.14169594  0.90713733  0.32396398  1
  F  F76  1  0.35830406  0.40713733  0.82396398  1
  F  F77  1  0.14169594  0.59286267  0.32396398  1
  F  F78  1  0.64169594  0.90713733  0.17603602  1
  F  F79  1  0.85830406  0.09286267  0.67603602  1
  F  F80  1  0.62754946  0.12599329  0.77943504  1
  F  F81  1  0.87245054  0.87400671  0.27943504  1
  F  F82  1  0.37245054  0.62599329  0.22056496  1
  F  F83  1  0.12754946  0.37400671  0.72056496  1
  F  F84  1  0.37245054  0.87400671  0.22056496  1
  F  F85  1  0.12754946  0.12599329  0.72056496  1
  F  F86  1  0.62754946  0.37400671  0.77943504  1
  F  F87  1  0.87245054  0.62599329  0.27943504  1
  F  F88  1  0.52097270  0.07490558  0.10780135  1
  F  F89  1  0.97902730  0.92509442  0.60780135  1
  F  F90  1  0.47902730  0.57490558  0.89219865  1
  F  F91  1  0.02097270  0.42509442  0.39219865  1
  F  F92  1  0.47902730  0.92509442  0.89219865  1
  F  F93  1  0.02097270  0.07490558  0.39219865  1
  F  F94  1  0.52097270  0.42509442  0.10780135  1
  F  F95  1  0.97902730  0.57490558  0.60780135  1
  F  F96  1  0.19954843  0.50186893  0.59823237  1
  F  F97  1  0.30045157  0.49813107  0.09823237  1
  F  F98  1  0.80045157  0.00186893  0.40176763  1
  F  F99  1  0.69954843  0.99813107  0.90176763  1
  F  F100  1  0.80045157  0.49813107  0.40176763  1
  F  F101  1  0.69954843  0.50186893  0.90176763  1
  F  F102  1  0.19954843  0.99813107  0.59823237  1
  F  F103  1  0.30045157  0.00186893  0.09823237  1
  F  F104  1  0.75999374  0.82158204  0.49287581  1
  F  F105  1  0.74000626  0.17841796  0.99287581  1
  F  F106  1  0.24000626  0.32158204  0.50712419  1
  F  F107  1  0.25999374  0.67841796  0.00712419  1
  F  F108  1  0.24000626  0.17841796  0.50712419  1
  F  F109  1  0.25999374  0.82158204  0.00712419  1
  F  F110  1  0.75999374  0.67841796  0.49287581  1
  F  F111  1  0.74000626  0.32158204  0.99287581  1
  Hf  Hf112  1  0.29134467  0.25000000  0.32100553  1
  Hf  Hf113  1  0.20865533  0.75000000  0.82100553  1
  Hf  Hf114  1  0.70865533  0.75000000  0.67899447  1
  Hf  Hf115  1  0.79134467  0.25000000  0.17899447  1
  Hf  Hf116  1  0.37306668  0.01166989  0.98999978  1
  Hf  Hf117  1  0.12693332  0.98833011  0.48999978  1
  Hf  Hf118  1  0.62693332  0.51166989  0.01000022  1
  Hf  Hf119  1  0.87306668  0.48833011  0.51000022  1
  Hf  Hf120  1  0.62693332  0.98833011  0.01000022  1
  Hf  Hf121  1  0.87306668  0.01166989  0.51000022  1
  Hf  Hf122  1  0.37306668  0.48833011  0.98999978  1
  Hf  Hf123  1  0.12693332  0.51166989  0.48999978  1
  Hf  Hf124  1  0.51058385  0.25000000  0.39779310  1
  Hf  Hf125  1  0.98941615  0.75000000  0.89779310  1
  Hf  Hf126  1  0.48941615  0.75000000  0.60220690  1
  Hf  Hf127  1  0.01058385  0.25000000  0.10220690  1
  Hf  Hf128  1  0.49723866  0.80244008  0.47083632  1
  Hf  Hf129  1  0.00276134  0.19755992  0.97083632  1
  Hf  Hf130  1  0.50276134  0.30244008  0.52916368  1
  Hf  Hf131  1  0.99723866  0.69755992  0.02916368  1
  Hf  Hf132  1  0.50276134  0.19755992  0.52916368  1
  Hf  Hf133  1  0.99723866  0.80244008  0.02916368  1
  Hf  Hf134  1  0.49723866  0.69755992  0.47083632  1
  Hf  Hf135  1  0.00276134  0.30244008  0.97083632  1
  Hf  Hf136  1  0.29358592  0.00431704  0.22380419  1
  Hf  Hf137  1  0.20641408  0.99568296  0.72380419  1
  Hf  Hf138  1  0.70641408  0.50431704  0.77619581  1
  Hf  Hf139  1  0.79358592  0.49568296  0.27619581  1
  Hf  Hf140  1  0.70641408  0.99568296  0.77619581  1
  Hf  Hf141  1  0.79358592  0.00431704  0.27619581  1
  Hf  Hf142  1  0.29358592  0.49568296  0.22380419  1
  Hf  Hf143  1  0.20641408  0.50431704  0.72380419  1
  Hf  Hf144  1  0.67059780  0.11896013  0.61003382  1
  Hf  Hf145  1  0.82940220  0.88103987  0.11003382  1
  Hf  Hf146  1  0.32940220  0.61896013  0.38996618  1
  Hf  Hf147  1  0.17059780  0.38103987  0.88996618  1
  Hf  Hf148  1  0.32940220  0.88103987  0.38996618  1
  Hf  Hf149  1  0.17059780  0.11896013  0.88996618  1
  Hf  Hf150  1  0.67059780  0.38103987  0.61003382  1
  Hf  Hf151  1  0.82940220  0.61896013  0.11003382  1
  Hf  Hf152  1  0.80916940  0.08312535  0.25820215  1
  Hf  Hf153  1  0.69083060  0.91687465  0.75820215  1
  Hf  Hf154  1  0.19083060  0.58312535  0.74179785  1
  Hf  Hf155  1  0.30916940  0.41687465  0.24179785  1
  Hf  Hf156  1  0.19083060  0.91687465  0.74179785  1
  Hf  Hf157  1  0.30916940  0.08312535  0.24179785  1
  Hf  Hf158  1  0.80916940  0.41687465  0.25820215  1
  Hf  Hf159  1  0.69083060  0.58312535  0.75820215  1
  Li  Li160  1  0.96564168  0.47142004  0.36928747  1
  Li  Li161  1  0.53435832  0.52857996  0.86928747  1
  Li  Li162  1  0.03435832  0.97142004  0.63071253  1
  Li  Li163  1  0.46564168  0.02857996  0.13071253  1
  Li  Li164  1  0.03435832  0.52857996  0.63071253  1
  Li  Li165  1  0.46564168  0.47142004  0.13071253  1
  Li  Li166  1  0.96564168  0.02857996  0.36928747  1
  Li  Li167  1  0.53435832  0.97142004  0.86928747  1
  Li  Li168  1  0.23042906  0.34771350  0.59378749  1
  Li  Li169  1  0.26957094  0.65228650  0.09378749  1
  Li  Li170  1  0.76957094  0.84771350  0.40621251  1
  Li  Li171  1  0.73042906  0.15228650  0.90621251  1
  Li  Li172  1  0.76957094  0.65228650  0.40621251  1
  Li  Li173  1  0.73042906  0.34771350  0.90621251  1
  Li  Li174  1  0.23042906  0.15228650  0.59378749  1
  Li  Li175  1  0.26957094  0.84771350  0.09378749  1
  Li  Li176  1  0.38844533  0.34372510  0.29172804  1
  Li  Li177  1  0.11155467  0.65627490  0.79172804  1
  Li  Li178  1  0.61155467  0.84372510  0.70827196  1
  Li  Li179  1  0.88844533  0.15627490  0.20827196  1
  Li  Li180  1  0.61155467  0.65627490  0.70827196  1
  Li  Li181  1  0.88844533  0.34372510  0.20827196  1
  Li  Li182  1  0.38844533  0.15627490  0.29172804  1
  Li  Li183  1  0.11155467  0.84372510  0.79172804  1
  Li  Li184  1  0.27808222  0.06409471  0.76529626  1
  Li  Li185  1  0.22191778  0.93590529  0.26529626  1
  Li  Li186  1  0.72191778  0.56409471  0.23470374  1
  Li  Li187  1  0.77808222  0.43590529  0.73470374  1
  Li  Li188  1  0.72191778  0.93590529  0.23470374  1
  Li  Li189  1  0.77808222  0.06409471  0.73470374  1
  Li  Li190  1  0.27808222  0.43590529  0.76529626  1
  Li  Li191  1  0.22191778  0.56409471  0.26529626  1
  Li  Li192  1  0.25524770  0.03689676  0.96098758  1
  Li  Li193  1  0.24475230  0.96310324  0.46098758  1
  Li  Li194  1  0.74475230  0.53689676  0.03901242  1
  Li  Li195  1  0.75524770  0.46310324  0.53901242  1
  Li  Li196  1  0.74475230  0.96310324  0.03901242  1
  Li  Li197  1  0.75524770  0.03689676  0.53901242  1
  Li  Li198  1  0.25524770  0.46310324  0.96098758  1
  Li  Li199  1  0.24475230  0.53689676  0.46098758  1
  Li  Li200  1  0.71483827  0.79155735  0.10705199  1
  Li  Li201  1  0.78516173  0.20844265  0.60705199  1
  Li  Li202  1  0.28516173  0.29155735  0.89294801  1
  Li  Li203  1  0.21483827  0.70844265  0.39294801  1
  Li  Li204  1  0.28516173  0.20844265  0.89294801  1
  Li  Li205  1  0.21483827  0.79155735  0.39294801  1
  Li  Li206  1  0.71483827  0.70844265  0.10705199  1
  Li  Li207  1  0.78516173  0.29155735  0.60705199  1
  Se  Se208  1  0.61547689  0.25000000  0.67865251  1
  Se  Se209  1  0.88452311  0.75000000  0.17865251  1
  Se  Se210  1  0.38452311  0.75000000  0.32134749  1
  Se  Se211  1  0.11547689  0.25000000  0.82134749  1
  Se  Se212  1  0.94197610  0.95891718  0.81440248  1
  Se  Se213  1  0.55802390  0.04108282  0.31440248  1
  Se  Se214  1  0.05802390  0.45891718  0.18559752  1
  Se  Se215  1  0.44197610  0.54108282  0.68559752  1
  Se  Se216  1  0.05802390  0.04108282  0.18559752  1
  Se  Se217  1  0.44197610  0.95891718  0.68559752  1
  Se  Se218  1  0.94197610  0.54108282  0.81440248  1
  Se  Se219  1  0.55802390  0.45891718  0.31440248  1
  Se  Se220  1  0.90792951  0.59412247  0.86353168  1
  Se  Se221  1  0.59207049  0.40587753  0.36353168  1
  Se  Se222  1  0.09207049  0.09412247  0.13646832  1
  Se  Se223  1  0.40792951  0.90587753  0.63646832  1
  Se  Se224  1  0.09207049  0.40587753  0.13646832  1
  Se  Se225  1  0.40792951  0.59412247  0.63646832  1
  Se  Se226  1  0.90792951  0.90587753  0.86353168  1
  Se  Se227  1  0.59207049  0.09412247  0.36353168  1
  Se  Se228  1  0.68307291  0.47273671  0.38946350  1
  Se  Se229  1  0.81692709  0.52726329  0.88946350  1
  Se  Se230  1  0.31692709  0.97273671  0.61053650  1
  Se  Se231  1  0.18307291  0.02726329  0.11053650  1
  Se  Se232  1  0.31692709  0.52726329  0.61053650  1
  Se  Se233  1  0.18307291  0.47273671  0.11053650  1
  Se  Se234  1  0.68307291  0.02726329  0.38946350  1
  Se  Se235  1  0.81692709  0.97273671  0.88946350  1
  Se  Se236  1  0.89635758  0.19711576  0.96433935  1
  Se  Se237  1  0.60364242  0.80288424  0.46433935  1
  Se  Se238  1  0.10364242  0.69711576  0.03566065  1
  Se  Se239  1  0.39635758  0.30288424  0.53566065  1
  Se  Se240  1  0.10364242  0.80288424  0.03566065  1
  Se  Se241  1  0.39635758  0.19711576  0.53566065  1
  Se  Se242  1  0.89635758  0.30288424  0.96433935  1
  Se  Se243  1  0.60364242  0.69711576  0.46433935  1
  Se  Se244  1  0.14019741  0.22112936  0.71019885  1
  Se  Se245  1  0.35980259  0.77887064  0.21019885  1
  Se  Se246  1  0.85980259  0.72112936  0.28980115  1
  Se  Se247  1  0.64019741  0.27887064  0.78980115  1
  Se  Se248  1  0.85980259  0.77887064  0.28980115  1
  Se  Se249  1  0.64019741  0.22112936  0.78980115  1
  Se  Se250  1  0.14019741  0.27887064  0.71019885  1
  Se  Se251  1  0.35980259  0.72112936  0.21019885  1
  Se  Se252  1  0.89004653  0.83015225  0.48233058  1
  Se  Se253  1  0.60995347  0.16984775  0.98233058  1
  Se  Se254  1  0.10995347  0.33015225  0.51766942  1
  Se  Se255  1  0.39004653  0.66984775  0.01766942  1
  Se  Se256  1  0.10995347  0.16984775  0.51766942  1
  Se  Se257  1  0.39004653  0.83015225  0.01766942  1
  Se  Se258  1  0.89004653  0.66984775  0.48233058  1
  Se  Se259  1  0.60995347  0.33015225  0.98233058  1
  Se  Se260  1  0.39990507  0.25000000  0.51867074  1
  Se  Se261  1  0.10009493  0.75000000  0.01867074  1
  Se  Se262  1  0.60009493  0.75000000  0.48132926  1
  Se  Se263  1  0.89990507  0.25000000  0.98132926  1
  Se  Se264  1  0.06052602  0.51912610  0.23279715  1
  Se  Se265  1  0.43947398  0.48087390  0.73279715  1
  Se  Se266  1  0.93947398  0.01912610  0.76720285  1
  Se  Se267  1  0.56052602  0.98087390  0.26720285  1
  Se  Se268  1  0.93947398  0.48087390  0.76720285  1
  Se  Se269  1  0.56052602  0.51912610  0.26720285  1
  Se  Se270  1  0.06052602  0.98087390  0.23279715  1
  Se  Se271  1  0.43947398  0.01912610  0.73279715  1
  Se  Se272  1  0.20888574  0.82823811  0.26370570  1
  Se  Se273  1  0.29111426  0.17176189  0.76370570  1
  Se  Se274  1  0.79111426  0.32823811  0.73629430  1
  Se  Se275  1  0.70888574  0.67176189  0.23629430  1
  Se  Se276  1  0.79111426  0.17176189  0.73629430  1
  Se  Se277  1  0.70888574  0.82823811  0.23629430  1
  Se  Se278  1  0.20888574  0.67176189  0.26370570  1
  Se  Se279  1  0.29111426  0.32823811  0.76370570  1
  Se  Se280  1  0.57946876  0.35518401  0.43116366  1
  Se  Se281  1  0.92053124  0.64481599  0.93116366  1
  Se  Se282  1  0.42053124  0.85518401  0.56883634  1
  Se  Se283  1  0.07946876  0.14481599  0.06883634  1
  Se  Se284  1  0.42053124  0.64481599  0.56883634  1
  Se  Se285  1  0.07946876  0.35518401  0.06883634  1
  Se  Se286  1  0.57946876  0.14481599  0.43116366  1
  Se  Se287  1  0.92053124  0.85518401  0.93116366  1
  Se  Se288  1  0.51274622  0.30918945  0.29990615  1
  Se  Se289  1  0.98725378  0.69081055  0.79990615  1
  Se  Se290  1  0.48725378  0.80918945  0.70009385  1
  Se  Se291  1  0.01274622  0.19081055  0.20009385  1
  Se  Se292  1  0.48725378  0.69081055  0.70009385  1
  Se  Se293  1  0.01274622  0.30918945  0.20009385  1
  Se  Se294  1  0.51274622  0.19081055  0.29990615  1
  Se  Se295  1  0.98725378  0.80918945  0.79990615  1
  Se  Se296  1  0.02301350  0.62607414  0.38157676  1
  Se  Se297  1  0.47698650  0.37392586  0.88157676  1
  Se  Se298  1  0.97698650  0.12607414  0.61842324  1
  Se  Se299  1  0.52301350  0.87392586  0.11842324  1
  Se  Se300  1  0.97698650  0.37392586  0.61842324  1
  Se  Se301  1  0.52301350  0.62607414  0.11842324  1
  Se  Se302  1  0.02301350  0.87392586  0.38157676  1
  Se  Se303  1  0.47698650  0.12607414  0.88157676  1
