# generated using pymatgen
data_LiF
_symmetry_space_group_name_H-M   'P 1'
_cell_length_a   16.34924449
_cell_length_b   11.95830754
_cell_length_c   7.59916359
_cell_angle_alpha   90.00000000
_cell_angle_beta   90.00000000
_cell_angle_gamma   90.00000000
_symmetry_Int_Tables_number   1
_chemical_formula_structural   LiF
_chemical_formula_sum   'Li42 F42'
_cell_volume   1485.70710471
_cell_formula_units_Z   42
loop_
 _symmetry_equiv_pos_site_id
 _symmetry_equiv_pos_as_xyz
  1  'x, y, z'
loop_
 _atom_site_type_symbol
 _atom_site_label
 _atom_site_symmetry_multiplicity
 _atom_site_fract_x
 _atom_site_fract_y
 _atom_site_fract_z
 _atom_site_occupancy
  F  F0  1  0.47917758  0.47885560  0.29234742  1
  F  F1  1  0.52082242  0.52114440  0.29234742  1
  F  F2  1  0.02082242  0.97885560  0.70765258  1
  F  F3  1  0.97917758  0.02114440  0.70765258  1
  F  F4  1  0.52082242  0.52114440  0.70765258  1
  F  F5  1  0.47917758  0.47885560  0.70765258  1
  F  F6  1  0.97917758  0.02114440  0.29234742  1
  F  F7  1  0.02082242  0.97885560  0.29234742  1
  F  F8  1  0.68335728  0.58921497  0.00000000  1
  F  F9  1  0.31664272  0.41078503  0.00000000  1
  F  F10  1  0.81664272  0.08921497  0.00000000  1
  F  F11  1  0.18335728  0.91078503  0.00000000  1
  F  F12  1  0.13964115  0.57194375  0.58653156  1
  F  F13  1  0.86035885  0.42805625  0.58653156  1
  F  F14  1  0.36035885  0.07194375  0.41346844  1
  F  F15  1  0.63964115  0.92805625  0.41346844  1
  F  F16  1  0.86035885  0.42805625  0.41346844  1
  F  F17  1  0.13964115  0.57194375  0.41346844  1
  F  F18  1  0.63964115  0.92805625  0.58653156  1
  F  F19  1  0.36035885  0.07194375  0.58653156  1
  F  F20  1  0.93869747  0.62089470  0.53834373  1
  F  F21  1  0.06130253  0.37910530  0.53834373  1
  F  F22  1  0.56130253  0.12089470  0.46165627  1
  F  F23  1  0.43869747  0.87910530  0.46165627  1
  F  F24  1  0.06130253  0.37910530  0.46165627  1
  F  F25  1  0.93869747  0.62089470  0.46165627  1
  F  F26  1  0.43869747  0.87910530  0.53834373  1
  F  F27  1  0.56130253  0.12089470  0.53834373  1
  F  F28  1  0.82216013  0.81342321  0.00000000  1
  F  F29  1  0.17783987  0.18657679  0.00000000  1
  F  F30  1  0.67783987  0.31342321  0.00000000  1
  F  F31  1  0.32216013  0.68657679  0.00000000  1
  F  F32  1  0.00000000  0.50000000  0.50000000  1
  F  F33  1  0.50000000  0.00000000  0.50000000  1
  F  F34  1  0.99264080  0.41236142  0.64700896  1
  F  F35  1  0.00735920  0.58763858  0.64700896  1
  F  F36  1  0.50735920  0.91236142  0.35299104  1
  F  F37  1  0.49264080  0.08763858  0.35299104  1
  F  F38  1  0.00735920  0.58763858  0.35299104  1
  F  F39  1  0.99264080  0.41236142  0.35299104  1
  F  F40  1  0.49264080  0.08763858  0.64700896  1
  F  F41  1  0.50735920  0.91236142  0.64700896  1
  Li  Li42  1  0.92701749  0.21837351  0.69069623  1
  Li  Li43  1  -0.92701749  -0.21837351  0.69069623  1
  Li  Li44  1  -0.42701749  0.71837351  -0.69069623  1
  Li  Li45  1  1.42701749  0.28162649  -0.69069623  1
  Li  Li46  1  -0.92701749  -0.21837351  -0.69069623  1
  Li  Li47  1  0.92701749  0.21837351  -0.69069623  1
  Li  Li48  1  1.42701749  0.28162649  0.69069623  1
  Li  Li49  1  -0.42701749  0.71837351  0.69069623  1
  Li  Li50  1  0.00000000  0.50000000  0.00000000  1
  Li  Li51  1  0.50000000  0.00000000  0.00000000  1
  Li  Li52  1  0.51104147  0.29238457  0.50000000  1
  Li  Li53  1  0.48895853  0.70761543  0.50000000  1
  Li  Li54  1  0.98895853  0.79238457  0.50000000  1
  Li  Li55  1  0.01104147  0.20761543  0.50000000  1
  Li  Li56  1  0.12976163  0.71973615  0.00000000  1
  Li  Li57  1  0.87023837  0.28026385  0.00000000  1
  Li  Li58  1  0.37023837  0.21973615  0.00000000  1
  Li  Li59  1  0.62976163  0.78026385  0.00000000  1
  Li  Li60  1  0.01145834  0.85080432  0.15836979  1
  Li  Li61  1  0.98854166  0.14919568  0.15836979  1
  Li  Li62  1  0.48854166  0.35080432  0.84163021  1
  Li  Li63  1  0.51145834  0.64919568  0.84163021  1
  Li  Li64  1  0.98854166  0.14919568  0.84163021  1
  Li  Li65  1  0.01145834  0.85080432  0.84163021  1
  Li  Li66  1  0.51145834  0.64919568  0.15836979  1
  Li  Li67  1  0.48854166  0.35080432  0.15836979  1
  Li  Li68  1  0.39398995  0.99289654  0.35393377  1
  Li  Li69  1  0.60601005  0.00710346  0.35393377  1
  Li  Li70  1  0.10601005  0.49289654  0.64606623  1
  Li  Li71  1  0.89398995  0.50710346  0.64606623  1
  Li  Li72  1  0.60601005  0.00710346  0.64606623  1
  Li  Li73  1  0.39398995  0.99289654  0.64606623  1
  Li  Li74  1  0.89398995  0.50710346  0.35393377  1
  Li  Li75  1  0.10601005  0.49289654  0.35393377  1
  Li  Li76  1  0.78872262  0.47443419  0.22109474  1
  Li  Li77  1  0.21127738  0.52556581  0.22109474  1
  Li  Li78  1  0.71127738  0.97443419  0.77890526  1
  Li  Li79  1  0.28872262  0.02556581  0.77890526  1
  Li  Li80  1  0.21127738  0.52556581  0.77890526  1
  Li  Li81  1  0.78872262  0.47443419  0.77890526  1
  Li  Li82  1  0.28872262  0.02556581  0.22109474  1
  Li  Li83  1  0.71127738  0.97443419  0.22109474  1
