# generated using pymatgen
data_Li3Y2MoP3Se2
_symmetry_space_group_name_H-M   'P 1'
_cell_length_a   6.62680760
_cell_length_b   6.99989173
_cell_length_c   7.77139037
_cell_angle_alpha   91.94178287
_cell_angle_beta   94.22879939
_cell_angle_gamma   97.79937003
_symmetry_Int_Tables_number   1
_chemical_formula_structural   Li3Y2MoP3Se2
_chemical_formula_sum   'Li3 Y2 Mo1 P3 Se2'
_cell_volume   355.83226179
_cell_formula_units_Z   1
loop_
 _symmetry_equiv_pos_site_id
 _symmetry_equiv_pos_as_xyz
  1  'x, y, z'
loop_
 _atom_site_type_symbol
 _atom_site_label
 _atom_site_symmetry_multiplicity
 _atom_site_fract_x
 _atom_site_fract_y
 _atom_site_fract_z
 _atom_site_occupancy
  Se  Se0  1  0.12500000  0.00000000  0.25000000  1
  Se  Se1  1  0.00000000  0.00000000  0.00000000  1
  P  P2  1  0.37500000  0.00000000  0.25000000  1
  P  P3  1  0.25000000  0.25000000  0.25000000  1
  P  P4  1  0.00000000  0.25000000  0.12500000  1
  Mo  Mo5  1  0.34395495  0.36811109  0.07367956  1
  Li  Li6  1  0.82306946  0.36817551  0.85000147  1
  Li  Li7  1  0.92221300  0.70452026  0.03032882  1
  Li  Li8  1  0.59075733  0.62615500  0.96568833  1
  Y  Y9  1  0.11894288  0.48822324  0.39876205  1
  Y  Y10  1  0.34850126  0.85474942  0.13203877  1
