# generated using pymatgen
data_LiF
_symmetry_space_group_name_H-M   'P 1'
_cell_length_a   12.86018075
_cell_length_b   6.91352889
_cell_length_c   6.07520505
_cell_angle_alpha   90.00000000
_cell_angle_beta   90.00000000
_cell_angle_gamma   90.00000000
_symmetry_Int_Tables_number   1
_chemical_formula_structural   LiF
_chemical_formula_sum   'Li16 F16'
_cell_volume   540.14181082
_cell_formula_units_Z   16
loop_
 _symmetry_equiv_pos_site_id
 _symmetry_equiv_pos_as_xyz
  1  'x, y, z'
loop_
 _atom_site_type_symbol
 _atom_site_label
 _atom_site_symmetry_multiplicity
 _atom_site_fract_x
 _atom_site_fract_y
 _atom_site_fract_z
 _atom_site_occupancy
  F  F0  1  0.13368694  0.40556684  0.75375895  1
  F  F1  1  0.36631306  0.59443316  0.25375895  1
  F  F2  1  0.86631306  0.90556684  0.24624105  1
  F  F3  1  0.63368694  0.09443316  0.74624105  1
  F  F4  1  0.86631306  0.59443316  0.24624105  1
  F  F5  1  0.63368694  0.40556684  0.74624105  1
  F  F6  1  0.13368694  0.09443316  0.75375895  1
  F  F7  1  0.36631306  0.90556684  0.25375895  1
  F  F8  1  0.76460979  0.39606976  0.11254488  1
  F  F9  1  0.73539021  0.60393024  0.61254488  1
  F  F10  1  0.23539021  0.89606976  0.88745512  1
  F  F11  1  0.26460979  0.10393024  0.38745512  1
  F  F12  1  0.23539021  0.60393024  0.88745512  1
  F  F13  1  0.26460979  0.39606976  0.38745512  1
  F  F14  1  0.76460979  0.10393024  0.11254488  1
  F  F15  1  0.73539021  0.89606976  0.61254488  1
  Li  Li16  1  0.04544372  0.05181536  0.86439087  1
  Li  Li17  1  0.45455628  -0.05181536  1.36439087  1
  Li  Li18  1  -0.04544372  0.55181536  -0.86439087  1
  Li  Li19  1  0.54544372  0.44818464  -0.36439087  1
  Li  Li20  1  -0.04544372  -0.05181536  -0.86439087  1
  Li  Li21  1  0.54544372  0.05181536  -0.36439087  1
  Li  Li22  1  0.04544372  0.44818464  0.86439087  1
  Li  Li23  1  0.45455628  0.55181536  1.36439087  1
  Li  Li24  1  0.00000000  0.00000000  0.50000000  1
  Li  Li25  1  0.50000000  0.00000000  0.00000000  1
  Li  Li26  1  0.00000000  0.50000000  0.50000000  1
  Li  Li27  1  0.50000000  0.50000000  0.00000000  1
  Li  Li28  1  0.37925312  0.25000000  0.91569376  1
  Li  Li29  1  0.12074688  0.75000000  0.41569376  1
  Li  Li30  1  0.62074688  0.75000000  0.08430624  1
  Li  Li31  1  0.87925312  0.25000000  0.58430624  1
