# generated using pymatgen
data_LiF
_symmetry_space_group_name_H-M   'P 1'
_cell_length_a   8.36596650
_cell_length_b   16.38260343
_cell_length_c   6.47022506
_cell_angle_alpha   90.00000000
_cell_angle_beta   90.00000000
_cell_angle_gamma   90.00000000
_symmetry_Int_Tables_number   1
_chemical_formula_structural   LiF
_chemical_formula_sum   'Li24 F24'
_cell_volume   886.78518178
_cell_formula_units_Z   24
loop_
 _symmetry_equiv_pos_site_id
 _symmetry_equiv_pos_as_xyz
  1  'x, y, z'
loop_
 _atom_site_type_symbol
 _atom_site_label
 _atom_site_symmetry_multiplicity
 _atom_site_fract_x
 _atom_site_fract_y
 _atom_site_fract_z
 _atom_site_occupancy
  F  F0  1  0.00000000  0.00000000  0.23934858  1
  F  F1  1  0.50000000  0.50000000  0.76065142  1
  F  F2  1  0.00000000  0.00000000  0.76065142  1
  F  F3  1  0.50000000  0.50000000  0.23934858  1
  F  F4  1  0.00000000  0.50000000  0.50000000  1
  F  F5  1  0.50000000  0.00000000  0.50000000  1
  F  F6  1  0.00000000  0.00000000  0.50000000  1
  F  F7  1  0.50000000  0.50000000  0.50000000  1
  F  F8  1  0.83216591  0.43022382  0.09733756  1
  F  F9  1  0.16783409  0.56977618  0.09733756  1
  F  F10  1  0.66783409  0.93022382  0.90266244  1
  F  F11  1  0.33216591  0.06977618  0.90266244  1
  F  F12  1  0.16783409  0.56977618  0.90266244  1
  F  F13  1  0.83216591  0.43022382  0.90266244  1
  F  F14  1  0.33216591  0.06977618  0.09733756  1
  F  F15  1  0.66783409  0.93022382  0.09733756  1
  F  F16  1  0.71387107  0.53931074  0.50000000  1
  F  F17  1  0.28612893  0.46068926  0.50000000  1
  F  F18  1  0.78612893  0.03931074  0.50000000  1
  F  F19  1  0.21387107  0.96068926  0.50000000  1
  F  F20  1  0.10120490  0.97720644  -0.00000000  1
  F  F21  1  0.89879510  0.02279356  -0.00000000  1
  F  F22  1  0.39879510  0.47720644  -0.00000000  1
  F  F23  1  0.60120490  0.52279356  0.00000000  1
  Li  Li24  1  0.00000000  0.00000000  0.00000000  1
  Li  Li25  1  0.50000000  0.50000000  -0.00000000  1
  Li  Li26  1  0.70059226  0.75243062  0.84979500  1
  Li  Li27  1  -0.70059226  -0.75243062  0.84979500  1
  Li  Li28  1  -0.20059226  1.25243062  -0.84979500  1
  Li  Li29  1  1.20059226  -0.25243062  -0.84979500  1
  Li  Li30  1  -0.70059226  -0.75243062  -0.84979500  1
  Li  Li31  1  0.70059226  0.75243062  -0.84979500  1
  Li  Li32  1  1.20059226  -0.25243062  0.84979500  1
  Li  Li33  1  -0.20059226  1.25243062  0.84979500  1
  Li  Li34  1  0.58620904  0.76603749  -0.00000000  1
  Li  Li35  1  0.41379096  0.23396251  -0.00000000  1
  Li  Li36  1  0.91379096  0.26603749  -0.00000000  1
  Li  Li37  1  0.08620904  0.73396251  0.00000000  1
  Li  Li38  1  0.88591148  0.78350342  0.50000000  1
  Li  Li39  1  0.11408852  0.21649658  0.50000000  1
  Li  Li40  1  0.61408852  0.28350342  0.50000000  1
  Li  Li41  1  0.38591148  0.71649658  0.50000000  1
  Li  Li42  1  0.13992488  0.86602330  0.50000000  1
  Li  Li43  1  0.86007512  0.13397670  0.50000000  1
  Li  Li44  1  0.36007512  0.36602330  0.50000000  1
  Li  Li45  1  0.63992488  0.63397670  0.50000000  1
  Li  Li46  1  0.00000000  0.50000000  -0.00000000  1
  Li  Li47  1  0.50000000  0.00000000  0.00000000  1
