# generated using pymatgen
data_LiY2P3Se2
_symmetry_space_group_name_H-M   'P 1'
_cell_length_a   5.10597205
_cell_length_b   5.10381079
_cell_length_c   7.21882553
_cell_angle_alpha   94.72278336
_cell_angle_beta   100.28524030
_cell_angle_gamma   108.96954371
_symmetry_Int_Tables_number   1
_chemical_formula_structural   LiY2P3Se2
_chemical_formula_sum   'Li1 Y2 P3 Se2'
_cell_volume   173.04321576
_cell_formula_units_Z   1
loop_
 _symmetry_equiv_pos_site_id
 _symmetry_equiv_pos_as_xyz
  1  'x, y, z'
loop_
 _atom_site_type_symbol
 _atom_site_label
 _atom_site_symmetry_multiplicity
 _atom_site_fract_x
 _atom_site_fract_y
 _atom_site_fract_z
 _atom_site_occupancy
  Se  Se0  1  0.12500000  0.12500000  0.12500000  1
  Se  Se1  1  0.50000000  0.50000000  0.50000000  1
  Y  Y2  1  0.25000000  0.25000000  0.25000000  1
  Y  Y3  1  0.75000000  0.75000000  0.75000000  1
  P  P4  1  0.06726851  0.22024578  0.66447227  1
  P  P5  1  0.73704993  0.39269606  0.10484877  1
  P  P6  1  0.84286424  0.11625265  0.74967653  1
  Li  Li7  1  0.27556881  0.59416547  0.57851424  1
