# generated using pymatgen
data_Li2Y2MoP3
_symmetry_space_group_name_H-M   'P 1'
_cell_length_a   4.79466054
_cell_length_b   4.93604166
_cell_length_c   7.03309418
_cell_angle_alpha   95.11982086
_cell_angle_beta   101.14990544
_cell_angle_gamma   110.56428556
_symmetry_Int_Tables_number   1
_chemical_formula_structural   Li2Y2MoP3
_chemical_formula_sum   'Li2 Y2 Mo1 P3'
_cell_volume   150.64726929
_cell_formula_units_Z   1
loop_
 _symmetry_equiv_pos_site_id
 _symmetry_equiv_pos_as_xyz
  1  'x, y, z'
loop_
 _atom_site_type_symbol
 _atom_site_label
 _atom_site_symmetry_multiplicity
 _atom_site_fract_x
 _atom_site_fract_y
 _atom_site_fract_z
 _atom_site_occupancy
  P  P0  1  0.12500000  0.00000000  0.25000000  1
  P  P1  1  0.00000000  0.00000000  0.00000000  1
  P  P2  1  0.37500000  0.00000000  0.25000000  1
  Mo  Mo3  1  0.25000000  0.25000000  0.25000000  1
  Li  Li4  1  0.00000000  0.25000000  0.12500000  1
  Li  Li5  1  0.94045909  0.30351147  0.37908062  1
  Y  Y6  1  0.77882610  0.38131560  0.11389568  1
  Y  Y7  1  0.06411892  0.52117822  0.70250272  1
