# generated using pymatgen
data_Li4TeF2
_symmetry_space_group_name_H-M   'P 1'
_cell_length_a   20.75563529
_cell_length_b   20.75563529
_cell_length_c   7.75336933
_cell_angle_alpha   90.00000000
_cell_angle_beta   90.00000000
_cell_angle_gamma   90.00000000
_symmetry_Int_Tables_number   1
_chemical_formula_structural   Li4TeF2
_chemical_formula_sum   'Li96 Te24 F48'
_cell_volume   3340.12356435
_cell_formula_units_Z   24
loop_
 _symmetry_equiv_pos_site_id
 _symmetry_equiv_pos_as_xyz
  1  'x, y, z'
loop_
 _atom_site_type_symbol
 _atom_site_label
 _atom_site_symmetry_multiplicity
 _atom_site_fract_x
 _atom_site_fract_y
 _atom_site_fract_z
 _atom_site_occupancy
  F  F0  1  0.31856235  0.00000000  0.25000000  1
  F  F1  1  0.18143765  0.00000000  0.75000000  1
  F  F2  1  0.25000000  0.06856235  0.50000000  1
  F  F3  1  0.25000000  0.93143765  -0.00000000  1
  F  F4  1  0.68143765  0.00000000  0.75000000  1
  F  F5  1  0.81856235  0.00000000  0.25000000  1
  F  F6  1  0.75000000  0.93143765  0.50000000  1
  F  F7  1  0.75000000  0.06856235  -0.00000000  1
  F  F8  1  0.81856235  0.50000000  0.75000000  1
  F  F9  1  0.68143765  0.50000000  0.25000000  1
  F  F10  1  0.75000000  0.56856235  0.00000000  1
  F  F11  1  0.75000000  0.43143765  0.50000000  1
  F  F12  1  0.18143765  0.50000000  0.25000000  1
  F  F13  1  0.31856235  0.50000000  0.75000000  1
  F  F14  1  0.25000000  0.43143765  0.00000000  1
  F  F15  1  0.25000000  0.56856235  0.50000000  1
  F  F16  1  0.00000000  0.25000000  0.73412755  1
  F  F17  1  0.00000000  0.75000000  0.98412755  1
  F  F18  1  0.50000000  0.25000000  0.26587245  1
  F  F19  1  0.50000000  0.75000000  0.01587245  1
  F  F20  1  0.00000000  0.75000000  0.26587245  1
  F  F21  1  0.00000000  0.25000000  0.01587245  1
  F  F22  1  0.50000000  0.75000000  0.73412755  1
  F  F23  1  0.50000000  0.25000000  0.98412755  1
  F  F24  1  0.50000000  0.75000000  0.23412755  1
  F  F25  1  0.50000000  0.25000000  0.48412755  1
  F  F26  1  0.00000000  0.75000000  0.76587245  1
  F  F27  1  0.00000000  0.25000000  0.51587245  1
  F  F28  1  0.50000000  0.25000000  0.76587245  1
  F  F29  1  0.50000000  0.75000000  0.51587245  1
  F  F30  1  0.00000000  0.25000000  0.23412755  1
  F  F31  1  0.00000000  0.75000000  0.48412755  1
  F  F32  1  0.10850411  0.35850411  0.12500000  1
  F  F33  1  0.39149589  0.64149589  0.62500000  1
  F  F34  1  0.89149589  0.85850411  0.37500000  1
  F  F35  1  0.60850411  0.14149589  0.87500000  1
  F  F36  1  0.89149589  0.64149589  0.87500000  1
  F  F37  1  0.60850411  0.35850411  0.37500000  1
  F  F38  1  0.10850411  0.14149589  0.62500000  1
  F  F39  1  0.39149589  0.85850411  0.12500000  1
  F  F40  1  0.60850411  0.85850411  0.62500000  1
  F  F41  1  0.89149589  0.14149589  0.12500000  1
  F  F42  1  0.39149589  0.35850411  0.87500000  1
  F  F43  1  0.10850411  0.64149589  0.37500000  1
  F  F44  1  0.39149589  0.14149589  0.37500000  1
  F  F45  1  0.10850411  0.85850411  0.87500000  1
  F  F46  1  0.60850411  0.64149589  0.12500000  1
  F  F47  1  0.89149589  0.35850411  0.62500000  1
  Li  Li48  1  0.14242609  0.39242609  0.12500000  1
  Li  Li49  1  0.35757391  0.60757391  0.62500000  1
  Li  Li50  1  0.85757391  0.89242609  0.37500000  1
  Li  Li51  1  0.64242609  0.10757391  0.87500000  1
  Li  Li52  1  0.85757391  0.60757391  0.87500000  1
  Li  Li53  1  0.64242609  0.39242609  0.37500000  1
  Li  Li54  1  0.14242609  0.10757391  0.62500000  1
  Li  Li55  1  0.35757391  0.89242609  0.12500000  1
  Li  Li56  1  0.64242609  0.89242609  0.62500000  1
  Li  Li57  1  0.85757391  0.10757391  0.12500000  1
  Li  Li58  1  0.35757391  0.39242609  0.87500000  1
  Li  Li59  1  0.14242609  0.60757391  0.37500000  1
  Li  Li60  1  0.35757391  0.10757391  0.37500000  1
  Li  Li61  1  0.14242609  0.89242609  0.87500000  1
  Li  Li62  1  0.64242609  0.60757391  0.12500000  1
  Li  Li63  1  0.85757391  0.39242609  0.62500000  1
  Li  Li64  1  0.92795630  0.50513675  0.56406933  1
  Li  Li65  1  -0.42795630  -0.50513675  1.06406933  1
  Li  Li66  1  -0.25513675  1.67795630  0.81406933  1
  Li  Li67  1  0.75513675  -0.67795630  1.31406933  1
  Li  Li68  1  -0.42795630  0.50513675  -0.56406933  1
  Li  Li69  1  0.92795630  -0.50513675  -0.06406933  1
  Li  Li70  1  0.75513675  1.67795630  0.18593067  1
  Li  Li71  1  -0.25513675  -0.67795630  -0.31406933  1
  Li  Li72  1  -0.92795630  -0.50513675  -0.56406933  1
  Li  Li73  1  1.42795630  0.50513675  -0.06406933  1
  Li  Li74  1  1.25513675  -0.67795630  0.18593067  1
  Li  Li75  1  0.24486325  1.67795630  -0.31406933  1
  Li  Li76  1  1.42795630  -0.50513675  0.56406933  1
  Li  Li77  1  -0.92795630  0.50513675  1.06406933  1
  Li  Li78  1  0.24486325  -0.67795630  0.81406933  1
  Li  Li79  1  1.25513675  1.67795630  1.31406933  1
  Li  Li80  1  1.42795630  1.00513675  1.06406933  1
  Li  Li81  1  0.07204370  -0.00513675  1.56406933  1
  Li  Li82  1  0.24486325  2.17795630  1.31406933  1
  Li  Li83  1  1.25513675  -0.17795630  1.81406933  1
  Li  Li84  1  0.07204370  1.00513675  -0.06406933  1
  Li  Li85  1  1.42795630  -0.00513675  0.43593067  1
  Li  Li86  1  1.25513675  2.17795630  0.68593067  1
  Li  Li87  1  0.24486325  -0.17795630  0.18593067  1
  Li  Li88  1  -0.42795630  -0.00513675  -0.06406933  1
  Li  Li89  1  1.92795630  1.00513675  0.43593067  1
  Li  Li90  1  1.75513675  -0.17795630  0.68593067  1
  Li  Li91  1  0.74486325  2.17795630  0.18593067  1
  Li  Li92  1  1.92795630  -0.00513675  1.06406933  1
  Li  Li93  1  -0.42795630  1.00513675  1.56406933  1
  Li  Li94  1  0.74486325  -0.17795630  1.31406933  1
  Li  Li95  1  1.75513675  2.17795630  1.81406933  1
  Li  Li96  1  0.17296131  0.82900722  0.69253657  1
  Li  Li97  1  0.32703869  0.17099278  0.19253657  1
  Li  Li98  1  0.42099278  0.92296131  0.94253657  1
  Li  Li99  1  0.07900722  0.07703869  0.44253657  1
  Li  Li100  1  0.32703869  0.82900722  0.30746343  1
  Li  Li101  1  0.17296131  0.17099278  0.80746343  1
  Li  Li102  1  0.07900722  0.92296131  0.05746343  1
  Li  Li103  1  0.42099278  0.07703869  0.55746343  1
  Li  Li104  1  0.82703869  0.17099278  0.30746343  1
  Li  Li105  1  0.67296131  0.82900722  0.80746343  1
  Li  Li106  1  0.57900722  0.07703869  0.05746343  1
  Li  Li107  1  0.92099278  0.92296131  0.55746343  1
  Li  Li108  1  0.67296131  0.17099278  0.69253657  1
  Li  Li109  1  0.82703869  0.82900722  0.19253657  1
  Li  Li110  1  0.92099278  0.07703869  0.94253657  1
  Li  Li111  1  0.57900722  0.92296131  0.44253657  1
  Li  Li112  1  0.67296131  0.32900722  0.19253657  1
  Li  Li113  1  0.82703869  0.67099278  0.69253657  1
  Li  Li114  1  0.92099278  0.42296131  0.44253657  1
  Li  Li115  1  0.57900722  0.57703869  0.94253657  1
  Li  Li116  1  0.82703869  0.32900722  0.80746343  1
  Li  Li117  1  0.67296131  0.67099278  0.30746343  1
  Li  Li118  1  0.57900722  0.42296131  0.55746343  1
  Li  Li119  1  0.92099278  0.57703869  0.05746343  1
  Li  Li120  1  0.32703869  0.67099278  0.80746343  1
  Li  Li121  1  0.17296131  0.32900722  0.30746343  1
  Li  Li122  1  0.07900722  0.57703869  0.55746343  1
  Li  Li123  1  0.42099278  0.42296131  0.05746343  1
  Li  Li124  1  0.17296131  0.67099278  0.19253657  1
  Li  Li125  1  0.32703869  0.32900722  0.69253657  1
  Li  Li126  1  0.42099278  0.57703869  0.44253657  1
  Li  Li127  1  0.07900722  0.42296131  0.94253657  1
  Li  Li128  1  0.00000000  0.00000000  0.00000000  1
  Li  Li129  1  0.50000000  0.00000000  0.50000000  1
  Li  Li130  1  0.25000000  0.75000000  0.25000000  1
  Li  Li131  1  0.25000000  0.25000000  0.75000000  1
  Li  Li132  1  0.50000000  0.00000000  0.00000000  1
  Li  Li133  1  0.00000000  0.00000000  0.50000000  1
  Li  Li134  1  0.25000000  0.75000000  0.75000000  1
  Li  Li135  1  0.25000000  0.25000000  0.25000000  1
  Li  Li136  1  0.50000000  0.50000000  0.50000000  1
  Li  Li137  1  0.00000000  0.50000000  0.00000000  1
  Li  Li138  1  0.75000000  0.25000000  0.75000000  1
  Li  Li139  1  0.75000000  0.75000000  0.25000000  1
  Li  Li140  1  0.00000000  0.50000000  0.50000000  1
  Li  Li141  1  0.50000000  0.50000000  0.00000000  1
  Li  Li142  1  0.75000000  0.25000000  0.25000000  1
  Li  Li143  1  0.75000000  0.75000000  0.75000000  1
  Te  Te144  1  0.67394387  0.00000000  0.25000000  1
  Te  Te145  1  0.82605613  0.00000000  0.75000000  1
  Te  Te146  1  0.25000000  0.42394387  0.50000000  1
  Te  Te147  1  0.25000000  0.57605613  -0.00000000  1
  Te  Te148  1  0.32605613  0.00000000  0.75000000  1
  Te  Te149  1  0.17394387  0.00000000  0.25000000  1
  Te  Te150  1  0.75000000  0.57605613  0.50000000  1
  Te  Te151  1  0.75000000  0.42394387  0.00000000  1
  Te  Te152  1  0.17394387  0.50000000  0.75000000  1
  Te  Te153  1  0.32605613  0.50000000  0.25000000  1
  Te  Te154  1  0.75000000  0.92394387  -0.00000000  1
  Te  Te155  1  0.75000000  0.07605613  0.50000000  1
  Te  Te156  1  0.82605613  0.50000000  0.25000000  1
  Te  Te157  1  0.67394387  0.50000000  0.75000000  1
  Te  Te158  1  0.25000000  0.07605613  -0.00000000  1
  Te  Te159  1  0.25000000  0.92394387  0.50000000  1
  Te  Te160  1  0.00000000  0.25000000  0.37500000  1
  Te  Te161  1  0.00000000  0.75000000  0.62500000  1
  Te  Te162  1  0.50000000  0.25000000  0.62500000  1
  Te  Te163  1  0.50000000  0.75000000  0.37500000  1
  Te  Te164  1  0.50000000  0.75000000  0.87500000  1
  Te  Te165  1  0.50000000  0.25000000  0.12500000  1
  Te  Te166  1  0.00000000  0.75000000  0.12500000  1
  Te  Te167  1  0.00000000  0.25000000  0.87500000  1
