# generated using pymatgen
data_Li2Y2P3Se
_symmetry_space_group_name_H-M   'P 1'
_cell_length_a   5.49218999
_cell_length_b   5.71071104
_cell_length_c   7.12787514
_cell_angle_alpha   93.39335502
_cell_angle_beta   97.62895417
_cell_angle_gamma   103.91825567
_symmetry_Int_Tables_number   1
_chemical_formula_structural   Li2Y2P3Se
_chemical_formula_sum   'Li2 Y2 P3 Se1'
_cell_volume   214.10942016
_cell_formula_units_Z   1
loop_
 _symmetry_equiv_pos_site_id
 _symmetry_equiv_pos_as_xyz
  1  'x, y, z'
loop_
 _atom_site_type_symbol
 _atom_site_label
 _atom_site_symmetry_multiplicity
 _atom_site_fract_x
 _atom_site_fract_y
 _atom_site_fract_z
 _atom_site_occupancy
  Se  Se0  1  0.00000000  0.00000000  0.00000000  1
  P  P1  1  0.33300000  0.66700000  0.25000000  1
  P  P2  1  0.66700000  0.33300000  0.50000000  1
  P  P3  1  0.00000000  0.00000000  0.75000000  1
  Li  Li4  1  0.48129180  0.80331382  0.16719578  1
  Li  Li5  1  0.16035380  0.97675125  0.38191926  1
  Y  Y6  1  0.40444814  0.23654935  0.67833610  1
  Y  Y7  1  0.46733428  0.94352862  0.02315860  1
