# generated using pymatgen
data_LiYSb2(AsP)2
_symmetry_space_group_name_H-M   'P 1'
_cell_length_a   4.70253536
_cell_length_b   4.77530488
_cell_length_c   6.43897422
_cell_angle_alpha   95.12717714
_cell_angle_beta   99.07409469
_cell_angle_gamma   106.61929832
_symmetry_Int_Tables_number   1
_chemical_formula_structural   LiYSb2(AsP)2
_chemical_formula_sum   'Li1 Y1 Sb2 As2 P2'
_cell_volume   135.43097518
_cell_formula_units_Z   1
loop_
 _symmetry_equiv_pos_site_id
 _symmetry_equiv_pos_as_xyz
  1  'x, y, z'
loop_
 _atom_site_type_symbol
 _atom_site_label
 _atom_site_symmetry_multiplicity
 _atom_site_fract_x
 _atom_site_fract_y
 _atom_site_fract_z
 _atom_site_occupancy
  Y  Y0  1  0.00000000  0.00000000  0.00000000  1
  P  P1  1  0.50000000  0.50000000  0.50000000  1
  P  P2  1  0.25000000  0.25000000  0.25000000  1
  As  As3  1  0.75000000  0.25000000  0.00000000  1
  As  As4  1  0.25000000  0.75000000  0.50000000  1
  Li  Li5  1  0.43765623  0.31246623  0.74270153  1
  Sb  Sb6  1  0.21784371  0.70771143  0.89713118  1
  Sb  Sb7  1  0.96812984  0.14243510  0.42917152  1
