# generated using pymatgen
data_LiYP2Se
_symmetry_space_group_name_H-M   'P 1'
_cell_length_a   3.94393838
_cell_length_b   4.22534083
_cell_length_c   6.77111889
_cell_angle_alpha   96.60638326
_cell_angle_beta   104.38732929
_cell_angle_gamma   116.53521588
_symmetry_Int_Tables_number   1
_chemical_formula_structural   LiYP2Se
_chemical_formula_sum   'Li2 Y2 P4 Se2'
_cell_volume   94.39951543
_cell_formula_units_Z   2
loop_
 _symmetry_equiv_pos_site_id
 _symmetry_equiv_pos_as_xyz
  1  'x, y, z'
loop_
 _atom_site_type_symbol
 _atom_site_label
 _atom_site_symmetry_multiplicity
 _atom_site_fract_x
 _atom_site_fract_y
 _atom_site_fract_z
 _atom_site_occupancy
  P  P0  1  0.00000000  0.00000000  0.00000000  1
  P  P1  1  0.33300000  0.66700000  0.25000000  1
  P  P2  1  0.66700000  0.33300000  0.50000000  1
  P  P3  1  0.00000000  0.00000000  0.75000000  1
  Se  Se4  1  0.66150317  0.26662382  0.08601426  1
  Se  Se5  1  0.73741454  0.70593953  0.69681765  1
  Li  Li6  1  0.38037869  0.76214990  0.98971578  1
  Li  Li7  1  0.58711409  0.18233948  0.85285455  1
  Y  Y8  1  0.47749836  0.15306926  0.30876060  1
  Y  Y9  1  0.37320570  0.02798094  0.01751102  1
