# generated using pymatgen
data_Li2YMoP3
_symmetry_space_group_name_H-M   'P 1'
_cell_length_a   5.46083436
_cell_length_b   5.60699460
_cell_length_c   7.50762765
_cell_angle_alpha   94.81342843
_cell_angle_beta   100.48264642
_cell_angle_gamma   109.33362893
_symmetry_Int_Tables_number   1
_chemical_formula_structural   Li2YMoP3
_chemical_formula_sum   'Li2 Y1 Mo1 P3'
_cell_volume   210.70187685
_cell_formula_units_Z   1
loop_
 _symmetry_equiv_pos_site_id
 _symmetry_equiv_pos_as_xyz
  1  'x, y, z'
loop_
 _atom_site_type_symbol
 _atom_site_label
 _atom_site_symmetry_multiplicity
 _atom_site_fract_x
 _atom_site_fract_y
 _atom_site_fract_z
 _atom_site_occupancy
  P  P0  1  0.00000000  0.00000000  0.00000000  1
  P  P1  1  0.50000000  0.50000000  0.50000000  1
  P  P2  1  0.25000000  0.25000000  0.25000000  1
  Mo  Mo3  1  0.75000000  0.25000000  0.00000000  1
  Li  Li4  1  0.25000000  0.75000000  0.50000000  1
  Li  Li5  1  0.33932312  0.14923307  0.28533614  1
  Y  Y6  1  0.19728821  0.59043014  0.85411295  1
