# generated using pymatgen
data_Li4TeF2
_symmetry_space_group_name_H-M   'P 1'
_cell_length_a   12.76073818
_cell_length_b   12.76073818
_cell_length_c   21.90883312
_cell_angle_alpha   90.00000000
_cell_angle_beta   90.00000000
_cell_angle_gamma   120.00000000
_symmetry_Int_Tables_number   1
_chemical_formula_structural   Li4TeF2
_chemical_formula_sum   'Li96 Te24 F48'
_cell_volume   3089.59444410
_cell_formula_units_Z   24
loop_
 _symmetry_equiv_pos_site_id
 _symmetry_equiv_pos_as_xyz
  1  'x, y, z'
loop_
 _atom_site_type_symbol
 _atom_site_label
 _atom_site_symmetry_multiplicity
 _atom_site_fract_x
 _atom_site_fract_y
 _atom_site_fract_z
 _atom_site_occupancy
  F  F0  1  0.35102502  0.33799830  0.83038387  1
  F  F1  1  -0.33799830  0.01302673  0.83038387  1
  F  F2  1  -0.01302673  -0.35102502  0.83038387  1
  F  F3  1  -0.33799830  -0.35102502  -0.83038387  1
  F  F4  1  -0.01302673  0.33799830  -0.83038387  1
  F  F5  1  0.35102502  0.01302673  -0.83038387  1
  F  F6  1  0.66666667  0.33333333  -0.00000000  1
  F  F7  1  0.34354774  0.21265437  0.42675091  1
  F  F8  1  0.78734563  0.13089337  0.42675091  1
  F  F9  1  0.86910663  0.65645226  0.42675091  1
  F  F10  1  0.78734563  0.65645226  0.57324909  1
  F  F11  1  0.86910663  0.21265437  0.57324909  1
  F  F12  1  0.34354774  0.13089337  0.57324909  1
  F  F13  1  0.44603611  0.68461623  0.29619044  1
  F  F14  1  0.31538377  0.76141988  0.29619044  1
  F  F15  1  0.23858012  0.55396389  0.29619044  1
  F  F16  1  0.31538377  0.55396389  0.70380956  1
  F  F17  1  0.23858012  0.68461623  0.70380956  1
  F  F18  1  0.44603611  0.76141988  0.70380956  1
  F  F19  1  0.66666667  0.33333333  0.50000000  1
  F  F20  1  0.00000000  0.00000000  0.00000000  1
  F  F21  1  0.54824791  0.90894831  0.85225244  1
  F  F22  1  0.09105169  0.63929960  0.85225244  1
  F  F23  1  0.36070040  0.45175209  0.85225244  1
  F  F24  1  0.09105169  0.45175209  0.14774756  1
  F  F25  1  0.36070040  0.90894831  0.14774756  1
  F  F26  1  0.54824791  0.63929960  0.14774756  1
  F  F27  1  0.33333333  0.66666667  0.60972340  1
  F  F28  1  0.33333333  0.66666667  0.39027660  1
  F  F29  1  0.00000000  0.00000000  0.50000000  1
  F  F30  1  0.90405320  0.38790946  0.94027933  1
  F  F31  1  0.61209054  0.51614374  0.94027933  1
  F  F32  1  0.48385626  0.09594680  0.94027933  1
  F  F33  1  0.61209054  0.09594680  0.05972067  1
  F  F34  1  0.48385626  0.38790946  0.05972067  1
  F  F35  1  0.90405320  0.51614374  0.05972067  1
  F  F36  1  0.04140959  0.65137824  0.65431221  1
  F  F37  1  0.34862176  0.39003135  0.65431221  1
  F  F38  1  0.60996865  0.95859041  0.65431221  1
  F  F39  1  0.34862176  0.95859041  0.34568779  1
  F  F40  1  0.60996865  0.65137824  0.34568779  1
  F  F41  1  0.04140959  0.39003135  0.34568779  1
  F  F42  1  0.65886759  0.62156992  0.97062396  1
  F  F43  1  0.37843008  0.03729766  0.97062396  1
  F  F44  1  0.96270234  0.34113241  0.97062396  1
  F  F45  1  0.37843008  0.34113241  0.02937604  1
  F  F46  1  0.96270234  0.62156992  0.02937604  1
  F  F47  1  0.65886759  0.03729766  0.02937604  1
  Li  Li48  1  0.39975797  0.87410724  0.24992449  1
  Li  Li49  1  0.12589276  0.52565073  0.24992449  1
  Li  Li50  1  0.47434927  0.60024203  0.24992449  1
  Li  Li51  1  0.12589276  0.60024203  0.75007551  1
  Li  Li52  1  0.47434927  0.87410724  0.75007551  1
  Li  Li53  1  0.39975797  0.52565073  0.75007551  1
  Li  Li54  1  0.73212753  0.30262813  0.19469806  1
  Li  Li55  1  0.69737187  0.42949940  0.19469806  1
  Li  Li56  1  0.57050060  0.26787247  0.19469806  1
  Li  Li57  1  0.69737187  0.26787247  0.80530194  1
  Li  Li58  1  0.57050060  0.30262813  0.80530194  1
  Li  Li59  1  0.73212753  0.42949940  0.80530194  1
  Li  Li60  1  0.33333333  0.66666667  -0.00000000  1
  Li  Li61  1  0.23381703  0.40751611  0.13852363  1
  Li  Li62  1  0.59248389  0.82630092  0.13852363  1
  Li  Li63  1  0.17369908  0.76618297  0.13852363  1
  Li  Li64  1  0.59248389  0.76618297  0.86147637  1
  Li  Li65  1  0.17369908  0.40751611  0.86147637  1
  Li  Li66  1  0.23381703  0.82630092  0.86147637  1
  Li  Li67  1  0.19186264  0.67727221  0.04457732  1
  Li  Li68  1  0.32272779  0.51459043  0.04457732  1
  Li  Li69  1  0.48540957  0.80813736  0.04457732  1
  Li  Li70  1  0.32272779  0.80813736  0.95542268  1
  Li  Li71  1  0.48540957  0.67727221  0.95542268  1
  Li  Li72  1  0.19186264  0.51459043  0.95542268  1
  Li  Li73  1  0.78027628  0.21972372  0.50000000  1
  Li  Li74  1  0.78027628  0.56055255  0.50000000  1
  Li  Li75  1  0.43944745  0.21972372  0.50000000  1
  Li  Li76  1  0.74803643  0.94774987  0.58083861  1
  Li  Li77  1  0.05225013  0.80028655  0.58083861  1
  Li  Li78  1  0.19971345  0.25196357  0.58083861  1
  Li  Li79  1  0.05225013  0.25196357  0.41916139  1
  Li  Li80  1  0.19971345  0.94774987  0.41916139  1
  Li  Li81  1  0.74803643  0.80028655  0.41916139  1
  Li  Li82  1  0.33333333  0.66666667  0.91162161  1
  Li  Li83  1  0.33333333  0.66666667  0.08837839  1
  Li  Li84  1  0.15220515  0.87815758  0.06733002  1
  Li  Li85  1  0.12184242  0.27404757  0.06733002  1
  Li  Li86  1  0.72595243  0.84779485  0.06733002  1
  Li  Li87  1  0.12184242  0.84779485  0.93266998  1
  Li  Li88  1  0.72595243  0.87815758  0.93266998  1
  Li  Li89  1  0.15220515  0.27404757  0.93266998  1
  Li  Li90  1  0.93057561  0.06942439  0.50000000  1
  Li  Li91  1  0.93057561  0.86115121  0.50000000  1
  Li  Li92  1  0.13884879  0.06942439  0.50000000  1
  Li  Li93  1  0.17531715  0.47923374  0.07718940  1
  Li  Li94  1  0.52076626  0.69608340  0.07718940  1
  Li  Li95  1  0.30391660  0.82468285  0.07718940  1
  Li  Li96  1  0.52076626  0.82468285  0.92281060  1
  Li  Li97  1  0.30391660  0.47923374  0.92281060  1
  Li  Li98  1  0.17531715  0.69608340  0.92281060  1
  Li  Li99  1  0.33333333  0.66666667  0.50000000  1
  Li  Li100  1  0.71750435  0.28249565  0.50000000  1
  Li  Li101  1  0.71750435  0.43500871  0.50000000  1
  Li  Li102  1  0.56499129  0.28249565  0.50000000  1
  Li  Li103  1  0.55435827  0.16965804  0.26002696  1
  Li  Li104  1  0.83034196  0.38470024  0.26002696  1
  Li  Li105  1  0.61529976  0.44564173  0.26002696  1
  Li  Li106  1  0.83034196  0.44564173  0.73997304  1
  Li  Li107  1  0.61529976  0.16965804  0.73997304  1
  Li  Li108  1  0.55435827  0.38470024  0.73997304  1
  Li  Li109  1  0.86813311  0.66872151  0.67526434  1
  Li  Li110  1  0.33127849  0.19941159  0.67526434  1
  Li  Li111  1  0.80058841  0.13186689  0.67526434  1
  Li  Li112  1  0.33127849  0.13186689  0.32473566  1
  Li  Li113  1  0.80058841  0.66872151  0.32473566  1
  Li  Li114  1  0.86813311  0.19941159  0.32473566  1
  Li  Li115  1  0.96422144  0.48966292  0.26896715  1
  Li  Li116  1  0.51033708  0.47455852  0.26896715  1
  Li  Li117  1  0.52544148  0.03577856  0.26896715  1
  Li  Li118  1  0.51033708  0.03577856  0.73103285  1
  Li  Li119  1  0.52544148  0.48966292  0.73103285  1
  Li  Li120  1  0.96422144  0.47455852  0.73103285  1
  Li  Li121  1  0.80392305  0.38475224  0.05765828  1
  Li  Li122  1  0.61524776  0.41917081  0.05765828  1
  Li  Li123  1  0.58082919  0.19607695  0.05765828  1
  Li  Li124  1  0.61524776  0.19607695  0.94234172  1
  Li  Li125  1  0.58082919  0.38475224  0.94234172  1
  Li  Li126  1  0.80392305  0.41917081  0.94234172  1
  Li  Li127  1  0.64370678  0.98267887  0.18221791  1
  Li  Li128  1  0.01732113  0.66102791  0.18221791  1
  Li  Li129  1  0.33897209  0.35629322  0.18221791  1
  Li  Li130  1  0.01732113  0.35629322  0.81778209  1
  Li  Li131  1  0.33897209  0.98267887  0.81778209  1
  Li  Li132  1  0.64370678  0.66102791  0.81778209  1
  Li  Li133  1  0.96468756  0.36736489  0.32653145  1
  Li  Li134  1  0.63263511  0.59732267  0.32653145  1
  Li  Li135  1  0.40267733  0.03531244  0.32653145  1
  Li  Li136  1  0.63263511  0.03531244  0.67346855  1
  Li  Li137  1  0.40267733  0.36736489  0.67346855  1
  Li  Li138  1  0.96468756  0.59732267  0.67346855  1
  Li  Li139  1  0.41865198  0.58134802  0.00000000  1
  Li  Li140  1  0.41865198  0.83730396  0.00000000  1
  Li  Li141  1  0.16269604  0.58134802  0.00000000  1
  Li  Li142  1  0.00000000  0.00000000  0.06866858  1
  Li  Li143  1  0.00000000  0.00000000  0.93133142  1
  Te  Te144  1  0.17152987  0.45303557  0.40567398  1
  Te  Te145  1  0.54696443  0.71849430  0.40567398  1
  Te  Te146  1  0.28150570  0.82847013  0.40567398  1
  Te  Te147  1  0.54696443  0.82847013  0.59432602  1
  Te  Te148  1  0.28150570  0.45303557  0.59432602  1
  Te  Te149  1  0.17152987  0.71849430  0.59432602  1
  Te  Te150  1  0.70774773  0.25687658  0.11684590  1
  Te  Te151  1  0.74312342  0.45087115  0.11684590  1
  Te  Te152  1  0.54912885  0.29225227  0.11684590  1
  Te  Te153  1  0.74312342  0.29225227  0.88315410  1
  Te  Te154  1  0.54912885  0.25687658  0.88315410  1
  Te  Te155  1  0.70774773  0.45087115  0.88315410  1
  Te  Te156  1  0.05073770  0.65560472  0.94936443  1
  Te  Te157  1  0.34439528  0.39513298  0.94936443  1
  Te  Te158  1  0.60486702  0.94926230  0.94936443  1
  Te  Te159  1  0.34439528  0.94926230  0.05063557  1
  Te  Te160  1  0.60486702  0.65560472  0.05063557  1
  Te  Te161  1  0.05073770  0.39513298  0.05063557  1
  Te  Te162  1  0.92180924  0.07819076  0.00000000  1
  Te  Te163  1  0.92180924  0.84361848  0.00000000  1
  Te  Te164  1  0.15638152  0.07819076  0.00000000  1
  Te  Te165  1  0.83243845  0.16756155  0.00000000  1
  Te  Te166  1  0.83243845  0.66487690  0.00000000  1
  Te  Te167  1  0.33512310  0.16756155  0.00000000  1
