# generated using pymatgen
data_Li2Y2As2P4Se
_symmetry_space_group_name_H-M   'P 1'
_cell_length_a   5.27513132
_cell_length_b   5.18491966
_cell_length_c   7.47153994
_cell_angle_alpha   94.41379860
_cell_angle_beta   99.61233574
_cell_angle_gamma   107.72847474
_symmetry_Int_Tables_number   1
_chemical_formula_structural   Li2Y2As2P4Se
_chemical_formula_sum   'Li2 Y2 As2 P4 Se1'
_cell_volume   190.13196448
_cell_formula_units_Z   1
loop_
 _symmetry_equiv_pos_site_id
 _symmetry_equiv_pos_as_xyz
  1  'x, y, z'
loop_
 _atom_site_type_symbol
 _atom_site_label
 _atom_site_symmetry_multiplicity
 _atom_site_fract_x
 _atom_site_fract_y
 _atom_site_fract_z
 _atom_site_occupancy
  Se  Se0  1  0.00000000  0.00000000  0.00000000  1
  Y  Y1  1  0.50000000  0.50000000  0.50000000  1
  Y  Y2  1  0.25000000  0.25000000  0.25000000  1
  P  P3  1  0.75000000  0.25000000  0.00000000  1
  P  P4  1  0.25000000  0.75000000  0.50000000  1
  P  P5  1  0.92720792  0.56286499  0.07875619  1
  P  P6  1  0.36625536  0.08759846  0.02757705  1
  As  As7  1  0.25108355  0.62816227  0.68106023  1
  As  As8  1  0.18229426  0.93830074  0.89579178  1
  Li  Li9  1  0.38847158  0.35978012  0.93969062  1
  Li  Li10  1  0.80229307  0.27487250  0.82515959  1
