# generated using pymatgen
data_LiY2(As2P)2
_symmetry_space_group_name_H-M   'P 1'
_cell_length_a   4.85949222
_cell_length_b   4.82280920
_cell_length_c   6.71902483
_cell_angle_alpha   94.75421681
_cell_angle_beta   99.10764717
_cell_angle_gamma   107.14166533
_symmetry_Int_Tables_number   1
_chemical_formula_structural   LiY2(As2P)2
_chemical_formula_sum   'Li1 Y2 As4 P2'
_cell_volume   147.17087376
_cell_formula_units_Z   1
loop_
 _symmetry_equiv_pos_site_id
 _symmetry_equiv_pos_as_xyz
  1  'x, y, z'
loop_
 _atom_site_type_symbol
 _atom_site_label
 _atom_site_symmetry_multiplicity
 _atom_site_fract_x
 _atom_site_fract_y
 _atom_site_fract_z
 _atom_site_occupancy
  P  P0  1  0.12500000  0.00000000  0.25000000  1
  P  P1  1  0.00000000  0.00000000  0.00000000  1
  As  As2  1  0.37500000  0.00000000  0.25000000  1
  As  As3  1  0.25000000  0.25000000  0.25000000  1
  As  As4  1  0.00000000  0.25000000  0.12500000  1
  As  As5  1  0.35957114  0.66684331  0.92887027  1
  Li  Li6  1  0.60968627  0.39152914  0.18710759  1
  Y  Y7  1  0.38921011  0.35674006  0.94497762  1
  Y  Y8  1  0.39199499  0.52551166  0.46331645  1
