# generated using pymatgen
data_Li4TeF2
_symmetry_space_group_name_H-M   'P 1'
_cell_length_a   13.70724545
_cell_length_b   13.70724545
_cell_length_c   12.86273730
_cell_angle_alpha   90.00000000
_cell_angle_beta   90.00000000
_cell_angle_gamma   90.00000000
_symmetry_Int_Tables_number   1
_chemical_formula_structural   Li4TeF2
_chemical_formula_sum   'Li96 Te24 F48'
_cell_volume   2416.76141936
_cell_formula_units_Z   24
loop_
 _symmetry_equiv_pos_site_id
 _symmetry_equiv_pos_as_xyz
  1  'x, y, z'
loop_
 _atom_site_type_symbol
 _atom_site_label
 _atom_site_symmetry_multiplicity
 _atom_site_fract_x
 _atom_site_fract_y
 _atom_site_fract_z
 _atom_site_occupancy
  F  F0  1  0.76402888  0.44247319  0.19732292  1
  F  F1  1  -0.76402888  -0.44247319  0.19732292  1
  F  F2  1  -0.44247319  0.76402888  0.19732292  1
  F  F3  1  0.44247319  -0.76402888  0.19732292  1
  F  F4  1  -0.76402888  0.44247319  -0.19732292  1
  F  F5  1  0.76402888  -0.44247319  -0.19732292  1
  F  F6  1  0.44247319  0.76402888  -0.19732292  1
  F  F7  1  -0.44247319  -0.76402888  -0.19732292  1
  F  F8  1  -0.76402888  -0.44247319  -0.19732292  1
  F  F9  1  0.76402888  0.44247319  -0.19732292  1
  F  F10  1  0.44247319  -0.76402888  -0.19732292  1
  F  F11  1  -0.44247319  0.76402888  -0.19732292  1
  F  F12  1  0.76402888  -0.44247319  0.19732292  1
  F  F13  1  -0.76402888  0.44247319  0.19732292  1
  F  F14  1  -0.44247319  -0.76402888  0.19732292  1
  F  F15  1  0.44247319  0.76402888  0.19732292  1
  F  F16  1  0.75675721  0.32376851  0.14703619  1
  F  F17  1  0.24324279  0.67623149  0.14703619  1
  F  F18  1  0.67623149  0.75675721  0.14703619  1
  F  F19  1  0.32376851  0.24324279  0.14703619  1
  F  F20  1  0.24324279  0.32376851  0.85296381  1
  F  F21  1  0.75675721  0.67623149  0.85296381  1
  F  F22  1  0.32376851  0.75675721  0.85296381  1
  F  F23  1  0.67623149  0.24324279  0.85296381  1
  F  F24  1  0.24324279  0.67623149  0.85296381  1
  F  F25  1  0.75675721  0.32376851  0.85296381  1
  F  F26  1  0.32376851  0.24324279  0.85296381  1
  F  F27  1  0.67623149  0.75675721  0.85296381  1
  F  F28  1  0.75675721  0.67623149  0.14703619  1
  F  F29  1  0.24324279  0.32376851  0.14703619  1
  F  F30  1  0.67623149  0.24324279  0.14703619  1
  F  F31  1  0.32376851  0.75675721  0.14703619  1
  F  F32  1  0.50000000  0.50000000  0.50000000  1
  F  F33  1  0.87701623  0.00000000  0.38547925  1
  F  F34  1  0.12298377  0.00000000  0.38547925  1
  F  F35  1  0.00000000  0.87701623  0.38547925  1
  F  F36  1  0.00000000  0.12298377  0.38547925  1
  F  F37  1  0.12298377  0.00000000  0.61452075  1
  F  F38  1  0.87701623  0.00000000  0.61452075  1
  F  F39  1  0.00000000  0.87701623  0.61452075  1
  F  F40  1  0.00000000  0.12298377  0.61452075  1
  F  F41  1  0.00000000  0.00000000  0.50000000  1
  F  F42  1  0.43618205  0.00000000  0.00000000  1
  F  F43  1  0.56381795  0.00000000  0.00000000  1
  F  F44  1  0.00000000  0.43618205  0.00000000  1
  F  F45  1  0.00000000  0.56381795  0.00000000  1
  F  F46  1  0.00000000  0.50000000  0.50000000  1
  F  F47  1  0.50000000  0.00000000  0.50000000  1
  Li  Li48  1  0.17147197  0.17147197  0.30815910  1
  Li  Li49  1  0.82852803  0.82852803  0.30815910  1
  Li  Li50  1  0.82852803  0.17147197  0.30815910  1
  Li  Li51  1  0.17147197  0.82852803  0.30815910  1
  Li  Li52  1  0.82852803  0.17147197  0.69184090  1
  Li  Li53  1  0.17147197  0.82852803  0.69184090  1
  Li  Li54  1  0.17147197  0.17147197  0.69184090  1
  Li  Li55  1  0.82852803  0.82852803  0.69184090  1
  Li  Li56  1  0.23222930  0.42527464  0.00000000  1
  Li  Li57  1  0.76777070  0.57472536  0.00000000  1
  Li  Li58  1  0.57472536  0.23222930  0.00000000  1
  Li  Li59  1  0.42527464  0.76777070  0.00000000  1
  Li  Li60  1  0.76777070  0.42527464  0.00000000  1
  Li  Li61  1  0.23222930  0.57472536  0.00000000  1
  Li  Li62  1  0.42527464  0.23222930  0.00000000  1
  Li  Li63  1  0.57472536  0.76777070  0.00000000  1
  Li  Li64  1  0.84962767  0.06183158  0.86583903  1
  Li  Li65  1  0.15037233  0.93816842  0.86583903  1
  Li  Li66  1  0.93816842  0.84962767  0.86583903  1
  Li  Li67  1  0.06183158  0.15037233  0.86583903  1
  Li  Li68  1  0.15037233  0.06183158  0.13416097  1
  Li  Li69  1  0.84962767  0.93816842  0.13416097  1
  Li  Li70  1  0.06183158  0.84962767  0.13416097  1
  Li  Li71  1  0.93816842  0.15037233  0.13416097  1
  Li  Li72  1  0.15037233  0.93816842  0.13416097  1
  Li  Li73  1  0.84962767  0.06183158  0.13416097  1
  Li  Li74  1  0.06183158  0.15037233  0.13416097  1
  Li  Li75  1  0.93816842  0.84962767  0.13416097  1
  Li  Li76  1  0.84962767  0.93816842  0.86583903  1
  Li  Li77  1  0.15037233  0.06183158  0.86583903  1
  Li  Li78  1  0.93816842  0.15037233  0.86583903  1
  Li  Li79  1  0.06183158  0.84962767  0.86583903  1
  Li  Li80  1  0.56030622  0.88172185  0.90253340  1
  Li  Li81  1  0.43969378  0.11827815  0.90253340  1
  Li  Li82  1  0.11827815  0.56030622  0.90253340  1
  Li  Li83  1  0.88172185  0.43969378  0.90253340  1
  Li  Li84  1  0.43969378  0.88172185  0.09746660  1
  Li  Li85  1  0.56030622  0.11827815  0.09746660  1
  Li  Li86  1  0.88172185  0.56030622  0.09746660  1
  Li  Li87  1  0.11827815  0.43969378  0.09746660  1
  Li  Li88  1  0.43969378  0.11827815  0.09746660  1
  Li  Li89  1  0.56030622  0.88172185  0.09746660  1
  Li  Li90  1  0.88172185  0.43969378  0.09746660  1
  Li  Li91  1  0.11827815  0.56030622  0.09746660  1
  Li  Li92  1  0.56030622  0.11827815  0.90253340  1
  Li  Li93  1  0.43969378  0.88172185  0.90253340  1
  Li  Li94  1  0.11827815  0.43969378  0.90253340  1
  Li  Li95  1  0.88172185  0.56030622  0.90253340  1
  Li  Li96  1  0.62653783  0.50000000  0.39531717  1
  Li  Li97  1  0.37346217  0.50000000  0.39531717  1
  Li  Li98  1  0.50000000  0.62653783  0.39531717  1
  Li  Li99  1  0.50000000  0.37346217  0.39531717  1
  Li  Li100  1  0.37346217  0.50000000  0.60468283  1
  Li  Li101  1  0.62653783  0.50000000  0.60468283  1
  Li  Li102  1  0.50000000  0.62653783  0.60468283  1
  Li  Li103  1  0.50000000  0.37346217  0.60468283  1
  Li  Li104  1  0.07175913  0.07175913  0.94447164  1
  Li  Li105  1  0.92824087  0.92824087  0.94447164  1
  Li  Li106  1  0.92824087  0.07175913  0.94447164  1
  Li  Li107  1  0.07175913  0.92824087  0.94447164  1
  Li  Li108  1  0.92824087  0.07175913  0.05552836  1
  Li  Li109  1  0.07175913  0.92824087  0.05552836  1
  Li  Li110  1  0.07175913  0.07175913  0.05552836  1
  Li  Li111  1  0.92824087  0.92824087  0.05552836  1
  Li  Li112  1  0.28453294  0.92455286  0.50000000  1
  Li  Li113  1  0.71546706  0.07544714  0.50000000  1
  Li  Li114  1  0.07544714  0.28453294  0.50000000  1
  Li  Li115  1  0.92455286  0.71546706  0.50000000  1
  Li  Li116  1  0.71546706  0.92455286  0.50000000  1
  Li  Li117  1  0.28453294  0.07544714  0.50000000  1
  Li  Li118  1  0.92455286  0.28453294  0.50000000  1
  Li  Li119  1  0.07544714  0.71546706  0.50000000  1
  Li  Li120  1  0.42796688  0.42796688  0.00000000  1
  Li  Li121  1  0.57203312  0.57203312  0.00000000  1
  Li  Li122  1  0.57203312  0.42796688  0.00000000  1
  Li  Li123  1  0.42796688  0.57203312  0.00000000  1
  Li  Li124  1  0.93853194  0.30814815  0.31405261  1
  Li  Li125  1  0.06146806  0.69185185  0.31405261  1
  Li  Li126  1  0.69185185  0.93853194  0.31405261  1
  Li  Li127  1  0.30814815  0.06146806  0.31405261  1
  Li  Li128  1  0.06146806  0.30814815  0.68594739  1
  Li  Li129  1  0.93853194  0.69185185  0.68594739  1
  Li  Li130  1  0.30814815  0.93853194  0.68594739  1
  Li  Li131  1  0.69185185  0.06146806  0.68594739  1
  Li  Li132  1  0.06146806  0.69185185  0.68594739  1
  Li  Li133  1  0.93853194  0.30814815  0.68594739  1
  Li  Li134  1  0.30814815  0.06146806  0.68594739  1
  Li  Li135  1  0.69185185  0.93853194  0.68594739  1
  Li  Li136  1  0.93853194  0.69185185  0.31405261  1
  Li  Li137  1  0.06146806  0.30814815  0.31405261  1
  Li  Li138  1  0.69185185  0.06146806  0.31405261  1
  Li  Li139  1  0.30814815  0.93853194  0.31405261  1
  Li  Li140  1  0.21132205  0.00000000  0.50000000  1
  Li  Li141  1  0.78867795  -0.00000000  0.50000000  1
  Li  Li142  1  0.00000000  0.21132205  0.50000000  1
  Li  Li143  1  0.00000000  0.78867795  0.50000000  1
  Te  Te144  1  0.88413009  0.40745225  0.43405504  1
  Te  Te145  1  0.11586991  0.59254775  0.43405504  1
  Te  Te146  1  0.59254775  0.88413009  0.43405504  1
  Te  Te147  1  0.40745225  0.11586991  0.43405504  1
  Te  Te148  1  0.11586991  0.40745225  0.56594496  1
  Te  Te149  1  0.88413009  0.59254775  0.56594496  1
  Te  Te150  1  0.40745225  0.88413009  0.56594496  1
  Te  Te151  1  0.59254775  0.11586991  0.56594496  1
  Te  Te152  1  0.11586991  0.59254775  0.56594496  1
  Te  Te153  1  0.88413009  0.40745225  0.56594496  1
  Te  Te154  1  0.40745225  0.11586991  0.56594496  1
  Te  Te155  1  0.59254775  0.88413009  0.56594496  1
  Te  Te156  1  0.88413009  0.59254775  0.43405504  1
  Te  Te157  1  0.11586991  0.40745225  0.43405504  1
  Te  Te158  1  0.59254775  0.11586991  0.43405504  1
  Te  Te159  1  0.40745225  0.88413009  0.43405504  1
  Te  Te160  1  0.68629338  0.50000000  0.50000000  1
  Te  Te161  1  0.31370662  0.50000000  0.50000000  1
  Te  Te162  1  0.50000000  0.68629338  0.50000000  1
  Te  Te163  1  0.50000000  0.31370662  0.50000000  1
  Te  Te164  1  0.10584256  0.00000000  0.50000000  1
  Te  Te165  1  0.89415744  -0.00000000  0.50000000  1
  Te  Te166  1  0.00000000  0.10584256  0.50000000  1
  Te  Te167  1  0.00000000  0.89415744  0.50000000  1
