# generated using pymatgen
data_Li2Ca3F8
_symmetry_space_group_name_H-M   'P 1'
_cell_length_a   19.08720005
_cell_length_b   19.08720005
_cell_length_c   4.24566296
_cell_angle_alpha   90.00000000
_cell_angle_beta   90.00000000
_cell_angle_gamma   90.00000000
_symmetry_Int_Tables_number   1
_chemical_formula_structural   Li2Ca3F8
_chemical_formula_sum   'Li16 Ca24 F64'
_cell_volume   1546.78504825
_cell_formula_units_Z   8
loop_
 _symmetry_equiv_pos_site_id
 _symmetry_equiv_pos_as_xyz
  1  'x, y, z'
loop_
 _atom_site_type_symbol
 _atom_site_label
 _atom_site_symmetry_multiplicity
 _atom_site_fract_x
 _atom_site_fract_y
 _atom_site_fract_z
 _atom_site_occupancy
  Ca  Ca0  1  0.00000000  0.25000000  0.12500000  1
  Ca  Ca1  1  0.00000000  0.75000000  0.37500000  1
  Ca  Ca2  1  0.00000000  0.75000000  0.87500000  1
  Ca  Ca3  1  0.00000000  0.25000000  0.62500000  1
  Ca  Ca4  1  0.50000000  0.75000000  0.62500000  1
  Ca  Ca5  1  0.50000000  0.25000000  0.87500000  1
  Ca  Ca6  1  0.50000000  0.25000000  0.37500000  1
  Ca  Ca7  1  0.50000000  0.75000000  0.12500000  1
  Ca  Ca8  1  0.36481605  0.61481605  0.12500000  1
  Ca  Ca9  1  0.13518395  0.38518395  0.62500000  1
  Ca  Ca10  1  0.63518395  0.11481605  0.37500000  1
  Ca  Ca11  1  0.86481605  0.88518395  0.87500000  1
  Ca  Ca12  1  0.63518395  0.38518395  0.87500000  1
  Ca  Ca13  1  0.86481605  0.61481605  0.37500000  1
  Ca  Ca14  1  0.36481605  0.88518395  0.62500000  1
  Ca  Ca15  1  0.13518395  0.11481605  0.12500000  1
  Ca  Ca16  1  0.86481605  0.11481605  0.62500000  1
  Ca  Ca17  1  0.63518395  0.88518395  0.12500000  1
  Ca  Ca18  1  0.13518395  0.61481605  0.87500000  1
  Ca  Ca19  1  0.36481605  0.38518395  0.37500000  1
  Ca  Ca20  1  0.13518395  0.88518395  0.37500000  1
  Ca  Ca21  1  0.36481605  0.11481605  0.87500000  1
  Ca  Ca22  1  0.86481605  0.38518395  0.12500000  1
  Ca  Ca23  1  0.63518395  0.61481605  0.62500000  1
  F  F24  1  0.18149303  0.85471779  0.77086971  1
  F  F25  1  0.31850697  -0.85471779  1.27086971  1
  F  F26  1  -0.60471779  0.93149303  1.02086971  1
  F  F27  1  1.10471779  0.06850697  1.52086971  1
  F  F28  1  0.31850697  0.85471779  -0.77086971  1
  F  F29  1  0.18149303  -0.85471779  -0.27086971  1
  F  F30  1  1.10471779  0.93149303  -0.02086971  1
  F  F31  1  -0.60471779  0.06850697  -0.52086971  1
  F  F32  1  -0.18149303  -0.85471779  -0.77086971  1
  F  F33  1  0.68149303  0.85471779  -0.27086971  1
  F  F34  1  1.60471779  0.06850697  -0.02086971  1
  F  F35  1  -0.10471779  0.93149303  -0.52086971  1
  F  F36  1  0.68149303  -0.85471779  0.77086971  1
  F  F37  1  -0.18149303  0.85471779  1.27086971  1
  F  F38  1  -0.10471779  0.06850697  1.02086971  1
  F  F39  1  1.60471779  0.93149303  1.52086971  1
  F  F40  1  0.68149303  1.35471779  1.27086971  1
  F  F41  1  0.81850697  -0.35471779  1.77086971  1
  F  F42  1  -0.10471779  1.43149303  1.52086971  1
  F  F43  1  1.60471779  0.56850697  2.02086971  1
  F  F44  1  0.81850697  1.35471779  -0.27086971  1
  F  F45  1  0.68149303  -0.35471779  0.22913029  1
  F  F46  1  1.60471779  1.43149303  0.47913029  1
  F  F47  1  -0.10471779  0.56850697  -0.02086971  1
  F  F48  1  0.31850697  -0.35471779  -0.27086971  1
  F  F49  1  1.18149303  1.35471779  0.22913029  1
  F  F50  1  2.10471779  0.56850697  0.47913029  1
  F  F51  1  0.39528221  1.43149303  -0.02086971  1
  F  F52  1  1.18149303  -0.35471779  1.27086971  1
  F  F53  1  0.31850697  1.35471779  1.77086971  1
  F  F54  1  0.39528221  0.56850697  1.52086971  1
  F  F55  1  2.10471779  1.43149303  2.02086971  1
  F  F56  1  0.08390213  0.89793834  0.22938358  1
  F  F57  1  0.41609787  0.10206166  0.72938358  1
  F  F58  1  0.35206166  0.83390213  0.47938358  1
  F  F59  1  0.14793834  0.16609787  0.97938358  1
  F  F60  1  0.41609787  0.89793834  0.77061642  1
  F  F61  1  0.08390213  0.10206166  0.27061642  1
  F  F62  1  0.14793834  0.83390213  0.52061642  1
  F  F63  1  0.35206166  0.16609787  0.02061642  1
  F  F64  1  0.91609787  0.10206166  0.77061642  1
  F  F65  1  0.58390213  0.89793834  0.27061642  1
  F  F66  1  0.64793834  0.16609787  0.52061642  1
  F  F67  1  0.85206166  0.83390213  0.02061642  1
  F  F68  1  0.58390213  0.10206166  0.22938358  1
  F  F69  1  0.91609787  0.89793834  0.72938358  1
  F  F70  1  0.85206166  0.16609787  0.47938358  1
  F  F71  1  0.64793834  0.83390213  0.97938358  1
  F  F72  1  0.58390213  0.39793834  0.72938358  1
  F  F73  1  0.91609787  0.60206166  0.22938358  1
  F  F74  1  0.85206166  0.33390213  0.97938358  1
  F  F75  1  0.64793834  0.66609787  0.47938358  1
  F  F76  1  0.91609787  0.39793834  0.27061642  1
  F  F77  1  0.58390213  0.60206166  0.77061642  1
  F  F78  1  0.64793834  0.33390213  0.02061642  1
  F  F79  1  0.85206166  0.66609787  0.52061642  1
  F  F80  1  0.41609787  0.60206166  0.27061642  1
  F  F81  1  0.08390213  0.39793834  0.77061642  1
  F  F82  1  0.14793834  0.66609787  0.02061642  1
  F  F83  1  0.35206166  0.33390213  0.52061642  1
  F  F84  1  0.08390213  0.60206166  0.72938358  1
  F  F85  1  0.41609787  0.39793834  0.22938358  1
  F  F86  1  0.35206166  0.66609787  0.97938358  1
  F  F87  1  0.14793834  0.33390213  0.47938358  1
  Li  Li88  1  0.00000000  0.00000000  0.00000000  1
  Li  Li89  1  0.50000000  0.00000000  0.50000000  1
  Li  Li90  1  0.25000000  0.75000000  0.25000000  1
  Li  Li91  1  0.25000000  0.25000000  0.75000000  1
  Li  Li92  1  0.50000000  0.00000000  0.00000000  1
  Li  Li93  1  0.00000000  0.00000000  0.50000000  1
  Li  Li94  1  0.25000000  0.75000000  0.75000000  1
  Li  Li95  1  0.25000000  0.25000000  0.25000000  1
  Li  Li96  1  0.50000000  0.50000000  0.50000000  1
  Li  Li97  1  0.00000000  0.50000000  0.00000000  1
  Li  Li98  1  0.75000000  0.25000000  0.75000000  1
  Li  Li99  1  0.75000000  0.75000000  0.25000000  1
  Li  Li100  1  0.00000000  0.50000000  0.50000000  1
  Li  Li101  1  0.50000000  0.50000000  0.00000000  1
  Li  Li102  1  0.75000000  0.25000000  0.25000000  1
  Li  Li103  1  0.75000000  0.75000000  0.75000000  1
