# generated using pymatgen
data_LiF
_symmetry_space_group_name_H-M   'P 1'
_cell_length_a   7.73665948
_cell_length_b   7.73665948
_cell_length_c   5.08413512
_cell_angle_alpha   90.00000000
_cell_angle_beta   90.00000000
_cell_angle_gamma   120.00000000
_symmetry_Int_Tables_number   1
_chemical_formula_structural   LiF
_chemical_formula_sum   'Li15 F15'
_cell_volume   263.54493874
_cell_formula_units_Z   15
loop_
 _symmetry_equiv_pos_site_id
 _symmetry_equiv_pos_as_xyz
  1  'x, y, z'
loop_
 _atom_site_type_symbol
 _atom_site_label
 _atom_site_symmetry_multiplicity
 _atom_site_fract_x
 _atom_site_fract_y
 _atom_site_fract_z
 _atom_site_occupancy
  F  F0  1  0.00000000  0.00000000  0.70859750  1
  F  F1  1  0.00000000  0.00000000  0.29140250  1
  F  F2  1  0.79150662  0.40490911  0.88244004  1
  F  F3  1  0.59509089  0.38659751  0.88244004  1
  F  F4  1  0.61340249  0.20849338  0.88244004  1
  F  F5  1  0.59509089  0.20849338  0.11755996  1
  F  F6  1  0.61340249  0.40490911  0.11755996  1
  F  F7  1  0.79150662  0.38659751  0.11755996  1
  F  F8  1  0.66666667  0.33333333  0.00000000  1
  F  F9  1  0.95626600  0.73387598  0.44398227  1
  F  F10  1  0.26612402  0.22239002  0.44398227  1
  F  F11  1  0.77760998  0.04373400  0.44398227  1
  F  F12  1  0.26612402  0.04373400  0.55601773  1
  F  F13  1  0.77760998  0.73387598  0.55601773  1
  F  F14  1  0.95626600  0.22239002  0.55601773  1
  Li  Li15  1  0.66666667  0.33333333  0.25545825  1
  Li  Li16  1  0.66666667  0.33333333  0.74454175  1
  Li  Li17  1  0.05087126  0.73461350  0.76043592  1
  Li  Li18  1  -0.73461350  -0.68374225  0.76043592  1
  Li  Li19  1  0.68374225  -0.05087126  0.76043592  1
  Li  Li20  1  -0.73461350  -0.05087126  -0.76043592  1
  Li  Li21  1  0.68374225  0.73461350  -0.76043592  1
  Li  Li22  1  0.05087126  -0.68374225  -0.76043592  1
  Li  Li23  1  0.33333333  0.66666667  0.50000000  1
  Li  Li24  1  0.85507348  0.70422992  0.82341542  1
  Li  Li25  1  0.29577008  0.15084356  0.82341542  1
  Li  Li26  1  0.84915644  0.14492652  0.82341542  1
  Li  Li27  1  0.29577008  0.14492652  0.17658458  1
  Li  Li28  1  0.84915644  0.70422992  0.17658458  1
  Li  Li29  1  0.85507348  0.15084356  0.17658458  1
