# generated using pymatgen
data_LiF
_symmetry_space_group_name_H-M   'P 1'
_cell_length_a   8.69392022
_cell_length_b   8.69392022
_cell_length_c   22.54140043
_cell_angle_alpha   90.00000000
_cell_angle_beta   90.00000000
_cell_angle_gamma   120.00000000
_symmetry_Int_Tables_number   1
_chemical_formula_structural   LiF
_chemical_formula_sum   'Li48 F48'
_cell_volume   1475.51227509
_cell_formula_units_Z   48
loop_
 _symmetry_equiv_pos_site_id
 _symmetry_equiv_pos_as_xyz
  1  'x, y, z'
loop_
 _atom_site_type_symbol
 _atom_site_label
 _atom_site_symmetry_multiplicity
 _atom_site_fract_x
 _atom_site_fract_y
 _atom_site_fract_z
 _atom_site_occupancy
  F  F0  1  0.25855428  0.64675950  0.72602727  1
  F  F1  1  -0.64675950  -0.38820521  0.72602727  1
  F  F2  1  0.38820521  -0.25855428  0.72602727  1
  F  F3  1  -0.25855428  -0.64675950  1.22602727  1
  F  F4  1  0.64675950  0.38820521  1.22602727  1
  F  F5  1  -0.38820521  0.25855428  1.22602727  1
  F  F6  1  -0.25855428  -0.64675950  -0.72602727  1
  F  F7  1  0.64675950  0.38820521  -0.72602727  1
  F  F8  1  -0.38820521  0.25855428  -0.72602727  1
  F  F9  1  0.25855428  0.64675950  -0.22602727  1
  F  F10  1  -0.64675950  -0.38820521  -0.22602727  1
  F  F11  1  0.38820521  -0.25855428  -0.22602727  1
  F  F12  1  0.62411194  0.75586315  0.91161421  1
  F  F13  1  0.24413685  0.86824879  0.91161421  1
  F  F14  1  0.13175121  0.37588806  0.91161421  1
  F  F15  1  0.37588806  0.24413685  0.41161421  1
  F  F16  1  0.75586315  0.13175121  0.41161421  1
  F  F17  1  0.86824879  0.62411194  0.41161421  1
  F  F18  1  0.37588806  0.24413685  0.08838579  1
  F  F19  1  0.75586315  0.13175121  0.08838579  1
  F  F20  1  0.86824879  0.62411194  0.08838579  1
  F  F21  1  0.62411194  0.75586315  0.58838579  1
  F  F22  1  0.24413685  0.86824879  0.58838579  1
  F  F23  1  0.13175121  0.37588806  0.58838579  1
  F  F24  1  0.29600223  0.26767020  0.84259889  1
  F  F25  1  0.73232980  0.02833203  0.84259889  1
  F  F26  1  0.97166797  0.70399777  0.84259889  1
  F  F27  1  0.70399777  0.73232980  0.34259889  1
  F  F28  1  0.26767020  0.97166797  0.34259889  1
  F  F29  1  0.02833203  0.29600223  0.34259889  1
  F  F30  1  0.70399777  0.73232980  0.15740111  1
  F  F31  1  0.26767020  0.97166797  0.15740111  1
  F  F32  1  0.02833203  0.29600223  0.15740111  1
  F  F33  1  0.29600223  0.26767020  0.65740111  1
  F  F34  1  0.73232980  0.02833203  0.65740111  1
  F  F35  1  0.97166797  0.70399777  0.65740111  1
  F  F36  1  0.78937505  0.55686696  0.68514708  1
  F  F37  1  0.44313304  0.23250809  0.68514708  1
  F  F38  1  0.76749191  0.21062495  0.68514708  1
  F  F39  1  0.21062495  0.44313304  0.18514708  1
  F  F40  1  0.55686696  0.76749191  0.18514708  1
  F  F41  1  0.23250809  0.78937505  0.18514708  1
  F  F42  1  0.21062495  0.44313304  0.31485292  1
  F  F43  1  0.55686696  0.76749191  0.31485292  1
  F  F44  1  0.23250809  0.78937505  0.31485292  1
  F  F45  1  0.78937505  0.55686696  0.81485292  1
  F  F46  1  0.44313304  0.23250809  0.81485292  1
  F  F47  1  0.76749191  0.21062495  0.81485292  1
  Li  Li48  1  0.78479315  0.50897285  0.25000000  1
  Li  Li49  1  0.49102715  0.27582030  0.25000000  1
  Li  Li50  1  0.72417970  0.21520685  0.25000000  1
  Li  Li51  1  0.21520685  0.49102715  0.75000000  1
  Li  Li52  1  0.50897285  0.72417970  0.75000000  1
  Li  Li53  1  0.27582030  0.78479315  0.75000000  1
  Li  Li54  1  0.51073881  0.56678620  0.63083401  1
  Li  Li55  1  0.43321380  0.94395260  0.63083401  1
  Li  Li56  1  0.05604740  0.48926119  0.63083401  1
  Li  Li57  1  0.48926119  0.43321380  0.13083401  1
  Li  Li58  1  0.56678620  0.05604740  0.13083401  1
  Li  Li59  1  0.94395260  0.51073881  0.13083401  1
  Li  Li60  1  0.48926119  0.43321380  0.36916599  1
  Li  Li61  1  0.56678620  0.05604740  0.36916599  1
  Li  Li62  1  0.94395260  0.51073881  0.36916599  1
  Li  Li63  1  0.51073881  0.56678620  0.86916599  1
  Li  Li64  1  0.43321380  0.94395260  0.86916599  1
  Li  Li65  1  0.05604740  0.48926119  0.86916599  1
  Li  Li66  1  0.89301003  0.18016392  0.25000000  1
  Li  Li67  1  0.81983608  0.71284611  0.25000000  1
  Li  Li68  1  0.28715389  0.10698997  0.25000000  1
  Li  Li69  1  0.10698997  0.81983608  0.75000000  1
  Li  Li70  1  0.18016392  0.28715389  0.75000000  1
  Li  Li71  1  0.71284611  0.89301003  0.75000000  1
  Li  Li72  1  0.50872784  0.05740778  0.25000000  1
  Li  Li73  1  0.94259222  0.45132006  0.25000000  1
  Li  Li74  1  0.54867994  0.49127216  0.25000000  1
  Li  Li75  1  0.49127216  0.94259222  0.75000000  1
  Li  Li76  1  0.05740778  0.54867994  0.75000000  1
  Li  Li77  1  0.45132006  0.50872784  0.75000000  1
  Li  Li78  1  0.33333333  0.66666667  0.04439475  1
  Li  Li79  1  0.66666667  0.33333333  0.54439475  1
  Li  Li80  1  0.66666667  0.33333333  0.95560525  1
  Li  Li81  1  0.33333333  0.66666667  0.45560525  1
  Li  Li82  1  0.17586487  0.83623264  0.21920215  1
  Li  Li83  1  0.16376736  0.33963222  0.21920215  1
  Li  Li84  1  0.66036778  0.82413513  0.21920215  1
  Li  Li85  1  0.82413513  0.16376736  0.71920215  1
  Li  Li86  1  0.83623264  0.66036778  0.71920215  1
  Li  Li87  1  0.33963222  0.17586487  0.71920215  1
  Li  Li88  1  0.82413513  0.16376736  0.78079785  1
  Li  Li89  1  0.83623264  0.66036778  0.78079785  1
  Li  Li90  1  0.33963222  0.17586487  0.78079785  1
  Li  Li91  1  0.17586487  0.83623264  0.28079785  1
  Li  Li92  1  0.16376736  0.33963222  0.28079785  1
  Li  Li93  1  0.66036778  0.82413513  0.28079785  1
  Li  Li94  1  0.00000000  0.00000000  0.00000000  1
  Li  Li95  1  0.00000000  0.00000000  0.50000000  1
