# generated using pymatgen
data_Li2Y2As4P2Se
_symmetry_space_group_name_H-M   'P 1'
_cell_length_a   5.59459124
_cell_length_b   5.73897011
_cell_length_c   6.95582536
_cell_angle_alpha   93.07399466
_cell_angle_beta   96.56312186
_cell_angle_gamma   102.04559927
_symmetry_Int_Tables_number   1
_chemical_formula_structural   Li2Y2As4P2Se
_chemical_formula_sum   'Li2 Y2 As4 P2 Se1'
_cell_volume   216.29225039
_cell_formula_units_Z   1
loop_
 _symmetry_equiv_pos_site_id
 _symmetry_equiv_pos_as_xyz
  1  'x, y, z'
loop_
 _atom_site_type_symbol
 _atom_site_label
 _atom_site_symmetry_multiplicity
 _atom_site_fract_x
 _atom_site_fract_y
 _atom_site_fract_z
 _atom_site_occupancy
  Se  Se0  1  0.12500000  0.00000000  0.25000000  1
  P  P1  1  0.00000000  0.00000000  0.00000000  1
  P  P2  1  0.37500000  0.00000000  0.25000000  1
  As  As3  1  0.25000000  0.25000000  0.25000000  1
  As  As4  1  0.00000000  0.25000000  0.12500000  1
  As  As5  1  0.57741936  0.36531084  0.44490140  1
  As  As6  1  0.30450481  0.27113501  0.84591634  1
  Li  Li7  1  0.15340141  0.58039900  0.66915273  1
  Li  Li8  1  0.84436026  0.85308185  0.79609558  1
  Y  Y9  1  0.32089973  0.60318450  0.03438918  1
  Y  Y10  1  0.73241190  0.30203988  0.06874230  1
