# generated using pymatgen
data_LiY2MoP2Se
_symmetry_space_group_name_H-M   'P 1'
_cell_length_a   5.66297006
_cell_length_b   5.85986487
_cell_length_c   7.16760978
_cell_angle_alpha   93.15053409
_cell_angle_beta   96.36897487
_cell_angle_gamma   101.82205815
_symmetry_Int_Tables_number   1
_chemical_formula_structural   LiY2MoP2Se
_chemical_formula_sum   'Li1 Y2 Mo1 P2 Se1'
_cell_volume   230.63063454
_cell_formula_units_Z   1
loop_
 _symmetry_equiv_pos_site_id
 _symmetry_equiv_pos_as_xyz
  1  'x, y, z'
loop_
 _atom_site_type_symbol
 _atom_site_label
 _atom_site_symmetry_multiplicity
 _atom_site_fract_x
 _atom_site_fract_y
 _atom_site_fract_z
 _atom_site_occupancy
  Se  Se0  1  0.12500000  0.00000000  0.25000000  1
  P  P1  1  0.00000000  0.00000000  0.00000000  1
  P  P2  1  0.37500000  0.00000000  0.25000000  1
  Mo  Mo3  1  0.25000000  0.25000000  0.25000000  1
  Li  Li4  1  0.00000000  0.25000000  0.12500000  1
  Y  Y5  1  0.80212607  0.97941975  0.44138418  1
  Y  Y6  1  0.75454602  0.18015793  0.44511900  1
