# generated using pymatgen
data_LiCaF3
_symmetry_space_group_name_H-M   'P 1'
_cell_length_a   13.43157821
_cell_length_b   13.43157821
_cell_length_c   10.46495098
_cell_angle_alpha   90.00000000
_cell_angle_beta   90.00000000
_cell_angle_gamma   120.00000000
_symmetry_Int_Tables_number   1
_chemical_formula_structural   LiCaF3
_chemical_formula_sum   'Li18 Ca18 F54'
_cell_volume   1635.01567440
_cell_formula_units_Z   18
loop_
 _symmetry_equiv_pos_site_id
 _symmetry_equiv_pos_as_xyz
  1  'x, y, z'
loop_
 _atom_site_type_symbol
 _atom_site_label
 _atom_site_symmetry_multiplicity
 _atom_site_fract_x
 _atom_site_fract_y
 _atom_site_fract_z
 _atom_site_occupancy
  Ca  Ca0  1  0.34822076  0.00000000  0.25000000  1
  Ca  Ca1  1  0.00000000  0.34822076  0.25000000  1
  Ca  Ca2  1  -0.34822076  -0.34822076  0.25000000  1
  Ca  Ca3  1  -0.34822076  0.00000000  0.75000000  1
  Ca  Ca4  1  0.00000000  -0.34822076  0.75000000  1
  Ca  Ca5  1  0.34822076  0.34822076  0.75000000  1
  Ca  Ca6  1  1.01488743  0.33333333  0.58333333  1
  Ca  Ca7  1  0.66666667  0.68155409  0.58333333  1
  Ca  Ca8  1  0.31844591  -0.01488743  0.58333333  1
  Ca  Ca9  1  0.31844591  0.33333333  1.08333333  1
  Ca  Ca10  1  0.66666667  -0.01488743  1.08333333  1
  Ca  Ca11  1  1.01488743  0.68155409  1.08333333  1
  Ca  Ca12  1  0.68155409  0.66666667  0.91666667  1
  Ca  Ca13  1  0.33333333  1.01488743  0.91666667  1
  Ca  Ca14  1  -0.01488743  0.31844591  0.91666667  1
  Ca  Ca15  1  -0.01488743  0.66666667  1.41666667  1
  Ca  Ca16  1  0.33333333  0.31844591  1.41666667  1
  Ca  Ca17  1  0.68155409  1.01488743  1.41666667  1
  F  F18  1  0.72367133  0.00000000  0.25000000  1
  F  F19  1  0.00000000  0.72367133  0.25000000  1
  F  F20  1  0.27632867  0.27632867  0.25000000  1
  F  F21  1  0.27632867  0.00000000  0.75000000  1
  F  F22  1  0.00000000  0.27632867  0.75000000  1
  F  F23  1  0.72367133  0.72367133  0.75000000  1
  F  F24  1  0.39033799  0.33333333  0.58333333  1
  F  F25  1  0.66666667  0.05700466  0.58333333  1
  F  F26  1  0.94299534  0.60966201  0.58333333  1
  F  F27  1  0.94299534  0.33333333  0.08333333  1
  F  F28  1  0.66666667  0.60966201  0.08333333  1
  F  F29  1  0.39033799  0.05700466  0.08333333  1
  F  F30  1  0.05700466  0.66666667  0.91666667  1
  F  F31  1  0.33333333  0.39033799  0.91666667  1
  F  F32  1  0.60966201  0.94299534  0.91666667  1
  F  F33  1  0.60966201  0.66666667  0.41666667  1
  F  F34  1  0.33333333  0.94299534  0.41666667  1
  F  F35  1  0.05700466  0.39033799  0.41666667  1
  F  F36  1  0.00000000  0.00000000  0.25000000  1
  F  F37  1  0.00000000  0.00000000  0.75000000  1
  F  F38  1  0.66666667  0.33333333  0.58333333  1
  F  F39  1  0.66666667  0.33333333  0.08333333  1
  F  F40  1  0.33333333  0.66666667  0.91666667  1
  F  F41  1  0.33333333  0.66666667  0.41666667  1
  F  F42  1  0.66009482  0.00000000  0.25000000  1
  F  F43  1  0.00000000  0.66009482  0.25000000  1
  F  F44  1  0.33990518  0.33990518  0.25000000  1
  F  F45  1  0.33990518  0.00000000  0.75000000  1
  F  F46  1  0.00000000  0.33990518  0.75000000  1
  F  F47  1  0.66009482  0.66009482  0.75000000  1
  F  F48  1  0.32676149  0.33333333  0.58333333  1
  F  F49  1  0.66666667  0.99342815  0.58333333  1
  F  F50  1  0.00657185  0.67323851  0.58333333  1
  F  F51  1  0.00657185  0.33333333  0.08333333  1
  F  F52  1  0.66666667  0.67323851  0.08333333  1
  F  F53  1  0.32676149  0.99342815  0.08333333  1
  F  F54  1  0.99342815  0.66666667  0.91666667  1
  F  F55  1  0.33333333  0.32676149  0.91666667  1
  F  F56  1  0.67323851  0.00657185  0.91666667  1
  F  F57  1  0.67323851  0.66666667  0.41666667  1
  F  F58  1  0.33333333  0.00657185  0.41666667  1
  F  F59  1  0.99342815  0.32676149  0.41666667  1
  F  F60  1  0.00000000  0.00000000  0.87078621  1
  F  F61  1  0.00000000  0.00000000  0.62921379  1
  F  F62  1  0.00000000  0.00000000  0.12921379  1
  F  F63  1  0.00000000  0.00000000  0.37078621  1
  F  F64  1  0.66666667  0.33333333  0.20411955  1
  F  F65  1  0.66666667  0.33333333  0.96254712  1
  F  F66  1  0.66666667  0.33333333  0.46254712  1
  F  F67  1  0.66666667  0.33333333  0.70411955  1
  F  F68  1  0.33333333  0.66666667  0.53745288  1
  F  F69  1  0.33333333  0.66666667  0.29588045  1
  F  F70  1  0.33333333  0.66666667  0.79588045  1
  F  F71  1  0.33333333  0.66666667  0.03745288  1
  Li  Li72  1  0.50000000  0.00000000  -0.00000000  1
  Li  Li73  1  0.00000000  0.50000000  0.00000000  1
  Li  Li74  1  0.50000000  0.50000000  -0.00000000  1
  Li  Li75  1  0.00000000  0.50000000  0.50000000  1
  Li  Li76  1  0.50000000  0.00000000  0.50000000  1
  Li  Li77  1  0.50000000  0.50000000  0.50000000  1
  Li  Li78  1  0.16666667  0.33333333  0.33333333  1
  Li  Li79  1  0.66666667  0.83333333  0.33333333  1
  Li  Li80  1  0.16666667  0.83333333  0.33333333  1
  Li  Li81  1  0.66666667  0.83333333  0.83333333  1
  Li  Li82  1  0.16666667  0.33333333  0.83333333  1
  Li  Li83  1  0.16666667  0.83333333  0.83333333  1
  Li  Li84  1  0.83333333  0.66666667  0.66666667  1
  Li  Li85  1  0.33333333  0.16666667  0.66666667  1
  Li  Li86  1  0.83333333  0.16666667  0.66666667  1
  Li  Li87  1  0.33333333  0.16666667  0.16666667  1
  Li  Li88  1  0.83333333  0.66666667  0.16666667  1
  Li  Li89  1  0.83333333  0.16666667  0.16666667  1
