# generated using pymatgen
data_Li4TeF2
_symmetry_space_group_name_H-M   'P 1'
_cell_length_a   16.85362719
_cell_length_b   16.85362719
_cell_length_c   12.48029449
_cell_angle_alpha   90.00000000
_cell_angle_beta   90.00000000
_cell_angle_gamma   120.00000000
_symmetry_Int_Tables_number   1
_chemical_formula_structural   Li4TeF2
_chemical_formula_sum   'Li96 Te24 F48'
_cell_volume   3070.02725378
_cell_formula_units_Z   24
loop_
 _symmetry_equiv_pos_site_id
 _symmetry_equiv_pos_as_xyz
  1  'x, y, z'
loop_
 _atom_site_type_symbol
 _atom_site_label
 _atom_site_symmetry_multiplicity
 _atom_site_fract_x
 _atom_site_fract_y
 _atom_site_fract_z
 _atom_site_occupancy
  F  F0  1  0.31782629  0.01859398  0.58116989  1
  F  F1  1  -0.01859398  0.29923231  0.58116989  1
  F  F2  1  -0.29923231  -0.31782629  0.58116989  1
  F  F3  1  -0.01859398  -0.31782629  -0.58116989  1
  F  F4  1  -0.29923231  0.01859398  -0.58116989  1
  F  F5  1  0.31782629  0.29923231  -0.58116989  1
  F  F6  1  0.66666667  0.33333333  0.09240708  1
  F  F7  1  0.66666667  0.33333333  0.90759292  1
  F  F8  1  0.88651488  0.11348512  0.00000000  1
  F  F9  1  0.88651488  0.77302977  0.00000000  1
  F  F10  1  0.22697023  0.11348512  -0.00000000  1
  F  F11  1  0.00000000  0.00000000  0.50000000  1
  F  F12  1  0.85744305  0.27954338  0.92213245  1
  F  F13  1  0.72045662  0.57789967  0.92213245  1
  F  F14  1  0.42210033  0.14255695  0.92213245  1
  F  F15  1  0.72045662  0.14255695  0.07786755  1
  F  F16  1  0.42210033  0.27954338  0.07786755  1
  F  F17  1  0.85744305  0.57789967  0.07786755  1
  F  F18  1  0.00000000  0.00000000  0.00000000  1
  F  F19  1  0.33333333  0.66666667  0.24406253  1
  F  F20  1  0.33333333  0.66666667  0.75593747  1
  F  F21  1  0.00000000  0.00000000  0.39258284  1
  F  F22  1  0.00000000  0.00000000  0.60741716  1
  F  F23  1  0.37996381  0.99243203  0.31235853  1
  F  F24  1  0.00756797  0.38753177  0.31235853  1
  F  F25  1  0.61246823  0.62003619  0.31235853  1
  F  F26  1  0.00756797  0.62003619  0.68764147  1
  F  F27  1  0.61246823  0.99243203  0.68764147  1
  F  F28  1  0.37996381  0.38753177  0.68764147  1
  F  F29  1  0.16958064  0.12083351  0.87322946  1
  F  F30  1  0.87916649  0.04874713  0.87322946  1
  F  F31  1  0.95125287  0.83041936  0.87322946  1
  F  F32  1  0.87916649  0.83041936  0.12677054  1
  F  F33  1  0.95125287  0.12083351  0.12677054  1
  F  F34  1  0.16958064  0.04874713  0.12677054  1
  F  F35  1  0.50700223  0.84805608  0.65275455  1
  F  F36  1  0.15194392  0.65894615  0.65275455  1
  F  F37  1  0.34105385  0.49299777  0.65275455  1
  F  F38  1  0.15194392  0.49299777  0.34724545  1
  F  F39  1  0.34105385  0.84805608  0.34724545  1
  F  F40  1  0.50700223  0.65894615  0.34724545  1
  F  F41  1  0.45923706  0.54076294  0.00000000  1
  F  F42  1  0.45923706  0.91847412  0.00000000  1
  F  F43  1  0.08152588  0.54076294  0.00000000  1
  F  F44  1  0.33333333  0.66666667  0.00000000  1
  F  F45  1  0.93574581  0.06425419  0.50000000  1
  F  F46  1  0.93574581  0.87149163  0.50000000  1
  F  F47  1  0.12850837  0.06425419  0.50000000  1
  Li  Li48  1  0.81399513  0.15440974  0.04888343  1
  Li  Li49  1  0.84559026  0.65958539  0.04888343  1
  Li  Li50  1  0.34041461  0.18600487  0.04888343  1
  Li  Li51  1  0.84559026  0.18600487  0.95111657  1
  Li  Li52  1  0.34041461  0.15440974  0.95111657  1
  Li  Li53  1  0.81399513  0.65958539  0.95111657  1
  Li  Li54  1  0.82255879  0.46874712  0.34806413  1
  Li  Li55  1  0.53125288  0.35381167  0.34806413  1
  Li  Li56  1  0.64618833  0.17744121  0.34806413  1
  Li  Li57  1  0.53125288  0.17744121  0.65193587  1
  Li  Li58  1  0.64618833  0.46874712  0.65193587  1
  Li  Li59  1  0.82255879  0.35381167  0.65193587  1
  Li  Li60  1  0.13467821  0.78181217  0.14886010  1
  Li  Li61  1  0.21818783  0.35286603  0.14886010  1
  Li  Li62  1  0.64713397  0.86532179  0.14886010  1
  Li  Li63  1  0.21818783  0.86532179  0.85113990  1
  Li  Li64  1  0.64713397  0.78181217  0.85113990  1
  Li  Li65  1  0.13467821  0.35286603  0.85113990  1
  Li  Li66  1  0.11717688  0.87130849  0.15679458  1
  Li  Li67  1  0.12869151  0.24586840  0.15679458  1
  Li  Li68  1  0.75413160  0.88282312  0.15679458  1
  Li  Li69  1  0.12869151  0.88282312  0.84320542  1
  Li  Li70  1  0.75413160  0.87130849  0.84320542  1
  Li  Li71  1  0.11717688  0.24586840  0.84320542  1
  Li  Li72  1  0.88466283  0.11533717  0.50000000  1
  Li  Li73  1  0.88466283  0.76932566  0.50000000  1
  Li  Li74  1  0.23067434  0.11533717  0.50000000  1
  Li  Li75  1  0.46693390  0.07511035  0.87053947  1
  Li  Li76  1  0.92488965  0.39182355  0.87053947  1
  Li  Li77  1  0.60817645  0.53306610  0.87053947  1
  Li  Li78  1  0.92488965  0.53306610  0.12946053  1
  Li  Li79  1  0.60817645  0.07511035  0.12946053  1
  Li  Li80  1  0.46693390  0.39182355  0.12946053  1
  Li  Li81  1  0.39326316  0.51274083  0.59652967  1
  Li  Li82  1  0.48725917  0.88052233  0.59652967  1
  Li  Li83  1  0.11947767  0.60673684  0.59652967  1
  Li  Li84  1  0.48725917  0.60673684  0.40347033  1
  Li  Li85  1  0.11947767  0.51274083  0.40347033  1
  Li  Li86  1  0.39326316  0.88052233  0.40347033  1
  Li  Li87  1  0.80833955  0.67531934  0.72706267  1
  Li  Li88  1  0.32468066  0.13302022  0.72706267  1
  Li  Li89  1  0.86697978  0.19166045  0.72706267  1
  Li  Li90  1  0.32468066  0.19166045  0.27293733  1
  Li  Li91  1  0.86697978  0.67531934  0.27293733  1
  Li  Li92  1  0.80833955  0.13302022  0.27293733  1
  Li  Li93  1  0.50261867  0.84236569  0.39639439  1
  Li  Li94  1  0.15763431  0.66025298  0.39639439  1
  Li  Li95  1  0.33974702  0.49738133  0.39639439  1
  Li  Li96  1  0.15763431  0.49738133  0.60360561  1
  Li  Li97  1  0.33974702  0.84236569  0.60360561  1
  Li  Li98  1  0.50261867  0.66025298  0.60360561  1
  Li  Li99  1  0.47946510  0.52053490  0.50000000  1
  Li  Li100  1  0.47946510  0.95893020  0.50000000  1
  Li  Li101  1  0.04106980  0.52053490  0.50000000  1
  Li  Li102  1  0.66666667  0.33333333  0.00000000  1
  Li  Li103  1  0.94788909  0.57190449  0.91899990  1
  Li  Li104  1  0.42809551  0.37598459  0.91899990  1
  Li  Li105  1  0.62401541  0.05211091  0.91899990  1
  Li  Li106  1  0.42809551  0.05211091  0.08100010  1
  Li  Li107  1  0.62401541  0.57190449  0.08100010  1
  Li  Li108  1  0.94788909  0.37598459  0.08100010  1
  Li  Li109  1  0.19114577  0.30068143  0.26536574  1
  Li  Li110  1  0.69931857  0.89046433  0.26536574  1
  Li  Li111  1  0.10953567  0.80885423  0.26536574  1
  Li  Li112  1  0.69931857  0.80885423  0.73463426  1
  Li  Li113  1  0.10953567  0.30068143  0.73463426  1
  Li  Li114  1  0.19114577  0.89046433  0.73463426  1
  Li  Li115  1  0.93298606  0.86700285  0.68270204  1
  Li  Li116  1  0.13299715  0.06598321  0.68270204  1
  Li  Li117  1  0.93401679  0.06701394  0.68270204  1
  Li  Li118  1  0.13299715  0.06701394  0.31729796  1
  Li  Li119  1  0.93401679  0.86700285  0.31729796  1
  Li  Li120  1  0.93298606  0.06598321  0.31729796  1
  Li  Li121  1  0.96006326  0.23020526  0.76817408  1
  Li  Li122  1  0.76979474  0.72985800  0.76817408  1
  Li  Li123  1  0.27014200  0.03993674  0.76817408  1
  Li  Li124  1  0.76979474  0.03993674  0.23182592  1
  Li  Li125  1  0.27014200  0.23020526  0.23182592  1
  Li  Li126  1  0.96006326  0.72985800  0.23182592  1
  Li  Li127  1  0.48273521  0.92877851  0.24533712  1
  Li  Li128  1  0.07122149  0.55395670  0.24533712  1
  Li  Li129  1  0.44604330  0.51726479  0.24533712  1
  Li  Li130  1  0.07122149  0.51726479  0.75466288  1
  Li  Li131  1  0.44604330  0.92877851  0.75466288  1
  Li  Li132  1  0.48273521  0.55395670  0.75466288  1
  Li  Li133  1  0.20169458  0.48908313  0.38915264  1
  Li  Li134  1  0.51091687  0.71261145  0.38915264  1
  Li  Li135  1  0.28738855  0.79830542  0.38915264  1
  Li  Li136  1  0.51091687  0.79830542  0.61084736  1
  Li  Li137  1  0.28738855  0.48908313  0.61084736  1
  Li  Li138  1  0.20169458  0.71261145  0.61084736  1
  Li  Li139  1  0.09000781  0.90999219  0.50000000  1
  Li  Li140  1  0.09000781  0.18001562  0.50000000  1
  Li  Li141  1  0.81998438  0.90999219  0.50000000  1
  Li  Li142  1  0.33333333  0.66666667  0.66625512  1
  Li  Li143  1  0.33333333  0.66666667  0.33374488  1
  Te  Te144  1  0.41832819  0.58167181  0.50000000  1
  Te  Te145  1  0.41832819  0.83665638  0.50000000  1
  Te  Te146  1  0.16334362  0.58167181  0.50000000  1
  Te  Te147  1  0.66781688  0.77518550  0.37775695  1
  Te  Te148  1  0.22481450  0.89263138  0.37775695  1
  Te  Te149  1  0.10736862  0.33218312  0.37775695  1
  Te  Te150  1  0.22481450  0.33218312  0.62224305  1
  Te  Te151  1  0.10736862  0.77518550  0.62224305  1
  Te  Te152  1  0.66781688  0.89263138  0.62224305  1
  Te  Te153  1  0.26303681  0.42672297  0.48810455  1
  Te  Te154  1  0.57327703  0.83631384  0.48810455  1
  Te  Te155  1  0.16368616  0.73696319  0.48810455  1
  Te  Te156  1  0.57327703  0.73696319  0.51189545  1
  Te  Te157  1  0.16368616  0.42672297  0.51189545  1
  Te  Te158  1  0.26303681  0.83631384  0.51189545  1
  Te  Te159  1  0.66666667  0.33333333  0.63339667  1
  Te  Te160  1  0.66666667  0.33333333  0.36660333  1
  Te  Te161  1  0.92720331  0.96944362  0.75832230  1
  Te  Te162  1  0.03055638  0.95775968  0.75832230  1
  Te  Te163  1  0.04224032  0.07279669  0.75832230  1
  Te  Te164  1  0.03055638  0.07279669  0.24167770  1
  Te  Te165  1  0.04224032  0.96944362  0.24167770  1
  Te  Te166  1  0.92720331  0.95775968  0.24167770  1
  Te  Te167  1  0.33333333  0.66666667  0.50000000  1
