# generated using pymatgen
data_LiP
_symmetry_space_group_name_H-M   'P 1'
_cell_length_a   5.32556977
_cell_length_b   5.30113226
_cell_length_c   7.49600333
_cell_angle_alpha   95.37462935
_cell_angle_beta   101.70482536
_cell_angle_gamma   111.58775000
_symmetry_Int_Tables_number   1
_chemical_formula_structural   LiP
_chemical_formula_sum   'Li2 P2'
_cell_volume   189.36699804
_cell_formula_units_Z   2
loop_
 _symmetry_equiv_pos_site_id
 _symmetry_equiv_pos_as_xyz
  1  'x, y, z'
loop_
 _atom_site_type_symbol
 _atom_site_label
 _atom_site_symmetry_multiplicity
 _atom_site_fract_x
 _atom_site_fract_y
 _atom_site_fract_z
 _atom_site_occupancy
  P  P0  1  0.00000000  0.00000000  0.00000000  1
  P  P1  1  0.33300000  0.66700000  0.25000000  1
  Li  Li2  1  0.66700000  0.33300000  0.50000000  1
  Li  Li3  1  0.00000000  0.00000000  0.75000000  1
