# generated using pymatgen
data_Li2Y2MoP3Se2
_symmetry_space_group_name_H-M   'P 1'
_cell_length_a   4.99233190
_cell_length_b   5.15540311
_cell_length_c   7.00766191
_cell_angle_alpha   94.75264871
_cell_angle_beta   100.35028083
_cell_angle_gamma   109.08950096
_symmetry_Int_Tables_number   1
_chemical_formula_structural   Li2Y2MoP3Se2
_chemical_formula_sum   'Li2 Y2 Mo1 P3 Se2'
_cell_volume   165.71113873
_cell_formula_units_Z   1
loop_
 _symmetry_equiv_pos_site_id
 _symmetry_equiv_pos_as_xyz
  1  'x, y, z'
loop_
 _atom_site_type_symbol
 _atom_site_label
 _atom_site_symmetry_multiplicity
 _atom_site_fract_x
 _atom_site_fract_y
 _atom_site_fract_z
 _atom_site_occupancy
  Se  Se0  1  0.00000000  0.00000000  0.00000000  1
  Se  Se1  1  0.50000000  0.50000000  0.50000000  1
  Y  Y2  1  0.50000000  0.50000000  0.00000000  1
  Y  Y3  1  0.50000000  0.00000000  0.50000000  1
  P  P4  1  0.00000000  0.50000000  0.50000000  1
  P  P5  1  0.96533456  0.71075827  0.67953914  1
  P  P6  1  0.02650431  0.54344918  0.06361761  1
  Mo  Mo7  1  0.41419666  0.24871208  0.23849280  1
  Li  Li8  1  0.87606907  0.27212779  0.46384147  1
  Li  Li9  1  0.65204092  0.45968477  0.86802418  1
