# generated using pymatgen
data_LiF
_symmetry_space_group_name_H-M   'P 1'
_cell_length_a   5.32497559
_cell_length_b   5.32497559
_cell_length_c   4.64363010
_cell_angle_alpha   90.00000000
_cell_angle_beta   90.00000000
_cell_angle_gamma   120.00000000
_symmetry_Int_Tables_number   1
_chemical_formula_structural   LiF
_chemical_formula_sum   'Li3 F3'
_cell_volume   114.03114655
_cell_formula_units_Z   3
loop_
 _symmetry_equiv_pos_site_id
 _symmetry_equiv_pos_as_xyz
  1  'x, y, z'
loop_
 _atom_site_type_symbol
 _atom_site_label
 _atom_site_symmetry_multiplicity
 _atom_site_fract_x
 _atom_site_fract_y
 _atom_site_fract_z
 _atom_site_occupancy
  F  F0  1  0.17502958  0.82497042  0.00000000  1
  F  F1  1  0.17502958  0.35005915  0.00000000  1
  F  F2  1  0.64994085  0.82497042  0.00000000  1
  Li  Li3  1  0.46879498  -0.46879498  -0.00000000  1
  Li  Li4  1  0.46879498  0.93758997  -0.00000000  1
  Li  Li5  1  -0.93758997  -0.46879498  0.00000000  1
