# generated using pymatgen
data_LiF
_symmetry_space_group_name_H-M   'P 1'
_cell_length_a   10.13026580
_cell_length_b   10.13026580
_cell_length_c   2.77188906
_cell_angle_alpha   90.00000000
_cell_angle_beta   90.00000000
_cell_angle_gamma   120.00000000
_symmetry_Int_Tables_number   1
_chemical_formula_structural   LiF
_chemical_formula_sum   'Li8 F8'
_cell_volume   246.34749923
_cell_formula_units_Z   8
loop_
 _symmetry_equiv_pos_site_id
 _symmetry_equiv_pos_as_xyz
  1  'x, y, z'
loop_
 _atom_site_type_symbol
 _atom_site_label
 _atom_site_symmetry_multiplicity
 _atom_site_fract_x
 _atom_site_fract_y
 _atom_site_fract_z
 _atom_site_occupancy
  F  F0  1  0.83532604  0.14103652  0.65234056  1
  F  F1  1  -0.14103652  0.69428952  0.65234056  1
  F  F2  1  -0.69428952  -0.83532604  0.65234056  1
  F  F3  1  -0.14103652  -0.83532604  -0.65234056  1
  F  F4  1  -0.69428952  0.14103652  -0.65234056  1
  F  F5  1  0.83532604  0.69428952  -0.65234056  1
  F  F6  1  0.00000000  0.00000000  0.38295754  1
  F  F7  1  0.00000000  0.00000000  0.61704246  1
  Li  Li8  1  0.38695228  0.61304772  0.50000000  1
  Li  Li9  1  0.38695228  0.77390456  0.50000000  1
  Li  Li10  1  0.22609544  0.61304772  0.50000000  1
  Li  Li11  1  0.00000000  0.00000000  0.00000000  1
  Li  Li12  1  0.66666667  0.33333333  0.50000000  1
  Li  Li13  1  0.95035697  0.04964303  0.50000000  1
  Li  Li14  1  0.95035697  0.90071394  0.50000000  1
  Li  Li15  1  0.09928606  0.04964303  0.50000000  1
