# generated using pymatgen
data_LiAs2P3Se
_symmetry_space_group_name_H-M   'P 1'
_cell_length_a   4.86938325
_cell_length_b   4.90540454
_cell_length_c   6.86811856
_cell_angle_alpha   95.00633643
_cell_angle_beta   99.77899481
_cell_angle_gamma   107.40341870
_symmetry_Int_Tables_number   1
_chemical_formula_structural   LiAs2P3Se
_chemical_formula_sum   'Li1 As2 P3 Se1'
_cell_volume   152.59750226
_cell_formula_units_Z   1
loop_
 _symmetry_equiv_pos_site_id
 _symmetry_equiv_pos_as_xyz
  1  'x, y, z'
loop_
 _atom_site_type_symbol
 _atom_site_label
 _atom_site_symmetry_multiplicity
 _atom_site_fract_x
 _atom_site_fract_y
 _atom_site_fract_z
 _atom_site_occupancy
  Se  Se0  1  0.00000000  0.00000000  0.00000000  1
  P  P1  1  0.33300000  0.66700000  0.25000000  1
  P  P2  1  0.66700000  0.33300000  0.50000000  1
  P  P3  1  0.00000000  0.00000000  0.75000000  1
  As  As4  1  0.49276780  0.43573173  0.89300421  1
  As  As5  1  0.54793278  0.69678970  0.46616590  1
  Li  Li6  1  0.98125722  0.42694721  0.03782933  1
