# generated using pymatgen
data_LiF
_symmetry_space_group_name_H-M   'P 1'
_cell_length_a   8.55941287
_cell_length_b   12.14483261
_cell_length_c   4.96106153
_cell_angle_alpha   90.00000000
_cell_angle_beta   90.00000000
_cell_angle_gamma   90.00000000
_symmetry_Int_Tables_number   1
_chemical_formula_structural   LiF
_chemical_formula_sum   'Li24 F24'
_cell_volume   515.71542657
_cell_formula_units_Z   24
loop_
 _symmetry_equiv_pos_site_id
 _symmetry_equiv_pos_as_xyz
  1  'x, y, z'
loop_
 _atom_site_type_symbol
 _atom_site_label
 _atom_site_symmetry_multiplicity
 _atom_site_fract_x
 _atom_site_fract_y
 _atom_site_fract_z
 _atom_site_occupancy
  F  F0  1  0.10078773  0.59743380  0.64345335  1
  F  F1  1  0.39921227  0.40256620  0.14345335  1
  F  F2  1  0.89921227  0.09743380  0.35654665  1
  F  F3  1  0.60078773  0.90256620  0.85654665  1
  F  F4  1  0.89921227  0.40256620  0.35654665  1
  F  F5  1  0.60078773  0.59743380  0.85654665  1
  F  F6  1  0.10078773  0.90256620  0.64345335  1
  F  F7  1  0.39921227  0.09743380  0.14345335  1
  F  F8  1  0.74597995  0.25000000  0.31324648  1
  F  F9  1  0.75402005  0.75000000  0.81324648  1
  F  F10  1  0.25402005  0.75000000  0.68675352  1
  F  F11  1  0.24597995  0.25000000  0.18675352  1
  F  F12  1  0.00000000  0.00000000  0.50000000  1
  F  F13  1  0.50000000  0.00000000  0.00000000  1
  F  F14  1  0.00000000  0.50000000  0.50000000  1
  F  F15  1  0.50000000  0.50000000  0.00000000  1
  F  F16  1  0.05231308  0.54408883  0.15748293  1
  F  F17  1  0.44768692  0.45591117  0.65748293  1
  F  F18  1  0.94768692  0.04408883  0.84251707  1
  F  F19  1  0.55231308  0.95591117  0.34251707  1
  F  F20  1  0.94768692  0.45591117  0.84251707  1
  F  F21  1  0.55231308  0.54408883  0.34251707  1
  F  F22  1  0.05231308  0.95591117  0.15748293  1
  F  F23  1  0.44768692  0.04408883  0.65748293  1
  Li  Li24  1  0.69971877  0.25000000  0.76316727  1
  Li  Li25  1  0.80028123  0.75000000  0.26316727  1
  Li  Li26  1  0.30028123  0.75000000  0.23683273  1
  Li  Li27  1  0.19971877  0.25000000  0.73683273  1
  Li  Li28  1  0.00000000  0.00000000  0.00000000  1
  Li  Li29  1  0.50000000  0.00000000  0.50000000  1
  Li  Li30  1  0.00000000  0.50000000  0.00000000  1
  Li  Li31  1  0.50000000  0.50000000  0.50000000  1
  Li  Li32  1  0.64403608  0.05003297  0.67273573  1
  Li  Li33  1  -0.14403608  -0.05003297  1.17273573  1
  Li  Li34  1  -0.64403608  0.55003297  -0.67273573  1
  Li  Li35  1  1.14403608  0.44996703  -0.17273573  1
  Li  Li36  1  -0.64403608  -0.05003297  -0.67273573  1
  Li  Li37  1  1.14403608  0.05003297  -0.17273573  1
  Li  Li38  1  0.64403608  0.44996703  0.67273573  1
  Li  Li39  1  -0.14403608  0.55003297  1.17273573  1
  Li  Li40  1  0.33541423  0.34117259  0.41228096  1
  Li  Li41  1  0.16458577  0.65882741  0.91228096  1
  Li  Li42  1  0.66458577  0.84117259  0.58771904  1
  Li  Li43  1  0.83541423  0.15882741  0.08771904  1
  Li  Li44  1  0.66458577  0.65882741  0.58771904  1
  Li  Li45  1  0.83541423  0.34117259  0.08771904  1
  Li  Li46  1  0.33541423  0.15882741  0.41228096  1
  Li  Li47  1  0.16458577  0.84117259  0.91228096  1
