# generated using pymatgen
data_Li2Ca3F8
_symmetry_space_group_name_H-M   'P 1'
_cell_length_a   23.08858056
_cell_length_b   9.56561010
_cell_length_c   9.61521376
_cell_angle_alpha   90.00000000
_cell_angle_beta   90.00000000
_cell_angle_gamma   90.00000000
_symmetry_Int_Tables_number   1
_chemical_formula_structural   Li2Ca3F8
_chemical_formula_sum   'Li16 Ca24 F64'
_cell_volume   2123.58110626
_cell_formula_units_Z   8
loop_
 _symmetry_equiv_pos_site_id
 _symmetry_equiv_pos_as_xyz
  1  'x, y, z'
loop_
 _atom_site_type_symbol
 _atom_site_label
 _atom_site_symmetry_multiplicity
 _atom_site_fract_x
 _atom_site_fract_y
 _atom_site_fract_z
 _atom_site_occupancy
  Ca  Ca0  1  0.51179424  0.62463807  0.77997717  1
  Ca  Ca1  1  0.48820576  0.37536193  0.77997717  1
  Ca  Ca2  1  0.98820576  0.12463807  0.22002283  1
  Ca  Ca3  1  0.01179424  0.87536193  0.22002283  1
  Ca  Ca4  1  0.48820576  0.37536193  0.22002283  1
  Ca  Ca5  1  0.51179424  0.62463807  0.22002283  1
  Ca  Ca6  1  0.01179424  0.87536193  0.77997717  1
  Ca  Ca7  1  0.98820576  0.12463807  0.77997717  1
  Ca  Ca8  1  0.49333991  0.82945071  0.24779879  1
  Ca  Ca9  1  0.50666009  0.17054929  0.24779879  1
  Ca  Ca10  1  0.00666009  0.32945071  0.75220121  1
  Ca  Ca11  1  0.99333991  0.67054929  0.75220121  1
  Ca  Ca12  1  0.50666009  0.17054929  0.75220121  1
  Ca  Ca13  1  0.49333991  0.82945071  0.75220121  1
  Ca  Ca14  1  0.99333991  0.67054929  0.24779879  1
  Ca  Ca15  1  0.00666009  0.32945071  0.24779879  1
  Ca  Ca16  1  0.38487313  0.83222791  0.29328048  1
  Ca  Ca17  1  0.61512687  0.16777209  0.29328048  1
  Ca  Ca18  1  0.11512687  0.33222791  0.70671952  1
  Ca  Ca19  1  0.88487313  0.66777209  0.70671952  1
  Ca  Ca20  1  0.61512687  0.16777209  0.70671952  1
  Ca  Ca21  1  0.38487313  0.83222791  0.70671952  1
  Ca  Ca22  1  0.88487313  0.66777209  0.29328048  1
  Ca  Ca23  1  0.11512687  0.33222791  0.29328048  1
  F  F24  1  0.21007216  0.78722368  0.00000000  1
  F  F25  1  0.78992784  0.21277632  -0.00000000  1
  F  F26  1  0.28992784  0.28722368  0.00000000  1
  F  F27  1  0.71007216  0.71277632  0.00000000  1
  F  F28  1  0.60065900  0.52935853  0.26122544  1
  F  F29  1  -0.60065900  -0.52935853  0.26122544  1
  F  F30  1  -0.10065900  1.02935853  -0.26122544  1
  F  F31  1  1.10065900  -0.02935853  -0.26122544  1
  F  F32  1  -0.60065900  -0.52935853  -0.26122544  1
  F  F33  1  0.60065900  0.52935853  -0.26122544  1
  F  F34  1  1.10065900  -0.02935853  0.26122544  1
  F  F35  1  -0.10065900  1.02935853  0.26122544  1
  F  F36  1  0.94934317  0.21733782  0.30548357  1
  F  F37  1  0.05065683  0.78266218  0.30548357  1
  F  F38  1  0.55065683  0.71733782  0.69451643  1
  F  F39  1  0.44934317  0.28266218  0.69451643  1
  F  F40  1  0.05065683  0.78266218  0.69451643  1
  F  F41  1  0.94934317  0.21733782  0.69451643  1
  F  F42  1  0.44934317  0.28266218  0.30548357  1
  F  F43  1  0.55065683  0.71733782  0.30548357  1
  F  F44  1  0.53183347  0.39923391  0.11626127  1
  F  F45  1  0.46816653  0.60076609  0.11626127  1
  F  F46  1  0.96816653  0.89923391  0.88373873  1
  F  F47  1  0.03183347  0.10076609  0.88373873  1
  F  F48  1  0.46816653  0.60076609  0.88373873  1
  F  F49  1  0.53183347  0.39923391  0.88373873  1
  F  F50  1  0.03183347  0.10076609  0.11626127  1
  F  F51  1  0.96816653  0.89923391  0.11626127  1
  F  F52  1  0.88779420  0.38218540  0.86029650  1
  F  F53  1  0.11220580  0.61781460  0.86029650  1
  F  F54  1  0.61220580  0.88218540  0.13970350  1
  F  F55  1  0.38779420  0.11781460  0.13970350  1
  F  F56  1  0.11220580  0.61781460  0.13970350  1
  F  F57  1  0.88779420  0.38218540  0.13970350  1
  F  F58  1  0.38779420  0.11781460  0.86029650  1
  F  F59  1  0.61220580  0.88218540  0.86029650  1
  F  F60  1  0.34445271  0.09231556  0.50000000  1
  F  F61  1  0.65554729  0.90768444  0.50000000  1
  F  F62  1  0.15554729  0.59231556  0.50000000  1
  F  F63  1  0.84445271  0.40768444  0.50000000  1
  F  F64  1  0.24798033  0.61361085  0.61108578  1
  F  F65  1  0.75201967  0.38638915  0.61108578  1
  F  F66  1  0.25201967  0.11361085  0.38891422  1
  F  F67  1  0.74798033  0.88638915  0.38891422  1
  F  F68  1  0.75201967  0.38638915  0.38891422  1
  F  F69  1  0.24798033  0.61361085  0.38891422  1
  F  F70  1  0.74798033  0.88638915  0.61108578  1
  F  F71  1  0.25201967  0.11361085  0.61108578  1
  F  F72  1  0.00000000  0.50000000  0.00000000  1
  F  F73  1  0.50000000  0.00000000  0.00000000  1
  F  F74  1  0.15351494  0.81071566  0.72628658  1
  F  F75  1  0.84648506  0.18928434  0.72628658  1
  F  F76  1  0.34648506  0.31071566  0.27371342  1
  F  F77  1  0.65351494  0.68928434  0.27371342  1
  F  F78  1  0.84648506  0.18928434  0.27371342  1
  F  F79  1  0.15351494  0.81071566  0.27371342  1
  F  F80  1  0.65351494  0.68928434  0.72628658  1
  F  F81  1  0.34648506  0.31071566  0.72628658  1
  F  F82  1  0.75743363  0.32511383  0.00000000  1
  F  F83  1  0.24256637  0.67488617  0.00000000  1
  F  F84  1  0.74256637  0.82511383  0.00000000  1
  F  F85  1  0.25743363  0.17488617  0.00000000  1
  F  F86  1  0.00000000  0.00000000  0.00000000  1
  F  F87  1  0.50000000  0.50000000  -0.00000000  1
  Li  Li88  1  0.64135846  0.16926008  -0.00000000  1
  Li  Li89  1  0.35864154  0.83073992  -0.00000000  1
  Li  Li90  1  0.85864154  0.66926008  0.00000000  1
  Li  Li91  1  0.14135846  0.33073992  0.00000000  1
  Li  Li92  1  0.00000000  0.50000000  0.50000000  1
  Li  Li93  1  0.50000000  0.00000000  0.50000000  1
  Li  Li94  1  0.62269068  0.77266638  0.07630830  1
  Li  Li95  1  0.37730932  0.22733362  0.07630830  1
  Li  Li96  1  0.87730932  0.27266638  0.92369170  1
  Li  Li97  1  0.12269068  0.72733362  0.92369170  1
  Li  Li98  1  0.37730932  0.22733362  0.92369170  1
  Li  Li99  1  0.62269068  0.77266638  0.92369170  1
  Li  Li100  1  0.12269068  0.72733362  0.07630830  1
  Li  Li101  1  0.87730932  0.27266638  0.07630830  1
  Li  Li102  1  0.00000000  0.00000000  0.50000000  1
  Li  Li103  1  0.50000000  0.50000000  0.50000000  1
