# generated using pymatgen
data_LiTe4MoP3
_symmetry_space_group_name_H-M   'P 1'
_cell_length_a   5.36487563
_cell_length_b   5.60270193
_cell_length_c   7.17564421
_cell_angle_alpha   93.87074824
_cell_angle_beta   98.66503968
_cell_angle_gamma   105.83143466
_symmetry_Int_Tables_number   1
_chemical_formula_structural   LiTe4MoP3
_chemical_formula_sum   'Li1 Te4 Mo1 P3'
_cell_volume   203.79256090
_cell_formula_units_Z   1
loop_
 _symmetry_equiv_pos_site_id
 _symmetry_equiv_pos_as_xyz
  1  'x, y, z'
loop_
 _atom_site_type_symbol
 _atom_site_label
 _atom_site_symmetry_multiplicity
 _atom_site_fract_x
 _atom_site_fract_y
 _atom_site_fract_z
 _atom_site_occupancy
  Te  Te0  1  0.12500000  0.12500000  0.12500000  1
  Te  Te1  1  0.50000000  0.50000000  0.50000000  1
  Te  Te2  1  0.25000000  0.25000000  0.25000000  1
  Te  Te3  1  0.75000000  0.75000000  0.75000000  1
  P  P4  1  0.94932182  0.74765593  0.82152009  1
  P  P5  1  0.75609178  0.42535030  0.02953534  1
  P  P6  1  0.65972837  0.76414284  0.77382809  1
  Mo  Mo7  1  0.18244430  0.49708638  0.70597902  1
  Li  Li8  1  0.09779316  0.88640839  0.79129250  1
