# generated using pymatgen
data_Li2Y2Te4MoP3
_symmetry_space_group_name_H-M   'P 1'
_cell_length_a   4.35553226
_cell_length_b   4.64222721
_cell_length_c   6.84039688
_cell_angle_alpha   96.07700861
_cell_angle_beta   103.23446137
_cell_angle_gamma   114.40892832
_symmetry_Int_Tables_number   1
_chemical_formula_structural   Li2Y2Te4MoP3
_chemical_formula_sum   'Li2 Y2 Te4 Mo1 P3'
_cell_volume   119.42498056
_cell_formula_units_Z   1
loop_
 _symmetry_equiv_pos_site_id
 _symmetry_equiv_pos_as_xyz
  1  'x, y, z'
loop_
 _atom_site_type_symbol
 _atom_site_label
 _atom_site_symmetry_multiplicity
 _atom_site_fract_x
 _atom_site_fract_y
 _atom_site_fract_z
 _atom_site_occupancy
  Y  Y0  1  0.12500000  0.00000000  0.25000000  1
  Y  Y1  1  0.00000000  0.00000000  0.00000000  1
  P  P2  1  0.37500000  0.00000000  0.25000000  1
  P  P3  1  0.25000000  0.25000000  0.25000000  1
  P  P4  1  0.00000000  0.25000000  0.12500000  1
  Mo  Mo5  1  0.15608163  0.31890292  0.48220576  1
  Li  Li6  1  0.34630233  0.43246382  0.57044972  1
  Li  Li7  1  0.98648756  0.04562989  0.36901003  1
  Te  Te8  1  0.71385326  0.58770220  0.97318042  1
  Te  Te9  1  0.07944664  0.45105979  0.82299597  1
  Te  Te10  1  0.47861893  0.29428891  0.15735111  1
  Te  Te11  1  0.58090367  0.92630320  0.65175138  1
