# generated using pymatgen
data_Li3Y2P3Se2
_symmetry_space_group_name_H-M   'P 1'
_cell_length_a   5.57029106
_cell_length_b   5.66874229
_cell_length_c   7.16050110
_cell_angle_alpha   93.67642560
_cell_angle_beta   98.00649064
_cell_angle_gamma   104.76674046
_symmetry_Int_Tables_number   1
_chemical_formula_structural   Li3Y2P3Se2
_chemical_formula_sum   'Li3 Y2 P3 Se2'
_cell_volume   215.32985817
_cell_formula_units_Z   1
loop_
 _symmetry_equiv_pos_site_id
 _symmetry_equiv_pos_as_xyz
  1  'x, y, z'
loop_
 _atom_site_type_symbol
 _atom_site_label
 _atom_site_symmetry_multiplicity
 _atom_site_fract_x
 _atom_site_fract_y
 _atom_site_fract_z
 _atom_site_occupancy
  Se  Se0  1  0.12500000  0.00000000  0.25000000  1
  Se  Se1  1  0.00000000  0.00000000  0.00000000  1
  Y  Y2  1  0.37500000  0.00000000  0.25000000  1
  Y  Y3  1  0.25000000  0.25000000  0.25000000  1
  P  P4  1  0.00000000  0.25000000  0.12500000  1
  P  P5  1  0.69653518  0.98672074  0.89400948  1
  P  P6  1  0.07281243  0.46626964  0.48987732  1
  Li  Li7  1  0.25225653  0.69166708  0.07517917  1
  Li  Li8  1  0.80938465  0.15325382  0.59336166  1
  Li  Li9  1  0.79874210  0.75204613  0.21721396  1
