# generated using pymatgen
data_LiY2MoP2Se
_symmetry_space_group_name_H-M   'P 1'
_cell_length_a   4.85302090
_cell_length_b   5.08034542
_cell_length_c   6.87679756
_cell_angle_alpha   94.87127219
_cell_angle_beta   99.65706571
_cell_angle_gamma   108.07367834
_symmetry_Int_Tables_number   1
_chemical_formula_structural   LiY2MoP2Se
_chemical_formula_sum   'Li1 Y2 Mo1 P2 Se1'
_cell_volume   157.19187161
_cell_formula_units_Z   1
loop_
 _symmetry_equiv_pos_site_id
 _symmetry_equiv_pos_as_xyz
  1  'x, y, z'
loop_
 _atom_site_type_symbol
 _atom_site_label
 _atom_site_symmetry_multiplicity
 _atom_site_fract_x
 _atom_site_fract_y
 _atom_site_fract_z
 _atom_site_occupancy
  Se  Se0  1  0.12500000  0.00000000  0.25000000  1
  Y  Y1  1  0.00000000  0.00000000  0.00000000  1
  Y  Y2  1  0.37500000  0.00000000  0.25000000  1
  P  P3  1  0.25000000  0.25000000  0.25000000  1
  P  P4  1  0.00000000  0.25000000  0.12500000  1
  Mo  Mo5  1  0.30839888  0.44205941  0.03466697  1
  Li  Li6  1  0.59180493  0.22607093  0.67332886  1
