# generated using pymatgen
data_LiF
_symmetry_space_group_name_H-M   'P 1'
_cell_length_a   9.61183859
_cell_length_b   9.61183859
_cell_length_c   4.97790043
_cell_angle_alpha   90.00000000
_cell_angle_beta   90.00000000
_cell_angle_gamma   120.00000000
_symmetry_Int_Tables_number   1
_chemical_formula_structural   LiF
_chemical_formula_sum   'Li36 F36'
_cell_volume   398.28117059
_cell_formula_units_Z   36
loop_
 _symmetry_equiv_pos_site_id
 _symmetry_equiv_pos_as_xyz
  1  'x, y, z'
loop_
 _atom_site_type_symbol
 _atom_site_label
 _atom_site_symmetry_multiplicity
 _atom_site_fract_x
 _atom_site_fract_y
 _atom_site_fract_z
 _atom_site_occupancy
  F  F0  1  0.14945480  0.09468702  0.25000000  1
  F  F1  1  0.90531298  0.05476778  0.25000000  1
  F  F2  1  0.94523222  0.85054520  0.25000000  1
  F  F3  1  0.85054520  0.90531298  0.75000000  1
  F  F4  1  0.09468702  0.94523222  0.75000000  1
  F  F5  1  0.05476778  0.14945480  0.75000000  1
  F  F6  1  0.32984809  0.97718038  0.85047675  1
  F  F7  1  -0.97718038  -0.64733229  0.85047675  1
  F  F8  1  0.64733229  -0.32984809  0.85047675  1
  F  F9  1  -0.32984809  -0.97718038  1.35047675  1
  F  F10  1  0.97718038  0.64733229  1.35047675  1
  F  F11  1  -0.64733229  0.32984809  1.35047675  1
  F  F12  1  -0.32984809  -0.97718038  -0.85047675  1
  F  F13  1  0.97718038  0.64733229  -0.85047675  1
  F  F14  1  -0.64733229  0.32984809  -0.85047675  1
  F  F15  1  0.32984809  0.97718038  -0.35047675  1
  F  F16  1  -0.97718038  -0.64733229  -0.35047675  1
  F  F17  1  0.64733229  -0.32984809  -0.35047675  1
  F  F18  1  0.00000000  0.00000000  0.38221221  1
  F  F19  1  0.00000000  0.00000000  0.88221221  1
  F  F20  1  0.00000000  0.00000000  0.61778779  1
  F  F21  1  0.00000000  0.00000000  0.11778779  1
  F  F22  1  0.63741847  0.79476811  0.96025337  1
  F  F23  1  0.20523189  0.84265037  0.96025337  1
  F  F24  1  0.15734963  0.36258153  0.96025337  1
  F  F25  1  0.36258153  0.20523189  0.46025337  1
  F  F26  1  0.79476811  0.15734963  0.46025337  1
  F  F27  1  0.84265037  0.63741847  0.46025337  1
  F  F28  1  0.36258153  0.20523189  0.03974663  1
  F  F29  1  0.79476811  0.15734963  0.03974663  1
  F  F30  1  0.84265037  0.63741847  0.03974663  1
  F  F31  1  0.63741847  0.79476811  0.53974663  1
  F  F32  1  0.20523189  0.84265037  0.53974663  1
  F  F33  1  0.15734963  0.36258153  0.53974663  1
  F  F34  1  0.00000000  0.00000000  0.00000000  1
  F  F35  1  0.00000000  0.00000000  0.50000000  1
  Li  Li36  1  0.26730615  0.78002967  0.58813700  1
  Li  Li37  1  0.21997033  0.48727648  0.58813700  1
  Li  Li38  1  0.51272352  0.73269385  0.58813700  1
  Li  Li39  1  0.73269385  0.21997033  0.08813700  1
  Li  Li40  1  0.78002967  0.51272352  0.08813700  1
  Li  Li41  1  0.48727648  0.26730615  0.08813700  1
  Li  Li42  1  0.73269385  0.21997033  0.41186300  1
  Li  Li43  1  0.78002967  0.51272352  0.41186300  1
  Li  Li44  1  0.48727648  0.26730615  0.41186300  1
  Li  Li45  1  0.26730615  0.78002967  0.91186300  1
  Li  Li46  1  0.21997033  0.48727648  0.91186300  1
  Li  Li47  1  0.51272352  0.73269385  0.91186300  1
  Li  Li48  1  0.34119024  0.21672448  0.25000000  1
  Li  Li49  1  0.78327552  0.12446576  0.25000000  1
  Li  Li50  1  0.87553424  0.65880976  0.25000000  1
  Li  Li51  1  0.65880976  0.78327552  0.75000000  1
  Li  Li52  1  0.21672448  0.87553424  0.75000000  1
  Li  Li53  1  0.12446576  0.34119024  0.75000000  1
  Li  Li54  1  0.24399707  0.09230527  0.09050886  1
  Li  Li55  1  0.90769473  0.15169180  0.09050886  1
  Li  Li56  1  0.84830820  0.75600293  0.09050886  1
  Li  Li57  1  0.75600293  0.90769473  0.59050886  1
  Li  Li58  1  0.09230527  0.84830820  0.59050886  1
  Li  Li59  1  0.15169180  0.24399707  0.59050886  1
  Li  Li60  1  0.75600293  0.90769473  0.90949114  1
  Li  Li61  1  0.09230527  0.84830820  0.90949114  1
  Li  Li62  1  0.15169180  0.24399707  0.90949114  1
  Li  Li63  1  0.24399707  0.09230527  0.40949114  1
  Li  Li64  1  0.90769473  0.15169180  0.40949114  1
  Li  Li65  1  0.84830820  0.75600293  0.40949114  1
  Li  Li66  1  0.50000000  0.00000000  0.00000000  1
  Li  Li67  1  0.00000000  0.50000000  0.00000000  1
  Li  Li68  1  0.50000000  0.50000000  0.00000000  1
  Li  Li69  1  0.50000000  0.00000000  0.50000000  1
  Li  Li70  1  0.00000000  0.50000000  0.50000000  1
  Li  Li71  1  0.50000000  0.50000000  0.50000000  1
