# generated using pymatgen
data_LiF
_symmetry_space_group_name_H-M   'P 1'
_cell_length_a   6.14247435
_cell_length_b   6.14247435
_cell_length_c   40.40840343
_cell_angle_alpha   90.00000000
_cell_angle_beta   90.00000000
_cell_angle_gamma   90.00000000
_symmetry_Int_Tables_number   1
_chemical_formula_structural   LiF
_chemical_formula_sum   'Li48 F48'
_cell_volume   1524.60870577
_cell_formula_units_Z   48
loop_
 _symmetry_equiv_pos_site_id
 _symmetry_equiv_pos_as_xyz
  1  'x, y, z'
loop_
 _atom_site_type_symbol
 _atom_site_label
 _atom_site_symmetry_multiplicity
 _atom_site_fract_x
 _atom_site_fract_y
 _atom_site_fract_z
 _atom_site_occupancy
  F  F0  1  0.74198488  -0.00000000  0.20461324  1
  F  F1  1  0.25801512  0.00000000  0.20461324  1
  F  F2  1  0.00000000  0.74198488  0.20461324  1
  F  F3  1  0.00000000  0.25801512  0.20461324  1
  F  F4  1  0.25801512  0.00000000  0.79538676  1
  F  F5  1  0.74198488  -0.00000000  0.79538676  1
  F  F6  1  0.00000000  0.74198488  0.79538676  1
  F  F7  1  0.00000000  0.25801512  0.79538676  1
  F  F8  1  0.06149375  0.82679404  0.43770909  1
  F  F9  1  -0.06149375  -0.82679404  0.43770909  1
  F  F10  1  -0.82679404  0.06149375  0.43770909  1
  F  F11  1  0.82679404  -0.06149375  0.43770909  1
  F  F12  1  -0.06149375  0.82679404  -0.43770909  1
  F  F13  1  0.06149375  -0.82679404  -0.43770909  1
  F  F14  1  0.82679404  0.06149375  -0.43770909  1
  F  F15  1  -0.82679404  -0.06149375  -0.43770909  1
  F  F16  1  -0.06149375  -0.82679404  -0.43770909  1
  F  F17  1  0.06149375  0.82679404  -0.43770909  1
  F  F18  1  0.82679404  -0.06149375  -0.43770909  1
  F  F19  1  -0.82679404  0.06149375  -0.43770909  1
  F  F20  1  0.06149375  -0.82679404  0.43770909  1
  F  F21  1  -0.06149375  0.82679404  0.43770909  1
  F  F22  1  -0.82679404  -0.06149375  0.43770909  1
  F  F23  1  0.82679404  0.06149375  0.43770909  1
  F  F24  1  0.80165929  0.42376260  0.50000000  1
  F  F25  1  0.19834071  0.57623740  0.50000000  1
  F  F26  1  0.57623740  0.80165929  0.50000000  1
  F  F27  1  0.42376260  0.19834071  0.50000000  1
  F  F28  1  0.19834071  0.42376260  0.50000000  1
  F  F29  1  0.80165929  0.57623740  0.50000000  1
  F  F30  1  0.42376260  0.80165929  0.50000000  1
  F  F31  1  0.57623740  0.19834071  0.50000000  1
  F  F32  1  0.00000000  0.50000000  0.50000000  1
  F  F33  1  0.50000000  0.00000000  0.50000000  1
  F  F34  1  0.07254402  0.00000000  0.78521162  1
  F  F35  1  0.92745598  0.00000000  0.78521162  1
  F  F36  1  0.00000000  0.07254402  0.78521162  1
  F  F37  1  0.00000000  0.92745598  0.78521162  1
  F  F38  1  0.92745598  0.00000000  0.21478838  1
  F  F39  1  0.07254402  0.00000000  0.21478838  1
  F  F40  1  0.00000000  0.07254402  0.21478838  1
  F  F41  1  0.00000000  0.92745598  0.21478838  1
  F  F42  1  0.37763494  0.37763494  0.00000000  1
  F  F43  1  0.62236506  0.62236506  0.00000000  1
  F  F44  1  0.62236506  0.37763494  -0.00000000  1
  F  F45  1  0.37763494  0.62236506  0.00000000  1
  F  F46  1  0.00000000  0.50000000  0.00000000  1
  F  F47  1  0.50000000  0.00000000  0.00000000  1
  Li  Li48  1  0.00000000  0.00000000  0.84080326  1
  Li  Li49  1  0.00000000  0.00000000  0.15919674  1
  Li  Li50  1  0.78783312  0.00000000  0.63645984  1
  Li  Li51  1  0.21216688  0.00000000  0.63645984  1
  Li  Li52  1  0.00000000  0.78783312  0.63645984  1
  Li  Li53  1  0.00000000  0.21216688  0.63645984  1
  Li  Li54  1  0.21216688  0.00000000  0.36354016  1
  Li  Li55  1  0.78783312  0.00000000  0.36354016  1
  Li  Li56  1  0.00000000  0.78783312  0.36354016  1
  Li  Li57  1  0.00000000  0.21216688  0.36354016  1
  Li  Li58  1  0.83854350  0.62080701  0.05352523  1
  Li  Li59  1  0.16145650  0.37919299  0.05352523  1
  Li  Li60  1  0.37919299  0.83854350  0.05352523  1
  Li  Li61  1  0.62080701  0.16145650  0.05352523  1
  Li  Li62  1  0.16145650  0.62080701  0.94647477  1
  Li  Li63  1  0.83854350  0.37919299  0.94647477  1
  Li  Li64  1  0.62080701  0.83854350  0.94647477  1
  Li  Li65  1  0.37919299  0.16145650  0.94647477  1
  Li  Li66  1  0.16145650  0.37919299  0.94647477  1
  Li  Li67  1  0.83854350  0.62080701  0.94647477  1
  Li  Li68  1  0.62080701  0.16145650  0.94647477  1
  Li  Li69  1  0.37919299  0.83854350  0.94647477  1
  Li  Li70  1  0.83854350  0.37919299  0.05352523  1
  Li  Li71  1  0.16145650  0.62080701  0.05352523  1
  Li  Li72  1  0.37919299  0.16145650  0.05352523  1
  Li  Li73  1  0.62080701  0.83854350  0.05352523  1
  Li  Li74  1  0.75854636  0.75854636  0.09987328  1
  Li  Li75  1  0.24145364  0.24145364  0.09987328  1
  Li  Li76  1  0.24145364  0.75854636  0.09987328  1
  Li  Li77  1  0.75854636  0.24145364  0.09987328  1
  Li  Li78  1  0.24145364  0.75854636  0.90012672  1
  Li  Li79  1  0.75854636  0.24145364  0.90012672  1
  Li  Li80  1  0.75854636  0.75854636  0.90012672  1
  Li  Li81  1  0.24145364  0.24145364  0.90012672  1
  Li  Li82  1  0.00000000  0.50000000  0.41730984  1
  Li  Li83  1  0.50000000  0.00000000  0.41730984  1
  Li  Li84  1  0.00000000  0.50000000  0.58269016  1
  Li  Li85  1  0.50000000  0.00000000  0.58269016  1
  Li  Li86  1  0.22808596  0.22808596  0.79408212  1
  Li  Li87  1  0.77191404  0.77191404  0.79408212  1
  Li  Li88  1  0.77191404  0.22808596  0.79408212  1
  Li  Li89  1  0.22808596  0.77191404  0.79408212  1
  Li  Li90  1  0.77191404  0.22808596  0.20591788  1
  Li  Li91  1  0.22808596  0.77191404  0.20591788  1
  Li  Li92  1  0.22808596  0.22808596  0.20591788  1
  Li  Li93  1  0.77191404  0.77191404  0.20591788  1
  Li  Li94  1  0.50000000  0.50000000  0.50000000  1
  Li  Li95  1  0.00000000  0.00000000  0.00000000  1
