# generated using pymatgen
data_Li2Y2P3Se
_symmetry_space_group_name_H-M   'P 1'
_cell_length_a   4.66871877
_cell_length_b   4.90536245
_cell_length_c   6.95808348
_cell_angle_alpha   95.25963252
_cell_angle_beta   101.00991268
_cell_angle_gamma   110.42880137
_symmetry_Int_Tables_number   1
_chemical_formula_structural   Li2Y2P3Se
_chemical_formula_sum   'Li2 Y2 P3 Se1'
_cell_volume   144.39392821
_cell_formula_units_Z   1
loop_
 _symmetry_equiv_pos_site_id
 _symmetry_equiv_pos_as_xyz
  1  'x, y, z'
loop_
 _atom_site_type_symbol
 _atom_site_label
 _atom_site_symmetry_multiplicity
 _atom_site_fract_x
 _atom_site_fract_y
 _atom_site_fract_z
 _atom_site_occupancy
  Se  Se0  1  0.12500000  0.12500000  0.12500000  1
  P  P1  1  0.50000000  0.50000000  0.50000000  1
  P  P2  1  0.25000000  0.25000000  0.25000000  1
  P  P3  1  0.75000000  0.75000000  0.75000000  1
  Li  Li4  1  0.95189808  0.77528770  0.73965874  1
  Li  Li5  1  0.63825051  0.46222540  0.24318770  1
  Y  Y6  1  0.71122113  0.21893299  0.00620318  1
  Y  Y7  1  0.52916433  0.82212352  0.73854042  1
