# generated using pymatgen
data_LiF
_symmetry_space_group_name_H-M   'P 1'
_cell_length_a   5.88797894
_cell_length_b   4.62601186
_cell_length_c   6.79023951
_cell_angle_alpha   90.00000000
_cell_angle_beta   90.00000000
_cell_angle_gamma   90.00000000
_symmetry_Int_Tables_number   1
_chemical_formula_structural   LiF
_chemical_formula_sum   'Li8 F8'
_cell_volume   184.95159614
_cell_formula_units_Z   8
loop_
 _symmetry_equiv_pos_site_id
 _symmetry_equiv_pos_as_xyz
  1  'x, y, z'
loop_
 _atom_site_type_symbol
 _atom_site_label
 _atom_site_symmetry_multiplicity
 _atom_site_fract_x
 _atom_site_fract_y
 _atom_site_fract_z
 _atom_site_occupancy
  F  F0  1  0.00000000  0.00000000  0.00000000  1
  F  F1  1  0.50000000  0.50000000  0.50000000  1
  F  F2  1  0.00000000  0.50000000  0.00000000  1
  F  F3  1  0.50000000  -0.00000000  0.50000000  1
  F  F4  1  0.00000000  0.50000000  0.67027437  1
  F  F5  1  0.50000000  -0.00000000  -0.17027437  1
  F  F6  1  0.00000000  0.50000000  -0.67027437  1
  F  F7  1  0.50000000  -0.00000000  1.17027437  1
  Li  Li8  1  0.00000000  0.00000000  0.62102249  1
  Li  Li9  1  0.50000000  0.50000000  0.87897751  1
  Li  Li10  1  0.00000000  0.00000000  0.37897751  1
  Li  Li11  1  0.50000000  0.50000000  0.12102249  1
  Li  Li12  1  0.21614488  0.91212324  0.00000000  1
  Li  Li13  1  0.78385512  0.08787676  -0.00000000  1
  Li  Li14  1  0.28385512  0.41212324  0.50000000  1
  Li  Li15  1  0.71614488  0.58787676  0.50000000  1
