# generated using pymatgen
data_LiY2Sb2P2Se
_symmetry_space_group_name_H-M   'P 1'
_cell_length_a   5.08229286
_cell_length_b   5.32064281
_cell_length_c   6.66374804
_cell_angle_alpha   94.09753634
_cell_angle_beta   97.02659681
_cell_angle_gamma   103.48319967
_symmetry_Int_Tables_number   1
_chemical_formula_structural   LiY2Sb2P2Se
_chemical_formula_sum   'Li1 Y2 Sb2 P2 Se1'
_cell_volume   172.97670503
_cell_formula_units_Z   1
loop_
 _symmetry_equiv_pos_site_id
 _symmetry_equiv_pos_as_xyz
  1  'x, y, z'
loop_
 _atom_site_type_symbol
 _atom_site_label
 _atom_site_symmetry_multiplicity
 _atom_site_fract_x
 _atom_site_fract_y
 _atom_site_fract_z
 _atom_site_occupancy
  Se  Se0  1  0.00000000  0.00000000  0.00000000  1
  Y  Y1  1  0.50000000  0.50000000  0.50000000  1
  Y  Y2  1  0.50000000  0.50000000  0.00000000  1
  P  P3  1  0.50000000  0.00000000  0.50000000  1
  P  P4  1  0.00000000  0.50000000  0.50000000  1
  Li  Li5  1  0.38690036  0.75945675  0.42768137  1
  Sb  Sb6  1  0.24491189  0.48834494  0.62372717  1
  Sb  Sb7  1  0.52460590  0.74875337  0.75029771  1
