# generated using pymatgen
data_LiCaF3
_symmetry_space_group_name_H-M   'P 1'
_cell_length_a   13.16034975
_cell_length_b   13.16034975
_cell_length_c   10.09197239
_cell_angle_alpha   90.00000000
_cell_angle_beta   90.00000000
_cell_angle_gamma   90.00000000
_symmetry_Int_Tables_number   1
_chemical_formula_structural   LiCaF3
_chemical_formula_sum   'Li18 Ca18 F54'
_cell_volume   1747.87719414
_cell_formula_units_Z   18
loop_
 _symmetry_equiv_pos_site_id
 _symmetry_equiv_pos_as_xyz
  1  'x, y, z'
loop_
 _atom_site_type_symbol
 _atom_site_label
 _atom_site_symmetry_multiplicity
 _atom_site_fract_x
 _atom_site_fract_y
 _atom_site_fract_z
 _atom_site_occupancy
  Ca  Ca0  1  0.50000000  0.50000000  0.00000000  1
  Ca  Ca1  1  0.75501423  0.36110776  0.20115712  1
  Ca  Ca2  1  -0.75501423  -0.36110776  0.20115712  1
  Ca  Ca3  1  -0.36110776  0.75501423  0.20115712  1
  Ca  Ca4  1  0.36110776  -0.75501423  0.20115712  1
  Ca  Ca5  1  -0.75501423  0.36110776  -0.20115712  1
  Ca  Ca6  1  0.75501423  -0.36110776  -0.20115712  1
  Ca  Ca7  1  0.36110776  0.75501423  -0.20115712  1
  Ca  Ca8  1  -0.36110776  -0.75501423  -0.20115712  1
  Ca  Ca9  1  -0.75501423  -0.36110776  -0.20115712  1
  Ca  Ca10  1  0.75501423  0.36110776  -0.20115712  1
  Ca  Ca11  1  0.36110776  -0.75501423  -0.20115712  1
  Ca  Ca12  1  -0.36110776  0.75501423  -0.20115712  1
  Ca  Ca13  1  0.75501423  -0.36110776  0.20115712  1
  Ca  Ca14  1  -0.75501423  0.36110776  0.20115712  1
  Ca  Ca15  1  -0.36110776  -0.75501423  0.20115712  1
  Ca  Ca16  1  0.36110776  0.75501423  0.20115712  1
  Ca  Ca17  1  0.00000000  0.00000000  0.00000000  1
  F  F18  1  0.57389022  0.50000000  0.38228336  1
  F  F19  1  0.42610978  0.50000000  0.38228336  1
  F  F20  1  0.50000000  0.57389022  0.38228336  1
  F  F21  1  0.50000000  0.42610978  0.38228336  1
  F  F22  1  0.42610978  0.50000000  0.61771664  1
  F  F23  1  0.57389022  0.50000000  0.61771664  1
  F  F24  1  0.50000000  0.57389022  0.61771664  1
  F  F25  1  0.50000000  0.42610978  0.61771664  1
  F  F26  1  0.22286772  0.64233439  0.50000000  1
  F  F27  1  0.77713228  0.35766561  0.50000000  1
  F  F28  1  0.35766561  0.22286772  0.50000000  1
  F  F29  1  0.64233439  0.77713228  0.50000000  1
  F  F30  1  0.77713228  0.64233439  0.50000000  1
  F  F31  1  0.22286772  0.35766561  0.50000000  1
  F  F32  1  0.64233439  0.22286772  0.50000000  1
  F  F33  1  0.35766561  0.77713228  0.50000000  1
  F  F34  1  0.33450660  0.33450660  0.00000000  1
  F  F35  1  0.66549340  0.66549340  0.00000000  1
  F  F36  1  0.66549340  0.33450660  0.00000000  1
  F  F37  1  0.33450660  0.66549340  0.00000000  1
  F  F38  1  0.26897278  0.93916213  0.17678869  1
  F  F39  1  0.73102722  0.06083787  0.17678869  1
  F  F40  1  0.06083787  0.26897278  0.17678869  1
  F  F41  1  0.93916213  0.73102722  0.17678869  1
  F  F42  1  0.73102722  0.93916213  0.82321131  1
  F  F43  1  0.26897278  0.06083787  0.82321131  1
  F  F44  1  0.93916213  0.26897278  0.82321131  1
  F  F45  1  0.06083787  0.73102722  0.82321131  1
  F  F46  1  0.73102722  0.06083787  0.82321131  1
  F  F47  1  0.26897278  0.93916213  0.82321131  1
  F  F48  1  0.93916213  0.73102722  0.82321131  1
  F  F49  1  0.06083787  0.26897278  0.82321131  1
  F  F50  1  0.26897278  0.06083787  0.17678869  1
  F  F51  1  0.73102722  0.93916213  0.17678869  1
  F  F52  1  0.06083787  0.73102722  0.17678869  1
  F  F53  1  0.93916213  0.26897278  0.17678869  1
  F  F54  1  0.74275626  0.50000000  0.78316309  1
  F  F55  1  0.25724374  0.50000000  0.78316309  1
  F  F56  1  0.50000000  0.74275626  0.78316309  1
  F  F57  1  0.50000000  0.25724374  0.78316309  1
  F  F58  1  0.25724374  0.50000000  0.21683691  1
  F  F59  1  0.74275626  0.50000000  0.21683691  1
  F  F60  1  0.50000000  0.74275626  0.21683691  1
  F  F61  1  0.50000000  0.25724374  0.21683691  1
  F  F62  1  0.50000000  0.50000000  0.50000000  1
  F  F63  1  0.66323850  0.83062103  0.00000000  1
  F  F64  1  0.33676150  0.16937897  0.00000000  1
  F  F65  1  0.16937897  0.66323850  0.00000000  1
  F  F66  1  0.83062103  0.33676150  0.00000000  1
  F  F67  1  0.33676150  0.83062103  0.00000000  1
  F  F68  1  0.66323850  0.16937897  0.00000000  1
  F  F69  1  0.83062103  0.66323850  0.00000000  1
  F  F70  1  0.16937897  0.33676150  0.00000000  1
  F  F71  1  0.00000000  0.00000000  0.50000000  1
  Li  Li72  1  0.33493237  0.50000000  0.50000000  1
  Li  Li73  1  0.66506763  0.50000000  0.50000000  1
  Li  Li74  1  0.50000000  0.33493237  0.50000000  1
  Li  Li75  1  0.50000000  0.66506763  0.50000000  1
  Li  Li76  1  0.85574191  0.00000000  0.80903850  1
  Li  Li77  1  0.14425809  0.00000000  0.80903850  1
  Li  Li78  1  0.00000000  0.85574191  0.80903850  1
  Li  Li79  1  0.00000000  0.14425809  0.80903850  1
  Li  Li80  1  0.14425809  0.00000000  0.19096150  1
  Li  Li81  1  0.85574191  0.00000000  0.19096150  1
  Li  Li82  1  0.00000000  0.85574191  0.19096150  1
  Li  Li83  1  0.00000000  0.14425809  0.19096150  1
  Li  Li84  1  0.85555729  0.85555729  0.00000000  1
  Li  Li85  1  0.14444271  0.14444271  0.00000000  1
  Li  Li86  1  0.14444271  0.85555729  0.00000000  1
  Li  Li87  1  0.85555729  0.14444271  0.00000000  1
  Li  Li88  1  0.00000000  0.50000000  0.50000000  1
  Li  Li89  1  0.50000000  0.00000000  0.50000000  1
