# generated using pymatgen
data_Li4TeF2
_symmetry_space_group_name_H-M   'P 1'
_cell_length_a   14.92289409
_cell_length_b   14.92289409
_cell_length_c   17.21795348
_cell_angle_alpha   90.00000000
_cell_angle_beta   90.00000000
_cell_angle_gamma   120.00000000
_symmetry_Int_Tables_number   1
_chemical_formula_structural   Li4TeF2
_chemical_formula_sum   'Li96 Te24 F48'
_cell_volume   3320.61308735
_cell_formula_units_Z   24
loop_
 _symmetry_equiv_pos_site_id
 _symmetry_equiv_pos_as_xyz
  1  'x, y, z'
loop_
 _atom_site_type_symbol
 _atom_site_label
 _atom_site_symmetry_multiplicity
 _atom_site_fract_x
 _atom_site_fract_y
 _atom_site_fract_z
 _atom_site_occupancy
  F  F0  1  0.16582808  0.46594341  0.73966565  1
  F  F1  1  -0.46594341  -0.30011533  0.73966565  1
  F  F2  1  0.30011533  -0.16582808  0.73966565  1
  F  F3  1  0.46594341  0.16582808  -0.23966565  1
  F  F4  1  -0.30011533  -0.46594341  -0.23966565  1
  F  F5  1  -0.16582808  0.30011533  -0.23966565  1
  F  F6  1  -0.16582808  -0.46594341  -0.73966565  1
  F  F7  1  0.46594341  0.30011533  -0.73966565  1
  F  F8  1  -0.30011533  0.16582808  -0.73966565  1
  F  F9  1  -0.46594341  -0.16582808  1.23966565  1
  F  F10  1  0.30011533  0.46594341  1.23966565  1
  F  F11  1  0.16582808  -0.30011533  1.23966565  1
  F  F12  1  0.83249475  0.79927674  1.07299899  1
  F  F13  1  0.20072326  0.03321800  1.07299899  1
  F  F14  1  0.96678200  0.16750525  1.07299899  1
  F  F15  1  1.13261008  0.49916141  0.09366768  1
  F  F16  1  0.36655134  -0.13261008  0.09366768  1
  F  F17  1  0.50083859  0.63344866  0.09366768  1
  F  F18  1  0.50083859  -0.13261008  -0.40633232  1
  F  F19  1  1.13261008  0.63344866  -0.40633232  1
  F  F20  1  0.36655134  0.49916141  -0.40633232  1
  F  F21  1  0.20072326  0.16750525  1.57299899  1
  F  F22  1  0.96678200  0.79927674  1.57299899  1
  F  F23  1  0.83249475  0.03321800  1.57299899  1
  F  F24  1  0.49916141  1.13261008  1.40633232  1
  F  F25  1  -0.13261008  0.36655134  1.40633232  1
  F  F26  1  0.63344866  0.50083859  1.40633232  1
  F  F27  1  0.79927674  0.83249475  0.42700101  1
  F  F28  1  0.03321800  0.20072326  0.42700101  1
  F  F29  1  0.16750525  0.96678200  0.42700101  1
  F  F30  1  0.16750525  0.20072326  -0.07299899  1
  F  F31  1  0.79927674  0.96678200  -0.07299899  1
  F  F32  1  0.03321800  0.83249475  -0.07299899  1
  F  F33  1  -0.13261008  0.50083859  1.90633232  1
  F  F34  1  0.63344866  1.13261008  1.90633232  1
  F  F35  1  0.49916141  0.36655134  1.90633232  1
  F  F36  1  0.00000000  0.00000000  0.05956835  1
  F  F37  1  0.00000000  0.00000000  0.44043165  1
  F  F38  1  0.00000000  0.00000000  0.94043165  1
  F  F39  1  0.00000000  0.00000000  0.55956835  1
  F  F40  1  0.66666667  0.33333333  0.39290168  1
  F  F41  1  0.66666667  0.33333333  0.77376499  1
  F  F42  1  0.66666667  0.33333333  0.27376499  1
  F  F43  1  0.66666667  0.33333333  0.89290168  1
  F  F44  1  0.33333333  0.66666667  0.72623501  1
  F  F45  1  0.33333333  0.66666667  0.10709832  1
  F  F46  1  0.33333333  0.66666667  0.60709832  1
  F  F47  1  0.33333333  0.66666667  0.22623501  1
  Li  Li48  1  0.55579024  0.98547811  0.13191366  1
  Li  Li49  1  0.01452189  0.57031213  0.13191366  1
  Li  Li50  1  0.42968787  0.44420976  0.13191366  1
  Li  Li51  1  0.98547811  0.55579024  0.36808634  1
  Li  Li52  1  0.57031213  0.01452189  0.36808634  1
  Li  Li53  1  0.44420976  0.42968787  0.36808634  1
  Li  Li54  1  0.44420976  0.01452189  0.86808634  1
  Li  Li55  1  0.98547811  0.42968787  0.86808634  1
  Li  Li56  1  0.57031213  0.55579024  0.86808634  1
  Li  Li57  1  0.01452189  0.44420976  0.63191366  1
  Li  Li58  1  0.42968787  0.98547811  0.63191366  1
  Li  Li59  1  0.55579024  0.57031213  0.63191366  1
  Li  Li60  1  0.22245691  0.31881145  0.46524700  1
  Li  Li61  1  0.68118855  0.90364546  0.46524700  1
  Li  Li62  1  0.09635454  0.77754309  0.46524700  1
  Li  Li63  1  0.65214478  0.88912358  0.70141967  1
  Li  Li64  1  0.23697880  0.34785522  0.70141967  1
  Li  Li65  1  0.11087642  0.76302120  0.70141967  1
  Li  Li66  1  0.11087642  0.34785522  0.20141967  1
  Li  Li67  1  0.65214478  0.76302120  0.20141967  1
  Li  Li68  1  0.23697880  0.88912358  0.20141967  1
  Li  Li69  1  0.68118855  0.77754309  0.96524700  1
  Li  Li70  1  0.09635454  0.31881145  0.96524700  1
  Li  Li71  1  0.22245691  0.90364546  0.96524700  1
  Li  Li72  1  0.88912358  0.65214478  0.79858033  1
  Li  Li73  1  0.34785522  0.23697880  0.79858033  1
  Li  Li74  1  0.76302120  0.11087642  0.79858033  1
  Li  Li75  1  0.31881145  0.22245691  0.03475300  1
  Li  Li76  1  0.90364546  0.68118855  0.03475300  1
  Li  Li77  1  0.77754309  0.09635454  0.03475300  1
  Li  Li78  1  0.77754309  0.68118855  0.53475300  1
  Li  Li79  1  0.31881145  0.09635454  0.53475300  1
  Li  Li80  1  0.90364546  0.22245691  0.53475300  1
  Li  Li81  1  0.34785522  0.11087642  0.29858033  1
  Li  Li82  1  0.76302120  0.65214478  0.29858033  1
  Li  Li83  1  0.88912358  0.23697880  0.29858033  1
  Li  Li84  1  0.25602705  0.19750506  0.65294179  1
  Li  Li85  1  0.80249494  0.05852199  0.65294179  1
  Li  Li86  1  0.94147801  0.74397295  0.65294179  1
  Li  Li87  1  0.19750506  0.25602705  0.84705821  1
  Li  Li88  1  0.05852199  0.80249494  0.84705821  1
  Li  Li89  1  0.74397295  0.94147801  0.84705821  1
  Li  Li90  1  0.74397295  0.80249494  0.34705821  1
  Li  Li91  1  0.19750506  0.94147801  0.34705821  1
  Li  Li92  1  0.05852199  0.25602705  0.34705821  1
  Li  Li93  1  0.80249494  0.74397295  0.15294179  1
  Li  Li94  1  0.94147801  0.19750506  0.15294179  1
  Li  Li95  1  0.25602705  0.05852199  0.15294179  1
  Li  Li96  1  0.92269372  0.53083840  0.98627512  1
  Li  Li97  1  0.46916160  0.39185532  0.98627512  1
  Li  Li98  1  0.60814468  0.07730628  0.98627512  1
  Li  Li99  1  0.86417173  0.58936039  0.18039155  1
  Li  Li100  1  0.72518865  0.13582827  0.18039155  1
  Li  Li101  1  0.41063961  0.27481135  0.18039155  1
  Li  Li102  1  0.41063961  0.13582827  0.68039155  1
  Li  Li103  1  0.86417173  0.27481135  0.68039155  1
  Li  Li104  1  0.72518865  0.58936039  0.68039155  1
  Li  Li105  1  0.46916160  0.07730628  0.48627512  1
  Li  Li106  1  0.60814468  0.53083840  0.48627512  1
  Li  Li107  1  0.92269372  0.39185532  0.48627512  1
  Li  Li108  1  0.58936039  0.86417173  0.31960845  1
  Li  Li109  1  0.13582827  0.72518865  0.31960845  1
  Li  Li110  1  0.27481135  0.41063961  0.31960845  1
  Li  Li111  1  0.53083840  0.92269372  0.51372488  1
  Li  Li112  1  0.39185532  0.46916160  0.51372488  1
  Li  Li113  1  0.07730628  0.60814468  0.51372488  1
  Li  Li114  1  0.07730628  0.46916160  0.01372488  1
  Li  Li115  1  0.53083840  0.60814468  0.01372488  1
  Li  Li116  1  0.39185532  0.92269372  0.01372488  1
  Li  Li117  1  0.13582827  0.41063961  0.81960845  1
  Li  Li118  1  0.27481135  0.86417173  0.81960845  1
  Li  Li119  1  0.58936039  0.72518865  0.81960845  1
  Li  Li120  1  0.50000000  0.00000000  -0.00000000  1
  Li  Li121  1  0.00000000  0.50000000  0.00000000  1
  Li  Li122  1  0.50000000  0.50000000  0.00000000  1
  Li  Li123  1  0.00000000  0.50000000  0.50000000  1
  Li  Li124  1  0.50000000  0.00000000  0.50000000  1
  Li  Li125  1  0.50000000  0.50000000  0.50000000  1
  Li  Li126  1  0.16666667  0.33333333  0.33333333  1
  Li  Li127  1  0.66666667  0.83333333  0.33333333  1
  Li  Li128  1  0.16666667  0.83333333  0.33333333  1
  Li  Li129  1  0.66666667  0.83333333  0.83333333  1
  Li  Li130  1  0.16666667  0.33333333  0.83333333  1
  Li  Li131  1  0.16666667  0.83333333  0.83333333  1
  Li  Li132  1  0.83333333  0.66666667  0.66666667  1
  Li  Li133  1  0.33333333  0.16666667  0.66666667  1
  Li  Li134  1  0.83333333  0.16666667  0.66666667  1
  Li  Li135  1  0.33333333  0.16666667  0.16666667  1
  Li  Li136  1  0.83333333  0.66666667  0.16666667  1
  Li  Li137  1  0.83333333  0.16666667  0.16666667  1
  Li  Li138  1  0.00000000  0.00000000  0.00000000  1
  Li  Li139  1  0.00000000  0.00000000  0.50000000  1
  Li  Li140  1  0.66666667  0.33333333  0.33333333  1
  Li  Li141  1  0.66666667  0.33333333  0.83333333  1
  Li  Li142  1  0.33333333  0.66666667  0.66666667  1
  Li  Li143  1  0.33333333  0.66666667  0.16666667  1
  Te  Te144  1  0.88691527  0.00000000  0.25000000  1
  Te  Te145  1  0.00000000  0.88691527  0.25000000  1
  Te  Te146  1  0.11308473  0.11308473  0.25000000  1
  Te  Te147  1  0.11308473  0.00000000  0.75000000  1
  Te  Te148  1  0.00000000  0.11308473  0.75000000  1
  Te  Te149  1  0.88691527  0.88691527  0.75000000  1
  Te  Te150  1  0.55358194  0.33333333  0.58333333  1
  Te  Te151  1  0.66666667  0.22024861  0.58333333  1
  Te  Te152  1  0.77975139  0.44641806  0.58333333  1
  Te  Te153  1  0.77975139  0.33333333  0.08333333  1
  Te  Te154  1  0.66666667  0.44641806  0.08333333  1
  Te  Te155  1  0.55358194  0.22024861  0.08333333  1
  Te  Te156  1  0.22024861  0.66666667  0.91666667  1
  Te  Te157  1  0.33333333  0.55358194  0.91666667  1
  Te  Te158  1  0.44641806  0.77975139  0.91666667  1
  Te  Te159  1  0.44641806  0.66666667  0.41666667  1
  Te  Te160  1  0.33333333  0.77975139  0.41666667  1
  Te  Te161  1  0.22024861  0.55358194  0.41666667  1
  Te  Te162  1  0.00000000  0.00000000  0.25000000  1
  Te  Te163  1  0.00000000  0.00000000  0.75000000  1
  Te  Te164  1  0.66666667  0.33333333  0.58333333  1
  Te  Te165  1  0.66666667  0.33333333  0.08333333  1
  Te  Te166  1  0.33333333  0.66666667  0.91666667  1
  Te  Te167  1  0.33333333  0.66666667  0.41666667  1
