# generated using pymatgen
data_LiCaF3
_symmetry_space_group_name_H-M   'P 1'
_cell_length_a   6.76985401
_cell_length_b   6.76985401
_cell_length_c   47.50470616
_cell_angle_alpha   90.00000000
_cell_angle_beta   90.00000000
_cell_angle_gamma   120.00000000
_symmetry_Int_Tables_number   1
_chemical_formula_structural   LiCaF3
_chemical_formula_sum   'Li18 Ca18 F54'
_cell_volume   1885.49712533
_cell_formula_units_Z   18
loop_
 _symmetry_equiv_pos_site_id
 _symmetry_equiv_pos_as_xyz
  1  'x, y, z'
loop_
 _atom_site_type_symbol
 _atom_site_label
 _atom_site_symmetry_multiplicity
 _atom_site_fract_x
 _atom_site_fract_y
 _atom_site_fract_z
 _atom_site_occupancy
  Ca  Ca0  1  0.79196856  0.00000000  0.25000000  1
  Ca  Ca1  1  0.00000000  0.79196856  0.25000000  1
  Ca  Ca2  1  0.20803144  0.20803144  0.25000000  1
  Ca  Ca3  1  0.20803144  0.00000000  0.75000000  1
  Ca  Ca4  1  0.00000000  0.20803144  0.75000000  1
  Ca  Ca5  1  0.79196856  0.79196856  0.75000000  1
  Ca  Ca6  1  0.45863523  0.33333333  0.58333333  1
  Ca  Ca7  1  0.66666667  0.12530190  0.58333333  1
  Ca  Ca8  1  0.87469810  0.54136477  0.58333333  1
  Ca  Ca9  1  0.87469810  0.33333333  0.08333333  1
  Ca  Ca10  1  0.66666667  0.54136477  0.08333333  1
  Ca  Ca11  1  0.45863523  0.12530190  0.08333333  1
  Ca  Ca12  1  0.12530190  0.66666667  0.91666667  1
  Ca  Ca13  1  0.33333333  0.45863523  0.91666667  1
  Ca  Ca14  1  0.54136477  0.87469810  0.91666667  1
  Ca  Ca15  1  0.54136477  0.66666667  0.41666667  1
  Ca  Ca16  1  0.33333333  0.87469810  0.41666667  1
  Ca  Ca17  1  0.12530190  0.45863523  0.41666667  1
  F  F18  1  0.54636897  0.89165217  0.82835844  1
  F  F19  1  -0.89165217  -0.34528320  0.82835844  1
  F  F20  1  0.34528320  -0.54636897  0.82835844  1
  F  F21  1  0.89165217  0.54636897  -0.32835844  1
  F  F22  1  -0.34528320  -0.89165217  -0.32835844  1
  F  F23  1  -0.54636897  0.34528320  -0.32835844  1
  F  F24  1  -0.54636897  -0.89165217  -0.82835844  1
  F  F25  1  0.89165217  0.34528320  -0.82835844  1
  F  F26  1  -0.34528320  0.54636897  -0.82835844  1
  F  F27  1  -0.89165217  -0.54636897  1.32835844  1
  F  F28  1  0.34528320  0.89165217  1.32835844  1
  F  F29  1  0.54636897  -0.34528320  1.32835844  1
  F  F30  1  1.21303563  1.22498551  1.16169177  1
  F  F31  1  -0.22498551  -0.01194987  1.16169177  1
  F  F32  1  1.01194987  -0.21303563  1.16169177  1
  F  F33  1  1.55831884  0.87970230  0.00497489  1
  F  F34  1  0.32138346  -0.55831884  0.00497489  1
  F  F35  1  0.12029770  0.67861654  0.00497489  1
  F  F36  1  0.12029770  -0.55831884  -0.49502511  1
  F  F37  1  1.55831884  0.67861654  -0.49502511  1
  F  F38  1  0.32138346  0.87970230  -0.49502511  1
  F  F39  1  -0.22498551  -0.21303563  1.66169177  1
  F  F40  1  1.01194987  1.22498551  1.66169177  1
  F  F41  1  1.21303563  -0.01194987  1.66169177  1
  F  F42  1  0.87970230  1.55831884  1.49502511  1
  F  F43  1  -0.55831884  0.32138346  1.49502511  1
  F  F44  1  0.67861654  0.12029770  1.49502511  1
  F  F45  1  1.22498551  1.21303563  0.33830823  1
  F  F46  1  -0.01194987  -0.22498551  0.33830823  1
  F  F47  1  -0.21303563  1.01194987  0.33830823  1
  F  F48  1  -0.21303563  -0.22498551  -0.16169177  1
  F  F49  1  1.22498551  1.01194987  -0.16169177  1
  F  F50  1  -0.01194987  1.21303563  -0.16169177  1
  F  F51  1  -0.55831884  0.12029770  1.99502511  1
  F  F52  1  0.67861654  1.55831884  1.99502511  1
  F  F53  1  0.87970230  0.32138346  1.99502511  1
  F  F54  1  0.50000000  0.00000000  0.00000000  1
  F  F55  1  0.00000000  0.50000000  -0.00000000  1
  F  F56  1  0.50000000  0.50000000  0.00000000  1
  F  F57  1  0.00000000  0.50000000  0.50000000  1
  F  F58  1  0.50000000  0.00000000  0.50000000  1
  F  F59  1  0.50000000  0.50000000  0.50000000  1
  F  F60  1  0.16666667  0.33333333  0.33333333  1
  F  F61  1  0.66666667  0.83333333  0.33333333  1
  F  F62  1  0.16666667  0.83333333  0.33333333  1
  F  F63  1  0.66666667  0.83333333  0.83333333  1
  F  F64  1  0.16666667  0.33333333  0.83333333  1
  F  F65  1  0.16666667  0.83333333  0.83333333  1
  F  F66  1  0.83333333  0.66666667  0.66666667  1
  F  F67  1  0.33333333  0.16666667  0.66666667  1
  F  F68  1  0.83333333  0.16666667  0.66666667  1
  F  F69  1  0.33333333  0.16666667  0.16666667  1
  F  F70  1  0.83333333  0.66666667  0.16666667  1
  F  F71  1  0.83333333  0.16666667  0.16666667  1
  Li  Li72  1  0.00000000  0.00000000  0.00000000  1
  Li  Li73  1  0.00000000  0.00000000  0.50000000  1
  Li  Li74  1  0.66666667  0.33333333  0.33333333  1
  Li  Li75  1  0.66666667  0.33333333  0.83333333  1
  Li  Li76  1  0.33333333  0.66666667  0.66666667  1
  Li  Li77  1  0.33333333  0.66666667  0.16666667  1
  Li  Li78  1  0.00000000  0.00000000  0.26896168  1
  Li  Li79  1  0.00000000  0.00000000  0.23103832  1
  Li  Li80  1  0.00000000  0.00000000  0.73103832  1
  Li  Li81  1  0.00000000  0.00000000  0.76896168  1
  Li  Li82  1  0.66666667  0.33333333  0.60229501  1
  Li  Li83  1  0.66666667  0.33333333  0.56437165  1
  Li  Li84  1  0.66666667  0.33333333  0.06437165  1
  Li  Li85  1  0.66666667  0.33333333  0.10229501  1
  Li  Li86  1  0.33333333  0.66666667  0.93562835  1
  Li  Li87  1  0.33333333  0.66666667  0.89770499  1
  Li  Li88  1  0.33333333  0.66666667  0.39770499  1
  Li  Li89  1  0.33333333  0.66666667  0.43562835  1
