# generated using pymatgen
data_Li2Y2Cu3P3Se
_symmetry_space_group_name_H-M   'P 1'
_cell_length_a   4.72718386
_cell_length_b   5.06493720
_cell_length_c   6.67460535
_cell_angle_alpha   95.13865073
_cell_angle_beta   99.61930898
_cell_angle_gamma   106.85686779
_symmetry_Int_Tables_number   1
_chemical_formula_structural   Li2Y2Cu3P3Se
_chemical_formula_sum   'Li2 Y2 Cu3 P3 Se1'
_cell_volume   149.17031953
_cell_formula_units_Z   1
loop_
 _symmetry_equiv_pos_site_id
 _symmetry_equiv_pos_as_xyz
  1  'x, y, z'
loop_
 _atom_site_type_symbol
 _atom_site_label
 _atom_site_symmetry_multiplicity
 _atom_site_fract_x
 _atom_site_fract_y
 _atom_site_fract_z
 _atom_site_occupancy
  Se  Se0  1  0.12500000  0.00000000  0.25000000  1
  Cu  Cu1  1  0.00000000  0.00000000  0.00000000  1
  Cu  Cu2  1  0.37500000  0.00000000  0.25000000  1
  Cu  Cu3  1  0.25000000  0.25000000  0.25000000  1
  Y  Y4  1  0.00000000  0.25000000  0.12500000  1
  Y  Y5  1  0.93555321  0.58831665  0.41655483  1
  P  P6  1  0.17849143  0.89715591  0.53152927  1
  P  P7  1  0.88550944  0.09071721  0.16263233  1
  P  P8  1  0.61772391  0.39912883  0.38705394  1
  Li  Li9  1  0.41114049  0.05368786  0.54308848  1
  Li  Li10  1  0.70422783  0.17764870  0.33395398  1
