# generated using pymatgen
data_Li4TeF2
_symmetry_space_group_name_H-M   'P 1'
_cell_length_a   12.91007218
_cell_length_b   12.91007218
_cell_length_c   12.91007218
_cell_angle_alpha   90.00000000
_cell_angle_beta   90.00000000
_cell_angle_gamma   90.00000000
_symmetry_Int_Tables_number   1
_chemical_formula_structural   Li4TeF2
_chemical_formula_sum   'Li96 Te24 F48'
_cell_volume   2151.72126131
_cell_formula_units_Z   24
loop_
 _symmetry_equiv_pos_site_id
 _symmetry_equiv_pos_as_xyz
  1  'x, y, z'
loop_
 _atom_site_type_symbol
 _atom_site_label
 _atom_site_symmetry_multiplicity
 _atom_site_fract_x
 _atom_site_fract_y
 _atom_site_fract_z
 _atom_site_occupancy
  F  F0  1  0.41396562  0.01512692  0.55219677  1
  F  F1  1  0.08603438  -0.01512692  1.05219677  1
  F  F2  1  -0.41396562  0.51512692  -0.05219677  1
  F  F3  1  0.91396562  0.48487308  -0.55219677  1
  F  F4  1  0.55219677  0.41396562  0.01512692  1
  F  F5  1  1.05219677  0.08603438  -0.01512692  1
  F  F6  1  -0.05219677  -0.41396562  0.51512692  1
  F  F7  1  -0.55219677  0.91396562  0.48487308  1
  F  F8  1  0.01512692  0.55219677  0.41396562  1
  F  F9  1  -0.01512692  1.05219677  0.08603438  1
  F  F10  1  0.51512692  -0.05219677  -0.41396562  1
  F  F11  1  0.48487308  -0.55219677  0.91396562  1
  F  F12  1  0.76512692  0.66396562  -0.30219677  1
  F  F13  1  0.73487308  0.33603438  0.19780323  1
  F  F14  1  0.26512692  -0.16396562  1.30219677  1
  F  F15  1  0.23487308  1.16396562  0.80219677  1
  F  F16  1  1.16396562  0.80219677  0.23487308  1
  F  F17  1  -0.16396562  1.30219677  0.26512692  1
  F  F18  1  0.33603438  0.19780323  0.73487308  1
  F  F19  1  0.66396562  -0.30219677  0.76512692  1
  F  F20  1  1.30219677  0.26512692  -0.16396562  1
  F  F21  1  0.80219677  0.23487308  1.16396562  1
  F  F22  1  -0.30219677  0.76512692  0.66396562  1
  F  F23  1  0.19780323  0.73487308  0.33603438  1
  F  F24  1  0.91396562  0.51512692  1.05219677  1
  F  F25  1  0.58603438  0.48487308  1.55219677  1
  F  F26  1  0.08603438  1.01512692  0.44780323  1
  F  F27  1  1.41396562  0.98487308  -0.05219677  1
  F  F28  1  1.05219677  0.91396562  0.51512692  1
  F  F29  1  1.55219677  0.58603438  0.48487308  1
  F  F30  1  0.44780323  0.08603438  1.01512692  1
  F  F31  1  -0.05219677  1.41396562  0.98487308  1
  F  F32  1  0.51512692  1.05219677  0.91396562  1
  F  F33  1  0.48487308  1.55219677  0.58603438  1
  F  F34  1  1.01512692  0.44780323  0.08603438  1
  F  F35  1  0.98487308  -0.05219677  1.41396562  1
  F  F36  1  1.26512692  1.16396562  0.19780323  1
  F  F37  1  1.23487308  0.83603438  0.69780323  1
  F  F38  1  0.76512692  0.33603438  1.80219677  1
  F  F39  1  0.73487308  1.66396562  1.30219677  1
  F  F40  1  1.66396562  1.30219677  0.73487308  1
  F  F41  1  0.33603438  1.80219677  0.76512692  1
  F  F42  1  0.83603438  0.69780323  1.23487308  1
  F  F43  1  1.16396562  0.19780323  1.26512692  1
  F  F44  1  1.80219677  0.76512692  0.33603438  1
  F  F45  1  1.30219677  0.73487308  1.66396562  1
  F  F46  1  0.19780323  1.26512692  1.16396562  1
  F  F47  1  0.69780323  1.23487308  0.83603438  1
  Li  Li48  1  0.62500000  0.00000000  0.25000000  1
  Li  Li49  1  0.87500000  0.00000000  0.75000000  1
  Li  Li50  1  0.25000000  0.62500000  0.00000000  1
  Li  Li51  1  0.75000000  0.87500000  0.00000000  1
  Li  Li52  1  0.00000000  0.25000000  0.62500000  1
  Li  Li53  1  0.00000000  0.75000000  0.87500000  1
  Li  Li54  1  0.12500000  0.50000000  0.75000000  1
  Li  Li55  1  0.37500000  0.50000000  0.25000000  1
  Li  Li56  1  0.75000000  0.12500000  0.50000000  1
  Li  Li57  1  0.25000000  0.37500000  0.50000000  1
  Li  Li58  1  0.50000000  0.75000000  0.12500000  1
  Li  Li59  1  0.50000000  0.25000000  0.37500000  1
  Li  Li60  1  0.87951571  0.91971229  0.26187042  1
  Li  Li61  1  0.62048429  0.08028771  0.76187042  1
  Li  Li62  1  0.12048429  0.41971229  0.23812958  1
  Li  Li63  1  0.37951571  0.58028771  0.73812958  1
  Li  Li64  1  0.26187042  0.87951571  0.91971229  1
  Li  Li65  1  0.76187042  0.62048429  0.08028771  1
  Li  Li66  1  0.23812958  0.12048429  0.41971229  1
  Li  Li67  1  0.73812958  0.37951571  0.58028771  1
  Li  Li68  1  0.91971229  0.26187042  0.87951571  1
  Li  Li69  1  0.08028771  0.76187042  0.62048429  1
  Li  Li70  1  0.41971229  0.23812958  0.12048429  1
  Li  Li71  1  0.58028771  0.73812958  0.37951571  1
  Li  Li72  1  0.66971229  0.12951571  0.98812958  1
  Li  Li73  1  0.83028771  0.87048429  0.48812958  1
  Li  Li74  1  0.16971229  0.37048429  0.01187042  1
  Li  Li75  1  0.33028771  0.62951571  0.51187042  1
  Li  Li76  1  0.62951571  0.51187042  0.33028771  1
  Li  Li77  1  0.37048429  0.01187042  0.16971229  1
  Li  Li78  1  0.87048429  0.48812958  0.83028771  1
  Li  Li79  1  0.12951571  0.98812958  0.66971229  1
  Li  Li80  1  0.01187042  0.16971229  0.37048429  1
  Li  Li81  1  0.51187042  0.33028771  0.62951571  1
  Li  Li82  1  0.98812958  0.66971229  0.12951571  1
  Li  Li83  1  0.48812958  0.83028771  0.87048429  1
  Li  Li84  1  0.37951571  0.41971229  0.76187042  1
  Li  Li85  1  0.12048429  0.58028771  0.26187042  1
  Li  Li86  1  0.62048429  0.91971229  0.73812958  1
  Li  Li87  1  0.87951571  0.08028771  0.23812958  1
  Li  Li88  1  0.76187042  0.37951571  0.41971229  1
  Li  Li89  1  0.26187042  0.12048429  0.58028771  1
  Li  Li90  1  0.73812958  0.62048429  0.91971229  1
  Li  Li91  1  0.23812958  0.87951571  0.08028771  1
  Li  Li92  1  0.41971229  0.76187042  0.37951571  1
  Li  Li93  1  0.58028771  0.26187042  0.12048429  1
  Li  Li94  1  0.91971229  0.73812958  0.62048429  1
  Li  Li95  1  0.08028771  0.23812958  0.87951571  1
  Li  Li96  1  0.16971229  0.62951571  0.48812958  1
  Li  Li97  1  0.33028771  0.37048429  0.98812958  1
  Li  Li98  1  0.66971229  0.87048429  0.51187042  1
  Li  Li99  1  0.83028771  0.12951571  0.01187042  1
  Li  Li100  1  0.12951571  0.01187042  0.83028771  1
  Li  Li101  1  0.87048429  0.51187042  0.66971229  1
  Li  Li102  1  0.37048429  0.98812958  0.33028771  1
  Li  Li103  1  0.62951571  0.48812958  0.16971229  1
  Li  Li104  1  0.51187042  0.66971229  0.87048429  1
  Li  Li105  1  0.01187042  0.83028771  0.12951571  1
  Li  Li106  1  0.48812958  0.16971229  0.62951571  1
  Li  Li107  1  0.98812958  0.33028771  0.37048429  1
  Li  Li108  1  0.12500000  0.00000000  0.25000000  1
  Li  Li109  1  0.37500000  0.00000000  0.75000000  1
  Li  Li110  1  0.25000000  0.12500000  0.00000000  1
  Li  Li111  1  0.75000000  0.37500000  -0.00000000  1
  Li  Li112  1  0.00000000  0.25000000  0.12500000  1
  Li  Li113  1  0.00000000  0.75000000  0.37500000  1
  Li  Li114  1  0.62500000  0.50000000  0.75000000  1
  Li  Li115  1  0.87500000  0.50000000  0.25000000  1
  Li  Li116  1  0.75000000  0.62500000  0.50000000  1
  Li  Li117  1  0.25000000  0.87500000  0.50000000  1
  Li  Li118  1  0.50000000  0.75000000  0.62500000  1
  Li  Li119  1  0.50000000  0.25000000  0.87500000  1
  Li  Li120  1  0.12500000  0.66602157  0.58397843  1
  Li  Li121  1  0.37500000  0.33397843  0.08397843  1
  Li  Li122  1  0.87500000  0.16602157  0.91602157  1
  Li  Li123  1  0.62500000  0.83397843  0.41602157  1
  Li  Li124  1  0.58397843  0.12500000  0.66602157  1
  Li  Li125  1  0.08397843  0.37500000  0.33397843  1
  Li  Li126  1  0.91602157  0.87500000  0.16602157  1
  Li  Li127  1  0.41602157  0.62500000  0.83397843  1
  Li  Li128  1  0.66602157  0.58397843  0.12500000  1
  Li  Li129  1  0.33397843  0.08397843  0.37500000  1
  Li  Li130  1  0.16602157  0.91602157  0.87500000  1
  Li  Li131  1  0.83397843  0.41602157  0.62500000  1
  Li  Li132  1  0.62500000  0.16602157  0.08397843  1
  Li  Li133  1  0.87500000  0.83397843  0.58397843  1
  Li  Li134  1  0.37500000  0.66602157  0.41602157  1
  Li  Li135  1  0.12500000  0.33397843  0.91602157  1
  Li  Li136  1  0.08397843  0.62500000  0.16602157  1
  Li  Li137  1  0.58397843  0.87500000  0.83397843  1
  Li  Li138  1  0.41602157  0.37500000  0.66602157  1
  Li  Li139  1  0.91602157  0.12500000  0.33397843  1
  Li  Li140  1  0.16602157  0.08397843  0.62500000  1
  Li  Li141  1  0.83397843  0.58397843  0.87500000  1
  Li  Li142  1  0.66602157  0.41602157  0.37500000  1
  Li  Li143  1  0.33397843  0.91602157  0.12500000  1
  Te  Te144  1  0.12500000  0.12500000  0.12500000  1
  Te  Te145  1  0.37500000  0.87500000  0.62500000  1
  Te  Te146  1  0.87500000  0.62500000  0.37500000  1
  Te  Te147  1  0.62500000  0.37500000  0.87500000  1
  Te  Te148  1  0.62500000  0.62500000  0.62500000  1
  Te  Te149  1  0.87500000  0.37500000  0.12500000  1
  Te  Te150  1  0.37500000  0.12500000  0.87500000  1
  Te  Te151  1  0.12500000  0.87500000  0.37500000  1
  Te  Te152  1  0.02530319  0.02530319  0.02530319  1
  Te  Te153  1  0.47469681  0.97469681  0.52530319  1
  Te  Te154  1  0.97469681  0.52530319  0.47469681  1
  Te  Te155  1  0.52530319  0.47469681  0.97469681  1
  Te  Te156  1  0.77530319  0.27530319  0.22469681  1
  Te  Te157  1  0.72469681  0.72469681  0.72469681  1
  Te  Te158  1  0.27530319  0.22469681  0.77530319  1
  Te  Te159  1  0.22469681  0.77530319  0.27530319  1
  Te  Te160  1  0.52530319  0.52530319  0.52530319  1
  Te  Te161  1  0.97469681  0.47469681  0.02530319  1
  Te  Te162  1  0.47469681  0.02530319  0.97469681  1
  Te  Te163  1  0.02530319  0.97469681  0.47469681  1
  Te  Te164  1  0.27530319  0.77530319  0.72469681  1
  Te  Te165  1  0.22469681  0.22469681  0.22469681  1
  Te  Te166  1  0.77530319  0.72469681  0.27530319  1
  Te  Te167  1  0.72469681  0.27530319  0.77530319  1
