# generated using pymatgen
data_LiF
_symmetry_space_group_name_H-M   'P 1'
_cell_length_a   7.47344838
_cell_length_b   7.47344838
_cell_length_c   16.90693614
_cell_angle_alpha   90.00000000
_cell_angle_beta   90.00000000
_cell_angle_gamma   90.00000000
_symmetry_Int_Tables_number   1
_chemical_formula_structural   LiF
_chemical_formula_sum   'Li56 F56'
_cell_volume   944.29347970
_cell_formula_units_Z   56
loop_
 _symmetry_equiv_pos_site_id
 _symmetry_equiv_pos_as_xyz
  1  'x, y, z'
loop_
 _atom_site_type_symbol
 _atom_site_label
 _atom_site_symmetry_multiplicity
 _atom_site_fract_x
 _atom_site_fract_y
 _atom_site_fract_z
 _atom_site_occupancy
  F  F0  1  0.00000000  0.25000000  0.12500000  1
  F  F1  1  0.00000000  0.75000000  0.37500000  1
  F  F2  1  0.00000000  0.75000000  0.87500000  1
  F  F3  1  0.00000000  0.25000000  0.62500000  1
  F  F4  1  0.50000000  0.75000000  0.62500000  1
  F  F5  1  0.50000000  0.25000000  0.87500000  1
  F  F6  1  0.50000000  0.25000000  0.37500000  1
  F  F7  1  0.50000000  0.75000000  0.12500000  1
  F  F8  1  0.19565309  0.26365151  0.32603124  1
  F  F9  1  0.30434691  0.73634849  0.82603124  1
  F  F10  1  0.98634849  0.94565309  0.57603124  1
  F  F11  1  0.51365151  0.05434691  0.07603124  1
  F  F12  1  0.30434691  0.26365151  0.67396876  1
  F  F13  1  0.19565309  0.73634849  0.17396876  1
  F  F14  1  0.51365151  0.94565309  0.42396876  1
  F  F15  1  0.98634849  0.05434691  0.92396876  1
  F  F16  1  0.80434691  0.73634849  0.67396876  1
  F  F17  1  0.69565309  0.26365151  0.17396876  1
  F  F18  1  0.01365151  0.05434691  0.42396876  1
  F  F19  1  0.48634849  0.94565309  0.92396876  1
  F  F20  1  0.69565309  0.73634849  0.32603124  1
  F  F21  1  0.80434691  0.26365151  0.82603124  1
  F  F22  1  0.48634849  0.05434691  0.57603124  1
  F  F23  1  0.01365151  0.94565309  0.07603124  1
  F  F24  1  0.69565309  0.76365151  0.82603124  1
  F  F25  1  0.80434691  0.23634849  0.32603124  1
  F  F26  1  0.48634849  0.44565309  0.07603124  1
  F  F27  1  0.01365151  0.55434691  0.57603124  1
  F  F28  1  0.80434691  0.76365151  0.17396876  1
  F  F29  1  0.69565309  0.23634849  0.67396876  1
  F  F30  1  0.01365151  0.44565309  0.92396876  1
  F  F31  1  0.48634849  0.55434691  0.42396876  1
  F  F32  1  0.30434691  0.23634849  0.17396876  1
  F  F33  1  0.19565309  0.76365151  0.67396876  1
  F  F34  1  0.51365151  0.55434691  0.92396876  1
  F  F35  1  0.98634849  0.44565309  0.42396876  1
  F  F36  1  0.19565309  0.23634849  0.82603124  1
  F  F37  1  0.30434691  0.76365151  0.32603124  1
  F  F38  1  0.98634849  0.55434691  0.07603124  1
  F  F39  1  0.51365151  0.44565309  0.57603124  1
  F  F40  1  0.21580876  0.46580876  0.12500000  1
  F  F41  1  0.28419124  0.53419124  0.62500000  1
  F  F42  1  0.78419124  0.96580876  0.37500000  1
  F  F43  1  0.71580876  0.03419124  0.87500000  1
  F  F44  1  0.78419124  0.53419124  0.87500000  1
  F  F45  1  0.71580876  0.46580876  0.37500000  1
  F  F46  1  0.21580876  0.03419124  0.62500000  1
  F  F47  1  0.28419124  0.96580876  0.12500000  1
  F  F48  1  0.71580876  0.96580876  0.62500000  1
  F  F49  1  0.78419124  0.03419124  0.12500000  1
  F  F50  1  0.28419124  0.46580876  0.87500000  1
  F  F51  1  0.21580876  0.53419124  0.37500000  1
  F  F52  1  0.28419124  0.03419124  0.37500000  1
  F  F53  1  0.21580876  0.96580876  0.87500000  1
  F  F54  1  0.71580876  0.53419124  0.12500000  1
  F  F55  1  0.78419124  0.46580876  0.62500000  1
  Li  Li56  1  0.92789061  0.99902752  0.78960018  1
  Li  Li57  1  -0.42789061  -0.99902752  1.28960018  1
  Li  Li58  1  -0.74902752  1.67789061  1.03960018  1
  Li  Li59  1  1.24902752  -0.67789061  1.53960018  1
  Li  Li60  1  -0.42789061  0.99902752  -0.78960018  1
  Li  Li61  1  0.92789061  -0.99902752  -0.28960018  1
  Li  Li62  1  1.24902752  1.67789061  -0.03960018  1
  Li  Li63  1  -0.74902752  -0.67789061  -0.53960018  1
  Li  Li64  1  -0.92789061  -0.99902752  -0.78960018  1
  Li  Li65  1  1.42789061  0.99902752  -0.28960018  1
  Li  Li66  1  1.74902752  -0.67789061  -0.03960018  1
  Li  Li67  1  -0.24902752  1.67789061  -0.53960018  1
  Li  Li68  1  1.42789061  -0.99902752  0.78960018  1
  Li  Li69  1  -0.92789061  0.99902752  1.28960018  1
  Li  Li70  1  -0.24902752  -0.67789061  1.03960018  1
  Li  Li71  1  1.74902752  1.67789061  1.53960018  1
  Li  Li72  1  1.42789061  1.49902752  1.28960018  1
  Li  Li73  1  0.07210939  -0.49902752  1.78960018  1
  Li  Li74  1  -0.24902752  2.17789061  1.53960018  1
  Li  Li75  1  1.74902752  -0.17789061  2.03960018  1
  Li  Li76  1  0.07210939  1.49902752  -0.28960018  1
  Li  Li77  1  1.42789061  -0.49902752  0.21039982  1
  Li  Li78  1  1.74902752  2.17789061  0.46039982  1
  Li  Li79  1  -0.24902752  -0.17789061  -0.03960018  1
  Li  Li80  1  -0.42789061  -0.49902752  -0.28960018  1
  Li  Li81  1  1.92789061  1.49902752  0.21039982  1
  Li  Li82  1  2.24902752  -0.17789061  0.46039982  1
  Li  Li83  1  0.25097248  2.17789061  -0.03960018  1
  Li  Li84  1  1.92789061  -0.49902752  1.28960018  1
  Li  Li85  1  -0.42789061  1.49902752  1.78960018  1
  Li  Li86  1  0.25097248  -0.17789061  1.53960018  1
  Li  Li87  1  2.24902752  2.17789061  2.03960018  1
  Li  Li88  1  0.36768862  0.00000000  0.25000000  1
  Li  Li89  1  0.13231138  0.00000000  0.75000000  1
  Li  Li90  1  0.25000000  0.11768862  0.50000000  1
  Li  Li91  1  0.25000000  0.88231138  0.00000000  1
  Li  Li92  1  0.63231138  0.00000000  0.75000000  1
  Li  Li93  1  0.86768862  0.00000000  0.25000000  1
  Li  Li94  1  0.75000000  0.88231138  0.50000000  1
  Li  Li95  1  0.75000000  0.11768862  0.00000000  1
  Li  Li96  1  0.86768862  0.50000000  0.75000000  1
  Li  Li97  1  0.63231138  0.50000000  0.25000000  1
  Li  Li98  1  0.75000000  0.61768862  0.00000000  1
  Li  Li99  1  0.75000000  0.38231138  0.50000000  1
  Li  Li100  1  0.13231138  0.50000000  0.25000000  1
  Li  Li101  1  0.36768862  0.50000000  0.75000000  1
  Li  Li102  1  0.25000000  0.38231138  0.00000000  1
  Li  Li103  1  0.25000000  0.61768862  0.50000000  1
  Li  Li104  1  0.00000000  0.25000000  0.37500000  1
  Li  Li105  1  0.00000000  0.75000000  0.62500000  1
  Li  Li106  1  0.50000000  0.25000000  0.62500000  1
  Li  Li107  1  0.50000000  0.75000000  0.37500000  1
  Li  Li108  1  0.50000000  0.75000000  0.87500000  1
  Li  Li109  1  0.50000000  0.25000000  0.12500000  1
  Li  Li110  1  0.00000000  0.75000000  0.12500000  1
  Li  Li111  1  0.00000000  0.25000000  0.87500000  1
