# generated using pymatgen
data_LiF
_symmetry_space_group_name_H-M   'P 1'
_cell_length_a   7.49111710
_cell_length_b   7.49111710
_cell_length_c   6.56106965
_cell_angle_alpha   90.00000000
_cell_angle_beta   90.00000000
_cell_angle_gamma   120.00000000
_symmetry_Int_Tables_number   1
_chemical_formula_structural   LiF
_chemical_formula_sum   'Li8 F8'
_cell_volume   318.85883218
_cell_formula_units_Z   8
loop_
 _symmetry_equiv_pos_site_id
 _symmetry_equiv_pos_as_xyz
  1  'x, y, z'
loop_
 _atom_site_type_symbol
 _atom_site_label
 _atom_site_symmetry_multiplicity
 _atom_site_fract_x
 _atom_site_fract_y
 _atom_site_fract_z
 _atom_site_occupancy
  F  F0  1  0.66666667  0.33333333  0.00000000  1
  F  F1  1  0.59162478  0.90773409  0.15672146  1
  F  F2  1  0.09226591  0.68389069  0.15672146  1
  F  F3  1  0.31610931  0.40837522  0.15672146  1
  F  F4  1  0.09226591  0.40837522  0.84327854  1
  F  F5  1  0.31610931  0.90773409  0.84327854  1
  F  F6  1  0.59162478  0.68389069  0.84327854  1
  F  F7  1  0.00000000  0.00000000  0.00000000  1
  Li  Li8  1  0.00000000  0.00000000  0.50000000  1
  Li  Li9  1  0.53227973  0.34637810  0.28160601  1
  Li  Li10  1  -0.34637810  0.18590162  0.28160601  1
  Li  Li11  1  -0.18590162  -0.53227973  0.28160601  1
  Li  Li12  1  -0.34637810  -0.53227973  -0.28160601  1
  Li  Li13  1  -0.18590162  0.34637810  -0.28160601  1
  Li  Li14  1  0.53227973  0.18590162  -0.28160601  1
  Li  Li15  1  0.66666667  0.33333333  0.50000000  1
