# generated using pymatgen
data_Li3Y2(P2Se)2
_symmetry_space_group_name_H-M   'P 1'
_cell_length_a   4.65392582
_cell_length_b   4.96148730
_cell_length_c   7.05402696
_cell_angle_alpha   95.33169048
_cell_angle_beta   101.61131342
_cell_angle_gamma   111.41528161
_symmetry_Int_Tables_number   1
_chemical_formula_structural   Li3Y2(P2Se)2
_chemical_formula_sum   'Li3 Y2 P4 Se2'
_cell_volume   146.03754706
_cell_formula_units_Z   1
loop_
 _symmetry_equiv_pos_site_id
 _symmetry_equiv_pos_as_xyz
  1  'x, y, z'
loop_
 _atom_site_type_symbol
 _atom_site_label
 _atom_site_symmetry_multiplicity
 _atom_site_fract_x
 _atom_site_fract_y
 _atom_site_fract_z
 _atom_site_occupancy
  P  P0  1  0.00000000  0.00000000  0.00000000  1
  P  P1  1  0.33300000  0.66700000  0.25000000  1
  P  P2  1  0.66700000  0.33300000  0.50000000  1
  P  P3  1  0.00000000  0.00000000  0.75000000  1
  Se  Se4  1  0.27730160  0.44195719  0.26610783  1
  Se  Se5  1  0.58135111  0.73892721  0.40994712  1
  Li  Li6  1  0.85936574  0.02085693  0.70626489  1
  Li  Li7  1  0.83813676  0.67414176  0.21754433  1
  Li  Li8  1  0.73494940  0.94730145  0.04022447  1
  Y  Y9  1  0.30082206  0.19155932  0.76858627  1
  Y  Y10  1  0.92155857  0.07009198  0.80042274  1
