# generated using pymatgen
data_LiYMoAs2P
_symmetry_space_group_name_H-M   'P 1'
_cell_length_a   5.23746983
_cell_length_b   5.34707864
_cell_length_c   6.93153173
_cell_angle_alpha   93.88263429
_cell_angle_beta   98.67437950
_cell_angle_gamma   105.85919842
_symmetry_Int_Tables_number   1
_chemical_formula_structural   LiYMoAs2P
_chemical_formula_sum   'Li2 Y2 Mo2 As4 P2'
_cell_volume   183.37879483
_cell_formula_units_Z   2
loop_
 _symmetry_equiv_pos_site_id
 _symmetry_equiv_pos_as_xyz
  1  'x, y, z'
loop_
 _atom_site_type_symbol
 _atom_site_label
 _atom_site_symmetry_multiplicity
 _atom_site_fract_x
 _atom_site_fract_y
 _atom_site_fract_z
 _atom_site_occupancy
  P  P0  1  0.00000000  0.00000000  0.00000000  1
  P  P1  1  0.50000000  0.50000000  0.50000000  1
  Mo  Mo2  1  0.25000000  0.25000000  0.25000000  1
  Mo  Mo3  1  0.75000000  0.25000000  0.00000000  1
  As  As4  1  0.25000000  0.75000000  0.50000000  1
  As  As5  1  0.09182999  0.95732529  0.09231158  1
  As  As6  1  0.89043775  0.95793900  0.14272731  1
  As  As7  1  0.14354359  0.32306126  0.94311644  1
  Li  Li8  1  0.63199651  0.88532622  0.09523181  1
  Li  Li9  1  0.11560968  0.89683888  0.49448256  1
  Y  Y10  1  0.33281105  0.36474717  0.16953048  1
  Y  Y11  1  0.34774687  0.18593586  0.84845031  1
