# generated using pymatgen
data_Li3Y2P3Se2
_symmetry_space_group_name_H-M   'P 1'
_cell_length_a   4.44560224
_cell_length_b   4.77449199
_cell_length_c   6.86108260
_cell_angle_alpha   95.73474421
_cell_angle_beta   101.99682015
_cell_angle_gamma   110.64196169
_symmetry_Int_Tables_number   1
_chemical_formula_structural   Li3Y2P3Se2
_chemical_formula_sum   'Li3 Y2 P3 Se2'
_cell_volume   130.89617024
_cell_formula_units_Z   1
loop_
 _symmetry_equiv_pos_site_id
 _symmetry_equiv_pos_as_xyz
  1  'x, y, z'
loop_
 _atom_site_type_symbol
 _atom_site_label
 _atom_site_symmetry_multiplicity
 _atom_site_fract_x
 _atom_site_fract_y
 _atom_site_fract_z
 _atom_site_occupancy
  Se  Se0  1  0.00000000  0.00000000  0.00000000  1
  Se  Se1  1  0.33300000  0.66700000  0.25000000  1
  P  P2  1  0.66700000  0.33300000  0.50000000  1
  P  P3  1  0.00000000  0.00000000  0.75000000  1
  P  P4  1  0.40384656  0.50535559  0.58125421  1
  Li  Li5  1  0.17947734  0.33455182  0.19052817  1
  Li  Li6  1  0.02910930  0.61786072  0.29696102  1
  Li  Li7  1  0.15109836  0.56016219  0.27439625  1
  Y  Y8  1  0.79078815  0.93377518  0.61558526  1
  Y  Y9  1  0.41430502  0.90036514  0.75428941  1
