# generated using pymatgen
data_Li5Y2Al(P2Se)2
_symmetry_space_group_name_H-M   'P 1'
_cell_length_a   6.62893423
_cell_length_b   7.00926362
_cell_length_c   7.84100684
_cell_angle_alpha   91.78581228
_cell_angle_beta   93.88912789
_cell_angle_gamma   97.17289818
_symmetry_Int_Tables_number   1
_chemical_formula_structural   Li5Y2Al(P2Se)2
_chemical_formula_sum   'Li5 Y2 Al1 P4 Se2'
_cell_volume   360.35130919
_cell_formula_units_Z   1
loop_
 _symmetry_equiv_pos_site_id
 _symmetry_equiv_pos_as_xyz
  1  'x, y, z'
loop_
 _atom_site_type_symbol
 _atom_site_label
 _atom_site_symmetry_multiplicity
 _atom_site_fract_x
 _atom_site_fract_y
 _atom_site_fract_z
 _atom_site_occupancy
  Al  Al0  1  0.12500000  0.00000000  0.25000000  1
  Se  Se1  1  0.00000000  0.00000000  0.00000000  1
  Se  Se2  1  0.37500000  0.00000000  0.25000000  1
  P  P3  1  0.25000000  0.25000000  0.25000000  1
  P  P4  1  0.00000000  0.25000000  0.12500000  1
  P  P5  1  0.91441687  0.33640226  0.67248395  1
  P  P6  1  0.59698027  0.33533363  0.70903105  1
  Li  Li7  1  0.69007357  0.84600565  0.87940369  1
  Li  Li8  1  0.73492295  0.49658380  0.25825111  1
  Li  Li9  1  0.27810495  0.44181058  0.61483064  1
  Li  Li10  1  0.10166129  0.23205119  0.15323277  1
  Li  Li11  1  0.25227371  0.13531949  0.49471230  1
  Y  Y12  1  0.05399618  0.80660268  0.39623518  1
  Y  Y13  1  0.43514242  0.73945634  0.13229979  1
