# generated using pymatgen
data_Li2Y2As2P3Se
_symmetry_space_group_name_H-M   'P 1'
_cell_length_a   5.04417987
_cell_length_b   5.01646078
_cell_length_c   7.21122346
_cell_angle_alpha   94.74660179
_cell_angle_beta   100.33711190
_cell_angle_gamma   109.06521289
_symmetry_Int_Tables_number   1
_chemical_formula_structural   Li2Y2As2P3Se
_chemical_formula_sum   'Li2 Y2 As2 P3 Se1'
_cell_volume   167.69168055
_cell_formula_units_Z   1
loop_
 _symmetry_equiv_pos_site_id
 _symmetry_equiv_pos_as_xyz
  1  'x, y, z'
loop_
 _atom_site_type_symbol
 _atom_site_label
 _atom_site_symmetry_multiplicity
 _atom_site_fract_x
 _atom_site_fract_y
 _atom_site_fract_z
 _atom_site_occupancy
  Se  Se0  1  0.12500000  0.00000000  0.25000000  1
  P  P1  1  0.00000000  0.00000000  0.00000000  1
  P  P2  1  0.37500000  0.00000000  0.25000000  1
  P  P3  1  0.25000000  0.25000000  0.25000000  1
  As  As4  1  0.00000000  0.25000000  0.12500000  1
  As  As5  1  0.23397150  0.93069481  0.34285515  1
  Li  Li6  1  0.73314592  0.60585225  0.19283497  1
  Li  Li7  1  0.53378834  0.18569076  0.82245983  1
  Y  Y8  1  0.77875067  0.58950964  0.34150775  1
  Y  Y9  1  0.89759321  0.52906868  0.06696919  1
