# generated using pymatgen
data_Li4TeF2
_symmetry_space_group_name_H-M   'P 1'
_cell_length_a   11.69366797
_cell_length_b   11.69366797
_cell_length_c   11.69366797
_cell_angle_alpha   90.00000000
_cell_angle_beta   90.00000000
_cell_angle_gamma   90.00000000
_symmetry_Int_Tables_number   1
_chemical_formula_structural   Li4TeF2
_chemical_formula_sum   'Li96 Te24 F48'
_cell_volume   1599.01403186
_cell_formula_units_Z   24
loop_
 _symmetry_equiv_pos_site_id
 _symmetry_equiv_pos_as_xyz
  1  'x, y, z'
loop_
 _atom_site_type_symbol
 _atom_site_label
 _atom_site_symmetry_multiplicity
 _atom_site_fract_x
 _atom_site_fract_y
 _atom_site_fract_z
 _atom_site_occupancy
  F  F0  1  0.38691695  0.15247505  0.08014230  1
  F  F1  1  0.11308305  -0.15247505  0.58014230  1
  F  F2  1  -0.38691695  0.65247505  0.41985770  1
  F  F3  1  0.88691695  0.34752495  -0.08014230  1
  F  F4  1  0.08014230  0.38691695  0.15247505  1
  F  F5  1  0.58014230  0.11308305  -0.15247505  1
  F  F6  1  0.41985770  -0.38691695  0.65247505  1
  F  F7  1  -0.08014230  0.88691695  0.34752495  1
  F  F8  1  0.15247505  0.08014230  0.38691695  1
  F  F9  1  -0.15247505  0.58014230  0.11308305  1
  F  F10  1  0.65247505  0.41985770  -0.38691695  1
  F  F11  1  0.34752495  -0.08014230  0.88691695  1
  F  F12  1  0.90247505  0.63691695  0.16985770  1
  F  F13  1  0.59752495  0.36308305  0.66985770  1
  F  F14  1  0.40247505  -0.13691695  0.83014230  1
  F  F15  1  0.09752495  1.13691695  0.33014230  1
  F  F16  1  1.13691695  0.33014230  0.09752495  1
  F  F17  1  -0.13691695  0.83014230  0.40247505  1
  F  F18  1  0.36308305  0.66985770  0.59752495  1
  F  F19  1  0.63691695  0.16985770  0.90247505  1
  F  F20  1  0.83014230  0.40247505  -0.13691695  1
  F  F21  1  0.33014230  0.09752495  1.13691695  1
  F  F22  1  0.16985770  0.90247505  0.63691695  1
  F  F23  1  0.66985770  0.59752495  0.36308305  1
  F  F24  1  0.88691695  0.65247505  0.58014230  1
  F  F25  1  0.61308305  0.34752495  1.08014230  1
  F  F26  1  0.11308305  1.15247505  0.91985770  1
  F  F27  1  1.38691695  0.84752495  0.41985770  1
  F  F28  1  0.58014230  0.88691695  0.65247505  1
  F  F29  1  1.08014230  0.61308305  0.34752495  1
  F  F30  1  0.91985770  0.11308305  1.15247505  1
  F  F31  1  0.41985770  1.38691695  0.84752495  1
  F  F32  1  0.65247505  0.58014230  0.88691695  1
  F  F33  1  0.34752495  1.08014230  0.61308305  1
  F  F34  1  1.15247505  0.91985770  0.11308305  1
  F  F35  1  0.84752495  0.41985770  1.38691695  1
  F  F36  1  1.40247505  1.13691695  0.66985770  1
  F  F37  1  1.09752495  0.86308305  1.16985770  1
  F  F38  1  0.90247505  0.36308305  1.33014230  1
  F  F39  1  0.59752495  1.63691695  0.83014230  1
  F  F40  1  1.63691695  0.83014230  0.59752495  1
  F  F41  1  0.36308305  1.33014230  0.90247505  1
  F  F42  1  0.86308305  1.16985770  1.09752495  1
  F  F43  1  1.13691695  0.66985770  1.40247505  1
  F  F44  1  1.33014230  0.90247505  0.36308305  1
  F  F45  1  0.83014230  0.59752495  1.63691695  1
  F  F46  1  0.66985770  1.40247505  1.13691695  1
  F  F47  1  1.16985770  1.09752495  0.86308305  1
  Li  Li48  1  0.98479799  0.92845968  0.10732778  1
  Li  Li49  1  0.51520201  0.07154032  0.60732778  1
  Li  Li50  1  0.01520201  0.42845968  0.39267222  1
  Li  Li51  1  0.48479799  0.57154032  0.89267222  1
  Li  Li52  1  0.10732778  0.98479799  0.92845968  1
  Li  Li53  1  0.60732778  0.51520201  0.07154032  1
  Li  Li54  1  0.39267222  0.01520201  0.42845968  1
  Li  Li55  1  0.89267222  0.48479799  0.57154032  1
  Li  Li56  1  0.92845968  0.10732778  0.98479799  1
  Li  Li57  1  0.07154032  0.60732778  0.51520201  1
  Li  Li58  1  0.42845968  0.39267222  0.01520201  1
  Li  Li59  1  0.57154032  0.89267222  0.48479799  1
  Li  Li60  1  0.67845968  0.23479799  0.14267222  1
  Li  Li61  1  0.82154032  0.76520201  0.64267222  1
  Li  Li62  1  0.17845968  0.26520201  0.85732778  1
  Li  Li63  1  0.32154032  0.73479799  0.35732778  1
  Li  Li64  1  0.73479799  0.35732778  0.32154032  1
  Li  Li65  1  0.26520201  0.85732778  0.17845968  1
  Li  Li66  1  0.76520201  0.64267222  0.82154032  1
  Li  Li67  1  0.23479799  0.14267222  0.67845968  1
  Li  Li68  1  0.85732778  0.17845968  0.26520201  1
  Li  Li69  1  0.35732778  0.32154032  0.73479799  1
  Li  Li70  1  0.14267222  0.67845968  0.23479799  1
  Li  Li71  1  0.64267222  0.82154032  0.76520201  1
  Li  Li72  1  0.48479799  0.42845968  0.60732778  1
  Li  Li73  1  0.01520201  0.57154032  0.10732778  1
  Li  Li74  1  0.51520201  0.92845968  0.89267222  1
  Li  Li75  1  0.98479799  0.07154032  0.39267222  1
  Li  Li76  1  0.60732778  0.48479799  0.42845968  1
  Li  Li77  1  0.10732778  0.01520201  0.57154032  1
  Li  Li78  1  0.89267222  0.51520201  0.92845968  1
  Li  Li79  1  0.39267222  0.98479799  0.07154032  1
  Li  Li80  1  0.42845968  0.60732778  0.48479799  1
  Li  Li81  1  0.57154032  0.10732778  0.01520201  1
  Li  Li82  1  0.92845968  0.89267222  0.51520201  1
  Li  Li83  1  0.07154032  0.39267222  0.98479799  1
  Li  Li84  1  0.17845968  0.73479799  0.64267222  1
  Li  Li85  1  0.32154032  0.26520201  0.14267222  1
  Li  Li86  1  0.67845968  0.76520201  0.35732778  1
  Li  Li87  1  0.82154032  0.23479799  0.85732778  1
  Li  Li88  1  0.23479799  0.85732778  0.82154032  1
  Li  Li89  1  0.76520201  0.35732778  0.67845968  1
  Li  Li90  1  0.26520201  0.14267222  0.32154032  1
  Li  Li91  1  0.73479799  0.64267222  0.17845968  1
  Li  Li92  1  0.35732778  0.67845968  0.76520201  1
  Li  Li93  1  0.85732778  0.82154032  0.23479799  1
  Li  Li94  1  0.64267222  0.17845968  0.73479799  1
  Li  Li95  1  0.14267222  0.32154032  0.26520201  1
  Li  Li96  1  0.12767880  0.94898464  0.77743502  1
  Li  Li97  1  0.37232120  0.05101536  0.27743502  1
  Li  Li98  1  0.87232120  0.44898464  0.72256498  1
  Li  Li99  1  0.62767880  0.55101536  0.22256498  1
  Li  Li100  1  0.77743502  0.12767880  0.94898464  1
  Li  Li101  1  0.27743502  0.37232120  0.05101536  1
  Li  Li102  1  0.72256498  0.87232120  0.44898464  1
  Li  Li103  1  0.22256498  0.62767880  0.55101536  1
  Li  Li104  1  0.94898464  0.77743502  0.12767880  1
  Li  Li105  1  0.05101536  0.27743502  0.37232120  1
  Li  Li106  1  0.44898464  0.72256498  0.87232120  1
  Li  Li107  1  0.55101536  0.22256498  0.62767880  1
  Li  Li108  1  0.69898464  0.37767880  0.47256498  1
  Li  Li109  1  0.80101536  0.62232120  0.97256498  1
  Li  Li110  1  0.19898464  0.12232120  0.52743502  1
  Li  Li111  1  0.30101536  0.87767880  0.02743502  1
  Li  Li112  1  0.87767880  0.02743502  0.30101536  1
  Li  Li113  1  0.12232120  0.52743502  0.19898464  1
  Li  Li114  1  0.62232120  0.97256498  0.80101536  1
  Li  Li115  1  0.37767880  0.47256498  0.69898464  1
  Li  Li116  1  0.52743502  0.19898464  0.12232120  1
  Li  Li117  1  0.02743502  0.30101536  0.87767880  1
  Li  Li118  1  0.47256498  0.69898464  0.37767880  1
  Li  Li119  1  0.97256498  0.80101536  0.62232120  1
  Li  Li120  1  0.62767880  0.44898464  0.27743502  1
  Li  Li121  1  0.87232120  0.55101536  0.77743502  1
  Li  Li122  1  0.37232120  0.94898464  0.22256498  1
  Li  Li123  1  0.12767880  0.05101536  0.72256498  1
  Li  Li124  1  0.27743502  0.62767880  0.44898464  1
  Li  Li125  1  0.77743502  0.87232120  0.55101536  1
  Li  Li126  1  0.22256498  0.37232120  0.94898464  1
  Li  Li127  1  0.72256498  0.12767880  0.05101536  1
  Li  Li128  1  0.44898464  0.27743502  0.62767880  1
  Li  Li129  1  0.55101536  0.77743502  0.87232120  1
  Li  Li130  1  0.94898464  0.22256498  0.37232120  1
  Li  Li131  1  0.05101536  0.72256498  0.12767880  1
  Li  Li132  1  0.19898464  0.87767880  0.97256498  1
  Li  Li133  1  0.30101536  0.12232120  0.47256498  1
  Li  Li134  1  0.69898464  0.62232120  0.02743502  1
  Li  Li135  1  0.80101536  0.37767880  0.52743502  1
  Li  Li136  1  0.37767880  0.52743502  0.80101536  1
  Li  Li137  1  0.62232120  0.02743502  0.69898464  1
  Li  Li138  1  0.12232120  0.47256498  0.30101536  1
  Li  Li139  1  0.87767880  0.97256498  0.19898464  1
  Li  Li140  1  0.02743502  0.69898464  0.62232120  1
  Li  Li141  1  0.52743502  0.80101536  0.37767880  1
  Li  Li142  1  0.97256498  0.19898464  0.87767880  1
  Li  Li143  1  0.47256498  0.30101536  0.12232120  1
  Te  Te144  1  0.12500000  0.21150004  0.46150004  1
  Te  Te145  1  0.37500000  0.78849996  0.96150004  1
  Te  Te146  1  0.87500000  0.71150004  0.03849996  1
  Te  Te147  1  0.62500000  0.28849996  0.53849996  1
  Te  Te148  1  0.46150004  0.12500000  0.21150004  1
  Te  Te149  1  0.96150004  0.37500000  0.78849996  1
  Te  Te150  1  0.03849996  0.87500000  0.71150004  1
  Te  Te151  1  0.53849996  0.62500000  0.28849996  1
  Te  Te152  1  0.21150004  0.46150004  0.12500000  1
  Te  Te153  1  0.78849996  0.96150004  0.37500000  1
  Te  Te154  1  0.71150004  0.03849996  0.87500000  1
  Te  Te155  1  0.28849996  0.53849996  0.62500000  1
  Te  Te156  1  0.62500000  0.71150004  0.96150004  1
  Te  Te157  1  0.87500000  0.28849996  0.46150004  1
  Te  Te158  1  0.37500000  0.21150004  0.53849996  1
  Te  Te159  1  0.12500000  0.78849996  0.03849996  1
  Te  Te160  1  0.96150004  0.62500000  0.71150004  1
  Te  Te161  1  0.46150004  0.87500000  0.28849996  1
  Te  Te162  1  0.53849996  0.37500000  0.21150004  1
  Te  Te163  1  0.03849996  0.12500000  0.78849996  1
  Te  Te164  1  0.71150004  0.96150004  0.62500000  1
  Te  Te165  1  0.28849996  0.46150004  0.87500000  1
  Te  Te166  1  0.21150004  0.53849996  0.37500000  1
  Te  Te167  1  0.78849996  0.03849996  0.12500000  1
