# generated using pymatgen
data_Li2Y2MoP3Se2
_symmetry_space_group_name_H-M   'P 1'
_cell_length_a   5.32978640
_cell_length_b   5.41709669
_cell_length_c   7.21316556
_cell_angle_alpha   94.17663853
_cell_angle_beta   99.09585042
_cell_angle_gamma   106.77589702
_symmetry_Int_Tables_number   1
_chemical_formula_structural   Li2Y2MoP3Se2
_chemical_formula_sum   'Li2 Y2 Mo1 P3 Se2'
_cell_volume   195.33596095
_cell_formula_units_Z   1
loop_
 _symmetry_equiv_pos_site_id
 _symmetry_equiv_pos_as_xyz
  1  'x, y, z'
loop_
 _atom_site_type_symbol
 _atom_site_label
 _atom_site_symmetry_multiplicity
 _atom_site_fract_x
 _atom_site_fract_y
 _atom_site_fract_z
 _atom_site_occupancy
  Se  Se0  1  0.00000000  0.00000000  0.00000000  1
  Se  Se1  1  0.50000000  0.50000000  0.50000000  1
  P  P2  1  0.25000000  0.25000000  0.25000000  1
  P  P3  1  0.75000000  0.25000000  0.00000000  1
  P  P4  1  0.25000000  0.75000000  0.50000000  1
  Mo  Mo5  1  0.93561653  0.98260661  0.84652469  1
  Li  Li6  1  0.64308329  0.21872703  0.29798607  1
  Li  Li7  1  0.16086360  0.10215864  0.90289155  1
  Y  Y8  1  0.08844639  0.53744570  0.07043952  1
  Y  Y9  1  0.94609557  0.52630489  0.26810808  1
