# generated using pymatgen
data_LiF
_symmetry_space_group_name_H-M   'P 1'
_cell_length_a   6.21785315
_cell_length_b   9.78407935
_cell_length_c   8.46638605
_cell_angle_alpha   90.00000000
_cell_angle_beta   90.00000000
_cell_angle_gamma   90.00000000
_symmetry_Int_Tables_number   1
_chemical_formula_structural   LiF
_chemical_formula_sum   'Li32 F32'
_cell_volume   515.06079576
_cell_formula_units_Z   32
loop_
 _symmetry_equiv_pos_site_id
 _symmetry_equiv_pos_as_xyz
  1  'x, y, z'
loop_
 _atom_site_type_symbol
 _atom_site_label
 _atom_site_symmetry_multiplicity
 _atom_site_fract_x
 _atom_site_fract_y
 _atom_site_fract_z
 _atom_site_occupancy
  F  F0  1  0.09101385  0.94533739  0.62252520  1
  F  F1  1  0.90898615  0.05466261  0.62252520  1
  F  F2  1  0.40898615  0.44533739  0.37747480  1
  F  F3  1  0.59101385  0.55466261  0.37747480  1
  F  F4  1  0.90898615  0.05466261  0.37747480  1
  F  F5  1  0.09101385  0.94533739  0.37747480  1
  F  F6  1  0.59101385  0.55466261  0.62252520  1
  F  F7  1  0.40898615  0.44533739  0.62252520  1
  F  F8  1  0.00000000  0.50000000  0.36509471  1
  F  F9  1  0.50000000  0.00000000  0.63490529  1
  F  F10  1  0.00000000  0.50000000  0.63490529  1
  F  F11  1  0.50000000  0.00000000  0.36509471  1
  F  F12  1  0.03717424  0.04989300  0.89827789  1
  F  F13  1  0.96282576  0.95010700  0.89827789  1
  F  F14  1  0.46282576  0.54989300  0.10172211  1
  F  F15  1  0.53717424  0.45010700  0.10172211  1
  F  F16  1  0.96282576  0.95010700  0.10172211  1
  F  F17  1  0.03717424  0.04989300  0.10172211  1
  F  F18  1  0.53717424  0.45010700  0.89827789  1
  F  F19  1  0.46282576  0.54989300  0.89827789  1
  F  F20  1  0.81698722  0.52343924  0.40057061  1
  F  F21  1  0.18301278  0.47656076  0.40057061  1
  F  F22  1  0.68301278  0.02343924  0.59942939  1
  F  F23  1  0.31698722  0.97656076  0.59942939  1
  F  F24  1  0.18301278  0.47656076  0.59942939  1
  F  F25  1  0.81698722  0.52343924  0.59942939  1
  F  F26  1  0.31698722  0.97656076  0.40057061  1
  F  F27  1  0.68301278  0.02343924  0.40057061  1
  F  F28  1  0.00000000  0.00000000  0.79060823  1
  F  F29  1  0.50000000  0.50000000  0.20939177  1
  F  F30  1  0.00000000  0.00000000  0.20939177  1
  F  F31  1  0.50000000  0.50000000  0.79060823  1
  Li  Li32  1  0.50512916  0.65617203  0.80384244  1
  Li  Li33  1  -0.50512916  -0.65617203  0.80384244  1
  Li  Li34  1  -0.00512916  1.15617203  -0.80384244  1
  Li  Li35  1  1.00512916  -0.15617203  -0.80384244  1
  Li  Li36  1  -0.50512916  -0.65617203  -0.80384244  1
  Li  Li37  1  0.50512916  0.65617203  -0.80384244  1
  Li  Li38  1  1.00512916  -0.15617203  0.80384244  1
  Li  Li39  1  -0.00512916  1.15617203  0.80384244  1
  Li  Li40  1  0.32604418  0.17238417  0.35593719  1
  Li  Li41  1  0.67395582  0.82761583  0.35593719  1
  Li  Li42  1  0.17395582  0.67238417  0.64406281  1
  Li  Li43  1  0.82604418  0.32761583  0.64406281  1
  Li  Li44  1  0.67395582  0.82761583  0.64406281  1
  Li  Li45  1  0.32604418  0.17238417  0.64406281  1
  Li  Li46  1  0.82604418  0.32761583  0.35593719  1
  Li  Li47  1  0.17395582  0.67238417  0.35593719  1
  Li  Li48  1  0.16986478  0.08324017  0.50000000  1
  Li  Li49  1  0.83013522  0.91675983  0.50000000  1
  Li  Li50  1  0.33013522  0.58324017  0.50000000  1
  Li  Li51  1  0.66986478  0.41675983  0.50000000  1
  Li  Li52  1  0.00000000  0.00000000  0.00000000  1
  Li  Li53  1  0.50000000  0.50000000  -0.00000000  1
  Li  Li54  1  0.26393132  0.83806447  0.22586827  1
  Li  Li55  1  0.73606868  0.16193553  0.22586827  1
  Li  Li56  1  0.23606868  0.33806447  0.77413173  1
  Li  Li57  1  0.76393132  0.66193553  0.77413173  1
  Li  Li58  1  0.73606868  0.16193553  0.77413173  1
  Li  Li59  1  0.26393132  0.83806447  0.77413173  1
  Li  Li60  1  0.76393132  0.66193553  0.22586827  1
  Li  Li61  1  0.23606868  0.33806447  0.22586827  1
  Li  Li62  1  0.00000000  0.00000000  0.50000000  1
  Li  Li63  1  0.50000000  0.50000000  0.50000000  1
