# generated using pymatgen
data_LiCaF3
_symmetry_space_group_name_H-M   'P 1'
_cell_length_a   12.93861185
_cell_length_b   12.93861185
_cell_length_c   6.31561349
_cell_angle_alpha   90.00000000
_cell_angle_beta   90.00000000
_cell_angle_gamma   90.00000000
_symmetry_Int_Tables_number   1
_chemical_formula_structural   LiCaF3
_chemical_formula_sum   'Li18 Ca18 F54'
_cell_volume   1057.28218175
_cell_formula_units_Z   18
loop_
 _symmetry_equiv_pos_site_id
 _symmetry_equiv_pos_as_xyz
  1  'x, y, z'
loop_
 _atom_site_type_symbol
 _atom_site_label
 _atom_site_symmetry_multiplicity
 _atom_site_fract_x
 _atom_site_fract_y
 _atom_site_fract_z
 _atom_site_occupancy
  Ca  Ca0  1  0.00000000  0.00000000  0.00000000  1
  Ca  Ca1  1  0.50000000  0.50000000  0.00000000  1
  Ca  Ca2  1  0.26755272  0.50000000  0.00000000  1
  Ca  Ca3  1  0.73244728  0.50000000  0.00000000  1
  Ca  Ca4  1  0.50000000  0.26755272  0.00000000  1
  Ca  Ca5  1  0.50000000  0.73244728  0.00000000  1
  Ca  Ca6  1  0.15255290  0.15255290  0.00000000  1
  Ca  Ca7  1  0.84744710  0.84744710  0.00000000  1
  Ca  Ca8  1  0.84744710  0.15255290  0.00000000  1
  Ca  Ca9  1  0.15255290  0.84744710  0.00000000  1
  Ca  Ca10  1  0.89199463  0.73830497  0.50000000  1
  Ca  Ca11  1  0.10800537  0.26169503  0.50000000  1
  Ca  Ca12  1  0.26169503  0.89199463  0.50000000  1
  Ca  Ca13  1  0.73830497  0.10800537  0.50000000  1
  Ca  Ca14  1  0.10800537  0.73830497  0.50000000  1
  Ca  Ca15  1  0.89199463  0.26169503  0.50000000  1
  Ca  Ca16  1  0.73830497  0.89199463  0.50000000  1
  Ca  Ca17  1  0.26169503  0.10800537  0.50000000  1
  F  F18  1  0.79506302  0.79506302  0.50000000  1
  F  F19  1  0.20493698  0.20493698  0.50000000  1
  F  F20  1  0.20493698  0.79506302  0.50000000  1
  F  F21  1  0.79506302  0.20493698  0.50000000  1
  F  F22  1  0.50000000  0.50000000  0.50000000  1
  F  F23  1  0.70996195  0.00000000  0.50000000  1
  F  F24  1  0.29003805  0.00000000  0.50000000  1
  F  F25  1  0.00000000  0.70996195  0.50000000  1
  F  F26  1  0.00000000  0.29003805  0.50000000  1
  F  F27  1  0.31974014  0.47457357  0.79046671  1
  F  F28  1  -0.31974014  -0.47457357  0.79046671  1
  F  F29  1  -0.47457357  0.31974014  0.79046671  1
  F  F30  1  0.47457357  -0.31974014  0.79046671  1
  F  F31  1  -0.31974014  0.47457357  -0.79046671  1
  F  F32  1  0.31974014  -0.47457357  -0.79046671  1
  F  F33  1  0.47457357  0.31974014  -0.79046671  1
  F  F34  1  -0.47457357  -0.31974014  -0.79046671  1
  F  F35  1  -0.31974014  -0.47457357  -0.79046671  1
  F  F36  1  0.31974014  0.47457357  -0.79046671  1
  F  F37  1  0.47457357  -0.31974014  -0.79046671  1
  F  F38  1  -0.47457357  0.31974014  -0.79046671  1
  F  F39  1  0.31974014  -0.47457357  0.79046671  1
  F  F40  1  -0.31974014  0.47457357  0.79046671  1
  F  F41  1  -0.47457357  -0.31974014  0.79046671  1
  F  F42  1  0.47457357  0.31974014  0.79046671  1
  F  F43  1  0.40295387  0.68621023  0.43833422  1
  F  F44  1  0.59704613  0.31378977  0.43833422  1
  F  F45  1  0.31378977  0.40295387  0.43833422  1
  F  F46  1  0.68621023  0.59704613  0.43833422  1
  F  F47  1  0.59704613  0.68621023  0.56166578  1
  F  F48  1  0.40295387  0.31378977  0.56166578  1
  F  F49  1  0.68621023  0.40295387  0.56166578  1
  F  F50  1  0.31378977  0.59704613  0.56166578  1
  F  F51  1  0.59704613  0.31378977  0.56166578  1
  F  F52  1  0.40295387  0.68621023  0.56166578  1
  F  F53  1  0.68621023  0.59704613  0.56166578  1
  F  F54  1  0.31378977  0.40295387  0.56166578  1
  F  F55  1  0.40295387  0.31378977  0.43833422  1
  F  F56  1  0.59704613  0.68621023  0.43833422  1
  F  F57  1  0.31378977  0.59704613  0.43833422  1
  F  F58  1  0.68621023  0.40295387  0.43833422  1
  F  F59  1  0.95819348  0.50000000  0.00000000  1
  F  F60  1  0.04180652  0.50000000  0.00000000  1
  F  F61  1  0.50000000  0.95819348  0.00000000  1
  F  F62  1  0.50000000  0.04180652  0.00000000  1
  F  F63  1  0.13271286  0.50000000  0.85319696  1
  F  F64  1  0.86728714  0.50000000  0.85319696  1
  F  F65  1  0.50000000  0.13271286  0.85319696  1
  F  F66  1  0.50000000  0.86728714  0.85319696  1
  F  F67  1  0.86728714  0.50000000  0.14680304  1
  F  F68  1  0.13271286  0.50000000  0.14680304  1
  F  F69  1  0.50000000  0.13271286  0.14680304  1
  F  F70  1  0.50000000  0.86728714  0.14680304  1
  F  F71  1  0.00000000  0.00000000  0.50000000  1
  Li  Li72  1  0.11309954  0.00000000  0.82801559  1
  Li  Li73  1  0.88690046  0.00000000  0.82801559  1
  Li  Li74  1  0.00000000  0.11309954  0.82801559  1
  Li  Li75  1  0.00000000  0.88690046  0.82801559  1
  Li  Li76  1  0.88690046  0.00000000  0.17198441  1
  Li  Li77  1  0.11309954  0.00000000  0.17198441  1
  Li  Li78  1  0.00000000  0.11309954  0.17198441  1
  Li  Li79  1  0.00000000  0.88690046  0.17198441  1
  Li  Li80  1  0.12279728  0.12279728  0.50000000  1
  Li  Li81  1  0.87720272  0.87720272  0.50000000  1
  Li  Li82  1  0.87720272  0.12279728  0.50000000  1
  Li  Li83  1  0.12279728  0.87720272  0.50000000  1
  Li  Li84  1  0.00000000  0.50000000  0.20820733  1
  Li  Li85  1  0.50000000  0.00000000  0.20820733  1
  Li  Li86  1  0.00000000  0.50000000  0.79179267  1
  Li  Li87  1  0.50000000  0.00000000  0.79179267  1
  Li  Li88  1  0.00000000  0.50000000  0.50000000  1
  Li  Li89  1  0.50000000  0.00000000  0.50000000  1
