# generated using pymatgen
data_Li4TeF2
_symmetry_space_group_name_H-M   'P 1'
_cell_length_a   13.63391409
_cell_length_b   13.63391409
_cell_length_c   11.44822366
_cell_angle_alpha   90.00000000
_cell_angle_beta   90.00000000
_cell_angle_gamma   90.00000000
_symmetry_Int_Tables_number   1
_chemical_formula_structural   Li4TeF2
_chemical_formula_sum   'Li96 Te24 F48'
_cell_volume   2128.03718235
_cell_formula_units_Z   24
loop_
 _symmetry_equiv_pos_site_id
 _symmetry_equiv_pos_as_xyz
  1  'x, y, z'
loop_
 _atom_site_type_symbol
 _atom_site_label
 _atom_site_symmetry_multiplicity
 _atom_site_fract_x
 _atom_site_fract_y
 _atom_site_fract_z
 _atom_site_occupancy
  F  F0  1  0.23821993  0.69465616  0.77782192  1
  F  F1  1  -0.23821993  -0.69465616  0.77782192  1
  F  F2  1  -0.69465616  0.23821993  0.77782192  1
  F  F3  1  0.69465616  -0.23821993  0.77782192  1
  F  F4  1  -0.23821993  0.69465616  -0.77782192  1
  F  F5  1  0.23821993  -0.69465616  -0.77782192  1
  F  F6  1  0.69465616  0.23821993  -0.77782192  1
  F  F7  1  -0.69465616  -0.23821993  -0.77782192  1
  F  F8  1  -0.23821993  -0.69465616  -0.77782192  1
  F  F9  1  0.23821993  0.69465616  -0.77782192  1
  F  F10  1  0.69465616  -0.23821993  -0.77782192  1
  F  F11  1  -0.69465616  0.23821993  -0.77782192  1
  F  F12  1  0.23821993  -0.69465616  0.77782192  1
  F  F13  1  -0.23821993  0.69465616  0.77782192  1
  F  F14  1  -0.69465616  -0.23821993  0.77782192  1
  F  F15  1  0.69465616  0.23821993  0.77782192  1
  F  F16  1  0.86860184  0.24237700  0.72268522  1
  F  F17  1  0.13139816  0.75762300  0.72268522  1
  F  F18  1  0.75762300  0.86860184  0.72268522  1
  F  F19  1  0.24237700  0.13139816  0.72268522  1
  F  F20  1  0.13139816  0.24237700  0.27731478  1
  F  F21  1  0.86860184  0.75762300  0.27731478  1
  F  F22  1  0.24237700  0.86860184  0.27731478  1
  F  F23  1  0.75762300  0.13139816  0.27731478  1
  F  F24  1  0.13139816  0.75762300  0.27731478  1
  F  F25  1  0.86860184  0.24237700  0.27731478  1
  F  F26  1  0.24237700  0.13139816  0.27731478  1
  F  F27  1  0.75762300  0.86860184  0.27731478  1
  F  F28  1  0.86860184  0.75762300  0.72268522  1
  F  F29  1  0.13139816  0.24237700  0.72268522  1
  F  F30  1  0.75762300  0.13139816  0.72268522  1
  F  F31  1  0.24237700  0.86860184  0.72268522  1
  F  F32  1  0.79146929  0.35976190  0.82206938  1
  F  F33  1  0.20853071  0.64023810  0.82206938  1
  F  F34  1  0.64023810  0.79146929  0.82206938  1
  F  F35  1  0.35976190  0.20853071  0.82206938  1
  F  F36  1  0.20853071  0.35976190  0.17793062  1
  F  F37  1  0.79146929  0.64023810  0.17793062  1
  F  F38  1  0.35976190  0.79146929  0.17793062  1
  F  F39  1  0.64023810  0.20853071  0.17793062  1
  F  F40  1  0.20853071  0.64023810  0.17793062  1
  F  F41  1  0.79146929  0.35976190  0.17793062  1
  F  F42  1  0.35976190  0.20853071  0.17793062  1
  F  F43  1  0.64023810  0.79146929  0.17793062  1
  F  F44  1  0.79146929  0.64023810  0.82206938  1
  F  F45  1  0.20853071  0.35976190  0.82206938  1
  F  F46  1  0.64023810  0.20853071  0.82206938  1
  F  F47  1  0.35976190  0.79146929  0.82206938  1
  Li  Li48  1  0.35504657  0.71440645  -0.00000000  1
  Li  Li49  1  0.64495343  0.28559355  -0.00000000  1
  Li  Li50  1  0.28559355  0.35504657  0.00000000  1
  Li  Li51  1  0.71440645  0.64495343  -0.00000000  1
  Li  Li52  1  0.64495343  0.71440645  -0.00000000  1
  Li  Li53  1  0.35504657  0.28559355  0.00000000  1
  Li  Li54  1  0.71440645  0.35504657  -0.00000000  1
  Li  Li55  1  0.28559355  0.64495343  0.00000000  1
  Li  Li56  1  0.29831427  0.50000000  0.33938454  1
  Li  Li57  1  0.70168573  0.50000000  0.33938454  1
  Li  Li58  1  0.50000000  0.29831427  0.33938454  1
  Li  Li59  1  0.50000000  0.70168573  0.33938454  1
  Li  Li60  1  0.70168573  0.50000000  0.66061546  1
  Li  Li61  1  0.29831427  0.50000000  0.66061546  1
  Li  Li62  1  0.50000000  0.29831427  0.66061546  1
  Li  Li63  1  0.50000000  0.70168573  0.66061546  1
  Li  Li64  1  0.26406599  0.50000000  0.92201639  1
  Li  Li65  1  0.73593401  0.50000000  0.92201639  1
  Li  Li66  1  0.50000000  0.26406599  0.92201639  1
  Li  Li67  1  0.50000000  0.73593401  0.92201639  1
  Li  Li68  1  0.73593401  0.50000000  0.07798361  1
  Li  Li69  1  0.26406599  0.50000000  0.07798361  1
  Li  Li70  1  0.50000000  0.26406599  0.07798361  1
  Li  Li71  1  0.50000000  0.73593401  0.07798361  1
  Li  Li72  1  0.00000000  0.00000000  0.76315841  1
  Li  Li73  1  0.00000000  0.00000000  0.23684159  1
  Li  Li74  1  0.79070113  0.06623379  0.75792557  1
  Li  Li75  1  0.20929887  0.93376621  0.75792557  1
  Li  Li76  1  0.93376621  0.79070113  0.75792557  1
  Li  Li77  1  0.06623379  0.20929887  0.75792557  1
  Li  Li78  1  0.20929887  0.06623379  0.24207443  1
  Li  Li79  1  0.79070113  0.93376621  0.24207443  1
  Li  Li80  1  0.06623379  0.79070113  0.24207443  1
  Li  Li81  1  0.93376621  0.20929887  0.24207443  1
  Li  Li82  1  0.20929887  0.93376621  0.24207443  1
  Li  Li83  1  0.79070113  0.06623379  0.24207443  1
  Li  Li84  1  0.06623379  0.20929887  0.24207443  1
  Li  Li85  1  0.93376621  0.79070113  0.24207443  1
  Li  Li86  1  0.79070113  0.93376621  0.75792557  1
  Li  Li87  1  0.20929887  0.06623379  0.75792557  1
  Li  Li88  1  0.93376621  0.20929887  0.75792557  1
  Li  Li89  1  0.06623379  0.79070113  0.75792557  1
  Li  Li90  1  0.19387294  0.44837348  0.00000000  1
  Li  Li91  1  0.80612706  0.55162652  -0.00000000  1
  Li  Li92  1  0.55162652  0.19387294  -0.00000000  1
  Li  Li93  1  0.44837348  0.80612706  -0.00000000  1
  Li  Li94  1  0.80612706  0.44837348  -0.00000000  1
  Li  Li95  1  0.19387294  0.55162652  -0.00000000  1
  Li  Li96  1  0.44837348  0.19387294  0.00000000  1
  Li  Li97  1  0.55162652  0.80612706  -0.00000000  1
  Li  Li98  1  0.93129918  0.50000000  0.69641473  1
  Li  Li99  1  0.06870082  0.50000000  0.69641473  1
  Li  Li100  1  0.50000000  0.93129918  0.69641473  1
  Li  Li101  1  0.50000000  0.06870082  0.69641473  1
  Li  Li102  1  0.06870082  0.50000000  0.30358527  1
  Li  Li103  1  0.93129918  0.50000000  0.30358527  1
  Li  Li104  1  0.50000000  0.93129918  0.30358527  1
  Li  Li105  1  0.50000000  0.06870082  0.30358527  1
  Li  Li106  1  0.00000000  0.50000000  0.00000000  1
  Li  Li107  1  0.50000000  -0.00000000  0.00000000  1
  Li  Li108  1  0.39001869  0.78969140  0.63854932  1
  Li  Li109  1  0.60998131  0.21030860  0.63854932  1
  Li  Li110  1  0.21030860  0.39001869  0.63854932  1
  Li  Li111  1  0.78969140  0.60998131  0.63854932  1
  Li  Li112  1  0.60998131  0.78969140  0.36145068  1
  Li  Li113  1  0.39001869  0.21030860  0.36145068  1
  Li  Li114  1  0.78969140  0.39001869  0.36145068  1
  Li  Li115  1  0.21030860  0.60998131  0.36145068  1
  Li  Li116  1  0.60998131  0.21030860  0.36145068  1
  Li  Li117  1  0.39001869  0.78969140  0.36145068  1
  Li  Li118  1  0.78969140  0.60998131  0.36145068  1
  Li  Li119  1  0.21030860  0.39001869  0.36145068  1
  Li  Li120  1  0.39001869  0.21030860  0.63854932  1
  Li  Li121  1  0.60998131  0.78969140  0.63854932  1
  Li  Li122  1  0.21030860  0.60998131  0.63854932  1
  Li  Li123  1  0.78969140  0.39001869  0.63854932  1
  Li  Li124  1  0.10916270  0.41143115  0.89350474  1
  Li  Li125  1  0.89083730  0.58856885  0.89350474  1
  Li  Li126  1  0.58856885  0.10916270  0.89350474  1
  Li  Li127  1  0.41143115  0.89083730  0.89350474  1
  Li  Li128  1  0.89083730  0.41143115  0.10649526  1
  Li  Li129  1  0.10916270  0.58856885  0.10649526  1
  Li  Li130  1  0.41143115  0.10916270  0.10649526  1
  Li  Li131  1  0.58856885  0.89083730  0.10649526  1
  Li  Li132  1  0.89083730  0.58856885  0.10649526  1
  Li  Li133  1  0.10916270  0.41143115  0.10649526  1
  Li  Li134  1  0.41143115  0.89083730  0.10649526  1
  Li  Li135  1  0.58856885  0.10916270  0.10649526  1
  Li  Li136  1  0.10916270  0.58856885  0.89350474  1
  Li  Li137  1  0.89083730  0.41143115  0.89350474  1
  Li  Li138  1  0.58856885  0.89083730  0.89350474  1
  Li  Li139  1  0.41143115  0.10916270  0.89350474  1
  Li  Li140  1  0.84647389  0.50000000  0.50000000  1
  Li  Li141  1  0.15352611  0.50000000  0.50000000  1
  Li  Li142  1  0.50000000  0.84647389  0.50000000  1
  Li  Li143  1  0.50000000  0.15352611  0.50000000  1
  Te  Te144  1  0.86340731  -0.00000000  0.50000000  1
  Te  Te145  1  0.13659269  -0.00000000  0.50000000  1
  Te  Te146  1  0.00000000  0.86340731  0.50000000  1
  Te  Te147  1  0.00000000  0.13659269  0.50000000  1
  Te  Te148  1  0.85730036  0.58611575  0.74281319  1
  Te  Te149  1  0.14269964  0.41388425  0.74281319  1
  Te  Te150  1  0.41388425  0.85730036  0.74281319  1
  Te  Te151  1  0.58611575  0.14269964  0.74281319  1
  Te  Te152  1  0.14269964  0.58611575  0.25718681  1
  Te  Te153  1  0.85730036  0.41388425  0.25718681  1
  Te  Te154  1  0.58611575  0.85730036  0.25718681  1
  Te  Te155  1  0.41388425  0.14269964  0.25718681  1
  Te  Te156  1  0.14269964  0.41388425  0.25718681  1
  Te  Te157  1  0.85730036  0.58611575  0.25718681  1
  Te  Te158  1  0.58611575  0.14269964  0.25718681  1
  Te  Te159  1  0.41388425  0.85730036  0.25718681  1
  Te  Te160  1  0.85730036  0.41388425  0.74281319  1
  Te  Te161  1  0.14269964  0.58611575  0.74281319  1
  Te  Te162  1  0.41388425  0.14269964  0.74281319  1
  Te  Te163  1  0.58611575  0.85730036  0.74281319  1
  Te  Te164  1  0.50000000  0.50000000  0.00000000  1
  Te  Te165  1  0.50000000  0.50000000  0.50000000  1
  Te  Te166  1  0.00000000  0.00000000  0.38143503  1
  Te  Te167  1  0.00000000  0.00000000  0.61856497  1
