# generated using pymatgen
data_Li3Hf3B(SeF)6
_symmetry_space_group_name_H-M   'P 1'
_cell_length_a   16.91782913
_cell_length_b   16.19075319
_cell_length_c   18.40015477
_cell_angle_alpha   90.00000000
_cell_angle_beta   90.00000000
_cell_angle_gamma   90.00000000
_symmetry_Int_Tables_number   1
_chemical_formula_structural   Li3Hf3B(SeF)6
_chemical_formula_sum   'Li48 Hf48 B16 Se96 F96'
_cell_volume   5040.03047799
_cell_formula_units_Z   16
loop_
 _symmetry_equiv_pos_site_id
 _symmetry_equiv_pos_as_xyz
  1  'x, y, z'
loop_
 _atom_site_type_symbol
 _atom_site_label
 _atom_site_symmetry_multiplicity
 _atom_site_fract_x
 _atom_site_fract_y
 _atom_site_fract_z
 _atom_site_occupancy
  B  B0  1  0.00000000  0.00000000  0.81406319  1
  B  B1  1  0.50000000  0.50000000  0.18593681  1
  B  B2  1  0.00000000  0.00000000  0.18593681  1
  B  B3  1  0.50000000  0.50000000  0.81406319  1
  B  B4  1  0.00000000  0.00000000  0.00000000  1
  B  B5  1  0.50000000  0.50000000  0.00000000  1
  B  B6  1  0.00000000  0.00000000  0.32253532  1
  B  B7  1  0.50000000  0.50000000  0.67746468  1
  B  B8  1  0.00000000  0.00000000  0.67746468  1
  B  B9  1  0.50000000  0.50000000  0.32253532  1
  B  B10  1  0.00000000  0.50000000  0.83936092  1
  B  B11  1  0.50000000  0.00000000  0.16063908  1
  B  B12  1  0.00000000  0.50000000  0.16063908  1
  B  B13  1  0.50000000  0.00000000  0.83936092  1
  B  B14  1  0.00000000  0.50000000  0.50000000  1
  B  B15  1  0.50000000  0.00000000  0.50000000  1
  F  F16  1  0.31970551  0.08645679  0.72644225  1
  F  F17  1  -0.31970551  -0.08645679  0.72644225  1
  F  F18  1  0.18029449  0.58645679  -0.72644225  1
  F  F19  1  0.81970551  0.41354321  -0.72644225  1
  F  F20  1  -0.31970551  -0.08645679  -0.72644225  1
  F  F21  1  0.31970551  0.08645679  -0.72644225  1
  F  F22  1  0.81970551  0.41354321  0.72644225  1
  F  F23  1  0.18029449  0.58645679  0.72644225  1
  F  F24  1  0.35450282  0.29456437  0.80872594  1
  F  F25  1  0.64549718  0.70543563  0.80872594  1
  F  F26  1  0.14549718  0.79456437  0.19127406  1
  F  F27  1  0.85450282  0.20543563  0.19127406  1
  F  F28  1  0.64549718  0.70543563  0.19127406  1
  F  F29  1  0.35450282  0.29456437  0.19127406  1
  F  F30  1  0.85450282  0.20543563  0.80872594  1
  F  F31  1  0.14549718  0.79456437  0.80872594  1
  F  F32  1  0.00000000  0.00000000  0.50000000  1
  F  F33  1  0.50000000  0.50000000  0.50000000  1
  F  F34  1  0.26353605  0.18172829  0.88416698  1
  F  F35  1  0.73646395  0.81827171  0.88416698  1
  F  F36  1  0.23646395  0.68172829  0.11583302  1
  F  F37  1  0.76353605  0.31827171  0.11583302  1
  F  F38  1  0.73646395  0.81827171  0.11583302  1
  F  F39  1  0.26353605  0.18172829  0.11583302  1
  F  F40  1  0.76353605  0.31827171  0.88416698  1
  F  F41  1  0.23646395  0.68172829  0.88416698  1
  F  F42  1  0.11258132  0.33090500  0.14508526  1
  F  F43  1  0.88741868  0.66909500  0.14508526  1
  F  F44  1  0.38741868  0.83090500  0.85491474  1
  F  F45  1  0.61258132  0.16909500  0.85491474  1
  F  F46  1  0.88741868  0.66909500  0.85491474  1
  F  F47  1  0.11258132  0.33090500  0.85491474  1
  F  F48  1  0.61258132  0.16909500  0.14508526  1
  F  F49  1  0.38741868  0.83090500  0.14508526  1
  F  F50  1  0.76652841  0.95304988  0.00000000  1
  F  F51  1  0.23347159  0.04695012  0.00000000  1
  F  F52  1  0.73347159  0.45304988  0.00000000  1
  F  F53  1  0.26652841  0.54695012  0.00000000  1
  F  F54  1  0.00000000  0.00000000  0.26352824  1
  F  F55  1  0.50000000  0.50000000  0.73647176  1
  F  F56  1  0.00000000  0.00000000  0.73647176  1
  F  F57  1  0.50000000  0.50000000  0.26352824  1
  F  F58  1  0.74392730  0.75377322  0.79729036  1
  F  F59  1  0.25607270  0.24622678  0.79729036  1
  F  F60  1  0.75607270  0.25377322  0.20270964  1
  F  F61  1  0.24392730  0.74622678  0.20270964  1
  F  F62  1  0.25607270  0.24622678  0.20270964  1
  F  F63  1  0.74392730  0.75377322  0.20270964  1
  F  F64  1  0.24392730  0.74622678  0.79729036  1
  F  F65  1  0.75607270  0.25377322  0.79729036  1
  F  F66  1  0.79918259  0.96508435  0.73893751  1
  F  F67  1  0.20081741  0.03491565  0.73893751  1
  F  F68  1  0.70081741  0.46508435  0.26106249  1
  F  F69  1  0.29918259  0.53491565  0.26106249  1
  F  F70  1  0.20081741  0.03491565  0.26106249  1
  F  F71  1  0.79918259  0.96508435  0.26106249  1
  F  F72  1  0.29918259  0.53491565  0.73893751  1
  F  F73  1  0.70081741  0.46508435  0.73893751  1
  F  F74  1  0.54172200  0.98755822  0.16834620  1
  F  F75  1  0.45827800  0.01244178  0.16834620  1
  F  F76  1  0.95827800  0.48755822  0.83165380  1
  F  F77  1  0.04172200  0.51244178  0.83165380  1
  F  F78  1  0.45827800  0.01244178  0.83165380  1
  F  F79  1  0.54172200  0.98755822  0.83165380  1
  F  F80  1  0.04172200  0.51244178  0.16834620  1
  F  F81  1  0.95827800  0.48755822  0.16834620  1
  F  F82  1  0.77414070  0.30485353  0.63645213  1
  F  F83  1  0.22585930  0.69514647  0.63645213  1
  F  F84  1  0.72585930  0.80485353  0.36354787  1
  F  F85  1  0.27414070  0.19514647  0.36354787  1
  F  F86  1  0.22585930  0.69514647  0.36354787  1
  F  F87  1  0.77414070  0.30485353  0.36354787  1
  F  F88  1  0.27414070  0.19514647  0.63645213  1
  F  F89  1  0.72585930  0.80485353  0.63645213  1
  F  F90  1  0.99628387  0.93220426  -0.00000000  1
  F  F91  1  0.00371613  0.06779574  0.00000000  1
  F  F92  1  0.50371613  0.43220426  0.00000000  1
  F  F93  1  0.49628387  0.56779574  0.00000000  1
  F  F94  1  0.55262944  0.53051076  0.08056515  1
  F  F95  1  0.44737056  0.46948924  0.08056515  1
  F  F96  1  0.94737056  0.03051076  0.91943485  1
  F  F97  1  0.05262944  0.96948924  0.91943485  1
  F  F98  1  0.44737056  0.46948924  0.91943485  1
  F  F99  1  0.55262944  0.53051076  0.91943485  1
  F  F100  1  0.05262944  0.96948924  0.08056515  1
  F  F101  1  0.94737056  0.03051076  0.08056515  1
  F  F102  1  0.43596429  0.57324377  0.58109135  1
  F  F103  1  0.56403571  0.42675623  0.58109135  1
  F  F104  1  0.06403571  0.07324377  0.41890865  1
  F  F105  1  0.93596429  0.92675623  0.41890865  1
  F  F106  1  0.56403571  0.42675623  0.41890865  1
  F  F107  1  0.43596429  0.57324377  0.41890865  1
  F  F108  1  0.93596429  0.92675623  0.58109135  1
  F  F109  1  0.06403571  0.07324377  0.58109135  1
  F  F110  1  0.00000000  0.50000000  0.00000000  1
  F  F111  1  0.50000000  0.00000000  0.00000000  1
  Hf  Hf112  1  0.51280193  0.70302295  0.08289066  1
  Hf  Hf113  1  0.48719807  0.29697705  0.08289066  1
  Hf  Hf114  1  0.98719807  0.20302295  0.91710934  1
  Hf  Hf115  1  0.01280193  0.79697705  0.91710934  1
  Hf  Hf116  1  0.48719807  0.29697705  0.91710934  1
  Hf  Hf117  1  0.51280193  0.70302295  0.91710934  1
  Hf  Hf118  1  0.01280193  0.79697705  0.08289066  1
  Hf  Hf119  1  0.98719807  0.20302295  0.08289066  1
  Hf  Hf120  1  0.77874791  0.66365599  0.74546443  1
  Hf  Hf121  1  0.22125209  0.33634401  0.74546443  1
  Hf  Hf122  1  0.72125209  0.16365599  0.25453557  1
  Hf  Hf123  1  0.27874791  0.83634401  0.25453557  1
  Hf  Hf124  1  0.22125209  0.33634401  0.25453557  1
  Hf  Hf125  1  0.77874791  0.66365599  0.25453557  1
  Hf  Hf126  1  0.27874791  0.83634401  0.74546443  1
  Hf  Hf127  1  0.72125209  0.16365599  0.74546443  1
  Hf  Hf128  1  0.30232192  0.73322851  0.31912147  1
  Hf  Hf129  1  0.69767808  0.26677149  0.31912147  1
  Hf  Hf130  1  0.19767808  0.23322851  0.68087853  1
  Hf  Hf131  1  0.80232192  0.76677149  0.68087853  1
  Hf  Hf132  1  0.69767808  0.26677149  0.68087853  1
  Hf  Hf133  1  0.30232192  0.73322851  0.68087853  1
  Hf  Hf134  1  0.80232192  0.76677149  0.31912147  1
  Hf  Hf135  1  0.19767808  0.23322851  0.31912147  1
  Hf  Hf136  1  0.84398784  0.91623649  0.70152743  1
  Hf  Hf137  1  0.15601216  0.08376351  0.70152743  1
  Hf  Hf138  1  0.65601216  0.41623649  0.29847257  1
  Hf  Hf139  1  0.34398784  0.58376351  0.29847257  1
  Hf  Hf140  1  0.15601216  0.08376351  0.29847257  1
  Hf  Hf141  1  0.84398784  0.91623649  0.29847257  1
  Hf  Hf142  1  0.34398784  0.58376351  0.70152743  1
  Hf  Hf143  1  0.65601216  0.41623649  0.70152743  1
  Hf  Hf144  1  0.82135487  0.55789455  0.78960336  1
  Hf  Hf145  1  0.17864513  0.44210545  0.78960336  1
  Hf  Hf146  1  0.67864513  0.05789455  0.21039664  1
  Hf  Hf147  1  0.32135487  0.94210545  0.21039664  1
  Hf  Hf148  1  0.17864513  0.44210545  0.21039664  1
  Hf  Hf149  1  0.82135487  0.55789455  0.21039664  1
  Hf  Hf150  1  0.32135487  0.94210545  0.78960336  1
  Hf  Hf151  1  0.67864513  0.05789455  0.78960336  1
  Hf  Hf152  1  0.00000000  0.50000000  0.68561325  1
  Hf  Hf153  1  0.50000000  0.00000000  0.31438675  1
  Hf  Hf154  1  0.00000000  0.50000000  0.31438675  1
  Hf  Hf155  1  0.50000000  0.00000000  0.68561325  1
  Hf  Hf156  1  0.37509661  0.30981950  0.50000000  1
  Hf  Hf157  1  0.62490339  0.69018050  0.50000000  1
  Hf  Hf158  1  0.12490339  0.80981950  0.50000000  1
  Hf  Hf159  1  0.87509661  0.19018050  0.50000000  1
  Li  Li160  1  0.65356137  0.18415076  0.64923656  1
  Li  Li161  1  0.34643863  0.81584924  0.64923656  1
  Li  Li162  1  0.84643863  0.68415076  0.35076344  1
  Li  Li163  1  0.15356137  0.31584924  0.35076344  1
  Li  Li164  1  0.34643863  0.81584924  0.35076344  1
  Li  Li165  1  0.65356137  0.18415076  0.35076344  1
  Li  Li166  1  0.15356137  0.31584924  0.64923656  1
  Li  Li167  1  0.84643863  0.68415076  0.64923656  1
  Li  Li168  1  0.67539297  0.49727621  0.00000000  1
  Li  Li169  1  0.32460703  0.50272379  0.00000000  1
  Li  Li170  1  0.82460703  0.99727621  0.00000000  1
  Li  Li171  1  0.17539297  0.00272379  -0.00000000  1
  Li  Li172  1  0.89816666  0.61571455  0.50000000  1
  Li  Li173  1  0.10183334  0.38428545  0.50000000  1
  Li  Li174  1  0.60183334  0.11571455  0.50000000  1
  Li  Li175  1  0.39816666  0.88428545  0.50000000  1
  Li  Li176  1  0.64608402  0.78324281  0.00000000  1
  Li  Li177  1  0.35391598  0.21675719  0.00000000  1
  Li  Li178  1  0.85391598  0.28324281  0.00000000  1
  Li  Li179  1  0.14608402  0.71675719  0.00000000  1
  Li  Li180  1  0.20958389  0.32855390  0.13993735  1
  Li  Li181  1  0.79041611  0.67144610  0.13993735  1
  Li  Li182  1  0.29041611  0.82855390  0.86006265  1
  Li  Li183  1  0.70958389  0.17144610  0.86006265  1
  Li  Li184  1  0.79041611  0.67144610  0.86006265  1
  Li  Li185  1  0.20958389  0.32855390  0.86006265  1
  Li  Li186  1  0.70958389  0.17144610  0.13993735  1
  Li  Li187  1  0.29041611  0.82855390  0.13993735  1
  Li  Li188  1  0.32118806  0.50392716  0.84350743  1
  Li  Li189  1  0.67881194  0.49607284  0.84350743  1
  Li  Li190  1  0.17881194  0.00392716  0.15649257  1
  Li  Li191  1  0.82118806  0.99607284  0.15649257  1
  Li  Li192  1  0.67881194  0.49607284  0.15649257  1
  Li  Li193  1  0.32118806  0.50392716  0.15649257  1
  Li  Li194  1  0.82118806  0.99607284  0.84350743  1
  Li  Li195  1  0.17881194  0.00392716  0.84350743  1
  Li  Li196  1  0.06798718  0.04197044  0.00000000  1
  Li  Li197  1  0.93201282  0.95802956  0.00000000  1
  Li  Li198  1  0.43201282  0.54197044  0.00000000  1
  Li  Li199  1  0.56798718  0.45802956  0.00000000  1
  Li  Li200  1  0.15411656  0.37924277  0.58444111  1
  Li  Li201  1  0.84588344  0.62075723  0.58444111  1
  Li  Li202  1  0.34588344  0.87924277  0.41555889  1
  Li  Li203  1  0.65411656  0.12075723  0.41555889  1
  Li  Li204  1  0.84588344  0.62075723  0.41555889  1
  Li  Li205  1  0.15411656  0.37924277  0.41555889  1
  Li  Li206  1  0.65411656  0.12075723  0.58444111  1
  Li  Li207  1  0.34588344  0.87924277  0.58444111  1
  Se  Se208  1  0.24493351  0.15604512  0.50000000  1
  Se  Se209  1  0.75506649  0.84395488  0.50000000  1
  Se  Se210  1  0.25506649  0.65604512  0.50000000  1
  Se  Se211  1  0.74493351  0.34395488  0.50000000  1
  Se  Se212  1  0.50099084  0.57677553  0.25121629  1
  Se  Se213  1  0.49900916  0.42322447  0.25121629  1
  Se  Se214  1  0.99900916  0.07677553  0.74878371  1
  Se  Se215  1  0.00099084  0.92322447  0.74878371  1
  Se  Se216  1  0.49900916  0.42322447  0.74878371  1
  Se  Se217  1  0.50099084  0.57677553  0.74878371  1
  Se  Se218  1  0.00099084  0.92322447  0.25121629  1
  Se  Se219  1  0.99900916  0.07677553  0.25121629  1
  Se  Se220  1  0.31819251  0.56914677  0.50000000  1
  Se  Se221  1  0.68180749  0.43085323  0.50000000  1
  Se  Se222  1  0.18180749  0.06914677  0.50000000  1
  Se  Se223  1  0.81819251  0.93085323  0.50000000  1
  Se  Se224  1  0.35641064  0.68835742  0.76421478  1
  Se  Se225  1  0.64358936  0.31164258  0.76421478  1
  Se  Se226  1  0.14358936  0.18835742  0.23578522  1
  Se  Se227  1  0.85641064  0.81164258  0.23578522  1
  Se  Se228  1  0.64358936  0.31164258  0.23578522  1
  Se  Se229  1  0.35641064  0.68835742  0.23578522  1
  Se  Se230  1  0.85641064  0.81164258  0.76421478  1
  Se  Se231  1  0.14358936  0.18835742  0.76421478  1
  Se  Se232  1  0.01836498  0.09947467  0.84503206  1
  Se  Se233  1  0.98163502  0.90052533  0.84503206  1
  Se  Se234  1  0.48163502  0.59947467  0.15496794  1
  Se  Se235  1  0.51836498  0.40052533  0.15496794  1
  Se  Se236  1  0.98163502  0.90052533  0.15496794  1
  Se  Se237  1  0.01836498  0.09947467  0.15496794  1
  Se  Se238  1  0.51836498  0.40052533  0.84503206  1
  Se  Se239  1  0.48163502  0.59947467  0.84503206  1
  Se  Se240  1  0.13171049  0.96879695  0.11486117  1
  Se  Se241  1  0.86828951  0.03120305  0.11486117  1
  Se  Se242  1  0.36828951  0.46879695  0.88513883  1
  Se  Se243  1  0.63171049  0.53120305  0.88513883  1
  Se  Se244  1  0.86828951  0.03120305  0.88513883  1
  Se  Se245  1  0.13171049  0.96879695  0.88513883  1
  Se  Se246  1  0.63171049  0.53120305  0.11486117  1
  Se  Se247  1  0.36828951  0.46879695  0.11486117  1
  Se  Se248  1  0.54306591  0.05515035  0.57254438  1
  Se  Se249  1  0.45693409  0.94484965  0.57254438  1
  Se  Se250  1  0.95693409  0.55515035  0.42745562  1
  Se  Se251  1  0.04306591  0.44484965  0.42745562  1
  Se  Se252  1  0.45693409  0.94484965  0.42745562  1
  Se  Se253  1  0.54306591  0.05515035  0.42745562  1
  Se  Se254  1  0.04306591  0.44484965  0.57254438  1
  Se  Se255  1  0.95693409  0.55515035  0.57254438  1
  Se  Se256  1  0.00000000  0.00000000  0.41015785  1
  Se  Se257  1  0.50000000  0.50000000  0.58984215  1
  Se  Se258  1  0.00000000  0.00000000  0.58984215  1
  Se  Se259  1  0.50000000  0.50000000  0.41015785  1
  Se  Se260  1  0.15974402  0.76592177  0.30180112  1
  Se  Se261  1  0.84025598  0.23407823  0.30180112  1
  Se  Se262  1  0.34025598  0.26592177  0.69819888  1
  Se  Se263  1  0.65974402  0.73407823  0.69819888  1
  Se  Se264  1  0.84025598  0.23407823  0.69819888  1
  Se  Se265  1  0.15974402  0.76592177  0.69819888  1
  Se  Se266  1  0.65974402  0.73407823  0.30180112  1
  Se  Se267  1  0.34025598  0.26592177  0.30180112  1
  Se  Se268  1  0.11122915  0.58891068  0.50000000  1
  Se  Se269  1  0.88877085  0.41108932  0.50000000  1
  Se  Se270  1  0.38877085  0.08891068  0.50000000  1
  Se  Se271  1  0.61122915  0.91108932  0.50000000  1
  Se  Se272  1  0.00000000  0.50000000  0.94591592  1
  Se  Se273  1  0.50000000  0.00000000  0.05408408  1
  Se  Se274  1  0.00000000  0.50000000  0.05408408  1
  Se  Se275  1  0.50000000  0.00000000  0.94591592  1
  Se  Se276  1  0.62796460  0.89974105  0.08373139  1
  Se  Se277  1  0.37203540  0.10025895  0.08373139  1
  Se  Se278  1  0.87203540  0.39974105  0.91626861  1
  Se  Se279  1  0.12796460  0.60025895  0.91626861  1
  Se  Se280  1  0.37203540  0.10025895  0.91626861  1
  Se  Se281  1  0.62796460  0.89974105  0.91626861  1
  Se  Se282  1  0.12796460  0.60025895  0.08373139  1
  Se  Se283  1  0.87203540  0.39974105  0.08373139  1
  Se  Se284  1  0.10579997  0.56529439  0.42572336  1
  Se  Se285  1  0.89420003  0.43470561  0.42572336  1
  Se  Se286  1  0.39420003  0.06529439  0.57427664  1
  Se  Se287  1  0.60579997  0.93470561  0.57427664  1
  Se  Se288  1  0.89420003  0.43470561  0.57427664  1
  Se  Se289  1  0.10579997  0.56529439  0.57427664  1
  Se  Se290  1  0.60579997  0.93470561  0.42572336  1
  Se  Se291  1  0.39420003  0.06529439  0.42572336  1
  Se  Se292  1  0.48640077  0.16348800  0.50000000  1
  Se  Se293  1  0.51359923  0.83651200  0.50000000  1
  Se  Se294  1  0.01359923  0.66348800  0.50000000  1
  Se  Se295  1  0.98640077  0.33651200  0.50000000  1
  Se  Se296  1  0.56977044  0.91185596  0.73922043  1
  Se  Se297  1  0.43022956  0.08814404  0.73922043  1
  Se  Se298  1  0.93022956  0.41185596  0.26077957  1
  Se  Se299  1  0.06977044  0.58814404  0.26077957  1
  Se  Se300  1  0.43022956  0.08814404  0.26077957  1
  Se  Se301  1  0.56977044  0.91185596  0.26077957  1
  Se  Se302  1  0.06977044  0.58814404  0.73922043  1
  Se  Se303  1  0.93022956  0.41185596  0.73922043  1
