# generated using pymatgen
data_LiCaF3
_symmetry_space_group_name_H-M   'P 1'
_cell_length_a   9.96833407
_cell_length_b   9.96833407
_cell_length_c   17.18167183
_cell_angle_alpha   90.00000000
_cell_angle_beta   90.00000000
_cell_angle_gamma   120.00000000
_symmetry_Int_Tables_number   1
_chemical_formula_structural   LiCaF3
_chemical_formula_sum   'Li18 Ca18 F54'
_cell_volume   1478.56771858
_cell_formula_units_Z   18
loop_
 _symmetry_equiv_pos_site_id
 _symmetry_equiv_pos_as_xyz
  1  'x, y, z'
loop_
 _atom_site_type_symbol
 _atom_site_label
 _atom_site_symmetry_multiplicity
 _atom_site_fract_x
 _atom_site_fract_y
 _atom_site_fract_z
 _atom_site_occupancy
  Ca  Ca0  1  0.06063709  0.54773373  0.43185370  1
  Ca  Ca1  1  -0.54773373  -0.48709663  0.43185370  1
  Ca  Ca2  1  0.48709663  -0.06063709  0.43185370  1
  Ca  Ca3  1  -0.54773373  -0.06063709  -0.43185370  1
  Ca  Ca4  1  0.48709663  0.54773373  -0.43185370  1
  Ca  Ca5  1  0.06063709  -0.48709663  -0.43185370  1
  Ca  Ca6  1  0.95292592  0.70458206  0.24557536  1
  Ca  Ca7  1  0.29541794  0.24834386  0.24557536  1
  Ca  Ca8  1  0.75165614  0.04707408  0.24557536  1
  Ca  Ca9  1  0.29541794  0.04707408  0.75442464  1
  Ca  Ca10  1  0.75165614  0.70458206  0.75442464  1
  Ca  Ca11  1  0.95292592  0.24834386  0.75442464  1
  Ca  Ca12  1  0.54881932  0.45118068  0.00000000  1
  Ca  Ca13  1  0.54881932  0.09763864  -0.00000000  1
  Ca  Ca14  1  0.90236136  0.45118068  0.00000000  1
  Ca  Ca15  1  0.84609387  0.15390613  -0.00000000  1
  Ca  Ca16  1  0.84609387  0.69218775  -0.00000000  1
  Ca  Ca17  1  0.30781225  0.15390613  0.00000000  1
  F  F18  1  0.86440684  0.24367921  0.45312686  1
  F  F19  1  0.75632079  0.62072764  0.45312686  1
  F  F20  1  0.37927236  0.13559316  0.45312686  1
  F  F21  1  0.75632079  0.13559316  0.54687314  1
  F  F22  1  0.37927236  0.24367921  0.54687314  1
  F  F23  1  0.86440684  0.62072764  0.54687314  1
  F  F24  1  0.33333333  0.66666667  -0.00000000  1
  F  F25  1  0.29983668  0.70016332  -0.00000000  1
  F  F26  1  0.29983668  0.59967337  -0.00000000  1
  F  F27  1  0.40032663  0.70016332  -0.00000000  1
  F  F28  1  0.66666667  0.33333333  0.50000000  1
  F  F29  1  0.00000000  0.00000000  0.00000000  1
  F  F30  1  0.33333333  0.66666667  0.50000000  1
  F  F31  1  0.22197885  0.24838052  0.42172501  1
  F  F32  1  0.75161948  0.97359833  0.42172501  1
  F  F33  1  0.02640167  0.77802115  0.42172501  1
  F  F34  1  0.75161948  0.77802115  0.57827499  1
  F  F35  1  0.02640167  0.24838052  0.57827499  1
  F  F36  1  0.22197885  0.97359833  0.57827499  1
  F  F37  1  0.66666667  0.33333333  0.31264128  1
  F  F38  1  0.66666667  0.33333333  0.68735872  1
  F  F39  1  0.21028130  0.08829867  0.24706722  1
  F  F40  1  0.91170133  0.12198264  0.24706722  1
  F  F41  1  0.87801736  0.78971870  0.24706722  1
  F  F42  1  0.91170133  0.78971870  0.75293278  1
  F  F43  1  0.87801736  0.08829867  0.75293278  1
  F  F44  1  0.21028130  0.12198264  0.75293278  1
  F  F45  1  0.00000000  0.00000000  0.53733629  1
  F  F46  1  0.00000000  0.00000000  0.46266371  1
  F  F47  1  0.00730403  0.66688689  0.64601641  1
  F  F48  1  0.33311311  0.34041714  0.64601641  1
  F  F49  1  0.65958286  0.99269597  0.64601641  1
  F  F50  1  0.33311311  0.99269597  0.35398359  1
  F  F51  1  0.65958286  0.66688689  0.35398359  1
  F  F52  1  0.00730403  0.34041714  0.35398359  1
  F  F53  1  0.11323285  0.88676715  -0.00000000  1
  F  F54  1  0.11323285  0.22646569  0.00000000  1
  F  F55  1  0.77353431  0.88676715  0.00000000  1
  F  F56  1  0.17141033  0.65598798  0.27097355  1
  F  F57  1  0.34401202  0.51542235  0.27097355  1
  F  F58  1  0.48457765  0.82858967  0.27097355  1
  F  F59  1  0.34401202  0.82858967  0.72902645  1
  F  F60  1  0.48457765  0.65598798  0.72902645  1
  F  F61  1  0.17141033  0.51542235  0.72902645  1
  F  F62  1  0.44739698  0.03091330  0.83146069  1
  F  F63  1  0.96908670  0.41648368  0.83146069  1
  F  F64  1  0.58351632  0.55260302  0.83146069  1
  F  F65  1  0.96908670  0.55260302  0.16853931  1
  F  F66  1  0.58351632  0.03091330  0.16853931  1
  F  F67  1  0.44739698  0.41648368  0.16853931  1
  F  F68  1  0.26607531  0.73392469  -0.00000000  1
  F  F69  1  0.26607531  0.53215062  0.00000000  1
  F  F70  1  0.46784938  0.73392469  0.00000000  1
  F  F71  1  0.00000000  0.00000000  0.50000000  1
  Li  Li72  1  0.96781981  0.52086877  0.87351041  1
  Li  Li73  1  0.47913123  0.44695105  0.87351041  1
  Li  Li74  1  0.55304895  0.03218019  0.87351041  1
  Li  Li75  1  0.47913123  0.03218019  0.12648959  1
  Li  Li76  1  0.55304895  0.52086877  0.12648959  1
  Li  Li77  1  0.96781981  0.44695105  0.12648959  1
  Li  Li78  1  0.09787391  0.08567134  0.10719265  1
  Li  Li79  1  0.91432866  0.01220256  0.10719265  1
  Li  Li80  1  0.98779744  0.90212609  0.10719265  1
  Li  Li81  1  0.91432866  0.90212609  0.89280735  1
  Li  Li82  1  0.98779744  0.08567134  0.89280735  1
  Li  Li83  1  0.09787391  0.01220256  0.89280735  1
  Li  Li84  1  0.33333333  0.66666667  0.05933446  1
  Li  Li85  1  0.33333333  0.66666667  0.94066554  1
  Li  Li86  1  0.66666667  0.33333333  0.80806094  1
  Li  Li87  1  0.66666667  0.33333333  0.19193906  1
  Li  Li88  1  0.66666667  0.33333333  0.43855431  1
  Li  Li89  1  0.66666667  0.33333333  0.56144569  1
