# generated using pymatgen
data_Li2Ca3F8
_symmetry_space_group_name_H-M   'P 1'
_cell_length_a   8.96359549
_cell_length_b   8.96359549
_cell_length_c   29.07748959
_cell_angle_alpha   90.00000000
_cell_angle_beta   90.00000000
_cell_angle_gamma   120.00000000
_symmetry_Int_Tables_number   1
_chemical_formula_structural   Li2Ca3F8
_chemical_formula_sum   'Li16 Ca24 F64'
_cell_volume   2023.26160218
_cell_formula_units_Z   8
loop_
 _symmetry_equiv_pos_site_id
 _symmetry_equiv_pos_as_xyz
  1  'x, y, z'
loop_
 _atom_site_type_symbol
 _atom_site_label
 _atom_site_symmetry_multiplicity
 _atom_site_fract_x
 _atom_site_fract_y
 _atom_site_fract_z
 _atom_site_occupancy
  Ca  Ca0  1  0.54712442  0.44109349  0.46067241  1
  Ca  Ca1  1  0.55890651  0.10603093  0.46067241  1
  Ca  Ca2  1  0.89396907  0.45287558  0.46067241  1
  Ca  Ca3  1  0.55890651  0.45287558  0.53932759  1
  Ca  Ca4  1  0.89396907  0.44109349  0.53932759  1
  Ca  Ca5  1  0.54712442  0.10603093  0.53932759  1
  Ca  Ca6  1  0.31059021  0.24972019  0.92740201  1
  Ca  Ca7  1  0.75027981  0.06087002  0.92740201  1
  Ca  Ca8  1  0.93912998  0.68940979  0.92740201  1
  Ca  Ca9  1  0.75027981  0.68940979  0.07259799  1
  Ca  Ca10  1  0.93912998  0.24972019  0.07259799  1
  Ca  Ca11  1  0.31059021  0.06087002  0.07259799  1
  Ca  Ca12  1  0.22408122  0.98500728  0.98870185  1
  Ca  Ca13  1  0.01499272  0.23907394  0.98870185  1
  Ca  Ca14  1  0.76092606  0.77591878  0.98870185  1
  Ca  Ca15  1  0.01499272  0.77591878  0.01129815  1
  Ca  Ca16  1  0.76092606  0.98500728  0.01129815  1
  Ca  Ca17  1  0.22408122  0.23907394  0.01129815  1
  Ca  Ca18  1  0.89421555  0.02586117  0.30713822  1
  Ca  Ca19  1  0.97413883  0.86835438  0.30713822  1
  Ca  Ca20  1  0.13164562  0.10578445  0.30713822  1
  Ca  Ca21  1  0.97413883  0.10578445  0.69286178  1
  Ca  Ca22  1  0.13164562  0.02586117  0.69286178  1
  Ca  Ca23  1  0.89421555  0.86835438  0.69286178  1
  F  F24  1  0.26583304  0.78864878  0.57807571  1
  F  F25  1  -0.78864878  -0.52281574  0.57807571  1
  F  F26  1  0.52281574  -0.26583304  0.57807571  1
  F  F27  1  -0.78864878  -0.26583304  -0.57807571  1
  F  F28  1  0.52281574  0.78864878  -0.57807571  1
  F  F29  1  0.26583304  -0.52281574  -0.57807571  1
  F  F30  1  0.08944665  0.73725217  0.24185386  1
  F  F31  1  0.26274783  0.35219448  0.24185386  1
  F  F32  1  0.64780552  0.91055335  0.24185386  1
  F  F33  1  0.26274783  0.91055335  0.75814614  1
  F  F34  1  0.64780552  0.73725217  0.75814614  1
  F  F35  1  0.08944665  0.35219448  0.75814614  1
  F  F36  1  0.03802221  0.23145959  0.21889767  1
  F  F37  1  0.76854041  0.80656262  0.21889767  1
  F  F38  1  0.19343738  0.96197779  0.21889767  1
  F  F39  1  0.76854041  0.96197779  0.78110233  1
  F  F40  1  0.19343738  0.23145959  0.78110233  1
  F  F41  1  0.03802221  0.80656262  0.78110233  1
  F  F42  1  0.66666667  0.33333333  0.86336137  1
  F  F43  1  0.66666667  0.33333333  0.13663863  1
  F  F44  1  0.83640514  0.16359486  -0.00000000  1
  F  F45  1  0.83640514  0.67281028  -0.00000000  1
  F  F46  1  0.32718972  0.16359486  0.00000000  1
  F  F47  1  0.10518301  0.24672409  0.28060687  1
  F  F48  1  0.75327591  0.85845892  0.28060687  1
  F  F49  1  0.14154108  0.89481699  0.28060687  1
  F  F50  1  0.75327591  0.89481699  0.71939313  1
  F  F51  1  0.14154108  0.24672409  0.71939313  1
  F  F52  1  0.10518301  0.85845892  0.71939313  1
  F  F53  1  0.66666667  0.33333333  0.08699537  1
  F  F54  1  0.66666667  0.33333333  0.91300463  1
  F  F55  1  0.47319954  0.79738571  0.68324457  1
  F  F56  1  0.20261429  0.67581383  0.68324457  1
  F  F57  1  0.32418617  0.52680046  0.68324457  1
  F  F58  1  0.20261429  0.52680046  0.31675543  1
  F  F59  1  0.32418617  0.79738571  0.31675543  1
  F  F60  1  0.47319954  0.67581383  0.31675543  1
  F  F61  1  0.66666667  0.33333333  0.50000000  1
  F  F62  1  0.33333333  0.66666667  0.15848202  1
  F  F63  1  0.33333333  0.66666667  0.84151798  1
  F  F64  1  0.03815405  0.19087218  0.04803438  1
  F  F65  1  0.80912782  0.84728187  0.04803438  1
  F  F66  1  0.15271813  0.96184595  0.04803438  1
  F  F67  1  0.80912782  0.96184595  0.95196562  1
  F  F68  1  0.15271813  0.19087218  0.95196562  1
  F  F69  1  0.03815405  0.84728187  0.95196562  1
  F  F70  1  0.90838110  0.84829262  0.36470273  1
  F  F71  1  0.15170738  0.06008848  0.36470273  1
  F  F72  1  0.93991152  0.09161890  0.36470273  1
  F  F73  1  0.15170738  0.09161890  0.63529727  1
  F  F74  1  0.93991152  0.84829262  0.63529727  1
  F  F75  1  0.90838110  0.06008848  0.63529727  1
  F  F76  1  0.25140487  0.43876061  0.52438309  1
  F  F77  1  0.56123939  0.81264426  0.52438309  1
  F  F78  1  0.18735574  0.74859513  0.52438309  1
  F  F79  1  0.56123939  0.74859513  0.47561691  1
  F  F80  1  0.18735574  0.43876061  0.47561691  1
  F  F81  1  0.25140487  0.81264426  0.47561691  1
  F  F82  1  0.46436830  0.75326732  0.59362440  1
  F  F83  1  0.24673268  0.71110098  0.59362440  1
  F  F84  1  0.28889902  0.53563170  0.59362440  1
  F  F85  1  0.24673268  0.53563170  0.40637560  1
  F  F86  1  0.28889902  0.75326732  0.40637560  1
  F  F87  1  0.46436830  0.71110098  0.40637560  1
  Li  Li88  1  0.46548500  0.79339128  0.13498953  1
  Li  Li89  1  0.20660872  0.67209371  0.13498953  1
  Li  Li90  1  0.32790629  0.53451500  0.13498953  1
  Li  Li91  1  0.20660872  0.53451500  0.86501047  1
  Li  Li92  1  0.32790629  0.79339128  0.86501047  1
  Li  Li93  1  0.46548500  0.67209371  0.86501047  1
  Li  Li94  1  0.36472456  0.55758986  0.24731491  1
  Li  Li95  1  0.44241014  0.80713470  0.24731491  1
  Li  Li96  1  0.19286530  0.63527544  0.24731491  1
  Li  Li97  1  0.44241014  0.63527544  0.75268509  1
  Li  Li98  1  0.19286530  0.55758986  0.75268509  1
  Li  Li99  1  0.36472456  0.80713470  0.75268509  1
  Li  Li100  1  0.33333333  0.66666667  0.50000000  1
  Li  Li101  1  0.66666667  0.33333333  -0.00000000  1
  Li  Li102  1  0.00000000  0.00000000  0.54427996  1
  Li  Li103  1  0.00000000  0.00000000  0.45572004  1
