# generated using pymatgen
data_LiF
_symmetry_space_group_name_H-M   'P 1'
_cell_length_a   6.67754745
_cell_length_b   6.67754745
_cell_length_c   10.16252931
_cell_angle_alpha   90.00000000
_cell_angle_beta   90.00000000
_cell_angle_gamma   120.00000000
_symmetry_Int_Tables_number   1
_chemical_formula_structural   LiF
_chemical_formula_sum   'Li12 F12'
_cell_volume   392.43380299
_cell_formula_units_Z   12
loop_
 _symmetry_equiv_pos_site_id
 _symmetry_equiv_pos_as_xyz
  1  'x, y, z'
loop_
 _atom_site_type_symbol
 _atom_site_label
 _atom_site_symmetry_multiplicity
 _atom_site_fract_x
 _atom_site_fract_y
 _atom_site_fract_z
 _atom_site_occupancy
  F  F0  1  0.25689651  0.19863878  0.70896086  1
  F  F1  1  -0.19863878  0.05825772  0.70896086  1
  F  F2  1  -0.05825772  -0.25689651  0.70896086  1
  F  F3  1  -0.19863878  -0.25689651  -0.70896086  1
  F  F4  1  -0.05825772  0.19863878  -0.70896086  1
  F  F5  1  0.25689651  0.05825772  -0.70896086  1
  F  F6  1  0.33333333  0.66666667  0.50000000  1
  F  F7  1  0.07189364  0.92810636  0.50000000  1
  F  F8  1  0.07189364  0.14378728  0.50000000  1
  F  F9  1  0.85621272  0.92810636  0.50000000  1
  F  F10  1  0.00000000  0.00000000  0.91551108  1
  F  F11  1  0.00000000  0.00000000  0.08448892  1
  Li  Li12  1  0.33333333  0.66666667  -0.00000000  1
  Li  Li13  1  0.91583486  0.08416514  -0.00000000  1
  Li  Li14  1  0.91583486  0.83166972  0.00000000  1
  Li  Li15  1  0.16833028  0.08416514  -0.00000000  1
  Li  Li16  1  0.66666667  0.33333333  0.25421310  1
  Li  Li17  1  0.66666667  0.33333333  0.74578690  1
  Li  Li18  1  0.00000000  0.00000000  0.35708661  1
  Li  Li19  1  0.00000000  0.00000000  0.64291339  1
  Li  Li20  1  0.66666667  0.33333333  -0.00000000  1
  Li  Li21  1  0.66666667  0.33333333  0.50000000  1
  Li  Li22  1  0.33333333  0.66666667  0.38245957  1
  Li  Li23  1  0.33333333  0.66666667  0.61754043  1
