# generated using pymatgen
data_Li2CaSeF2
_symmetry_space_group_name_H-M   'P 1'
_cell_length_a   6.21822248
_cell_length_b   11.75166319
_cell_length_c   5.95269218
_cell_angle_alpha   90.00000000
_cell_angle_beta   90.00000000
_cell_angle_gamma   90.00000000
_symmetry_Int_Tables_number   1
_chemical_formula_structural   Li2CaSeF2
_chemical_formula_sum   'Li8 Ca4 Se4 F8'
_cell_volume   434.98974423
_cell_formula_units_Z   4
loop_
 _symmetry_equiv_pos_site_id
 _symmetry_equiv_pos_as_xyz
  1  'x, y, z'
loop_
 _atom_site_type_symbol
 _atom_site_label
 _atom_site_symmetry_multiplicity
 _atom_site_fract_x
 _atom_site_fract_y
 _atom_site_fract_z
 _atom_site_occupancy
  Ca  Ca0  1  0.00000000  0.00000000  0.50000000  1
  Ca  Ca1  1  0.50000000  0.00000000  0.00000000  1
  Ca  Ca2  1  0.00000000  0.50000000  0.50000000  1
  Ca  Ca3  1  0.50000000  0.50000000  0.00000000  1
  F  F4  1  0.15241961  0.25000000  0.13168422  1
  F  F5  1  0.34758039  0.75000000  0.63168422  1
  F  F6  1  0.84758039  0.75000000  0.86831578  1
  F  F7  1  0.65241961  0.25000000  0.36831578  1
  F  F8  1  0.24846827  0.25000000  0.88749457  1
  F  F9  1  0.25153173  0.75000000  0.38749457  1
  F  F10  1  0.75153173  0.75000000  0.11250543  1
  F  F11  1  0.74846827  0.25000000  0.61250543  1
  Li  Li12  1  0.52491783  0.39861473  0.37507483  1
  Li  Li13  1  -0.02491783  -0.39861473  0.87507483  1
  Li  Li14  1  -0.52491783  0.89861473  -0.37507483  1
  Li  Li15  1  1.02491783  0.10138527  0.12492517  1
  Li  Li16  1  -0.52491783  -0.39861473  -0.37507483  1
  Li  Li17  1  1.02491783  0.39861473  0.12492517  1
  Li  Li18  1  0.52491783  0.10138527  0.37507483  1
  Li  Li19  1  -0.02491783  0.89861473  0.87507483  1
  Se  Se20  1  0.00000000  0.00000000  0.00000000  1
  Se  Se21  1  0.50000000  0.00000000  0.50000000  1
  Se  Se22  1  0.00000000  0.50000000  0.00000000  1
  Se  Se23  1  0.50000000  0.50000000  0.50000000  1
