# generated using pymatgen
data_LiY2AsP3
_symmetry_space_group_name_H-M   'P 1'
_cell_length_a   3.92369232
_cell_length_b   4.21038141
_cell_length_c   6.66892391
_cell_angle_alpha   96.67026881
_cell_angle_beta   104.03806432
_cell_angle_gamma   114.41838015
_symmetry_Int_Tables_number   1
_chemical_formula_structural   LiY2AsP3
_chemical_formula_sum   'Li1 Y2 As1 P3'
_cell_volume   94.35513696
_cell_formula_units_Z   1
loop_
 _symmetry_equiv_pos_site_id
 _symmetry_equiv_pos_as_xyz
  1  'x, y, z'
loop_
 _atom_site_type_symbol
 _atom_site_label
 _atom_site_symmetry_multiplicity
 _atom_site_fract_x
 _atom_site_fract_y
 _atom_site_fract_z
 _atom_site_occupancy
  P  P0  1  0.00000000  0.00000000  0.00000000  1
  P  P1  1  0.50000000  0.50000000  0.50000000  1
  P  P2  1  0.50000000  0.50000000  0.00000000  1
  As  As3  1  0.50000000  0.00000000  0.50000000  1
  Li  Li4  1  0.00000000  0.50000000  0.50000000  1
  Y  Y5  1  0.67514970  0.31288647  0.02637494  1
  Y  Y6  1  0.52294953  0.86448020  0.13708627  1
