# generated using pymatgen
data_LiF
_symmetry_space_group_name_H-M   'P 1'
_cell_length_a   8.46556153
_cell_length_b   8.46556153
_cell_length_c   8.00183162
_cell_angle_alpha   90.00000000
_cell_angle_beta   90.00000000
_cell_angle_gamma   120.00000000
_symmetry_Int_Tables_number   1
_chemical_formula_structural   LiF
_chemical_formula_sum   'Li36 F36'
_cell_volume   496.62843450
_cell_formula_units_Z   36
loop_
 _symmetry_equiv_pos_site_id
 _symmetry_equiv_pos_as_xyz
  1  'x, y, z'
loop_
 _atom_site_type_symbol
 _atom_site_label
 _atom_site_symmetry_multiplicity
 _atom_site_fract_x
 _atom_site_fract_y
 _atom_site_fract_z
 _atom_site_occupancy
  F  F0  1  0.00000000  0.00000000  0.43286274  1
  F  F1  1  0.00000000  0.00000000  0.06713726  1
  F  F2  1  0.00000000  0.00000000  0.56713726  1
  F  F3  1  0.00000000  0.00000000  0.93286274  1
  F  F4  1  0.66666667  0.33333333  0.76619608  1
  F  F5  1  0.66666667  0.33333333  0.40047059  1
  F  F6  1  0.66666667  0.33333333  0.90047059  1
  F  F7  1  0.66666667  0.33333333  0.26619608  1
  F  F8  1  0.33333333  0.66666667  0.09952941  1
  F  F9  1  0.33333333  0.66666667  0.73380392  1
  F  F10  1  0.33333333  0.66666667  0.23380392  1
  F  F11  1  0.33333333  0.66666667  0.59952941  1
  F  F12  1  0.79012625  0.00000000  0.25000000  1
  F  F13  1  0.00000000  0.79012625  0.25000000  1
  F  F14  1  0.20987375  0.20987375  0.25000000  1
  F  F15  1  0.20987375  0.00000000  0.75000000  1
  F  F16  1  0.00000000  0.20987375  0.75000000  1
  F  F17  1  0.79012625  0.79012625  0.75000000  1
  F  F18  1  0.45679292  0.33333333  0.58333333  1
  F  F19  1  0.66666667  0.12345958  0.58333333  1
  F  F20  1  0.87654042  0.54320708  0.58333333  1
  F  F21  1  0.87654042  0.33333333  0.08333333  1
  F  F22  1  0.66666667  0.54320708  0.08333333  1
  F  F23  1  0.45679292  0.12345958  0.08333333  1
  F  F24  1  0.12345958  0.66666667  0.91666667  1
  F  F25  1  0.33333333  0.45679292  0.91666667  1
  F  F26  1  0.54320708  0.87654042  0.91666667  1
  F  F27  1  0.54320708  0.66666667  0.41666667  1
  F  F28  1  0.33333333  0.87654042  0.41666667  1
  F  F29  1  0.12345958  0.45679292  0.41666667  1
  F  F30  1  0.00000000  0.00000000  0.25000000  1
  F  F31  1  0.00000000  0.00000000  0.75000000  1
  F  F32  1  0.66666667  0.33333333  0.58333333  1
  F  F33  1  0.66666667  0.33333333  0.08333333  1
  F  F34  1  0.33333333  0.66666667  0.91666667  1
  F  F35  1  0.33333333  0.66666667  0.41666667  1
  Li  Li36  1  0.43419664  0.93465669  0.57720662  1
  Li  Li37  1  -0.93465669  -0.50046005  0.57720662  1
  Li  Li38  1  0.50046005  -0.43419664  0.57720662  1
  Li  Li39  1  0.93465669  0.43419664  -0.07720662  1
  Li  Li40  1  -0.50046005  -0.93465669  -0.07720662  1
  Li  Li41  1  -0.43419664  0.50046005  -0.07720662  1
  Li  Li42  1  -0.43419664  -0.93465669  -0.57720662  1
  Li  Li43  1  0.93465669  0.50046005  -0.57720662  1
  Li  Li44  1  -0.50046005  0.43419664  -0.57720662  1
  Li  Li45  1  -0.93465669  -0.43419664  1.07720662  1
  Li  Li46  1  0.50046005  0.93465669  1.07720662  1
  Li  Li47  1  0.43419664  -0.50046005  1.07720662  1
  Li  Li48  1  1.10086331  1.26799002  0.91053995  1
  Li  Li49  1  -0.26799002  -0.16712672  0.91053995  1
  Li  Li50  1  1.16712672  -0.10086331  0.91053995  1
  Li  Li51  1  1.60132335  0.76752997  0.25612671  1
  Li  Li52  1  0.16620662  -0.60132335  0.25612671  1
  Li  Li53  1  0.23247003  0.83379338  0.25612671  1
  Li  Li54  1  0.23247003  -0.60132335  -0.24387329  1
  Li  Li55  1  1.60132335  0.83379338  -0.24387329  1
  Li  Li56  1  0.16620662  0.76752997  -0.24387329  1
  Li  Li57  1  -0.26799002  -0.10086331  1.41053995  1
  Li  Li58  1  1.16712672  1.26799002  1.41053995  1
  Li  Li59  1  1.10086331  -0.16712672  1.41053995  1
  Li  Li60  1  0.76752997  1.60132335  1.24387329  1
  Li  Li61  1  -0.60132335  0.16620662  1.24387329  1
  Li  Li62  1  0.83379338  0.23247003  1.24387329  1
  Li  Li63  1  1.26799002  1.10086331  0.58946005  1
  Li  Li64  1  -0.16712672  -0.26799002  0.58946005  1
  Li  Li65  1  -0.10086331  1.16712672  0.58946005  1
  Li  Li66  1  -0.10086331  -0.26799002  0.08946005  1
  Li  Li67  1  1.26799002  1.16712672  0.08946005  1
  Li  Li68  1  -0.16712672  1.10086331  0.08946005  1
  Li  Li69  1  -0.60132335  0.23247003  1.74387329  1
  Li  Li70  1  0.83379338  1.60132335  1.74387329  1
  Li  Li71  1  0.76752997  0.16620662  1.74387329  1
