# generated using pymatgen
data_LiF
_symmetry_space_group_name_H-M   'P 1'
_cell_length_a   14.60695024
_cell_length_b   14.60695024
_cell_length_c   3.58835343
_cell_angle_alpha   90.00000000
_cell_angle_beta   90.00000000
_cell_angle_gamma   120.00000000
_symmetry_Int_Tables_number   1
_chemical_formula_structural   LiF
_chemical_formula_sum   'Li24 F24'
_cell_volume   663.04795927
_cell_formula_units_Z   24
loop_
 _symmetry_equiv_pos_site_id
 _symmetry_equiv_pos_as_xyz
  1  'x, y, z'
loop_
 _atom_site_type_symbol
 _atom_site_label
 _atom_site_symmetry_multiplicity
 _atom_site_fract_x
 _atom_site_fract_y
 _atom_site_fract_z
 _atom_site_occupancy
  F  F0  1  0.50000000  0.00000000  0.00000000  1
  F  F1  1  0.00000000  0.50000000  0.00000000  1
  F  F2  1  0.50000000  0.50000000  0.00000000  1
  F  F3  1  0.50000000  0.00000000  0.50000000  1
  F  F4  1  0.00000000  0.50000000  0.50000000  1
  F  F5  1  0.50000000  0.50000000  0.50000000  1
  F  F6  1  0.33333333  0.66666667  0.75000000  1
  F  F7  1  0.66666667  0.33333333  0.25000000  1
  F  F8  1  0.00000000  0.00000000  0.25000000  1
  F  F9  1  0.00000000  0.00000000  0.75000000  1
  F  F10  1  0.00000000  0.00000000  0.00000000  1
  F  F11  1  0.00000000  0.00000000  0.50000000  1
  F  F12  1  0.33333333  0.66666667  0.51884297  1
  F  F13  1  0.66666667  0.33333333  0.01884297  1
  F  F14  1  0.66666667  0.33333333  0.48115703  1
  F  F15  1  0.33333333  0.66666667  0.98115703  1
  F  F16  1  0.62532571  0.25065142  0.25000000  1
  F  F17  1  0.74934858  0.37467429  0.25000000  1
  F  F18  1  0.62532571  0.37467429  0.25000000  1
  F  F19  1  0.37467429  0.74934858  0.75000000  1
  F  F20  1  0.25065142  0.62532571  0.75000000  1
  F  F21  1  0.37467429  0.62532571  0.75000000  1
  F  F22  1  0.33333333  0.66666667  0.25000000  1
  F  F23  1  0.66666667  0.33333333  0.75000000  1
  Li  Li24  1  0.87054785  0.61053120  0.25000000  1
  Li  Li25  1  -0.61053120  0.26001665  0.25000000  1
  Li  Li26  1  -0.26001665  -0.87054785  0.25000000  1
  Li  Li27  1  -0.87054785  -0.61053120  0.75000000  1
  Li  Li28  1  0.61053120  -0.26001665  0.75000000  1
  Li  Li29  1  0.26001665  0.87054785  0.75000000  1
  Li  Li30  1  0.61053120  0.87054785  0.75000000  1
  Li  Li31  1  0.26001665  -0.61053120  0.75000000  1
  Li  Li32  1  -0.87054785  -0.26001665  0.75000000  1
  Li  Li33  1  -0.61053120  -0.87054785  0.25000000  1
  Li  Li34  1  -0.26001665  0.61053120  0.25000000  1
  Li  Li35  1  0.87054785  0.26001665  0.25000000  1
  Li  Li36  1  0.26022134  0.52044267  0.25000000  1
  Li  Li37  1  0.47955733  0.73977866  0.25000000  1
  Li  Li38  1  0.26022134  0.73977866  0.25000000  1
  Li  Li39  1  0.73977866  0.47955733  0.75000000  1
  Li  Li40  1  0.52044267  0.26022134  0.75000000  1
  Li  Li41  1  0.73977866  0.26022134  0.75000000  1
  Li  Li42  1  0.88914641  0.77829281  0.25000000  1
  Li  Li43  1  0.22170719  0.11085359  0.25000000  1
  Li  Li44  1  0.88914641  0.11085359  0.25000000  1
  Li  Li45  1  0.11085359  0.22170719  0.75000000  1
  Li  Li46  1  0.77829281  0.88914641  0.75000000  1
  Li  Li47  1  0.11085359  0.88914641  0.75000000  1
