# generated using pymatgen
data_LiF
_symmetry_space_group_name_H-M   'P 1'
_cell_length_a   6.95731664
_cell_length_b   6.95731664
_cell_length_c   29.67170236
_cell_angle_alpha   90.00000000
_cell_angle_beta   90.00000000
_cell_angle_gamma   90.00000000
_symmetry_Int_Tables_number   1
_chemical_formula_structural   LiF
_chemical_formula_sum   'Li64 F64'
_cell_volume   1436.23664259
_cell_formula_units_Z   64
loop_
 _symmetry_equiv_pos_site_id
 _symmetry_equiv_pos_as_xyz
  1  'x, y, z'
loop_
 _atom_site_type_symbol
 _atom_site_label
 _atom_site_symmetry_multiplicity
 _atom_site_fract_x
 _atom_site_fract_y
 _atom_site_fract_z
 _atom_site_occupancy
  F  F0  1  0.41296700  0.00000000  0.25000000  1
  F  F1  1  0.08703300  0.00000000  0.75000000  1
  F  F2  1  0.25000000  0.16296700  0.50000000  1
  F  F3  1  0.25000000  0.83703300  0.00000000  1
  F  F4  1  0.58703300  0.00000000  0.75000000  1
  F  F5  1  0.91296700  0.00000000  0.25000000  1
  F  F6  1  0.75000000  0.83703300  0.50000000  1
  F  F7  1  0.75000000  0.16296700  -0.00000000  1
  F  F8  1  0.91296700  0.50000000  0.75000000  1
  F  F9  1  0.58703300  0.50000000  0.25000000  1
  F  F10  1  0.75000000  0.66296700  0.00000000  1
  F  F11  1  0.75000000  0.33703300  0.50000000  1
  F  F12  1  0.08703300  0.50000000  0.25000000  1
  F  F13  1  0.41296700  0.50000000  0.75000000  1
  F  F14  1  0.25000000  0.33703300  -0.00000000  1
  F  F15  1  0.25000000  0.66296700  0.50000000  1
  F  F16  1  0.91120608  0.96374220  0.56467435  1
  F  F17  1  -0.41120608  -0.96374220  1.06467435  1
  F  F18  1  -0.71374220  1.66120608  0.81467435  1
  F  F19  1  1.21374220  -0.66120608  1.31467435  1
  F  F20  1  -0.41120608  0.96374220  -0.56467435  1
  F  F21  1  0.91120608  -0.96374220  -0.06467435  1
  F  F22  1  1.21374220  1.66120608  0.18532565  1
  F  F23  1  -0.71374220  -0.66120608  -0.31467435  1
  F  F24  1  -0.91120608  -0.96374220  -0.56467435  1
  F  F25  1  1.41120608  0.96374220  -0.06467435  1
  F  F26  1  1.71374220  -0.66120608  0.18532565  1
  F  F27  1  -0.21374220  1.66120608  -0.31467435  1
  F  F28  1  1.41120608  -0.96374220  0.56467435  1
  F  F29  1  -0.91120608  0.96374220  1.06467435  1
  F  F30  1  -0.21374220  -0.66120608  0.81467435  1
  F  F31  1  1.71374220  1.66120608  1.31467435  1
  F  F32  1  1.41120608  1.46374220  1.06467435  1
  F  F33  1  0.08879392  -0.46374220  1.56467435  1
  F  F34  1  -0.21374220  2.16120608  1.31467435  1
  F  F35  1  1.71374220  -0.16120608  1.81467435  1
  F  F36  1  0.08879392  1.46374220  -0.06467435  1
  F  F37  1  1.41120608  -0.46374220  0.43532565  1
  F  F38  1  1.71374220  2.16120608  0.68532565  1
  F  F39  1  -0.21374220  -0.16120608  0.18532565  1
  F  F40  1  -0.41120608  -0.46374220  -0.06467435  1
  F  F41  1  1.91120608  1.46374220  0.43532565  1
  F  F42  1  2.21374220  -0.16120608  0.68532565  1
  F  F43  1  0.28625780  2.16120608  0.18532565  1
  F  F44  1  1.91120608  -0.46374220  1.06467435  1
  F  F45  1  -0.41120608  1.46374220  1.56467435  1
  F  F46  1  0.28625780  -0.16120608  1.31467435  1
  F  F47  1  2.21374220  2.16120608  1.81467435  1
  F  F48  1  0.00000000  0.00000000  0.00000000  1
  F  F49  1  0.50000000  0.00000000  0.50000000  1
  F  F50  1  0.25000000  0.75000000  0.25000000  1
  F  F51  1  0.25000000  0.25000000  0.75000000  1
  F  F52  1  0.50000000  0.00000000  0.00000000  1
  F  F53  1  0.00000000  0.00000000  0.50000000  1
  F  F54  1  0.25000000  0.75000000  0.75000000  1
  F  F55  1  0.25000000  0.25000000  0.25000000  1
  F  F56  1  0.50000000  0.50000000  0.50000000  1
  F  F57  1  0.00000000  0.50000000  0.00000000  1
  F  F58  1  0.75000000  0.25000000  0.75000000  1
  F  F59  1  0.75000000  0.75000000  0.25000000  1
  F  F60  1  0.00000000  0.50000000  0.50000000  1
  F  F61  1  0.50000000  0.50000000  0.00000000  1
  F  F62  1  0.75000000  0.25000000  0.25000000  1
  F  F63  1  0.75000000  0.75000000  0.75000000  1
  Li  Li64  1  0.86401243  0.11401243  0.12500000  1
  Li  Li65  1  0.63598757  0.88598757  0.62500000  1
  Li  Li66  1  0.13598757  0.61401243  0.37500000  1
  Li  Li67  1  0.36401243  0.38598757  0.87500000  1
  Li  Li68  1  0.13598757  0.88598757  0.87500000  1
  Li  Li69  1  0.36401243  0.11401243  0.37500000  1
  Li  Li70  1  0.86401243  0.38598757  0.62500000  1
  Li  Li71  1  0.63598757  0.61401243  0.12500000  1
  Li  Li72  1  0.36401243  0.61401243  0.62500000  1
  Li  Li73  1  0.13598757  0.38598757  0.12500000  1
  Li  Li74  1  0.63598757  0.11401243  0.87500000  1
  Li  Li75  1  0.86401243  0.88598757  0.37500000  1
  Li  Li76  1  0.63598757  0.38598757  0.37500000  1
  Li  Li77  1  0.86401243  0.61401243  0.87500000  1
  Li  Li78  1  0.36401243  0.88598757  0.12500000  1
  Li  Li79  1  0.13598757  0.11401243  0.62500000  1
  Li  Li80  1  0.13639672  -0.00000000  0.25000000  1
  Li  Li81  1  0.36360328  0.00000000  0.75000000  1
  Li  Li82  1  0.25000000  0.88639672  0.50000000  1
  Li  Li83  1  0.25000000  0.11360328  -0.00000000  1
  Li  Li84  1  0.86360328  -0.00000000  0.75000000  1
  Li  Li85  1  0.63639672  0.00000000  0.25000000  1
  Li  Li86  1  0.75000000  0.11360328  0.50000000  1
  Li  Li87  1  0.75000000  0.88639672  -0.00000000  1
  Li  Li88  1  0.63639672  0.50000000  0.75000000  1
  Li  Li89  1  0.86360328  0.50000000  0.25000000  1
  Li  Li90  1  0.75000000  0.38639672  -0.00000000  1
  Li  Li91  1  0.75000000  0.61360328  0.50000000  1
  Li  Li92  1  0.36360328  0.50000000  0.25000000  1
  Li  Li93  1  0.13639672  0.50000000  0.75000000  1
  Li  Li94  1  0.25000000  0.61360328  -0.00000000  1
  Li  Li95  1  0.25000000  0.38639672  0.50000000  1
  Li  Li96  1  0.73244022  0.61837860  0.38100609  1
  Li  Li97  1  0.76755978  0.38162140  0.88100609  1
  Li  Li98  1  0.63162140  0.48244022  0.63100609  1
  Li  Li99  1  0.86837860  0.51755978  0.13100609  1
  Li  Li100  1  0.76755978  0.61837860  0.61899391  1
  Li  Li101  1  0.73244022  0.38162140  0.11899391  1
  Li  Li102  1  0.86837860  0.48244022  0.36899391  1
  Li  Li103  1  0.63162140  0.51755978  0.86899391  1
  Li  Li104  1  0.26755978  0.38162140  0.61899391  1
  Li  Li105  1  0.23244022  0.61837860  0.11899391  1
  Li  Li106  1  0.36837860  0.51755978  0.36899391  1
  Li  Li107  1  0.13162140  0.48244022  0.86899391  1
  Li  Li108  1  0.23244022  0.38162140  0.38100609  1
  Li  Li109  1  0.26755978  0.61837860  0.88100609  1
  Li  Li110  1  0.13162140  0.51755978  0.63100609  1
  Li  Li111  1  0.36837860  0.48244022  0.13100609  1
  Li  Li112  1  0.23244022  0.11837860  0.88100609  1
  Li  Li113  1  0.26755978  0.88162140  0.38100609  1
  Li  Li114  1  0.13162140  0.98244022  0.13100609  1
  Li  Li115  1  0.36837860  0.01755978  0.63100609  1
  Li  Li116  1  0.26755978  0.11837860  0.11899391  1
  Li  Li117  1  0.23244022  0.88162140  0.61899391  1
  Li  Li118  1  0.36837860  0.98244022  0.86899391  1
  Li  Li119  1  0.13162140  0.01755978  0.36899391  1
  Li  Li120  1  0.76755978  0.88162140  0.11899391  1
  Li  Li121  1  0.73244022  0.11837860  0.61899391  1
  Li  Li122  1  0.86837860  0.01755978  0.86899391  1
  Li  Li123  1  0.63162140  0.98244022  0.36899391  1
  Li  Li124  1  0.73244022  0.88162140  0.88100609  1
  Li  Li125  1  0.76755978  0.11837860  0.38100609  1
  Li  Li126  1  0.63162140  0.01755978  0.13100609  1
  Li  Li127  1  0.86837860  0.98244022  0.63100609  1
