# generated using pymatgen
data_LiF
_symmetry_space_group_name_H-M   'P 1'
_cell_length_a   13.15931986
_cell_length_b   7.60647687
_cell_length_c   6.39137519
_cell_angle_alpha   90.00000000
_cell_angle_beta   90.00000000
_cell_angle_gamma   90.00000000
_symmetry_Int_Tables_number   1
_chemical_formula_structural   LiF
_chemical_formula_sum   'Li24 F24'
_cell_volume   639.75148778
_cell_formula_units_Z   24
loop_
 _symmetry_equiv_pos_site_id
 _symmetry_equiv_pos_as_xyz
  1  'x, y, z'
loop_
 _atom_site_type_symbol
 _atom_site_label
 _atom_site_symmetry_multiplicity
 _atom_site_fract_x
 _atom_site_fract_y
 _atom_site_fract_z
 _atom_site_occupancy
  F  F0  1  0.23076890  0.61079576  0.13566434  1
  F  F1  1  0.26923110  -0.61079576  0.63566434  1
  F  F2  1  -0.23076890  1.11079576  -0.13566434  1
  F  F3  1  0.73076890  -0.11079576  0.36433566  1
  F  F4  1  -0.23076890  -0.61079576  -0.13566434  1
  F  F5  1  0.73076890  0.61079576  0.36433566  1
  F  F6  1  0.23076890  -0.11079576  0.13566434  1
  F  F7  1  0.26923110  1.11079576  0.63566434  1
  F  F8  1  0.50048660  0.25000000  0.77809972  1
  F  F9  1  0.99951340  0.75000000  0.27809972  1
  F  F10  1  0.49951340  0.75000000  0.22190028  1
  F  F11  1  0.00048660  0.25000000  0.72190028  1
  F  F12  1  0.16514731  0.18451180  0.86780231  1
  F  F13  1  0.33485269  0.81548820  0.36780231  1
  F  F14  1  0.83485269  0.68451180  0.13219769  1
  F  F15  1  0.66514731  0.31548820  0.63219769  1
  F  F16  1  0.83485269  0.81548820  0.13219769  1
  F  F17  1  0.66514731  0.18451180  0.63219769  1
  F  F18  1  0.16514731  0.31548820  0.86780231  1
  F  F19  1  0.33485269  0.68451180  0.36780231  1
  F  F20  1  0.19944146  0.25000000  0.50873170  1
  F  F21  1  0.30055854  0.75000000  0.00873170  1
  F  F22  1  0.80055854  0.75000000  0.49126830  1
  F  F23  1  0.69944146  0.25000000  0.99126830  1
  Li  Li24  1  0.34886052  0.44787872  0.43548632  1
  Li  Li25  1  0.15113948  0.55212128  0.93548632  1
  Li  Li26  1  0.65113948  0.94787872  0.56451368  1
  Li  Li27  1  0.84886052  0.05212128  0.06451368  1
  Li  Li28  1  0.65113948  0.55212128  0.56451368  1
  Li  Li29  1  0.84886052  0.44787872  0.06451368  1
  Li  Li30  1  0.34886052  0.05212128  0.43548632  1
  Li  Li31  1  0.15113948  0.94787872  0.93548632  1
  Li  Li32  1  0.24181552  0.25000000  0.12002418  1
  Li  Li33  1  0.25818448  0.75000000  0.62002418  1
  Li  Li34  1  0.75818448  0.75000000  0.87997582  1
  Li  Li35  1  0.74181552  0.25000000  0.37997582  1
  Li  Li36  1  0.38600312  0.25000000  0.23716216  1
  Li  Li37  1  0.11399688  0.75000000  0.73716216  1
  Li  Li38  1  0.61399688  0.75000000  0.76283784  1
  Li  Li39  1  0.88600312  0.25000000  0.26283784  1
  Li  Li40  1  0.00000000  0.00000000  0.50000000  1
  Li  Li41  1  0.50000000  0.00000000  0.00000000  1
  Li  Li42  1  0.00000000  0.50000000  0.50000000  1
  Li  Li43  1  0.50000000  0.50000000  -0.00000000  1
  Li  Li44  1  0.13139070  0.25000000  0.43941793  1
  Li  Li45  1  0.36860930  0.75000000  0.93941793  1
  Li  Li46  1  0.86860930  0.75000000  0.56058207  1
  Li  Li47  1  0.63139070  0.25000000  0.06058207  1
