# generated using pymatgen
data_LiF
_symmetry_space_group_name_H-M   'P 1'
_cell_length_a   6.06537325
_cell_length_b   6.06537325
_cell_length_c   7.54374512
_cell_angle_alpha   90.00000000
_cell_angle_beta   90.00000000
_cell_angle_gamma   120.00000000
_symmetry_Int_Tables_number   1
_chemical_formula_structural   LiF
_chemical_formula_sum   'Li7 F7'
_cell_volume   240.34367757
_cell_formula_units_Z   7
loop_
 _symmetry_equiv_pos_site_id
 _symmetry_equiv_pos_as_xyz
  1  'x, y, z'
loop_
 _atom_site_type_symbol
 _atom_site_label
 _atom_site_symmetry_multiplicity
 _atom_site_fract_x
 _atom_site_fract_y
 _atom_site_fract_z
 _atom_site_occupancy
  F  F0  1  0.00000000  0.00000000  0.50000000  1
  F  F1  1  0.52426038  0.47573962  0.00000000  1
  F  F2  1  0.52426038  0.04852077  -0.00000000  1
  F  F3  1  0.95147923  0.47573962  -0.00000000  1
  F  F4  1  0.43788782  0.56211218  0.00000000  1
  F  F5  1  0.43788782  0.87577565  0.00000000  1
  F  F6  1  0.12422435  0.56211218  0.00000000  1
  Li  Li7  1  0.63480529  0.06721167  0.42326349  1
  Li  Li8  1  -0.06721167  0.56759362  0.42326349  1
  Li  Li9  1  -0.56759362  -0.63480529  0.42326349  1
  Li  Li10  1  -0.06721167  -0.63480529  -0.42326349  1
  Li  Li11  1  -0.56759362  0.06721167  -0.42326349  1
  Li  Li12  1  0.63480529  0.56759362  -0.42326349  1
  Li  Li13  1  0.33333333  0.66666667  -0.00000000  1
