# generated using pymatgen
data_LiF
_symmetry_space_group_name_H-M   'P 1'
_cell_length_a   13.95144203
_cell_length_b   13.95144203
_cell_length_c   6.65717127
_cell_angle_alpha   90.00000000
_cell_angle_beta   90.00000000
_cell_angle_gamma   120.00000000
_symmetry_Int_Tables_number   1
_chemical_formula_structural   LiF
_chemical_formula_sum   'Li32 F32'
_cell_volume   1122.16975615
_cell_formula_units_Z   32
loop_
 _symmetry_equiv_pos_site_id
 _symmetry_equiv_pos_as_xyz
  1  'x, y, z'
loop_
 _atom_site_type_symbol
 _atom_site_label
 _atom_site_symmetry_multiplicity
 _atom_site_fract_x
 _atom_site_fract_y
 _atom_site_fract_z
 _atom_site_occupancy
  F  F0  1  0.31274005  0.74785997  0.56380144  1
  F  F1  1  0.25214003  0.56488008  0.56380144  1
  F  F2  1  0.43511992  0.68725995  0.56380144  1
  F  F3  1  0.25214003  0.68725995  0.43619856  1
  F  F4  1  0.43511992  0.74785997  0.43619856  1
  F  F5  1  0.31274005  0.56488008  0.43619856  1
  F  F6  1  0.18291714  0.29469808  0.23254616  1
  F  F7  1  0.70530192  0.88821906  0.23254616  1
  F  F8  1  0.11178094  0.81708286  0.23254616  1
  F  F9  1  0.70530192  0.81708286  0.76745384  1
  F  F10  1  0.11178094  0.29469808  0.76745384  1
  F  F11  1  0.18291714  0.88821906  0.76745384  1
  F  F12  1  0.58746803  0.41253197  0.50000000  1
  F  F13  1  0.58746803  0.17493607  0.50000000  1
  F  F14  1  0.82506393  0.41253197  0.50000000  1
  F  F15  1  0.05535463  0.81096034  0.78326652  1
  F  F16  1  0.18903966  0.24439428  0.78326652  1
  F  F17  1  0.75560572  0.94464537  0.78326652  1
  F  F18  1  0.18903966  0.94464537  0.21673348  1
  F  F19  1  0.75560572  0.81096034  0.21673348  1
  F  F20  1  0.05535463  0.24439428  0.21673348  1
  F  F21  1  0.54718970  0.49479917  0.50946699  1
  F  F22  1  0.50520083  0.05239054  0.50946699  1
  F  F23  1  0.94760946  0.45281030  0.50946699  1
  F  F24  1  0.50520083  0.45281030  0.49053301  1
  F  F25  1  0.94760946  0.49479917  0.49053301  1
  F  F26  1  0.54718970  0.05239054  0.49053301  1
  F  F27  1  0.72322779  0.27677221  0.00000000  1
  F  F28  1  0.72322779  0.44645559  0.00000000  1
  F  F29  1  0.55354441  0.27677221  0.00000000  1
  F  F30  1  0.00000000  0.00000000  0.72564782  1
  F  F31  1  0.00000000  0.00000000  0.27435218  1
  Li  Li32  1  0.32098884  0.38175783  0.09233868  1
  Li  Li33  1  -0.38175783  -0.06076900  0.09233868  1
  Li  Li34  1  0.06076900  -0.32098884  0.09233868  1
  Li  Li35  1  -0.38175783  -0.32098884  -0.09233868  1
  Li  Li36  1  0.06076900  0.38175783  -0.09233868  1
  Li  Li37  1  0.32098884  -0.06076900  -0.09233868  1
  Li  Li38  1  0.33333333  0.66666667  0.77171616  1
  Li  Li39  1  0.33333333  0.66666667  0.22828384  1
  Li  Li40  1  0.54859024  0.50860257  0.85357799  1
  Li  Li41  1  0.49139743  0.03998767  0.85357799  1
  Li  Li42  1  0.96001233  0.45140976  0.85357799  1
  Li  Li43  1  0.49139743  0.45140976  0.14642201  1
  Li  Li44  1  0.96001233  0.50860257  0.14642201  1
  Li  Li45  1  0.54859024  0.03998767  0.14642201  1
  Li  Li46  1  0.25849618  0.74150382  0.00000000  1
  Li  Li47  1  0.25849618  0.51699236  0.00000000  1
  Li  Li48  1  0.48300764  0.74150382  0.00000000  1
  Li  Li49  1  0.98862206  0.62528530  0.28479062  1
  Li  Li50  1  0.37471470  0.36333676  0.28479062  1
  Li  Li51  1  0.63666324  0.01137794  0.28479062  1
  Li  Li52  1  0.37471470  0.01137794  0.71520938  1
  Li  Li53  1  0.63666324  0.62528530  0.71520938  1
  Li  Li54  1  0.98862206  0.36333676  0.71520938  1
  Li  Li55  1  0.33333333  0.66666667  0.50000000  1
  Li  Li56  1  0.66666667  0.33333333  0.00000000  1
  Li  Li57  1  0.82756408  0.20101188  0.82562527  1
  Li  Li58  1  0.79898812  0.62655220  0.82562527  1
  Li  Li59  1  0.37344780  0.17243592  0.82562527  1
  Li  Li60  1  0.79898812  0.17243592  0.17437473  1
  Li  Li61  1  0.37344780  0.20101188  0.17437473  1
  Li  Li62  1  0.82756408  0.62655220  0.17437473  1
  Li  Li63  1  0.66666667  0.33333333  0.50000000  1
