# generated using pymatgen
data_LiY2PSe
_symmetry_space_group_name_H-M   'P 1'
_cell_length_a   4.74003998
_cell_length_b   4.78511078
_cell_length_c   6.07003287
_cell_angle_alpha   94.44462120
_cell_angle_beta   96.71424474
_cell_angle_gamma   103.20203308
_symmetry_Int_Tables_number   1
_chemical_formula_structural   LiY2PSe
_chemical_formula_sum   'Li1 Y2 P1 Se1'
_cell_volume   132.34489294
_cell_formula_units_Z   1
loop_
 _symmetry_equiv_pos_site_id
 _symmetry_equiv_pos_as_xyz
  1  'x, y, z'
loop_
 _atom_site_type_symbol
 _atom_site_label
 _atom_site_symmetry_multiplicity
 _atom_site_fract_x
 _atom_site_fract_y
 _atom_site_fract_z
 _atom_site_occupancy
  P  P0  1  0.00000000  0.00000000  0.00000000  1
  Se  Se1  1  0.50000000  0.50000000  0.50000000  1
  Li  Li2  1  0.25000000  0.25000000  0.25000000  1
  Y  Y3  1  0.75000000  0.25000000  0.00000000  1
  Y  Y4  1  0.25000000  0.75000000  0.50000000  1
