# generated using pymatgen
data_LiY2Cu3MoP2
_symmetry_space_group_name_H-M   'P 1'
_cell_length_a   4.42159501
_cell_length_b   4.59514576
_cell_length_c   6.77687100
_cell_angle_alpha   95.72248176
_cell_angle_beta   102.07307163
_cell_angle_gamma   112.37440324
_symmetry_Int_Tables_number   1
_chemical_formula_structural   LiY2Cu3MoP2
_chemical_formula_sum   'Li1 Y2 Cu3 Mo1 P2'
_cell_volume   122.03648380
_cell_formula_units_Z   1
loop_
 _symmetry_equiv_pos_site_id
 _symmetry_equiv_pos_as_xyz
  1  'x, y, z'
loop_
 _atom_site_type_symbol
 _atom_site_label
 _atom_site_symmetry_multiplicity
 _atom_site_fract_x
 _atom_site_fract_y
 _atom_site_fract_z
 _atom_site_occupancy
  Cu  Cu0  1  0.00000000  0.00000000  0.00000000  1
  Cu  Cu1  1  0.50000000  0.50000000  0.50000000  1
  Cu  Cu2  1  0.50000000  0.50000000  0.00000000  1
  P  P3  1  0.50000000  0.00000000  0.50000000  1
  P  P4  1  0.00000000  0.50000000  0.50000000  1
  Mo  Mo5  1  0.57709515  0.70122973  0.92798044  1
  Li  Li6  1  0.31463001  0.40045398  0.14446767  1
  Y  Y7  1  0.42431811  0.04317424  0.80645387  1
  Y  Y8  1  0.37214495  0.34793195  0.44155058  1
