# generated using pymatgen
data_Li3Y2P3Se
_symmetry_space_group_name_H-M   'P 1'
_cell_length_a   5.16743817
_cell_length_b   5.43956742
_cell_length_c   7.12519853
_cell_angle_alpha   94.34292777
_cell_angle_beta   99.19161569
_cell_angle_gamma   107.02606340
_symmetry_Int_Tables_number   1
_chemical_formula_structural   Li3Y2P3Se
_chemical_formula_sum   'Li3 Y2 P3 Se1'
_cell_volume   187.44393945
_cell_formula_units_Z   1
loop_
 _symmetry_equiv_pos_site_id
 _symmetry_equiv_pos_as_xyz
  1  'x, y, z'
loop_
 _atom_site_type_symbol
 _atom_site_label
 _atom_site_symmetry_multiplicity
 _atom_site_fract_x
 _atom_site_fract_y
 _atom_site_fract_z
 _atom_site_occupancy
  Se  Se0  1  0.00000000  0.00000000  0.00000000  1
  Y  Y1  1  0.50000000  0.50000000  0.50000000  1
  Y  Y2  1  0.25000000  0.25000000  0.25000000  1
  P  P3  1  0.75000000  0.25000000  0.00000000  1
  P  P4  1  0.25000000  0.75000000  0.50000000  1
  P  P5  1  0.43269330  0.10179913  0.30509098  1
  Li  Li6  1  0.15131367  0.68566226  0.76082359  1
  Li  Li7  1  0.34543218  0.49106195  0.17207215  1
  Li  Li8  1  0.53952847  0.18612067  0.31674936  1
