# generated using pymatgen
data_LiYP2Se
_symmetry_space_group_name_H-M   'P 1'
_cell_length_a   4.17448766
_cell_length_b   4.46438455
_cell_length_c   6.86298566
_cell_angle_alpha   96.19246115
_cell_angle_beta   103.48589299
_cell_angle_gamma   114.87265528
_symmetry_Int_Tables_number   1
_chemical_formula_structural   LiYP2Se
_chemical_formula_sum   'Li2 Y2 P4 Se2'
_cell_volume   109.72123371
_cell_formula_units_Z   2
loop_
 _symmetry_equiv_pos_site_id
 _symmetry_equiv_pos_as_xyz
  1  'x, y, z'
loop_
 _atom_site_type_symbol
 _atom_site_label
 _atom_site_symmetry_multiplicity
 _atom_site_fract_x
 _atom_site_fract_y
 _atom_site_fract_z
 _atom_site_occupancy
  P  P0  1  0.12500000  0.00000000  0.25000000  1
  P  P1  1  0.00000000  0.00000000  0.00000000  1
  P  P2  1  0.37500000  0.00000000  0.25000000  1
  P  P3  1  0.25000000  0.25000000  0.25000000  1
  Se  Se4  1  0.00000000  0.25000000  0.12500000  1
  Se  Se5  1  0.98489077  0.02961076  0.58471582  1
  Li  Li6  1  0.23489130  0.59282599  0.62707879  1
  Li  Li7  1  0.65686116  0.07882338  0.62364300  1
  Y  Y8  1  0.42817680  0.69432654  0.14790947  1
  Y  Y9  1  0.80901051  0.51265556  0.44440854  1
