# generated using pymatgen
data_Li4TeF2
_symmetry_space_group_name_H-M   'P 1'
_cell_length_a   18.15501762
_cell_length_b   18.15501762
_cell_length_c   11.35875836
_cell_angle_alpha   90.00000000
_cell_angle_beta   90.00000000
_cell_angle_gamma   120.00000000
_symmetry_Int_Tables_number   1
_chemical_formula_structural   Li4TeF2
_chemical_formula_sum   'Li96 Te24 F48'
_cell_volume   3242.31228283
_cell_formula_units_Z   24
loop_
 _symmetry_equiv_pos_site_id
 _symmetry_equiv_pos_as_xyz
  1  'x, y, z'
loop_
 _atom_site_type_symbol
 _atom_site_label
 _atom_site_symmetry_multiplicity
 _atom_site_fract_x
 _atom_site_fract_y
 _atom_site_fract_z
 _atom_site_occupancy
  F  F0  1  0.54656961  0.78093686  0.31261536  1
  F  F1  1  -0.78093686  -0.23436724  0.31261536  1
  F  F2  1  0.23436724  -0.54656961  0.31261536  1
  F  F3  1  0.54656961  0.78093686  -0.31261536  1
  F  F4  1  -0.78093686  -0.23436724  -0.31261536  1
  F  F5  1  0.23436724  -0.54656961  -0.31261536  1
  F  F6  1  0.78093686  0.54656961  -0.31261536  1
  F  F7  1  -0.23436724  -0.78093686  -0.31261536  1
  F  F8  1  -0.54656961  0.23436724  -0.31261536  1
  F  F9  1  0.78093686  0.54656961  0.31261536  1
  F  F10  1  -0.23436724  -0.78093686  0.31261536  1
  F  F11  1  -0.54656961  0.23436724  0.31261536  1
  F  F12  1  0.43203076  0.14714862  0.50000000  1
  F  F13  1  0.85285138  0.28488214  0.50000000  1
  F  F14  1  0.71511786  0.56796924  0.50000000  1
  F  F15  1  0.14714862  0.43203076  0.50000000  1
  F  F16  1  0.28488214  0.85285138  0.50000000  1
  F  F17  1  0.56796924  0.71511786  0.50000000  1
  F  F18  1  0.22938662  0.17389070  0.68787346  1
  F  F19  1  0.82610930  0.05549592  0.68787346  1
  F  F20  1  0.94450408  0.77061338  0.68787346  1
  F  F21  1  0.22938662  0.17389070  0.31212654  1
  F  F22  1  0.82610930  0.05549592  0.31212654  1
  F  F23  1  0.94450408  0.77061338  0.31212654  1
  F  F24  1  0.17389070  0.22938662  0.31212654  1
  F  F25  1  0.05549592  0.82610930  0.31212654  1
  F  F26  1  0.77061338  0.94450408  0.31212654  1
  F  F27  1  0.17389070  0.22938662  0.68787346  1
  F  F28  1  0.05549592  0.82610930  0.68787346  1
  F  F29  1  0.77061338  0.94450408  0.68787346  1
  F  F30  1  0.77481721  -0.00000000  0.35059623  1
  F  F31  1  0.00000000  0.77481721  0.35059623  1
  F  F32  1  0.22518279  0.22518279  0.35059623  1
  F  F33  1  0.77481721  -0.00000000  0.64940377  1
  F  F34  1  0.00000000  0.77481721  0.64940377  1
  F  F35  1  0.22518279  0.22518279  0.64940377  1
  F  F36  1  0.91221372  0.64903655  0.55742974  1
  F  F37  1  0.35096345  0.26317717  0.55742974  1
  F  F38  1  0.73682283  0.08778628  0.55742974  1
  F  F39  1  0.91221372  0.64903655  0.44257026  1
  F  F40  1  0.35096345  0.26317717  0.44257026  1
  F  F41  1  0.73682283  0.08778628  0.44257026  1
  F  F42  1  0.64903655  0.91221372  0.44257026  1
  F  F43  1  0.26317717  0.35096345  0.44257026  1
  F  F44  1  0.08778628  0.73682283  0.44257026  1
  F  F45  1  0.64903655  0.91221372  0.55742974  1
  F  F46  1  0.26317717  0.35096345  0.55742974  1
  F  F47  1  0.08778628  0.73682283  0.55742974  1
  Li  Li48  1  0.17580062  0.60985452  0.72998715  1
  Li  Li49  1  0.39014548  0.56594609  0.72998715  1
  Li  Li50  1  0.43405391  0.82419938  0.72998715  1
  Li  Li51  1  0.17580062  0.60985452  0.27001285  1
  Li  Li52  1  0.39014548  0.56594609  0.27001285  1
  Li  Li53  1  0.43405391  0.82419938  0.27001285  1
  Li  Li54  1  0.60985452  0.17580062  0.27001285  1
  Li  Li55  1  0.56594609  0.39014548  0.27001285  1
  Li  Li56  1  0.82419938  0.43405391  0.27001285  1
  Li  Li57  1  0.60985452  0.17580062  0.72998715  1
  Li  Li58  1  0.56594609  0.39014548  0.72998715  1
  Li  Li59  1  0.82419938  0.43405391  0.72998715  1
  Li  Li60  1  0.90140146  0.83408167  0.56960603  1
  Li  Li61  1  0.16591833  0.06731979  0.56960603  1
  Li  Li62  1  0.93268021  0.09859854  0.56960603  1
  Li  Li63  1  0.90140146  0.83408167  0.43039397  1
  Li  Li64  1  0.16591833  0.06731979  0.43039397  1
  Li  Li65  1  0.93268021  0.09859854  0.43039397  1
  Li  Li66  1  0.83408167  0.90140146  0.43039397  1
  Li  Li67  1  0.06731979  0.16591833  0.43039397  1
  Li  Li68  1  0.09859854  0.93268021  0.43039397  1
  Li  Li69  1  0.83408167  0.90140146  0.56960603  1
  Li  Li70  1  0.06731979  0.16591833  0.56960603  1
  Li  Li71  1  0.09859854  0.93268021  0.56960603  1
  Li  Li72  1  0.00000000  0.00000000  0.50000000  1
  Li  Li73  1  0.63571288  0.00000000  0.13046698  1
  Li  Li74  1  0.00000000  0.63571288  0.13046698  1
  Li  Li75  1  0.36428712  0.36428712  0.13046698  1
  Li  Li76  1  0.63571288  0.00000000  0.86953302  1
  Li  Li77  1  0.00000000  0.63571288  0.86953302  1
  Li  Li78  1  0.36428712  0.36428712  0.86953302  1
  Li  Li79  1  0.93808336  0.55127857  0.87443870  1
  Li  Li80  1  0.44872143  0.38680479  0.87443870  1
  Li  Li81  1  0.61319521  0.06191664  0.87443870  1
  Li  Li82  1  0.93808336  0.55127857  0.12556130  1
  Li  Li83  1  0.44872143  0.38680479  0.12556130  1
  Li  Li84  1  0.61319521  0.06191664  0.12556130  1
  Li  Li85  1  0.55127857  0.93808336  0.12556130  1
  Li  Li86  1  0.38680479  0.44872143  0.12556130  1
  Li  Li87  1  0.06191664  0.61319521  0.12556130  1
  Li  Li88  1  0.55127857  0.93808336  0.87443870  1
  Li  Li89  1  0.38680479  0.44872143  0.87443870  1
  Li  Li90  1  0.06191664  0.61319521  0.87443870  1
  Li  Li91  1  0.72348269  0.92843160  0.20465771  1
  Li  Li92  1  0.07156840  0.79505109  0.20465771  1
  Li  Li93  1  0.20494891  0.27651731  0.20465771  1
  Li  Li94  1  0.72348269  0.92843160  0.79534229  1
  Li  Li95  1  0.07156840  0.79505109  0.79534229  1
  Li  Li96  1  0.20494891  0.27651731  0.79534229  1
  Li  Li97  1  0.92843160  0.72348269  0.79534229  1
  Li  Li98  1  0.79505109  0.07156840  0.79534229  1
  Li  Li99  1  0.27651731  0.20494891  0.79534229  1
  Li  Li100  1  0.92843160  0.72348269  0.20465771  1
  Li  Li101  1  0.79505109  0.07156840  0.20465771  1
  Li  Li102  1  0.27651731  0.20494891  0.20465771  1
  Li  Li103  1  0.51279664  0.78612139  0.90781584  1
  Li  Li104  1  0.21387861  0.72667525  0.90781584  1
  Li  Li105  1  0.27332475  0.48720336  0.90781584  1
  Li  Li106  1  0.51279664  0.78612139  0.09218416  1
  Li  Li107  1  0.21387861  0.72667525  0.09218416  1
  Li  Li108  1  0.27332475  0.48720336  0.09218416  1
  Li  Li109  1  0.78612139  0.51279664  0.09218416  1
  Li  Li110  1  0.72667525  0.21387861  0.09218416  1
  Li  Li111  1  0.48720336  0.27332475  0.09218416  1
  Li  Li112  1  0.78612139  0.51279664  0.90781584  1
  Li  Li113  1  0.72667525  0.21387861  0.90781584  1
  Li  Li114  1  0.48720336  0.27332475  0.90781584  1
  Li  Li115  1  0.92772173  0.00000000  0.72118316  1
  Li  Li116  1  0.00000000  0.92772173  0.72118316  1
  Li  Li117  1  0.07227827  0.07227827  0.72118316  1
  Li  Li118  1  0.92772173  0.00000000  0.27881684  1
  Li  Li119  1  0.00000000  0.92772173  0.27881684  1
  Li  Li120  1  0.07227827  0.07227827  0.27881684  1
  Li  Li121  1  0.71982408  0.00000000  0.66497447  1
  Li  Li122  1  0.00000000  0.71982408  0.66497447  1
  Li  Li123  1  0.28017592  0.28017592  0.66497447  1
  Li  Li124  1  0.71982408  0.00000000  0.33502553  1
  Li  Li125  1  0.00000000  0.71982408  0.33502553  1
  Li  Li126  1  0.28017592  0.28017592  0.33502553  1
  Li  Li127  1  0.87385476  0.73413435  0.64991579  1
  Li  Li128  1  0.26586565  0.13972040  0.64991579  1
  Li  Li129  1  0.86027960  0.12614524  0.64991579  1
  Li  Li130  1  0.87385476  0.73413435  0.35008421  1
  Li  Li131  1  0.26586565  0.13972040  0.35008421  1
  Li  Li132  1  0.86027960  0.12614524  0.35008421  1
  Li  Li133  1  0.73413435  0.87385476  0.35008421  1
  Li  Li134  1  0.13972040  0.26586565  0.35008421  1
  Li  Li135  1  0.12614524  0.86027960  0.35008421  1
  Li  Li136  1  0.73413435  0.87385476  0.64991579  1
  Li  Li137  1  0.13972040  0.26586565  0.64991579  1
  Li  Li138  1  0.12614524  0.86027960  0.64991579  1
  Li  Li139  1  0.33333333  0.66666667  0.00000000  1
  Li  Li140  1  0.66666667  0.33333333  0.00000000  1
  Li  Li141  1  0.12316133  -0.00000000  0.50000000  1
  Li  Li142  1  0.00000000  0.12316133  0.50000000  1
  Li  Li143  1  0.87683867  0.87683867  0.50000000  1
  Te  Te144  1  0.72048807  0.44308786  0.26535486  1
  Te  Te145  1  0.55691214  0.27740021  0.26535486  1
  Te  Te146  1  0.72259979  0.27951193  0.26535486  1
  Te  Te147  1  0.72048807  0.44308786  0.73464514  1
  Te  Te148  1  0.55691214  0.27740021  0.73464514  1
  Te  Te149  1  0.72259979  0.27951193  0.73464514  1
  Te  Te150  1  0.44308786  0.72048807  0.73464514  1
  Te  Te151  1  0.27740021  0.55691214  0.73464514  1
  Te  Te152  1  0.27951193  0.72259979  0.73464514  1
  Te  Te153  1  0.44308786  0.72048807  0.26535486  1
  Te  Te154  1  0.27740021  0.55691214  0.26535486  1
  Te  Te155  1  0.27951193  0.72259979  0.26535486  1
  Te  Te156  1  0.00000000  0.00000000  0.00000000  1
  Te  Te157  1  0.37310844  0.00000000  0.50000000  1
  Te  Te158  1  0.00000000  0.37310844  0.50000000  1
  Te  Te159  1  0.62689156  0.62689156  0.50000000  1
  Te  Te160  1  0.00000000  0.00000000  0.22623289  1
  Te  Te161  1  0.00000000  0.00000000  0.77376711  1
  Te  Te162  1  0.69426476  0.64207817  0.00000000  1
  Te  Te163  1  0.35792183  0.05218659  0.00000000  1
  Te  Te164  1  0.94781341  0.30573524  0.00000000  1
  Te  Te165  1  0.64207817  0.69426476  0.00000000  1
  Te  Te166  1  0.05218659  0.35792183  0.00000000  1
  Te  Te167  1  0.30573524  0.94781341  0.00000000  1
