# generated using pymatgen
data_Li3Y2P3Se
_symmetry_space_group_name_H-M   'P 1'
_cell_length_a   5.00716169
_cell_length_b   5.25220904
_cell_length_c   6.98351722
_cell_angle_alpha   94.28927969
_cell_angle_beta   99.57148221
_cell_angle_gamma   107.50643335
_symmetry_Int_Tables_number   1
_chemical_formula_structural   Li3Y2P3Se
_chemical_formula_sum   'Li3 Y2 P3 Se1'
_cell_volume   171.18455658
_cell_formula_units_Z   1
loop_
 _symmetry_equiv_pos_site_id
 _symmetry_equiv_pos_as_xyz
  1  'x, y, z'
loop_
 _atom_site_type_symbol
 _atom_site_label
 _atom_site_symmetry_multiplicity
 _atom_site_fract_x
 _atom_site_fract_y
 _atom_site_fract_z
 _atom_site_occupancy
  Se  Se0  1  0.00000000  0.00000000  0.00000000  1
  P  P1  1  0.50000000  0.50000000  0.50000000  1
  P  P2  1  0.50000000  0.50000000  0.00000000  1
  P  P3  1  0.50000000  0.00000000  0.50000000  1
  Li  Li4  1  0.00000000  0.50000000  0.50000000  1
  Li  Li5  1  0.58300398  0.07147078  0.86432822  1
  Li  Li6  1  0.76422600  0.48384423  0.71816484  1
  Y  Y7  1  0.03427411  0.49781360  0.95877110  1
  Y  Y8  1  0.21843019  0.31561865  0.67546266  1
