# generated using pymatgen
data_LiF
_symmetry_space_group_name_H-M   'P 1'
_cell_length_a   13.15880731
_cell_length_b   13.15880731
_cell_length_c   5.18451748
_cell_angle_alpha   90.00000000
_cell_angle_beta   90.00000000
_cell_angle_gamma   120.00000000
_symmetry_Int_Tables_number   1
_chemical_formula_structural   LiF
_chemical_formula_sum   'Li25 F25'
_cell_volume   777.44921552
_cell_formula_units_Z   25
loop_
 _symmetry_equiv_pos_site_id
 _symmetry_equiv_pos_as_xyz
  1  'x, y, z'
loop_
 _atom_site_type_symbol
 _atom_site_label
 _atom_site_symmetry_multiplicity
 _atom_site_fract_x
 _atom_site_fract_y
 _atom_site_fract_z
 _atom_site_occupancy
  F  F0  1  0.66666667  0.33333333  0.50000000  1
  F  F1  1  0.20637917  0.49630261  0.12256353  1
  F  F2  1  0.50369739  0.71007656  0.12256353  1
  F  F3  1  0.28992344  0.79362083  0.12256353  1
  F  F4  1  0.50369739  0.79362083  0.87743647  1
  F  F5  1  0.28992344  0.49630261  0.87743647  1
  F  F6  1  0.20637917  0.71007656  0.87743647  1
  F  F7  1  0.93648658  0.41371021  0.86106004  1
  F  F8  1  0.58628979  0.52277636  0.86106004  1
  F  F9  1  0.47722364  0.06351342  0.86106004  1
  F  F10  1  0.58628979  0.06351342  0.13893996  1
  F  F11  1  0.47722364  0.41371021  0.13893996  1
  F  F12  1  0.93648658  0.52277636  0.13893996  1
  F  F13  1  0.19503083  0.66216058  0.59606408  1
  F  F14  1  0.33783942  0.53287025  0.59606408  1
  F  F15  1  0.46712975  0.80496917  0.59606408  1
  F  F16  1  0.33783942  0.80496917  0.40393592  1
  F  F17  1  0.46712975  0.66216058  0.40393592  1
  F  F18  1  0.19503083  0.53287025  0.40393592  1
  F  F19  1  0.52575136  0.10192692  0.14704496  1
  F  F20  1  0.89807308  0.42382443  0.14704496  1
  F  F21  1  0.57617557  0.47424864  0.14704496  1
  F  F22  1  0.89807308  0.47424864  0.85295504  1
  F  F23  1  0.57617557  0.10192692  0.85295504  1
  F  F24  1  0.52575136  0.42382443  0.85295504  1
  Li  Li25  1  0.33333333  0.66666667  0.24337868  1
  Li  Li26  1  0.33333333  0.66666667  0.75662132  1
  Li  Li27  1  0.00000000  0.00000000  0.50000000  1
  Li  Li28  1  0.95649306  0.08019604  0.37559494  1
  Li  Li29  1  -0.08019604  0.87629702  0.37559494  1
  Li  Li30  1  -0.87629702  -0.95649306  0.37559494  1
  Li  Li31  1  -0.08019604  -0.95649306  -0.37559494  1
  Li  Li32  1  -0.87629702  0.08019604  -0.37559494  1
  Li  Li33  1  0.95649306  0.87629702  -0.37559494  1
  Li  Li34  1  0.08092723  0.91907277  0.00000000  1
  Li  Li35  1  0.08092723  0.16185447  0.00000000  1
  Li  Li36  1  0.83814553  0.91907277  0.00000000  1
  Li  Li37  1  0.33333333  0.66666667  0.50000000  1
  Li  Li38  1  0.98944794  0.44279802  0.51479515  1
  Li  Li39  1  0.55720198  0.54664992  0.51479515  1
  Li  Li40  1  0.45335008  0.01055206  0.51479515  1
  Li  Li41  1  0.55720198  0.01055206  0.48520485  1
  Li  Li42  1  0.45335008  0.44279802  0.48520485  1
  Li  Li43  1  0.98944794  0.54664992  0.48520485  1
  Li  Li44  1  0.66666667  0.33333333  0.00000000  1
  Li  Li45  1  0.79553176  0.20446824  0.50000000  1
  Li  Li46  1  0.79553176  0.59106352  0.50000000  1
  Li  Li47  1  0.40893648  0.20446824  0.50000000  1
  Li  Li48  1  0.66666667  0.33333333  0.72443827  1
  Li  Li49  1  0.66666667  0.33333333  0.27556173  1
