# generated using pymatgen
data_Li3YAlF
_symmetry_space_group_name_H-M   'P 1'
_cell_length_a   3.35923056
_cell_length_b   3.17981716
_cell_length_c   6.13917126
_cell_angle_alpha   105.18908874
_cell_angle_beta   104.80553758
_cell_angle_gamma   106.36400959
_symmetry_Int_Tables_number   1
_chemical_formula_structural   Li3YAlF
_chemical_formula_sum   'Li3 Y1 Al1 F1'
_cell_volume   56.75159462
_cell_formula_units_Z   1
loop_
 _symmetry_equiv_pos_site_id
 _symmetry_equiv_pos_as_xyz
  1  'x, y, z'
loop_
 _atom_site_type_symbol
 _atom_site_label
 _atom_site_symmetry_multiplicity
 _atom_site_fract_x
 _atom_site_fract_y
 _atom_site_fract_z
 _atom_site_occupancy
  F  F0  1  0.00000000  0.00000000  0.00000000  1
  Al  Al1  1  0.50000000  0.50000000  0.50000000  1
  Li  Li2  1  0.25000000  0.25000000  0.25000000  1
  Li  Li3  1  0.75000000  0.25000000  0.00000000  1
  Li  Li4  1  0.25000000  0.75000000  0.50000000  1
  Y  Y5  1  0.06200233  0.69151167  0.17832374  1
