# generated using pymatgen
data_LiCaF3
_symmetry_space_group_name_H-M   'P 1'
_cell_length_a   21.42815516
_cell_length_b   21.42815516
_cell_length_c   3.24310240
_cell_angle_alpha   90.00000000
_cell_angle_beta   90.00000000
_cell_angle_gamma   120.00000000
_symmetry_Int_Tables_number   1
_chemical_formula_structural   LiCaF3
_chemical_formula_sum   'Li18 Ca18 F54'
_cell_volume   1289.61732216
_cell_formula_units_Z   18
loop_
 _symmetry_equiv_pos_site_id
 _symmetry_equiv_pos_as_xyz
  1  'x, y, z'
loop_
 _atom_site_type_symbol
 _atom_site_label
 _atom_site_symmetry_multiplicity
 _atom_site_fract_x
 _atom_site_fract_y
 _atom_site_fract_z
 _atom_site_occupancy
  Ca  Ca0  1  0.37979479  0.06400570  0.00000000  1
  Ca  Ca1  1  0.93599430  0.31578910  0.00000000  1
  Ca  Ca2  1  0.68421090  0.62020521  0.00000000  1
  Ca  Ca3  1  0.06400570  0.37979479  0.00000000  1
  Ca  Ca4  1  0.31578910  0.93599430  0.00000000  1
  Ca  Ca5  1  0.62020521  0.68421090  0.00000000  1
  Ca  Ca6  1  0.80751108  0.55984006  0.00000000  1
  Ca  Ca7  1  0.44015994  0.24767102  0.00000000  1
  Ca  Ca8  1  0.75232898  0.19248892  -0.00000000  1
  Ca  Ca9  1  0.55984006  0.80751108  0.00000000  1
  Ca  Ca10  1  0.24767102  0.44015994  0.00000000  1
  Ca  Ca11  1  0.19248892  0.75232898  -0.00000000  1
  Ca  Ca12  1  0.52695375  0.00000000  0.50000000  1
  Ca  Ca13  1  0.00000000  0.52695375  0.50000000  1
  Ca  Ca14  1  0.47304625  0.47304625  0.50000000  1
  Ca  Ca15  1  0.67994099  0.00000000  0.50000000  1
  Ca  Ca16  1  0.00000000  0.67994099  0.50000000  1
  Ca  Ca17  1  0.32005901  0.32005901  0.50000000  1
  F  F18  1  0.14819596  0.00000000  0.50000000  1
  F  F19  1  0.00000000  0.14819596  0.50000000  1
  F  F20  1  0.85180404  0.85180404  0.50000000  1
  F  F21  1  0.11408688  0.15118223  0.16905449  1
  F  F22  1  -0.15118223  -0.03709535  0.16905449  1
  F  F23  1  0.03709535  -0.11408688  0.16905449  1
  F  F24  1  0.11408688  0.15118223  -0.16905449  1
  F  F25  1  -0.15118223  -0.03709535  -0.16905449  1
  F  F26  1  0.03709535  -0.11408688  -0.16905449  1
  F  F27  1  0.15118223  0.11408688  -0.16905449  1
  F  F28  1  -0.03709535  -0.15118223  -0.16905449  1
  F  F29  1  -0.11408688  0.03709535  -0.16905449  1
  F  F30  1  0.15118223  0.11408688  0.16905449  1
  F  F31  1  -0.03709535  -0.15118223  0.16905449  1
  F  F32  1  -0.11408688  0.03709535  0.16905449  1
  F  F33  1  0.13041322  0.35195228  0.00000000  1
  F  F34  1  0.64804772  0.77846094  0.00000000  1
  F  F35  1  0.22153906  0.86958678  0.00000000  1
  F  F36  1  0.35195228  0.13041322  0.00000000  1
  F  F37  1  0.77846094  0.64804772  0.00000000  1
  F  F38  1  0.86958678  0.22153906  0.00000000  1
  F  F39  1  0.72463569  0.19976605  0.50000000  1
  F  F40  1  0.80023395  0.52486964  0.50000000  1
  F  F41  1  0.47513036  0.27536431  0.50000000  1
  F  F42  1  0.19976605  0.72463569  0.50000000  1
  F  F43  1  0.52486964  0.80023395  0.50000000  1
  F  F44  1  0.27536431  0.47513036  0.50000000  1
  F  F45  1  0.34345791  0.00000000  0.50000000  1
  F  F46  1  0.00000000  0.34345791  0.50000000  1
  F  F47  1  0.65654209  0.65654209  0.50000000  1
  F  F48  1  0.58704088  0.87270628  -0.00000000  1
  F  F49  1  0.12729372  0.71433459  -0.00000000  1
  F  F50  1  0.28566541  0.41295912  0.00000000  1
  F  F51  1  0.87270628  0.58704088  -0.00000000  1
  F  F52  1  0.71433459  0.12729372  0.00000000  1
  F  F53  1  0.41295912  0.28566541  0.00000000  1
  F  F54  1  0.81041781  0.88378870  0.50000000  1
  F  F55  1  0.11621130  0.92662912  0.50000000  1
  F  F56  1  0.07337088  0.18958219  0.50000000  1
  F  F57  1  0.88378870  0.81041781  0.50000000  1
  F  F58  1  0.92662912  0.11621130  0.50000000  1
  F  F59  1  0.18958219  0.07337088  0.50000000  1
  F  F60  1  0.40879979  0.04350036  0.31287138  1
  F  F61  1  0.95649964  0.36529943  0.31287138  1
  F  F62  1  0.63470057  0.59120021  0.31287138  1
  F  F63  1  0.40879979  0.04350036  0.68712862  1
  F  F64  1  0.95649964  0.36529943  0.68712862  1
  F  F65  1  0.63470057  0.59120021  0.68712862  1
  F  F66  1  0.04350036  0.40879979  0.68712862  1
  F  F67  1  0.36529943  0.95649964  0.68712862  1
  F  F68  1  0.59120021  0.63470057  0.68712862  1
  F  F69  1  0.04350036  0.40879979  0.31287138  1
  F  F70  1  0.36529943  0.95649964  0.31287138  1
  F  F71  1  0.59120021  0.63470057  0.31287138  1
  Li  Li72  1  0.74681884  0.46082497  -0.00000000  1
  Li  Li73  1  0.53917503  0.28599387  0.00000000  1
  Li  Li74  1  0.71400613  0.25318116  0.00000000  1
  Li  Li75  1  0.46082497  0.74681884  0.00000000  1
  Li  Li76  1  0.28599387  0.53917503  -0.00000000  1
  Li  Li77  1  0.25318116  0.71400613  0.00000000  1
  Li  Li78  1  0.63720324  0.08196287  0.00000000  1
  Li  Li79  1  0.91803713  0.55524037  0.00000000  1
  Li  Li80  1  0.44475963  0.36279676  0.00000000  1
  Li  Li81  1  0.08196287  0.63720324  0.00000000  1
  Li  Li82  1  0.55524037  0.91803713  0.00000000  1
  Li  Li83  1  0.36279676  0.44475963  0.00000000  1
  Li  Li84  1  0.78046004  0.00000000  0.50000000  1
  Li  Li85  1  0.00000000  0.78046004  0.50000000  1
  Li  Li86  1  0.21953996  0.21953996  0.50000000  1
  Li  Li87  1  0.33333333  0.66666667  0.00000000  1
  Li  Li88  1  0.66666667  0.33333333  0.00000000  1
  Li  Li89  1  0.00000000  0.00000000  0.50000000  1
