# generated using pymatgen
data_Li5CaSeF5
_symmetry_space_group_name_H-M   'P 1'
_cell_length_a   6.96183479
_cell_length_b   13.62967568
_cell_length_c   6.67888682
_cell_angle_alpha   90.00000000
_cell_angle_beta   90.00000000
_cell_angle_gamma   90.00000000
_symmetry_Int_Tables_number   1
_chemical_formula_structural   Li5CaSeF5
_chemical_formula_sum   'Li20 Ca4 Se4 F20'
_cell_volume   633.74320934
_cell_formula_units_Z   4
loop_
 _symmetry_equiv_pos_site_id
 _symmetry_equiv_pos_as_xyz
  1  'x, y, z'
loop_
 _atom_site_type_symbol
 _atom_site_label
 _atom_site_symmetry_multiplicity
 _atom_site_fract_x
 _atom_site_fract_y
 _atom_site_fract_z
 _atom_site_occupancy
  Ca  Ca0  1  0.21610027  0.25000000  0.95425854  1
  Ca  Ca1  1  0.28389973  0.75000000  0.45425854  1
  Ca  Ca2  1  0.78389973  0.75000000  0.04574146  1
  Ca  Ca3  1  0.71610027  0.25000000  0.54574146  1
  F  F4  1  0.56328598  0.11506547  0.13829857  1
  F  F5  1  -0.06328598  -0.11506547  0.63829857  1
  F  F6  1  -0.56328598  0.61506547  -0.13829857  1
  F  F7  1  1.06328598  0.38493453  0.36170143  1
  F  F8  1  -0.56328598  -0.11506547  -0.13829857  1
  F  F9  1  1.06328598  0.11506547  0.36170143  1
  F  F10  1  0.56328598  0.38493453  0.13829857  1
  F  F11  1  -0.06328598  0.61506547  0.63829857  1
  F  F12  1  0.50468111  0.81448707  0.49880989  1
  F  F13  1  0.99531889  0.18551293  0.99880989  1
  F  F14  1  0.49531889  0.31448707  0.50119011  1
  F  F15  1  0.00468111  0.68551293  0.00119011  1
  F  F16  1  0.49531889  0.18551293  0.50119011  1
  F  F17  1  0.00468111  0.81448707  0.00119011  1
  F  F18  1  0.50468111  0.68551293  0.49880989  1
  F  F19  1  0.99531889  0.31448707  0.99880989  1
  F  F20  1  0.00000000  0.00000000  0.50000000  1
  F  F21  1  0.50000000  0.00000000  0.00000000  1
  F  F22  1  0.00000000  0.50000000  0.50000000  1
  F  F23  1  0.50000000  0.50000000  0.00000000  1
  Li  Li24  1  0.62128273  0.35721339  0.49978898  1
  Li  Li25  1  0.87871727  0.64278661  0.99978898  1
  Li  Li26  1  0.37871727  0.85721339  0.50021102  1
  Li  Li27  1  0.12128273  0.14278661  0.00021102  1
  Li  Li28  1  0.37871727  0.64278661  0.50021102  1
  Li  Li29  1  0.12128273  0.35721339  0.00021102  1
  Li  Li30  1  0.62128273  0.14278661  0.49978898  1
  Li  Li31  1  0.87871727  0.85721339  0.99978898  1
  Li  Li32  1  0.66920681  0.15397833  0.09490710  1
  Li  Li33  1  0.83079319  0.84602167  0.59490710  1
  Li  Li34  1  0.33079319  0.65397833  0.90509290  1
  Li  Li35  1  0.16920681  0.34602167  0.40509290  1
  Li  Li36  1  0.33079319  0.84602167  0.90509290  1
  Li  Li37  1  0.16920681  0.15397833  0.40509290  1
  Li  Li38  1  0.66920681  0.34602167  0.09490710  1
  Li  Li39  1  0.83079319  0.65397833  0.59490710  1
  Li  Li40  1  0.63944641  0.25000000  0.95529333  1
  Li  Li41  1  0.86055359  0.75000000  0.45529333  1
  Li  Li42  1  0.36055359  0.75000000  0.04470667  1
  Li  Li43  1  0.13944641  0.25000000  0.54470667  1
  Se  Se44  1  0.00000000  0.00000000  0.00000000  1
  Se  Se45  1  0.50000000  0.00000000  0.50000000  1
  Se  Se46  1  0.00000000  0.50000000  0.00000000  1
  Se  Se47  1  0.50000000  0.50000000  0.50000000  1
