# generated using pymatgen
data_Li2Y2MoP3Se2
_symmetry_space_group_name_H-M   'P 1'
_cell_length_a   5.28920622
_cell_length_b   5.61571382
_cell_length_c   7.26436760
_cell_angle_alpha   94.28581808
_cell_angle_beta   99.33362078
_cell_angle_gamma   107.21442787
_symmetry_Int_Tables_number   1
_chemical_formula_structural   Li2Y2MoP3Se2
_chemical_formula_sum   'Li2 Y2 Mo1 P3 Se2'
_cell_volume   201.64526505
_cell_formula_units_Z   1
loop_
 _symmetry_equiv_pos_site_id
 _symmetry_equiv_pos_as_xyz
  1  'x, y, z'
loop_
 _atom_site_type_symbol
 _atom_site_label
 _atom_site_symmetry_multiplicity
 _atom_site_fract_x
 _atom_site_fract_y
 _atom_site_fract_z
 _atom_site_occupancy
  Se  Se0  1  0.00000000  0.00000000  0.00000000  1
  Se  Se1  1  0.50000000  0.50000000  0.50000000  1
  P  P2  1  0.50000000  0.50000000  0.00000000  1
  P  P3  1  0.50000000  0.00000000  0.50000000  1
  P  P4  1  0.00000000  0.50000000  0.50000000  1
  Mo  Mo5  1  0.70748449  0.51771439  0.77418009  1
  Li  Li6  1  0.51873397  0.01967694  0.70680457  1
  Li  Li7  1  0.09002403  0.75191159  0.84967006  1
  Y  Y8  1  0.75513472  0.53192620  0.31881443  1
  Y  Y9  1  0.93245484  0.81642511  0.49034988  1
