# generated using pymatgen
data_LiF
_symmetry_space_group_name_H-M   'P 1'
_cell_length_a   9.51825192
_cell_length_b   9.51825192
_cell_length_c   15.94847531
_cell_angle_alpha   90.00000000
_cell_angle_beta   90.00000000
_cell_angle_gamma   120.00000000
_symmetry_Int_Tables_number   1
_chemical_formula_structural   LiF
_chemical_formula_sum   'Li42 F42'
_cell_volume   1251.30791690
_cell_formula_units_Z   42
loop_
 _symmetry_equiv_pos_site_id
 _symmetry_equiv_pos_as_xyz
  1  'x, y, z'
loop_
 _atom_site_type_symbol
 _atom_site_label
 _atom_site_symmetry_multiplicity
 _atom_site_fract_x
 _atom_site_fract_y
 _atom_site_fract_z
 _atom_site_occupancy
  F  F0  1  0.85886493  0.89397493  0.15771321  1
  F  F1  1  0.10602507  0.96489001  0.15771321  1
  F  F2  1  0.03510999  0.14113507  0.15771321  1
  F  F3  1  0.10602507  0.14113507  0.84228679  1
  F  F4  1  0.03510999  0.89397493  0.84228679  1
  F  F5  1  0.85886493  0.96489001  0.84228679  1
  F  F6  1  0.35818817  0.49994398  0.28993050  1
  F  F7  1  0.50005602  0.85824418  0.28993050  1
  F  F8  1  0.14175582  0.64181183  0.28993050  1
  F  F9  1  0.50005602  0.64181183  0.71006950  1
  F  F10  1  0.14175582  0.49994398  0.71006950  1
  F  F11  1  0.35818817  0.85824418  0.71006950  1
  F  F12  1  0.33709381  0.33562201  0.98838629  1
  F  F13  1  0.66437799  0.00147180  0.98838629  1
  F  F14  1  0.99852820  0.66290619  0.98838629  1
  F  F15  1  0.66437799  0.66290619  0.01161371  1
  F  F16  1  0.99852820  0.33562201  0.01161371  1
  F  F17  1  0.33709381  0.00147180  0.01161371  1
  F  F18  1  0.79335214  0.73830727  0.35015528  1
  F  F19  1  0.26169273  0.05504487  0.35015528  1
  F  F20  1  0.94495513  0.20664786  0.35015528  1
  F  F21  1  0.26169273  0.20664786  0.64984472  1
  F  F22  1  0.94495513  0.73830727  0.64984472  1
  F  F23  1  0.79335214  0.05504487  0.64984472  1
  F  F24  1  0.80757370  0.51820186  0.20664576  1
  F  F25  1  0.48179814  0.28937184  0.20664576  1
  F  F26  1  0.71062816  0.19242630  0.20664576  1
  F  F27  1  0.48179814  0.19242630  0.79335424  1
  F  F28  1  0.71062816  0.51820186  0.79335424  1
  F  F29  1  0.80757370  0.28937184  0.79335424  1
  F  F30  1  0.42021467  0.26518438  0.71396066  1
  F  F31  1  0.73481562  0.15503029  0.71396066  1
  F  F32  1  0.84496971  0.57978533  0.71396066  1
  F  F33  1  0.73481562  0.57978533  0.28603934  1
  F  F34  1  0.84496971  0.26518438  0.28603934  1
  F  F35  1  0.42021467  0.15503029  0.28603934  1
  F  F36  1  0.32097120  0.92771786  0.42615402  1
  F  F37  1  0.07228214  0.39325334  0.42615402  1
  F  F38  1  0.60674666  0.67902880  0.42615402  1
  F  F39  1  0.07228214  0.67902880  0.57384598  1
  F  F40  1  0.60674666  0.92771786  0.57384598  1
  F  F41  1  0.32097120  0.39325334  0.57384598  1
  Li  Li42  1  0.26318056  0.73681944  0.00000000  1
  Li  Li43  1  0.26318056  0.52636111  0.00000000  1
  Li  Li44  1  0.47363889  0.73681944  -0.00000000  1
  Li  Li45  1  0.50889345  0.64832609  0.23086650  1
  Li  Li46  1  -0.64832609  -0.13943263  0.23086650  1
  Li  Li47  1  0.13943263  -0.50889345  0.23086650  1
  Li  Li48  1  -0.64832609  -0.50889345  -0.23086650  1
  Li  Li49  1  0.13943263  0.64832609  -0.23086650  1
  Li  Li50  1  0.50889345  -0.13943263  -0.23086650  1
  Li  Li51  1  0.25484041  0.77225909  0.81146363  1
  Li  Li52  1  0.22774091  0.48258132  0.81146363  1
  Li  Li53  1  0.51741868  0.74515959  0.81146363  1
  Li  Li54  1  0.22774091  0.74515959  0.18853637  1
  Li  Li55  1  0.51741868  0.77225909  0.18853637  1
  Li  Li56  1  0.25484041  0.48258132  0.18853637  1
  Li  Li57  1  0.66666667  0.33333333  0.00000000  1
  Li  Li58  1  0.53778569  0.28734465  0.61998537  1
  Li  Li59  1  0.71265535  0.25044104  0.61998537  1
  Li  Li60  1  0.74955896  0.46221431  0.61998537  1
  Li  Li61  1  0.71265535  0.46221431  0.38001463  1
  Li  Li62  1  0.74955896  0.28734465  0.38001463  1
  Li  Li63  1  0.53778569  0.25044104  0.38001463  1
  Li  Li64  1  0.50841271  0.49158729  0.00000000  1
  Li  Li65  1  0.50841271  0.01682543  0.00000000  1
  Li  Li66  1  0.98317457  0.49158729  0.00000000  1
  Li  Li67  1  0.79878253  0.28005159  0.16322671  1
  Li  Li68  1  0.71994841  0.51873094  0.16322671  1
  Li  Li69  1  0.48126906  0.20121747  0.16322671  1
  Li  Li70  1  0.71994841  0.20121747  0.83677329  1
  Li  Li71  1  0.48126906  0.28005159  0.83677329  1
  Li  Li72  1  0.79878253  0.51873094  0.83677329  1
  Li  Li73  1  0.31448566  0.96553978  0.72725894  1
  Li  Li74  1  0.03446022  0.34894589  0.72725894  1
  Li  Li75  1  0.65105411  0.68551434  0.72725894  1
  Li  Li76  1  0.03446022  0.68551434  0.27274106  1
  Li  Li77  1  0.65105411  0.96553978  0.27274106  1
  Li  Li78  1  0.31448566  0.34894589  0.27274106  1
  Li  Li79  1  0.33333333  0.66666667  0.50000000  1
  Li  Li80  1  0.45687567  0.54312433  0.50000000  1
  Li  Li81  1  0.45687567  0.91375133  0.50000000  1
  Li  Li82  1  0.08624867  0.54312433  0.50000000  1
  Li  Li83  1  0.00000000  0.00000000  0.50000000  1
