# generated using pymatgen
data_Li2Sb2Te4P2Se
_symmetry_space_group_name_H-M   'P 1'
_cell_length_a   5.19211364
_cell_length_b   5.41301606
_cell_length_c   7.01826251
_cell_angle_alpha   93.96937267
_cell_angle_beta   98.93216620
_cell_angle_gamma   106.29077099
_symmetry_Int_Tables_number   1
_chemical_formula_structural   Li2Sb2Te4P2Se
_chemical_formula_sum   'Li2 Sb2 Te4 P2 Se1'
_cell_volume   185.70520397
_cell_formula_units_Z   1
loop_
 _symmetry_equiv_pos_site_id
 _symmetry_equiv_pos_as_xyz
  1  'x, y, z'
loop_
 _atom_site_type_symbol
 _atom_site_label
 _atom_site_symmetry_multiplicity
 _atom_site_fract_x
 _atom_site_fract_y
 _atom_site_fract_z
 _atom_site_occupancy
  P  P0  1  0.12500000  0.00000000  0.25000000  1
  P  P1  1  0.00000000  0.00000000  0.00000000  1
  Se  Se2  1  0.37500000  0.00000000  0.25000000  1
  Li  Li3  1  0.25000000  0.25000000  0.25000000  1
  Li  Li4  1  0.00000000  0.25000000  0.12500000  1
  Te  Te5  1  0.14515129  0.56211126  0.45241514  1
  Te  Te6  1  0.14561872  0.51580319  0.72845858  1
  Te  Te7  1  0.81990557  0.36747159  0.68672721  1
  Te  Te8  1  0.35680914  0.45288221  0.93199942  1
  Sb  Sb9  1  0.90235162  0.17698759  0.16120693  1
  Sb  Sb10  1  0.83674508  0.65337032  0.62705486  1
