# generated using pymatgen
data_LiF
_symmetry_space_group_name_H-M   'P 1'
_cell_length_a   15.76041780
_cell_length_b   15.76041780
_cell_length_c   3.81210256
_cell_angle_alpha   90.00000000
_cell_angle_beta   90.00000000
_cell_angle_gamma   120.00000000
_symmetry_Int_Tables_number   1
_chemical_formula_structural   LiF
_chemical_formula_sum   'Li27 F27'
_cell_volume   820.03173658
_cell_formula_units_Z   27
loop_
 _symmetry_equiv_pos_site_id
 _symmetry_equiv_pos_as_xyz
  1  'x, y, z'
loop_
 _atom_site_type_symbol
 _atom_site_label
 _atom_site_symmetry_multiplicity
 _atom_site_fract_x
 _atom_site_fract_y
 _atom_site_fract_z
 _atom_site_occupancy
  F  F0  1  0.84369617  0.08405314  0.86736750  1
  F  F1  1  0.91594686  0.75964302  0.86736750  1
  F  F2  1  0.24035698  0.15630383  0.86736750  1
  F  F3  1  0.84369617  0.08405314  0.13263250  1
  F  F4  1  0.91594686  0.75964302  0.13263250  1
  F  F5  1  0.24035698  0.15630383  0.13263250  1
  F  F6  1  0.08405314  0.84369617  0.13263250  1
  F  F7  1  0.75964302  0.91594686  0.13263250  1
  F  F8  1  0.15630383  0.24035698  0.13263250  1
  F  F9  1  0.08405314  0.84369617  0.86736750  1
  F  F10  1  0.75964302  0.91594686  0.86736750  1
  F  F11  1  0.15630383  0.24035698  0.86736750  1
  F  F12  1  0.28204095  0.43739382  0.50000000  1
  F  F13  1  0.56260618  0.84464713  0.50000000  1
  F  F14  1  0.15535287  0.71795905  0.50000000  1
  F  F15  1  0.43739382  0.28204095  0.50000000  1
  F  F16  1  0.84464713  0.56260618  0.50000000  1
  F  F17  1  0.71795905  0.15535287  0.50000000  1
  F  F18  1  0.00000000  0.00000000  0.00000000  1
  F  F19  1  0.61296416  0.00000000  0.18877278  1
  F  F20  1  0.00000000  0.61296416  0.18877278  1
  F  F21  1  0.38703584  0.38703584  0.18877278  1
  F  F22  1  0.61296416  0.00000000  0.81122722  1
  F  F23  1  0.00000000  0.61296416  0.81122722  1
  F  F24  1  0.38703584  0.38703584  0.81122722  1
  F  F25  1  0.33333333  0.66666667  0.50000000  1
  F  F26  1  0.66666667  0.33333333  0.50000000  1
  Li  Li27  1  0.08639601  0.61390790  0.68017356  1
  Li  Li28  1  -0.61390790  -0.52751189  0.68017356  1
  Li  Li29  1  0.52751189  -0.08639601  0.68017356  1
  Li  Li30  1  0.08639601  0.61390790  -0.68017356  1
  Li  Li31  1  -0.61390790  -0.52751189  -0.68017356  1
  Li  Li32  1  0.52751189  -0.08639601  -0.68017356  1
  Li  Li33  1  0.61390790  0.08639601  -0.68017356  1
  Li  Li34  1  -0.52751189  -0.61390790  -0.68017356  1
  Li  Li35  1  -0.08639601  0.52751189  -0.68017356  1
  Li  Li36  1  0.61390790  0.08639601  0.68017356  1
  Li  Li37  1  -0.52751189  -0.61390790  0.68017356  1
  Li  Li38  1  -0.08639601  0.52751189  0.68017356  1
  Li  Li39  1  0.16027976  0.87402506  0.50000000  1
  Li  Li40  1  0.12597494  0.28625470  0.50000000  1
  Li  Li41  1  0.71374530  0.83972024  0.50000000  1
  Li  Li42  1  0.87402506  0.16027976  0.50000000  1
  Li  Li43  1  0.28625470  0.12597494  0.50000000  1
  Li  Li44  1  0.83972024  0.71374530  0.50000000  1
  Li  Li45  1  0.20475272  0.00000000  0.50000000  1
  Li  Li46  1  0.00000000  0.20475272  0.50000000  1
  Li  Li47  1  0.79524728  0.79524728  0.50000000  1
  Li  Li48  1  0.00000000  0.00000000  0.50000000  1
  Li  Li49  1  0.33333333  0.66666667  0.00000000  1
  Li  Li50  1  0.66666667  0.33333333  0.00000000  1
  Li  Li51  1  0.10778512  0.00000000  0.50000000  1
  Li  Li52  1  0.00000000  0.10778512  0.50000000  1
  Li  Li53  1  0.89221488  0.89221488  0.50000000  1
