# generated using pymatgen
data_Li2YAsP4
_symmetry_space_group_name_H-M   'P 1'
_cell_length_a   3.91776593
_cell_length_b   4.13675238
_cell_length_c   6.77947168
_cell_angle_alpha   97.00188961
_cell_angle_beta   105.03730076
_cell_angle_gamma   117.09667079
_symmetry_Int_Tables_number   1
_chemical_formula_structural   Li2YAsP4
_chemical_formula_sum   'Li2 Y1 As1 P4'
_cell_volume   90.70678172
_cell_formula_units_Z   1
loop_
 _symmetry_equiv_pos_site_id
 _symmetry_equiv_pos_as_xyz
  1  'x, y, z'
loop_
 _atom_site_type_symbol
 _atom_site_label
 _atom_site_symmetry_multiplicity
 _atom_site_fract_x
 _atom_site_fract_y
 _atom_site_fract_z
 _atom_site_occupancy
  P  P0  1  0.00000000  0.00000000  0.00000000  1
  P  P1  1  0.50000000  0.50000000  0.50000000  1
  P  P2  1  0.25000000  0.25000000  0.25000000  1
  P  P3  1  0.75000000  0.25000000  0.00000000  1
  As  As4  1  0.25000000  0.75000000  0.50000000  1
  Li  Li5  1  0.15264335  0.12355331  0.04385758  1
  Li  Li6  1  0.33854541  0.03321862  0.34979536  1
  Y  Y7  1  0.99047639  0.46826806  0.31921342  1
