# generated using pymatgen
data_LiF
_symmetry_space_group_name_H-M   'P 1'
_cell_length_a   7.25725124
_cell_length_b   7.25725124
_cell_length_c   12.00660482
_cell_angle_alpha   90.00000000
_cell_angle_beta   90.00000000
_cell_angle_gamma   120.00000000
_symmetry_Int_Tables_number   1
_chemical_formula_structural   LiF
_chemical_formula_sum   'Li30 F30'
_cell_volume   547.64000372
_cell_formula_units_Z   30
loop_
 _symmetry_equiv_pos_site_id
 _symmetry_equiv_pos_as_xyz
  1  'x, y, z'
loop_
 _atom_site_type_symbol
 _atom_site_label
 _atom_site_symmetry_multiplicity
 _atom_site_fract_x
 _atom_site_fract_y
 _atom_site_fract_z
 _atom_site_occupancy
  F  F0  1  0.34019119  0.24847329  0.78329268  1
  F  F1  1  -0.24847329  0.09171790  0.78329268  1
  F  F2  1  -0.09171790  -0.34019119  0.78329268  1
  F  F3  1  -0.34019119  -0.24847329  1.28329268  1
  F  F4  1  0.24847329  -0.09171790  1.28329268  1
  F  F5  1  0.09171790  0.34019119  1.28329268  1
  F  F6  1  -0.34019119  -0.24847329  -0.78329268  1
  F  F7  1  0.24847329  -0.09171790  -0.78329268  1
  F  F8  1  0.09171790  0.34019119  -0.78329268  1
  F  F9  1  0.34019119  0.24847329  -0.28329268  1
  F  F10  1  -0.24847329  0.09171790  -0.28329268  1
  F  F11  1  -0.09171790  -0.34019119  -0.28329268  1
  F  F12  1  0.59192205  0.45293967  0.51714330  1
  F  F13  1  0.54706033  0.13898238  0.51714330  1
  F  F14  1  0.86101762  0.40807795  0.51714330  1
  F  F15  1  0.40807795  0.54706033  0.01714330  1
  F  F16  1  0.45293967  0.86101762  0.01714330  1
  F  F17  1  0.13898238  0.59192205  0.01714330  1
  F  F18  1  0.40807795  0.54706033  0.48285670  1
  F  F19  1  0.45293967  0.86101762  0.48285670  1
  F  F20  1  0.13898238  0.59192205  0.48285670  1
  F  F21  1  0.59192205  0.45293967  0.98285670  1
  F  F22  1  0.54706033  0.13898238  0.98285670  1
  F  F23  1  0.86101762  0.40807795  0.98285670  1
  F  F24  1  0.25421486  0.47598046  0.25000000  1
  F  F25  1  0.52401954  0.77823441  0.25000000  1
  F  F26  1  0.22176559  0.74578514  0.25000000  1
  F  F27  1  0.74578514  0.52401954  0.75000000  1
  F  F28  1  0.47598046  0.22176559  0.75000000  1
  F  F29  1  0.77823441  0.25421486  0.75000000  1
  Li  Li30  1  0.50686946  0.94779835  0.82261653  1
  Li  Li31  1  0.05220165  0.55907111  0.82261653  1
  Li  Li32  1  0.44092889  0.49313054  0.82261653  1
  Li  Li33  1  0.49313054  0.05220165  0.32261653  1
  Li  Li34  1  0.94779835  0.44092889  0.32261653  1
  Li  Li35  1  0.55907111  0.50686946  0.32261653  1
  Li  Li36  1  0.49313054  0.05220165  0.17738347  1
  Li  Li37  1  0.94779835  0.44092889  0.17738347  1
  Li  Li38  1  0.55907111  0.50686946  0.17738347  1
  Li  Li39  1  0.50686946  0.94779835  0.67738347  1
  Li  Li40  1  0.05220165  0.55907111  0.67738347  1
  Li  Li41  1  0.44092889  0.49313054  0.67738347  1
  Li  Li42  1  0.79687431  0.97749824  0.98294093  1
  Li  Li43  1  0.02250176  0.81937607  0.98294093  1
  Li  Li44  1  0.18062393  0.20312569  0.98294093  1
  Li  Li45  1  0.20312569  0.02250176  0.48294093  1
  Li  Li46  1  0.97749824  0.18062393  0.48294093  1
  Li  Li47  1  0.81937607  0.79687431  0.48294093  1
  Li  Li48  1  0.20312569  0.02250176  0.01705907  1
  Li  Li49  1  0.97749824  0.18062393  0.01705907  1
  Li  Li50  1  0.81937607  0.79687431  0.01705907  1
  Li  Li51  1  0.79687431  0.97749824  0.51705907  1
  Li  Li52  1  0.02250176  0.81937607  0.51705907  1
  Li  Li53  1  0.18062393  0.20312569  0.51705907  1
  Li  Li54  1  0.92107695  0.86135708  0.25000000  1
  Li  Li55  1  0.13864292  0.05971987  0.25000000  1
  Li  Li56  1  0.94028013  0.07892305  0.25000000  1
  Li  Li57  1  0.07892305  0.13864292  0.75000000  1
  Li  Li58  1  0.86135708  0.94028013  0.75000000  1
  Li  Li59  1  0.05971987  0.92107695  0.75000000  1
