# generated using pymatgen
data_LiF
_symmetry_space_group_name_H-M   'P 1'
_cell_length_a   8.07548202
_cell_length_b   8.07548202
_cell_length_c   14.25159209
_cell_angle_alpha   90.00000000
_cell_angle_beta   90.00000000
_cell_angle_gamma   120.00000000
_symmetry_Int_Tables_number   1
_chemical_formula_structural   LiF
_chemical_formula_sum   'Li25 F25'
_cell_volume   804.87960749
_cell_formula_units_Z   25
loop_
 _symmetry_equiv_pos_site_id
 _symmetry_equiv_pos_as_xyz
  1  'x, y, z'
loop_
 _atom_site_type_symbol
 _atom_site_label
 _atom_site_symmetry_multiplicity
 _atom_site_fract_x
 _atom_site_fract_y
 _atom_site_fract_z
 _atom_site_occupancy
  F  F0  1  0.19602010  0.66395472  0.24155610  1
  F  F1  1  0.33604528  0.53206538  0.24155610  1
  F  F2  1  0.46793462  0.80397990  0.24155610  1
  F  F3  1  0.33604528  0.80397990  0.75844390  1
  F  F4  1  0.46793462  0.66395472  0.75844390  1
  F  F5  1  0.19602010  0.53206538  0.75844390  1
  F  F6  1  0.66666667  0.33333333  0.50000000  1
  F  F7  1  0.66666667  0.33333333  0.17326044  1
  F  F8  1  0.66666667  0.33333333  0.82673956  1
  F  F9  1  0.00000000  0.00000000  0.00000000  1
  F  F10  1  0.54677811  0.45322189  -0.00000000  1
  F  F11  1  0.54677811  0.09355622  -0.00000000  1
  F  F12  1  0.90644378  0.45322189  0.00000000  1
  F  F13  1  0.90857917  0.09142083  0.50000000  1
  F  F14  1  0.90857917  0.81715833  0.50000000  1
  F  F15  1  0.18284167  0.09142083  0.50000000  1
  F  F16  1  0.42998177  0.25886877  0.02778552  1
  F  F17  1  0.74113123  0.17111301  0.02778552  1
  F  F18  1  0.82888699  0.57001823  0.02778552  1
  F  F19  1  0.74113123  0.57001823  0.97221448  1
  F  F20  1  0.82888699  0.25886877  0.97221448  1
  F  F21  1  0.42998177  0.17111301  0.97221448  1
  F  F22  1  0.14798761  0.85201239  -0.00000000  1
  F  F23  1  0.14798761  0.29597522  0.00000000  1
  F  F24  1  0.70402478  0.85201239  0.00000000  1
  Li  Li25  1  0.92732903  0.57581755  0.29235692  1
  Li  Li26  1  -0.57581755  0.35151148  0.29235692  1
  Li  Li27  1  -0.35151148  -0.92732903  0.29235692  1
  Li  Li28  1  -0.57581755  -0.92732903  -0.29235692  1
  Li  Li29  1  -0.35151148  0.57581755  -0.29235692  1
  Li  Li30  1  0.92732903  0.35151148  -0.29235692  1
  Li  Li31  1  0.66666667  0.33333333  0.00000000  1
  Li  Li32  1  0.00000000  0.00000000  0.50000000  1
  Li  Li33  1  0.00000000  0.00000000  0.20336174  1
  Li  Li34  1  0.00000000  0.00000000  0.79663826  1
  Li  Li35  1  0.05854855  0.21431103  0.60305173  1
  Li  Li36  1  0.78568897  0.84423752  0.60305173  1
  Li  Li37  1  0.15576248  0.94145145  0.60305173  1
  Li  Li38  1  0.78568897  0.94145145  0.39694827  1
  Li  Li39  1  0.15576248  0.21431103  0.39694827  1
  Li  Li40  1  0.05854855  0.84423752  0.39694827  1
  Li  Li41  1  0.34587853  0.12898514  0.08729328  1
  Li  Li42  1  0.87101486  0.21689339  0.08729328  1
  Li  Li43  1  0.78310661  0.65412147  0.08729328  1
  Li  Li44  1  0.87101486  0.65412147  0.91270672  1
  Li  Li45  1  0.78310661  0.12898514  0.91270672  1
  Li  Li46  1  0.34587853  0.21689339  0.91270672  1
  Li  Li47  1  0.39806699  0.60193301  0.50000000  1
  Li  Li48  1  0.39806699  0.79613399  0.50000000  1
  Li  Li49  1  0.20386601  0.60193301  0.50000000  1
