# generated using pymatgen
data_Li2YAs2P4Se
_symmetry_space_group_name_H-M   'P 1'
_cell_length_a   5.50638910
_cell_length_b   5.42496976
_cell_length_c   7.66802578
_cell_angle_alpha   95.11386558
_cell_angle_beta   101.13693607
_cell_angle_gamma   110.54036555
_symmetry_Int_Tables_number   1
_chemical_formula_structural   Li2YAs2P4Se
_chemical_formula_sum   'Li2 Y1 As2 P4 Se1'
_cell_volume   207.36587970
_cell_formula_units_Z   1
loop_
 _symmetry_equiv_pos_site_id
 _symmetry_equiv_pos_as_xyz
  1  'x, y, z'
loop_
 _atom_site_type_symbol
 _atom_site_label
 _atom_site_symmetry_multiplicity
 _atom_site_fract_x
 _atom_site_fract_y
 _atom_site_fract_z
 _atom_site_occupancy
  P  P0  1  0.12500000  0.00000000  0.25000000  1
  P  P1  1  0.00000000  0.00000000  0.00000000  1
  P  P2  1  0.37500000  0.00000000  0.25000000  1
  P  P3  1  0.25000000  0.25000000  0.25000000  1
  Se  Se4  1  0.00000000  0.25000000  0.12500000  1
  As  As5  1  0.47832954  0.01167828  0.50332354  1
  As  As6  1  0.21781673  0.68562766  0.79089425  1
  Li  Li7  1  0.01347812  0.60469995  0.52002553  1
  Li  Li8  1  0.23421352  0.74779727  0.57092273  1
  Y  Y9  1  0.66466704  0.89826104  0.46236221  1
