# generated using pymatgen
data_Li2Y2P3Se
_symmetry_space_group_name_H-M   'P 1'
_cell_length_a   5.94613297
_cell_length_b   6.18373454
_cell_length_c   7.58218227
_cell_angle_alpha   93.13799274
_cell_angle_beta   96.83389581
_cell_angle_gamma   102.60406967
_symmetry_Int_Tables_number   1
_chemical_formula_structural   Li2Y2P3Se
_chemical_formula_sum   'Li2 Y2 P3 Se1'
_cell_volume   269.20140257
_cell_formula_units_Z   1
loop_
 _symmetry_equiv_pos_site_id
 _symmetry_equiv_pos_as_xyz
  1  'x, y, z'
loop_
 _atom_site_type_symbol
 _atom_site_label
 _atom_site_symmetry_multiplicity
 _atom_site_fract_x
 _atom_site_fract_y
 _atom_site_fract_z
 _atom_site_occupancy
  Se  Se0  1  0.00000000  0.00000000  0.00000000  1
  P  P1  1  0.33300000  0.66700000  0.25000000  1
  P  P2  1  0.66700000  0.33300000  0.50000000  1
  P  P3  1  0.00000000  0.00000000  0.75000000  1
  Li  Li4  1  0.21843523  0.37818682  0.63591373  1
  Li  Li5  1  0.60823456  0.01507909  0.16039227  1
  Y  Y6  1  0.38840044  0.25035522  0.60575930  1
  Y  Y7  1  0.66887947  0.83950497  0.22506892  1
