# generated using pymatgen
data_Li4TeF2
_symmetry_space_group_name_H-M   'P 1'
_cell_length_a   15.80511049
_cell_length_b   15.80511049
_cell_length_c   10.41741089
_cell_angle_alpha   90.00000000
_cell_angle_beta   90.00000000
_cell_angle_gamma   120.00000000
_symmetry_Int_Tables_number   1
_chemical_formula_structural   Li4TeF2
_chemical_formula_sum   'Li96 Te24 F48'
_cell_volume   2253.64495980
_cell_formula_units_Z   24
loop_
 _symmetry_equiv_pos_site_id
 _symmetry_equiv_pos_as_xyz
  1  'x, y, z'
loop_
 _atom_site_type_symbol
 _atom_site_label
 _atom_site_symmetry_multiplicity
 _atom_site_fract_x
 _atom_site_fract_y
 _atom_site_fract_z
 _atom_site_occupancy
  F  F0  1  0.25257686  0.24616424  0.08033291  1
  F  F1  1  -0.24616424  0.00641262  0.08033291  1
  F  F2  1  -0.00641262  -0.25257686  0.08033291  1
  F  F3  1  0.24616424  0.25257686  0.41966709  1
  F  F4  1  0.00641262  -0.24616424  0.41966709  1
  F  F5  1  -0.25257686  -0.00641262  0.41966709  1
  F  F6  1  -0.25257686  -0.24616424  -0.08033291  1
  F  F7  1  0.24616424  -0.00641262  -0.08033291  1
  F  F8  1  0.00641262  0.25257686  -0.08033291  1
  F  F9  1  -0.24616424  -0.25257686  0.58033291  1
  F  F10  1  -0.00641262  0.24616424  0.58033291  1
  F  F11  1  0.25257686  0.00641262  0.58033291  1
  F  F12  1  0.91924352  0.57949757  0.41366624  1
  F  F13  1  0.42050243  0.33974595  0.41366624  1
  F  F14  1  0.66025405  0.08075648  0.41366624  1
  F  F15  1  0.91283090  0.58591019  0.75300042  1
  F  F16  1  0.67307928  0.08716910  0.75300042  1
  F  F17  1  0.41408981  0.32692072  0.75300042  1
  F  F18  1  0.41408981  0.08716910  0.25300042  1
  F  F19  1  0.91283090  0.32692072  0.25300042  1
  F  F20  1  0.67307928  0.58591019  0.25300042  1
  F  F21  1  0.42050243  0.08075648  0.91366624  1
  F  F22  1  0.66025405  0.57949757  0.91366624  1
  F  F23  1  0.91924352  0.33974595  0.91366624  1
  F  F24  1  0.58591019  0.91283090  0.74699958  1
  F  F25  1  0.08716910  0.67307928  0.74699958  1
  F  F26  1  0.32692072  0.41408981  0.74699958  1
  F  F27  1  0.57949757  0.91924352  1.08633376  1
  F  F28  1  0.33974595  0.42050243  1.08633376  1
  F  F29  1  0.08075648  0.66025405  1.08633376  1
  F  F30  1  0.08075648  0.42050243  0.58633376  1
  F  F31  1  0.57949757  0.66025405  0.58633376  1
  F  F32  1  0.33974595  0.91924352  0.58633376  1
  F  F33  1  0.08716910  0.41408981  1.24699958  1
  F  F34  1  0.32692072  0.91283090  1.24699958  1
  F  F35  1  0.58591019  0.67307928  1.24699958  1
  F  F36  1  0.00000000  0.00000000  0.63258662  1
  F  F37  1  0.00000000  0.00000000  0.86741338  1
  F  F38  1  0.00000000  0.00000000  0.36741338  1
  F  F39  1  0.00000000  0.00000000  0.13258662  1
  F  F40  1  0.66666667  0.33333333  0.96591996  1
  F  F41  1  0.66666667  0.33333333  0.20074671  1
  F  F42  1  0.66666667  0.33333333  0.70074671  1
  F  F43  1  0.66666667  0.33333333  0.46591996  1
  F  F44  1  0.33333333  0.66666667  0.29925329  1
  F  F45  1  0.33333333  0.66666667  0.53408004  1
  F  F46  1  0.33333333  0.66666667  0.03408004  1
  F  F47  1  0.33333333  0.66666667  0.79925329  1
  Li  Li48  1  0.12521603  0.49188395  0.26160213  1
  Li  Li49  1  0.50811605  0.63333208  0.26160213  1
  Li  Li50  1  0.36666792  0.87478397  0.26160213  1
  Li  Li51  1  0.49188395  0.12521603  0.23839787  1
  Li  Li52  1  0.63333208  0.50811605  0.23839787  1
  Li  Li53  1  0.87478397  0.36666792  0.23839787  1
  Li  Li54  1  0.87478397  0.50811605  0.73839787  1
  Li  Li55  1  0.49188395  0.36666792  0.73839787  1
  Li  Li56  1  0.63333208  0.12521603  0.73839787  1
  Li  Li57  1  0.50811605  0.87478397  0.76160213  1
  Li  Li58  1  0.36666792  0.49188395  0.76160213  1
  Li  Li59  1  0.12521603  0.63333208  0.76160213  1
  Li  Li60  1  0.79188270  0.82521728  0.59493546  1
  Li  Li61  1  0.17478272  0.96666541  0.59493546  1
  Li  Li62  1  0.03333459  0.20811730  0.59493546  1
  Li  Li63  1  0.15855062  0.45854936  0.57173121  1
  Li  Li64  1  0.29999875  0.84144938  0.57173121  1
  Li  Li65  1  0.54145064  0.70000125  0.57173121  1
  Li  Li66  1  0.54145064  0.84144938  0.07173121  1
  Li  Li67  1  0.15855062  0.70000125  0.07173121  1
  Li  Li68  1  0.29999875  0.45854936  0.07173121  1
  Li  Li69  1  0.17478272  0.20811730  0.09493546  1
  Li  Li70  1  0.03333459  0.82521728  0.09493546  1
  Li  Li71  1  0.79188270  0.96666541  0.09493546  1
  Li  Li72  1  0.45854936  0.15855062  0.92826879  1
  Li  Li73  1  0.84144938  0.29999875  0.92826879  1
  Li  Li74  1  0.70000125  0.54145064  0.92826879  1
  Li  Li75  1  0.82521728  0.79188270  0.90506454  1
  Li  Li76  1  0.96666541  0.17478272  0.90506454  1
  Li  Li77  1  0.20811730  0.03333459  0.90506454  1
  Li  Li78  1  0.20811730  0.17478272  0.40506454  1
  Li  Li79  1  0.82521728  0.03333459  0.40506454  1
  Li  Li80  1  0.96666541  0.79188270  0.40506454  1
  Li  Li81  1  0.84144938  0.54145064  0.42826879  1
  Li  Li82  1  0.70000125  0.15855062  0.42826879  1
  Li  Li83  1  0.45854936  0.29999875  0.42826879  1
  Li  Li84  1  0.00000000  0.00000000  0.25000000  1
  Li  Li85  1  0.00000000  0.00000000  0.75000000  1
  Li  Li86  1  0.66666667  0.33333333  0.58333333  1
  Li  Li87  1  0.66666667  0.33333333  0.08333333  1
  Li  Li88  1  0.33333333  0.66666667  0.91666667  1
  Li  Li89  1  0.33333333  0.66666667  0.41666667  1
  Li  Li90  1  0.49616790  0.00000000  0.25000000  1
  Li  Li91  1  0.00000000  0.49616790  0.25000000  1
  Li  Li92  1  0.50383210  0.50383210  0.25000000  1
  Li  Li93  1  0.50383210  0.00000000  0.75000000  1
  Li  Li94  1  0.00000000  0.50383210  0.75000000  1
  Li  Li95  1  0.49616790  0.49616790  0.75000000  1
  Li  Li96  1  0.16283457  0.33333333  0.58333333  1
  Li  Li97  1  0.66666667  0.82950123  0.58333333  1
  Li  Li98  1  0.17049877  0.83716543  0.58333333  1
  Li  Li99  1  0.17049877  0.33333333  0.08333333  1
  Li  Li100  1  0.66666667  0.83716543  0.08333333  1
  Li  Li101  1  0.16283457  0.82950123  0.08333333  1
  Li  Li102  1  0.82950123  0.66666667  0.91666667  1
  Li  Li103  1  0.33333333  0.16283457  0.91666667  1
  Li  Li104  1  0.83716543  0.17049877  0.91666667  1
  Li  Li105  1  0.83716543  0.66666667  0.41666667  1
  Li  Li106  1  0.33333333  0.17049877  0.41666667  1
  Li  Li107  1  0.82950123  0.16283457  0.41666667  1
  Li  Li108  1  0.24128675  0.70779893  0.60237908  1
  Li  Li109  1  0.29220107  0.53348782  0.60237908  1
  Li  Li110  1  0.46651218  0.75871325  0.60237908  1
  Li  Li111  1  0.70779893  0.24128675  0.89762092  1
  Li  Li112  1  0.53348782  0.29220107  0.89762092  1
  Li  Li113  1  0.75871325  0.46651218  0.89762092  1
  Li  Li114  1  0.75871325  0.29220107  0.39762092  1
  Li  Li115  1  0.70779893  0.46651218  0.39762092  1
  Li  Li116  1  0.53348782  0.24128675  0.39762092  1
  Li  Li117  1  0.29220107  0.75871325  0.10237908  1
  Li  Li118  1  0.46651218  0.70779893  0.10237908  1
  Li  Li119  1  0.24128675  0.53348782  0.10237908  1
  Li  Li120  1  0.90795342  0.04113226  0.93571241  1
  Li  Li121  1  0.95886774  0.86682115  0.93571241  1
  Li  Li122  1  0.13317885  0.09204658  0.93571241  1
  Li  Li123  1  0.37446560  0.57462008  0.23095425  1
  Li  Li124  1  0.20015449  0.62553440  0.23095425  1
  Li  Li125  1  0.42537992  0.79984551  0.23095425  1
  Li  Li126  1  0.42537992  0.62553440  0.73095425  1
  Li  Li127  1  0.37446560  0.79984551  0.73095425  1
  Li  Li128  1  0.20015449  0.57462008  0.73095425  1
  Li  Li129  1  0.95886774  0.09204658  0.43571241  1
  Li  Li130  1  0.13317885  0.04113226  0.43571241  1
  Li  Li131  1  0.90795342  0.86682115  0.43571241  1
  Li  Li132  1  0.57462008  0.37446560  0.26904575  1
  Li  Li133  1  0.62553440  0.20015449  0.26904575  1
  Li  Li134  1  0.79984551  0.42537992  0.26904575  1
  Li  Li135  1  0.04113226  0.90795342  0.56428759  1
  Li  Li136  1  0.86682115  0.95886774  0.56428759  1
  Li  Li137  1  0.09204658  0.13317885  0.56428759  1
  Li  Li138  1  0.09204658  0.95886774  0.06428759  1
  Li  Li139  1  0.04113226  0.13317885  0.06428759  1
  Li  Li140  1  0.86682115  0.90795342  0.06428759  1
  Li  Li141  1  0.62553440  0.42537992  0.76904575  1
  Li  Li142  1  0.79984551  0.37446560  0.76904575  1
  Li  Li143  1  0.57462008  0.20015449  0.76904575  1
  Te  Te144  1  0.00000000  0.00000000  0.00000000  1
  Te  Te145  1  0.00000000  0.00000000  0.50000000  1
  Te  Te146  1  0.66666667  0.33333333  0.33333333  1
  Te  Te147  1  0.66666667  0.33333333  0.83333333  1
  Te  Te148  1  0.33333333  0.66666667  0.66666667  1
  Te  Te149  1  0.33333333  0.66666667  0.16666667  1
  Te  Te150  1  0.50000000  0.00000000  -0.00000000  1
  Te  Te151  1  0.00000000  0.50000000  0.00000000  1
  Te  Te152  1  0.50000000  0.50000000  -0.00000000  1
  Te  Te153  1  0.00000000  0.50000000  0.50000000  1
  Te  Te154  1  0.50000000  0.00000000  0.50000000  1
  Te  Te155  1  0.50000000  0.50000000  0.50000000  1
  Te  Te156  1  0.16666667  0.33333333  0.33333333  1
  Te  Te157  1  0.66666667  0.83333333  0.33333333  1
  Te  Te158  1  0.16666667  0.83333333  0.33333333  1
  Te  Te159  1  0.66666667  0.83333333  0.83333333  1
  Te  Te160  1  0.16666667  0.33333333  0.83333333  1
  Te  Te161  1  0.16666667  0.83333333  0.83333333  1
  Te  Te162  1  0.83333333  0.66666667  0.66666667  1
  Te  Te163  1  0.33333333  0.16666667  0.66666667  1
  Te  Te164  1  0.83333333  0.16666667  0.66666667  1
  Te  Te165  1  0.33333333  0.16666667  0.16666667  1
  Te  Te166  1  0.83333333  0.66666667  0.16666667  1
  Te  Te167  1  0.83333333  0.16666667  0.16666667  1
