# generated using pymatgen
data_LiF
_symmetry_space_group_name_H-M   'P 1'
_cell_length_a   17.34275987
_cell_length_b   17.34275987
_cell_length_c   6.31971939
_cell_angle_alpha   90.00000000
_cell_angle_beta   90.00000000
_cell_angle_gamma   90.00000000
_symmetry_Int_Tables_number   1
_chemical_formula_structural   LiF
_chemical_formula_sum   'Li56 F56'
_cell_volume   1900.79034117
_cell_formula_units_Z   56
loop_
 _symmetry_equiv_pos_site_id
 _symmetry_equiv_pos_as_xyz
  1  'x, y, z'
loop_
 _atom_site_type_symbol
 _atom_site_label
 _atom_site_symmetry_multiplicity
 _atom_site_fract_x
 _atom_site_fract_y
 _atom_site_fract_z
 _atom_site_occupancy
  F  F0  1  0.63942213  0.64817128  0.35118541  1
  F  F1  1  0.86057787  0.35182872  0.85118541  1
  F  F2  1  0.60182872  0.38942213  0.60118541  1
  F  F3  1  0.89817128  0.61057787  0.10118541  1
  F  F4  1  0.86057787  0.64817128  0.64881459  1
  F  F5  1  0.63942213  0.35182872  0.14881459  1
  F  F6  1  0.89817128  0.38942213  0.39881459  1
  F  F7  1  0.60182872  0.61057787  0.89881459  1
  F  F8  1  0.36057787  0.35182872  0.64881459  1
  F  F9  1  0.13942213  0.64817128  0.14881459  1
  F  F10  1  0.39817128  0.61057787  0.39881459  1
  F  F11  1  0.10182872  0.38942213  0.89881459  1
  F  F12  1  0.13942213  0.35182872  0.35118541  1
  F  F13  1  0.36057787  0.64817128  0.85118541  1
  F  F14  1  0.10182872  0.61057787  0.60118541  1
  F  F15  1  0.39817128  0.38942213  0.10118541  1
  F  F16  1  0.13942213  0.14817128  0.85118541  1
  F  F17  1  0.36057787  0.85182872  0.35118541  1
  F  F18  1  0.10182872  0.88942213  0.10118541  1
  F  F19  1  0.39817128  0.11057787  0.60118541  1
  F  F20  1  0.36057787  0.14817128  0.14881459  1
  F  F21  1  0.13942213  0.85182872  0.64881459  1
  F  F22  1  0.39817128  0.88942213  0.89881459  1
  F  F23  1  0.10182872  0.11057787  0.39881459  1
  F  F24  1  0.86057787  0.85182872  0.14881459  1
  F  F25  1  0.63942213  0.14817128  0.64881459  1
  F  F26  1  0.89817128  0.11057787  0.89881459  1
  F  F27  1  0.60182872  0.88942213  0.39881459  1
  F  F28  1  0.63942213  0.85182872  0.85118541  1
  F  F29  1  0.86057787  0.14817128  0.35118541  1
  F  F30  1  0.60182872  0.11057787  0.10118541  1
  F  F31  1  0.89817128  0.88942213  0.60118541  1
  F  F32  1  0.13174413  0.00000000  0.25000000  1
  F  F33  1  0.36825587  0.00000000  0.75000000  1
  F  F34  1  0.25000000  0.88174413  0.50000000  1
  F  F35  1  0.25000000  0.11825587  -0.00000000  1
  F  F36  1  0.86825587  0.00000000  0.75000000  1
  F  F37  1  0.63174413  0.00000000  0.25000000  1
  F  F38  1  0.75000000  0.11825587  0.50000000  1
  F  F39  1  0.75000000  0.88174413  0.00000000  1
  F  F40  1  0.63174413  0.50000000  0.75000000  1
  F  F41  1  0.86825587  0.50000000  0.25000000  1
  F  F42  1  0.75000000  0.38174413  -0.00000000  1
  F  F43  1  0.75000000  0.61825587  0.50000000  1
  F  F44  1  0.36825587  0.50000000  0.25000000  1
  F  F45  1  0.13174413  0.50000000  0.75000000  1
  F  F46  1  0.25000000  0.61825587  -0.00000000  1
  F  F47  1  0.25000000  0.38174413  0.50000000  1
  F  F48  1  0.00000000  0.25000000  0.12500000  1
  F  F49  1  0.00000000  0.75000000  0.37500000  1
  F  F50  1  0.00000000  0.75000000  0.87500000  1
  F  F51  1  0.00000000  0.25000000  0.62500000  1
  F  F52  1  0.50000000  0.75000000  0.62500000  1
  F  F53  1  0.50000000  0.25000000  0.87500000  1
  F  F54  1  0.50000000  0.25000000  0.37500000  1
  F  F55  1  0.50000000  0.75000000  0.12500000  1
  Li  Li56  1  0.00000000  0.25000000  0.37500000  1
  Li  Li57  1  0.00000000  0.75000000  0.62500000  1
  Li  Li58  1  0.50000000  0.25000000  0.62500000  1
  Li  Li59  1  0.50000000  0.75000000  0.37500000  1
  Li  Li60  1  0.50000000  0.75000000  0.87500000  1
  Li  Li61  1  0.50000000  0.25000000  0.12500000  1
  Li  Li62  1  0.00000000  0.75000000  0.12500000  1
  Li  Li63  1  0.00000000  0.25000000  0.87500000  1
  Li  Li64  1  0.26181318  0.51181318  0.12500000  1
  Li  Li65  1  0.23818682  0.48818682  0.62500000  1
  Li  Li66  1  0.73818682  0.01181318  0.37500000  1
  Li  Li67  1  0.76181318  0.98818682  0.87500000  1
  Li  Li68  1  0.73818682  0.48818682  0.87500000  1
  Li  Li69  1  0.76181318  0.51181318  0.37500000  1
  Li  Li70  1  0.26181318  0.98818682  0.62500000  1
  Li  Li71  1  0.23818682  0.01181318  0.12500000  1
  Li  Li72  1  0.76181318  0.01181318  0.62500000  1
  Li  Li73  1  0.73818682  0.98818682  0.12500000  1
  Li  Li74  1  0.23818682  0.51181318  0.87500000  1
  Li  Li75  1  0.26181318  0.48818682  0.37500000  1
  Li  Li76  1  0.23818682  0.98818682  0.37500000  1
  Li  Li77  1  0.26181318  0.01181318  0.87500000  1
  Li  Li78  1  0.76181318  0.48818682  0.12500000  1
  Li  Li79  1  0.73818682  0.51181318  0.62500000  1
  Li  Li80  1  0.19640613  0.27416942  0.41556558  1
  Li  Li81  1  0.30359387  -0.27416942  0.91556558  1
  Li  Li82  1  -0.02416942  0.94640613  0.66556558  1
  Li  Li83  1  0.52416942  0.05359387  1.16556558  1
  Li  Li84  1  0.30359387  0.27416942  -0.41556558  1
  Li  Li85  1  0.19640613  -0.27416942  0.08443442  1
  Li  Li86  1  0.52416942  0.94640613  0.33443442  1
  Li  Li87  1  -0.02416942  0.05359387  -0.16556558  1
  Li  Li88  1  -0.19640613  -0.27416942  -0.41556558  1
  Li  Li89  1  0.69640613  0.27416942  0.08443442  1
  Li  Li90  1  1.02416942  0.05359387  0.33443442  1
  Li  Li91  1  0.47583058  0.94640613  -0.16556558  1
  Li  Li92  1  0.69640613  -0.27416942  0.41556558  1
  Li  Li93  1  -0.19640613  0.27416942  0.91556558  1
  Li  Li94  1  0.47583058  0.05359387  0.66556558  1
  Li  Li95  1  1.02416942  0.94640613  1.16556558  1
  Li  Li96  1  0.69640613  0.77416942  0.91556558  1
  Li  Li97  1  0.80359387  0.22583058  1.41556558  1
  Li  Li98  1  0.47583058  1.44640613  1.16556558  1
  Li  Li99  1  1.02416942  0.55359387  1.66556558  1
  Li  Li100  1  0.80359387  0.77416942  0.08443442  1
  Li  Li101  1  0.69640613  0.22583058  0.58443442  1
  Li  Li102  1  1.02416942  1.44640613  0.83443442  1
  Li  Li103  1  0.47583058  0.55359387  0.33443442  1
  Li  Li104  1  0.30359387  0.22583058  0.08443442  1
  Li  Li105  1  1.19640613  0.77416942  0.58443442  1
  Li  Li106  1  1.52416942  0.55359387  0.83443442  1
  Li  Li107  1  0.97583058  1.44640613  0.33443442  1
  Li  Li108  1  1.19640613  0.22583058  0.91556558  1
  Li  Li109  1  0.30359387  0.77416942  1.41556558  1
  Li  Li110  1  0.97583058  0.55359387  1.16556558  1
  Li  Li111  1  1.52416942  1.44640613  1.66556558  1
