# generated using pymatgen
data_LiF
_symmetry_space_group_name_H-M   'P 1'
_cell_length_a   7.63363803
_cell_length_b   7.63363803
_cell_length_c   21.93499825
_cell_angle_alpha   90.00000000
_cell_angle_beta   90.00000000
_cell_angle_gamma   120.00000000
_symmetry_Int_Tables_number   1
_chemical_formula_structural   LiF
_chemical_formula_sum   'Li36 F36'
_cell_volume   1106.95855507
_cell_formula_units_Z   36
loop_
 _symmetry_equiv_pos_site_id
 _symmetry_equiv_pos_as_xyz
  1  'x, y, z'
loop_
 _atom_site_type_symbol
 _atom_site_label
 _atom_site_symmetry_multiplicity
 _atom_site_fract_x
 _atom_site_fract_y
 _atom_site_fract_z
 _atom_site_occupancy
  F  F0  1  0.00759013  0.57180188  0.35362589  1
  F  F1  1  0.42819812  0.43578825  0.35362589  1
  F  F2  1  0.56421175  0.99240987  0.35362589  1
  F  F3  1  0.42819812  0.99240987  0.64637411  1
  F  F4  1  0.56421175  0.57180188  0.64637411  1
  F  F5  1  0.00759013  0.43578825  0.64637411  1
  F  F6  1  0.93709562  0.48115767  0.32389162  1
  F  F7  1  0.51884233  0.45593795  0.32389162  1
  F  F8  1  0.54406205  0.06290438  0.32389162  1
  F  F9  1  0.51884233  0.06290438  0.67610838  1
  F  F10  1  0.54406205  0.48115767  0.67610838  1
  F  F11  1  0.93709562  0.45593795  0.67610838  1
  F  F12  1  0.37930371  0.15252842  0.50309901  1
  F  F13  1  0.84747158  0.22677530  0.50309901  1
  F  F14  1  0.77322470  0.62069629  0.50309901  1
  F  F15  1  0.84747158  0.62069629  0.49690099  1
  F  F16  1  0.77322470  0.15252842  0.49690099  1
  F  F17  1  0.37930371  0.22677530  0.49690099  1
  F  F18  1  0.05224693  0.00800144  0.96128860  1
  F  F19  1  0.99199856  0.04424548  0.96128860  1
  F  F20  1  0.95575452  0.94775307  0.96128860  1
  F  F21  1  0.99199856  0.94775307  0.03871140  1
  F  F22  1  0.95575452  0.00800144  0.03871140  1
  F  F23  1  0.05224693  0.04424548  0.03871140  1
  F  F24  1  0.00000000  0.00000000  0.73521550  1
  F  F25  1  0.00000000  0.00000000  0.26478450  1
  F  F26  1  0.41852956  0.34228711  0.47038795  1
  F  F27  1  0.65771289  0.07624246  0.47038795  1
  F  F28  1  0.92375754  0.58147044  0.47038795  1
  F  F29  1  0.65771289  0.58147044  0.52961205  1
  F  F30  1  0.92375754  0.34228711  0.52961205  1
  F  F31  1  0.41852956  0.07624246  0.52961205  1
  F  F32  1  0.33333333  0.66666667  0.50000000  1
  F  F33  1  0.18933081  0.81066919  0.00000000  1
  F  F34  1  0.18933081  0.37866163  0.00000000  1
  F  F35  1  0.62133837  0.81066919  -0.00000000  1
  Li  Li36  1  0.86780055  0.13872840  0.58670279  1
  Li  Li37  1  -0.13872840  0.72907216  0.58670279  1
  Li  Li38  1  -0.72907216  -0.86780055  0.58670279  1
  Li  Li39  1  -0.13872840  -0.86780055  -0.58670279  1
  Li  Li40  1  -0.72907216  0.13872840  -0.58670279  1
  Li  Li41  1  0.86780055  0.72907216  -0.58670279  1
  Li  Li42  1  0.79762031  0.45741833  0.05704303  1
  Li  Li43  1  0.54258167  0.34020199  0.05704303  1
  Li  Li44  1  0.65979801  0.20237969  0.05704303  1
  Li  Li45  1  0.54258167  0.20237969  0.94295697  1
  Li  Li46  1  0.65979801  0.45741833  0.94295697  1
  Li  Li47  1  0.79762031  0.34020199  0.94295697  1
  Li  Li48  1  0.88520744  0.90626793  0.76732761  1
  Li  Li49  1  0.09373207  0.97893951  0.76732761  1
  Li  Li50  1  0.02106049  0.11479256  0.76732761  1
  Li  Li51  1  0.09373207  0.11479256  0.23267239  1
  Li  Li52  1  0.02106049  0.90626793  0.23267239  1
  Li  Li53  1  0.88520744  0.97893951  0.23267239  1
  Li  Li54  1  0.66666667  0.33333333  0.00000000  1
  Li  Li55  1  0.69740716  0.75464769  0.19506770  1
  Li  Li56  1  0.24535231  0.94275946  0.19506770  1
  Li  Li57  1  0.05724054  0.30259284  0.19506770  1
  Li  Li58  1  0.24535231  0.30259284  0.80493230  1
  Li  Li59  1  0.05724054  0.75464769  0.80493230  1
  Li  Li60  1  0.69740716  0.94275946  0.80493230  1
  Li  Li61  1  0.23353467  0.50054477  0.61652443  1
  Li  Li62  1  0.49945523  0.73298990  0.61652443  1
  Li  Li63  1  0.26701010  0.76646533  0.61652443  1
  Li  Li64  1  0.49945523  0.76646533  0.38347557  1
  Li  Li65  1  0.26701010  0.50054477  0.38347557  1
  Li  Li66  1  0.23353467  0.73298990  0.38347557  1
  Li  Li67  1  0.00000000  0.00000000  0.00000000  1
  Li  Li68  1  0.66666667  0.33333333  0.50000000  1
  Li  Li69  1  0.33333333  0.66666667  0.00000000  1
  Li  Li70  1  0.66666667  0.33333333  0.34708551  1
  Li  Li71  1  0.66666667  0.33333333  0.65291449  1
