# generated using pymatgen
data_Li4TeF2
_symmetry_space_group_name_H-M   'P 1'
_cell_length_a   27.29274122
_cell_length_b   27.29274122
_cell_length_c   3.54107298
_cell_angle_alpha   90.00000000
_cell_angle_beta   90.00000000
_cell_angle_gamma   90.00000000
_symmetry_Int_Tables_number   1
_chemical_formula_structural   Li4TeF2
_chemical_formula_sum   'Li96 Te24 F48'
_cell_volume   2637.72303949
_cell_formula_units_Z   24
loop_
 _symmetry_equiv_pos_site_id
 _symmetry_equiv_pos_as_xyz
  1  'x, y, z'
loop_
 _atom_site_type_symbol
 _atom_site_label
 _atom_site_symmetry_multiplicity
 _atom_site_fract_x
 _atom_site_fract_y
 _atom_site_fract_z
 _atom_site_occupancy
  F  F0  1  0.64848315  0.00000000  0.25000000  1
  F  F1  1  0.85151685  0.00000000  0.75000000  1
  F  F2  1  0.25000000  0.39848315  0.50000000  1
  F  F3  1  0.25000000  0.60151685  0.00000000  1
  F  F4  1  0.35151685  0.00000000  0.75000000  1
  F  F5  1  0.14848315  0.00000000  0.25000000  1
  F  F6  1  0.75000000  0.60151685  0.50000000  1
  F  F7  1  0.75000000  0.39848315  0.00000000  1
  F  F8  1  0.14848315  0.50000000  0.75000000  1
  F  F9  1  0.35151685  0.50000000  0.25000000  1
  F  F10  1  0.75000000  0.89848315  0.00000000  1
  F  F11  1  0.75000000  0.10151685  0.50000000  1
  F  F12  1  0.85151685  0.50000000  0.25000000  1
  F  F13  1  0.64848315  0.50000000  0.75000000  1
  F  F14  1  0.25000000  0.10151685  0.00000000  1
  F  F15  1  0.25000000  0.89848315  0.50000000  1
  F  F16  1  0.32811806  0.00000000  0.25000000  1
  F  F17  1  0.17188194  0.00000000  0.75000000  1
  F  F18  1  0.25000000  0.07811806  0.50000000  1
  F  F19  1  0.25000000  0.92188194  0.00000000  1
  F  F20  1  0.67188194  0.00000000  0.75000000  1
  F  F21  1  0.82811806  0.00000000  0.25000000  1
  F  F22  1  0.75000000  0.92188194  0.50000000  1
  F  F23  1  0.75000000  0.07811806  0.00000000  1
  F  F24  1  0.82811806  0.50000000  0.75000000  1
  F  F25  1  0.67188194  0.50000000  0.25000000  1
  F  F26  1  0.75000000  0.57811806  0.00000000  1
  F  F27  1  0.75000000  0.42188194  0.50000000  1
  F  F28  1  0.17188194  0.50000000  0.25000000  1
  F  F29  1  0.32811806  0.50000000  0.75000000  1
  F  F30  1  0.25000000  0.42188194  0.00000000  1
  F  F31  1  0.25000000  0.57811806  0.50000000  1
  F  F32  1  0.25672983  0.00000000  0.25000000  1
  F  F33  1  0.24327017  0.00000000  0.75000000  1
  F  F34  1  0.25000000  0.00672983  0.50000000  1
  F  F35  1  0.25000000  0.99327017  -0.00000000  1
  F  F36  1  0.74327017  0.00000000  0.75000000  1
  F  F37  1  0.75672983  0.00000000  0.25000000  1
  F  F38  1  0.75000000  0.99327017  0.50000000  1
  F  F39  1  0.75000000  0.00672983  0.00000000  1
  F  F40  1  0.75672983  0.50000000  0.75000000  1
  F  F41  1  0.74327017  0.50000000  0.25000000  1
  F  F42  1  0.75000000  0.50672983  0.00000000  1
  F  F43  1  0.75000000  0.49327017  0.50000000  1
  F  F44  1  0.24327017  0.50000000  0.25000000  1
  F  F45  1  0.25672983  0.50000000  0.75000000  1
  F  F46  1  0.25000000  0.49327017  0.00000000  1
  F  F47  1  0.25000000  0.50672983  0.50000000  1
  Li  Li48  1  0.17469189  0.33588092  0.18323715  1
  Li  Li49  1  0.32530811  -0.33588092  0.68323715  1
  Li  Li50  1  -0.08588092  0.92469189  0.43323715  1
  Li  Li51  1  0.58588092  0.07530811  0.93323715  1
  Li  Li52  1  0.32530811  0.33588092  -0.18323715  1
  Li  Li53  1  0.17469189  -0.33588092  0.31676285  1
  Li  Li54  1  0.58588092  0.92469189  0.56676285  1
  Li  Li55  1  -0.08588092  0.07530811  0.06676285  1
  Li  Li56  1  -0.17469189  -0.33588092  -0.18323715  1
  Li  Li57  1  0.67469189  0.33588092  0.31676285  1
  Li  Li58  1  1.08588092  0.07530811  0.56676285  1
  Li  Li59  1  0.41411908  0.92469189  0.06676285  1
  Li  Li60  1  0.67469189  -0.33588092  0.18323715  1
  Li  Li61  1  -0.17469189  0.33588092  0.68323715  1
  Li  Li62  1  0.41411908  0.07530811  0.43323715  1
  Li  Li63  1  1.08588092  0.92469189  0.93323715  1
  Li  Li64  1  0.67469189  0.83588092  0.68323715  1
  Li  Li65  1  0.82530811  0.16411908  1.18323715  1
  Li  Li66  1  0.41411908  1.42469189  0.93323715  1
  Li  Li67  1  1.08588092  0.57530811  1.43323715  1
  Li  Li68  1  0.82530811  0.83588092  0.31676285  1
  Li  Li69  1  0.67469189  0.16411908  0.81676285  1
  Li  Li70  1  1.08588092  1.42469189  1.06676285  1
  Li  Li71  1  0.41411908  0.57530811  0.56676285  1
  Li  Li72  1  0.32530811  0.16411908  0.31676285  1
  Li  Li73  1  1.17469189  0.83588092  0.81676285  1
  Li  Li74  1  1.58588092  0.57530811  1.06676285  1
  Li  Li75  1  0.91411908  1.42469189  0.56676285  1
  Li  Li76  1  1.17469189  0.16411908  0.68323715  1
  Li  Li77  1  0.32530811  0.83588092  1.18323715  1
  Li  Li78  1  0.91411908  0.57530811  0.93323715  1
  Li  Li79  1  1.58588092  1.42469189  1.43323715  1
  Li  Li80  1  0.56481502  0.45984213  0.97991645  1
  Li  Li81  1  0.93518498  0.54015787  0.47991645  1
  Li  Li82  1  0.79015787  0.31481502  0.22991645  1
  Li  Li83  1  0.70984213  0.68518498  0.72991645  1
  Li  Li84  1  0.93518498  0.45984213  0.02008355  1
  Li  Li85  1  0.56481502  0.54015787  0.52008355  1
  Li  Li86  1  0.70984213  0.31481502  0.77008355  1
  Li  Li87  1  0.79015787  0.68518498  0.27008355  1
  Li  Li88  1  0.43518498  0.54015787  0.02008355  1
  Li  Li89  1  0.06481502  0.45984213  0.52008355  1
  Li  Li90  1  0.20984213  0.68518498  0.77008355  1
  Li  Li91  1  0.29015787  0.31481502  0.27008355  1
  Li  Li92  1  0.06481502  0.54015787  0.97991645  1
  Li  Li93  1  0.43518498  0.45984213  0.47991645  1
  Li  Li94  1  0.29015787  0.68518498  0.22991645  1
  Li  Li95  1  0.20984213  0.31481502  0.72991645  1
  Li  Li96  1  0.06481502  0.95984213  0.47991645  1
  Li  Li97  1  0.43518498  0.04015787  0.97991645  1
  Li  Li98  1  0.29015787  0.81481502  0.72991645  1
  Li  Li99  1  0.20984213  0.18518498  0.22991645  1
  Li  Li100  1  0.43518498  0.95984213  0.52008355  1
  Li  Li101  1  0.06481502  0.04015787  0.02008355  1
  Li  Li102  1  0.20984213  0.81481502  0.27008355  1
  Li  Li103  1  0.29015787  0.18518498  0.77008355  1
  Li  Li104  1  0.93518498  0.04015787  0.52008355  1
  Li  Li105  1  0.56481502  0.95984213  0.02008355  1
  Li  Li106  1  0.70984213  0.18518498  0.27008355  1
  Li  Li107  1  0.79015787  0.81481502  0.77008355  1
  Li  Li108  1  0.56481502  0.04015787  0.47991645  1
  Li  Li109  1  0.93518498  0.95984213  0.97991645  1
  Li  Li110  1  0.79015787  0.18518498  0.72991645  1
  Li  Li111  1  0.70984213  0.81481502  0.22991645  1
  Li  Li112  1  0.94672681  0.23531534  0.75211909  1
  Li  Li113  1  0.55327319  0.76468466  0.25211909  1
  Li  Li114  1  0.01468466  0.69672681  0.00211909  1
  Li  Li115  1  0.48531534  0.30327319  0.50211909  1
  Li  Li116  1  0.55327319  0.23531534  0.24788091  1
  Li  Li117  1  0.94672681  0.76468466  0.74788091  1
  Li  Li118  1  0.48531534  0.69672681  0.99788091  1
  Li  Li119  1  0.01468466  0.30327319  0.49788091  1
  Li  Li120  1  0.05327319  0.76468466  0.24788091  1
  Li  Li121  1  0.44672681  0.23531534  0.74788091  1
  Li  Li122  1  0.98531534  0.30327319  0.99788091  1
  Li  Li123  1  0.51468466  0.69672681  0.49788091  1
  Li  Li124  1  0.44672681  0.76468466  0.75211909  1
  Li  Li125  1  0.05327319  0.23531534  0.25211909  1
  Li  Li126  1  0.51468466  0.30327319  0.00211909  1
  Li  Li127  1  0.98531534  0.69672681  0.50211909  1
  Li  Li128  1  0.44672681  0.73531534  0.25211909  1
  Li  Li129  1  0.05327319  0.26468466  0.75211909  1
  Li  Li130  1  0.51468466  0.19672681  0.50211909  1
  Li  Li131  1  0.98531534  0.80327319  0.00211909  1
  Li  Li132  1  0.05327319  0.73531534  0.74788091  1
  Li  Li133  1  0.44672681  0.26468466  0.24788091  1
  Li  Li134  1  0.98531534  0.19672681  0.49788091  1
  Li  Li135  1  0.51468466  0.80327319  0.99788091  1
  Li  Li136  1  0.55327319  0.26468466  0.74788091  1
  Li  Li137  1  0.94672681  0.73531534  0.24788091  1
  Li  Li138  1  0.48531534  0.80327319  0.49788091  1
  Li  Li139  1  0.01468466  0.19672681  0.99788091  1
  Li  Li140  1  0.94672681  0.26468466  0.25211909  1
  Li  Li141  1  0.55327319  0.73531534  0.75211909  1
  Li  Li142  1  0.01468466  0.80327319  0.50211909  1
  Li  Li143  1  0.48531534  0.19672681  0.00211909  1
  Te  Te144  1  0.98766854  0.00000000  0.25000000  1
  Te  Te145  1  0.51233146  0.00000000  0.75000000  1
  Te  Te146  1  0.25000000  0.73766854  0.50000000  1
  Te  Te147  1  0.25000000  0.26233146  0.00000000  1
  Te  Te148  1  0.01233146  0.00000000  0.75000000  1
  Te  Te149  1  0.48766854  0.00000000  0.25000000  1
  Te  Te150  1  0.75000000  0.26233146  0.50000000  1
  Te  Te151  1  0.75000000  0.73766854  0.00000000  1
  Te  Te152  1  0.48766854  0.50000000  0.75000000  1
  Te  Te153  1  0.01233146  0.50000000  0.25000000  1
  Te  Te154  1  0.75000000  0.23766854  0.00000000  1
  Te  Te155  1  0.75000000  0.76233146  0.50000000  1
  Te  Te156  1  0.51233146  0.50000000  0.25000000  1
  Te  Te157  1  0.98766854  0.50000000  0.75000000  1
  Te  Te158  1  0.25000000  0.76233146  0.00000000  1
  Te  Te159  1  0.25000000  0.23766854  0.50000000  1
  Te  Te160  1  0.00000000  0.25000000  0.12500000  1
  Te  Te161  1  0.00000000  0.75000000  0.37500000  1
  Te  Te162  1  0.00000000  0.75000000  0.87500000  1
  Te  Te163  1  0.00000000  0.25000000  0.62500000  1
  Te  Te164  1  0.50000000  0.75000000  0.62500000  1
  Te  Te165  1  0.50000000  0.25000000  0.87500000  1
  Te  Te166  1  0.50000000  0.25000000  0.37500000  1
  Te  Te167  1  0.50000000  0.75000000  0.12500000  1
