# generated using pymatgen
data_LiYSbAs2P
_symmetry_space_group_name_H-M   'P 1'
_cell_length_a   5.04336364
_cell_length_b   5.19974948
_cell_length_c   6.96321888
_cell_angle_alpha   94.54620923
_cell_angle_beta   99.48881382
_cell_angle_gamma   107.61437134
_symmetry_Int_Tables_number   1
_chemical_formula_structural   LiYSbAs2P
_chemical_formula_sum   'Li2 Y2 Sb2 As4 P2'
_cell_volume   170.03457487
_cell_formula_units_Z   2
loop_
 _symmetry_equiv_pos_site_id
 _symmetry_equiv_pos_as_xyz
  1  'x, y, z'
loop_
 _atom_site_type_symbol
 _atom_site_label
 _atom_site_symmetry_multiplicity
 _atom_site_fract_x
 _atom_site_fract_y
 _atom_site_fract_z
 _atom_site_occupancy
  Y  Y0  1  0.00000000  0.00000000  0.00000000  1
  Y  Y1  1  0.50000000  0.50000000  0.50000000  1
  P  P2  1  0.25000000  0.25000000  0.25000000  1
  P  P3  1  0.75000000  0.25000000  0.00000000  1
  As  As4  1  0.25000000  0.75000000  0.50000000  1
  As  As5  1  0.33225530  0.02683268  0.77298549  1
  As  As6  1  0.63987476  0.01618553  0.90916648  1
  As  As7  1  0.07494630  0.03580951  0.17207363  1
  Li  Li8  1  0.94769872  0.05260867  0.17985125  1
  Li  Li9  1  0.22633107  0.07627414  0.05890315  1
  Sb  Sb10  1  0.83567399  0.68674431  0.37624197  1
  Sb  Sb11  1  0.66026520  0.01242785  0.44316904  1
