# generated using pymatgen
data_LiF
_symmetry_space_group_name_H-M   'P 1'
_cell_length_a   10.09863746
_cell_length_b   10.09863746
_cell_length_c   6.50167281
_cell_angle_alpha   90.00000000
_cell_angle_beta   90.00000000
_cell_angle_gamma   120.00000000
_symmetry_Int_Tables_number   1
_chemical_formula_structural   LiF
_chemical_formula_sum   'Li17 F17'
_cell_volume   574.22395274
_cell_formula_units_Z   17
loop_
 _symmetry_equiv_pos_site_id
 _symmetry_equiv_pos_as_xyz
  1  'x, y, z'
loop_
 _atom_site_type_symbol
 _atom_site_label
 _atom_site_symmetry_multiplicity
 _atom_site_fract_x
 _atom_site_fract_y
 _atom_site_fract_z
 _atom_site_occupancy
  F  F0  1  0.66095193  0.72824718  0.00000000  1
  F  F1  1  0.27175282  0.93270475  0.00000000  1
  F  F2  1  0.06729525  0.33904807  0.00000000  1
  F  F3  1  0.72824718  0.66095193  0.00000000  1
  F  F4  1  0.93270475  0.27175282  0.00000000  1
  F  F5  1  0.33904807  0.06729525  0.00000000  1
  F  F6  1  0.90976932  0.16400027  0.00000000  1
  F  F7  1  0.83599973  0.74576905  0.00000000  1
  F  F8  1  0.25423095  0.09023068  0.00000000  1
  F  F9  1  0.16400027  0.90976932  0.00000000  1
  F  F10  1  0.74576905  0.83599973  0.00000000  1
  F  F11  1  0.09023068  0.25423095  0.00000000  1
  F  F12  1  0.33333333  0.66666667  0.33466003  1
  F  F13  1  0.33333333  0.66666667  0.66533997  1
  F  F14  1  0.66666667  0.33333333  0.66533997  1
  F  F15  1  0.66666667  0.33333333  0.33466003  1
  F  F16  1  0.00000000  0.00000000  0.00000000  1
  Li  Li17  1  0.10812926  0.00000000  0.68614659  1
  Li  Li18  1  0.00000000  0.10812926  0.68614659  1
  Li  Li19  1  -0.10812926  -0.10812926  0.68614659  1
  Li  Li20  1  0.10812926  0.00000000  -0.68614659  1
  Li  Li21  1  0.00000000  0.10812926  -0.68614659  1
  Li  Li22  1  -0.10812926  -0.10812926  -0.68614659  1
  Li  Li23  1  0.69297554  0.00000000  0.50000000  1
  Li  Li24  1  0.00000000  0.69297554  0.50000000  1
  Li  Li25  1  0.30702446  0.30702446  0.50000000  1
  Li  Li26  1  0.49728324  -0.00000000  0.00000000  1
  Li  Li27  1  0.00000000  0.49728324  -0.00000000  1
  Li  Li28  1  0.50271676  0.50271676  0.00000000  1
  Li  Li29  1  0.33333333  0.66666667  0.16076059  1
  Li  Li30  1  0.33333333  0.66666667  0.83923941  1
  Li  Li31  1  0.66666667  0.33333333  0.83923941  1
  Li  Li32  1  0.66666667  0.33333333  0.16076059  1
  Li  Li33  1  0.00000000  0.00000000  0.50000000  1
