# generated using pymatgen
data_Li2Y2P3Se
_symmetry_space_group_name_H-M   'P 1'
_cell_length_a   4.30018209
_cell_length_b   4.54582483
_cell_length_c   6.77633302
_cell_angle_alpha   95.70257628
_cell_angle_beta   102.56809962
_cell_angle_gamma   113.08498083
_symmetry_Int_Tables_number   1
_chemical_formula_structural   Li2Y2P3Se
_chemical_formula_sum   'Li2 Y2 P3 Se1'
_cell_volume   116.39278148
_cell_formula_units_Z   1
loop_
 _symmetry_equiv_pos_site_id
 _symmetry_equiv_pos_as_xyz
  1  'x, y, z'
loop_
 _atom_site_type_symbol
 _atom_site_label
 _atom_site_symmetry_multiplicity
 _atom_site_fract_x
 _atom_site_fract_y
 _atom_site_fract_z
 _atom_site_occupancy
  Y  Y0  1  0.00000000  0.00000000  0.00000000  1
  Y  Y1  1  0.33300000  0.66700000  0.25000000  1
  P  P2  1  0.66700000  0.33300000  0.50000000  1
  P  P3  1  0.00000000  0.00000000  0.75000000  1
  P  P4  1  0.95209718  0.19072361  0.06928373  1
  Se  Se5  1  0.46827165  0.83679022  0.24417543  1
  Li  Li6  1  0.46793810  0.26676554  0.65287722  1
  Li  Li7  1  0.63935875  0.59565010  0.28384990  1
