# generated using pymatgen
data_LiF
_symmetry_space_group_name_H-M   'P 1'
_cell_length_a   8.77125263
_cell_length_b   8.77125263
_cell_length_c   14.27064635
_cell_angle_alpha   90.00000000
_cell_angle_beta   90.00000000
_cell_angle_gamma   90.00000000
_symmetry_Int_Tables_number   1
_chemical_formula_structural   LiF
_chemical_formula_sum   'Li64 F64'
_cell_volume   1097.91036074
_cell_formula_units_Z   64
loop_
 _symmetry_equiv_pos_site_id
 _symmetry_equiv_pos_as_xyz
  1  'x, y, z'
loop_
 _atom_site_type_symbol
 _atom_site_label
 _atom_site_symmetry_multiplicity
 _atom_site_fract_x
 _atom_site_fract_y
 _atom_site_fract_z
 _atom_site_occupancy
  F  F0  1  0.00459421  0.00000000  0.25000000  1
  F  F1  1  0.49540579  0.00000000  0.75000000  1
  F  F2  1  0.25000000  0.75459421  0.50000000  1
  F  F3  1  0.25000000  0.24540579  0.00000000  1
  F  F4  1  0.99540579  0.00000000  0.75000000  1
  F  F5  1  0.50459421  0.00000000  0.25000000  1
  F  F6  1  0.75000000  0.24540579  0.50000000  1
  F  F7  1  0.75000000  0.75459421  0.00000000  1
  F  F8  1  0.50459421  0.50000000  0.75000000  1
  F  F9  1  0.99540579  0.50000000  0.25000000  1
  F  F10  1  0.75000000  0.25459421  -0.00000000  1
  F  F11  1  0.75000000  0.74540579  0.50000000  1
  F  F12  1  0.49540579  0.50000000  0.25000000  1
  F  F13  1  0.00459421  0.50000000  0.75000000  1
  F  F14  1  0.25000000  0.74540579  0.00000000  1
  F  F15  1  0.25000000  0.25459421  0.50000000  1
  F  F16  1  0.63911006  0.98057195  0.03514130  1
  F  F17  1  0.86088994  0.01942805  0.53514130  1
  F  F18  1  0.26942805  0.38911006  0.28514130  1
  F  F19  1  0.23057195  0.61088994  0.78514130  1
  F  F20  1  0.86088994  0.98057195  0.96485870  1
  F  F21  1  0.63911006  0.01942805  0.46485870  1
  F  F22  1  0.23057195  0.38911006  0.71485870  1
  F  F23  1  0.26942805  0.61088994  0.21485870  1
  F  F24  1  0.36088994  0.01942805  0.96485870  1
  F  F25  1  0.13911006  0.98057195  0.46485870  1
  F  F26  1  0.73057195  0.61088994  0.71485870  1
  F  F27  1  0.76942805  0.38911006  0.21485870  1
  F  F28  1  0.13911006  0.01942805  0.03514130  1
  F  F29  1  0.36088994  0.98057195  0.53514130  1
  F  F30  1  0.76942805  0.61088994  0.28514130  1
  F  F31  1  0.73057195  0.38911006  0.78514130  1
  F  F32  1  0.13911006  0.48057195  0.53514130  1
  F  F33  1  0.36088994  0.51942805  0.03514130  1
  F  F34  1  0.76942805  0.88911006  0.78514130  1
  F  F35  1  0.73057195  0.11088994  0.28514130  1
  F  F36  1  0.36088994  0.48057195  0.46485870  1
  F  F37  1  0.13911006  0.51942805  0.96485870  1
  F  F38  1  0.73057195  0.88911006  0.21485870  1
  F  F39  1  0.76942805  0.11088994  0.71485870  1
  F  F40  1  0.86088994  0.51942805  0.46485870  1
  F  F41  1  0.63911006  0.48057195  0.96485870  1
  F  F42  1  0.23057195  0.11088994  0.21485870  1
  F  F43  1  0.26942805  0.88911006  0.71485870  1
  F  F44  1  0.63911006  0.51942805  0.53514130  1
  F  F45  1  0.86088994  0.48057195  0.03514130  1
  F  F46  1  0.26942805  0.11088994  0.78514130  1
  F  F47  1  0.23057195  0.88911006  0.28514130  1
  F  F48  1  0.00000000  0.00000000  0.00000000  1
  F  F49  1  0.50000000  0.00000000  0.50000000  1
  F  F50  1  0.25000000  0.75000000  0.25000000  1
  F  F51  1  0.25000000  0.25000000  0.75000000  1
  F  F52  1  0.50000000  0.00000000  0.00000000  1
  F  F53  1  0.00000000  0.00000000  0.50000000  1
  F  F54  1  0.25000000  0.75000000  0.75000000  1
  F  F55  1  0.25000000  0.25000000  0.25000000  1
  F  F56  1  0.50000000  0.50000000  0.50000000  1
  F  F57  1  0.00000000  0.50000000  0.00000000  1
  F  F58  1  0.75000000  0.25000000  0.75000000  1
  F  F59  1  0.75000000  0.75000000  0.25000000  1
  F  F60  1  0.00000000  0.50000000  0.50000000  1
  F  F61  1  0.50000000  0.50000000  0.00000000  1
  F  F62  1  0.75000000  0.25000000  0.25000000  1
  F  F63  1  0.75000000  0.75000000  0.75000000  1
  Li  Li64  1  0.12248254  0.37248254  0.12500000  1
  Li  Li65  1  0.37751746  0.62751746  0.62500000  1
  Li  Li66  1  0.87751746  0.87248254  0.37500000  1
  Li  Li67  1  0.62248254  0.12751746  0.87500000  1
  Li  Li68  1  0.87751746  0.62751746  0.87500000  1
  Li  Li69  1  0.62248254  0.37248254  0.37500000  1
  Li  Li70  1  0.12248254  0.12751746  0.62500000  1
  Li  Li71  1  0.37751746  0.87248254  0.12500000  1
  Li  Li72  1  0.62248254  0.87248254  0.62500000  1
  Li  Li73  1  0.87751746  0.12751746  0.12500000  1
  Li  Li74  1  0.37751746  0.37248254  0.87500000  1
  Li  Li75  1  0.12248254  0.62751746  0.37500000  1
  Li  Li76  1  0.37751746  0.12751746  0.37500000  1
  Li  Li77  1  0.12248254  0.87248254  0.87500000  1
  Li  Li78  1  0.62248254  0.62751746  0.12500000  1
  Li  Li79  1  0.87751746  0.37248254  0.62500000  1
  Li  Li80  1  0.00000000  0.25000000  0.07215178  1
  Li  Li81  1  0.00000000  0.75000000  0.32215178  1
  Li  Li82  1  0.50000000  0.25000000  0.92784822  1
  Li  Li83  1  0.50000000  0.75000000  0.67784822  1
  Li  Li84  1  0.00000000  0.75000000  0.92784822  1
  Li  Li85  1  0.00000000  0.25000000  0.67784822  1
  Li  Li86  1  0.50000000  0.75000000  0.07215178  1
  Li  Li87  1  0.50000000  0.25000000  0.32215178  1
  Li  Li88  1  0.50000000  0.75000000  0.57215178  1
  Li  Li89  1  0.50000000  0.25000000  0.82215178  1
  Li  Li90  1  0.00000000  0.75000000  0.42784822  1
  Li  Li91  1  0.00000000  0.25000000  0.17784822  1
  Li  Li92  1  0.50000000  0.25000000  0.42784822  1
  Li  Li93  1  0.50000000  0.75000000  0.17784822  1
  Li  Li94  1  0.00000000  0.25000000  0.57215178  1
  Li  Li95  1  0.00000000  0.75000000  0.82215178  1
  Li  Li96  1  0.77470642  0.55930158  0.41731360  1
  Li  Li97  1  -0.27470642  -0.55930158  0.91731360  1
  Li  Li98  1  -0.30930158  1.52470642  0.66731360  1
  Li  Li99  1  0.80930158  -0.52470642  1.16731360  1
  Li  Li100  1  -0.27470642  0.55930158  -0.41731360  1
  Li  Li101  1  0.77470642  -0.55930158  0.08268640  1
  Li  Li102  1  0.80930158  1.52470642  0.33268640  1
  Li  Li103  1  -0.30930158  -0.52470642  -0.16731360  1
  Li  Li104  1  -0.77470642  -0.55930158  -0.41731360  1
  Li  Li105  1  1.27470642  0.55930158  0.08268640  1
  Li  Li106  1  1.30930158  -0.52470642  0.33268640  1
  Li  Li107  1  0.19069842  1.52470642  -0.16731360  1
  Li  Li108  1  1.27470642  -0.55930158  0.41731360  1
  Li  Li109  1  -0.77470642  0.55930158  0.91731360  1
  Li  Li110  1  0.19069842  -0.52470642  0.66731360  1
  Li  Li111  1  1.30930158  1.52470642  1.16731360  1
  Li  Li112  1  1.27470642  1.05930158  0.91731360  1
  Li  Li113  1  0.22529358  -0.05930158  1.41731360  1
  Li  Li114  1  0.19069842  2.02470642  1.16731360  1
  Li  Li115  1  1.30930158  -0.02470642  1.66731360  1
  Li  Li116  1  0.22529358  1.05930158  0.08268640  1
  Li  Li117  1  1.27470642  -0.05930158  0.58268640  1
  Li  Li118  1  1.30930158  2.02470642  0.83268640  1
  Li  Li119  1  0.19069842  -0.02470642  0.33268640  1
  Li  Li120  1  -0.27470642  -0.05930158  0.08268640  1
  Li  Li121  1  1.77470642  1.05930158  0.58268640  1
  Li  Li122  1  1.80930158  -0.02470642  0.83268640  1
  Li  Li123  1  0.69069842  2.02470642  0.33268640  1
  Li  Li124  1  1.77470642  -0.05930158  0.91731360  1
  Li  Li125  1  -0.27470642  1.05930158  1.41731360  1
  Li  Li126  1  0.69069842  -0.02470642  1.16731360  1
  Li  Li127  1  1.80930158  2.02470642  1.66731360  1
