# generated using pymatgen
data_Li2Ca3F8
_symmetry_space_group_name_H-M   'P 1'
_cell_length_a   12.68363411
_cell_length_b   12.68363411
_cell_length_c   16.41421879
_cell_angle_alpha   90.00000000
_cell_angle_beta   90.00000000
_cell_angle_gamma   120.00000000
_symmetry_Int_Tables_number   1
_chemical_formula_structural   Li2Ca3F8
_chemical_formula_sum   'Li16 Ca24 F64'
_cell_volume   2286.85305988
_cell_formula_units_Z   8
loop_
 _symmetry_equiv_pos_site_id
 _symmetry_equiv_pos_as_xyz
  1  'x, y, z'
loop_
 _atom_site_type_symbol
 _atom_site_label
 _atom_site_symmetry_multiplicity
 _atom_site_fract_x
 _atom_site_fract_y
 _atom_site_fract_z
 _atom_site_occupancy
  Ca  Ca0  1  0.41479670  0.35986023  0.53938617  1
  Ca  Ca1  1  0.64013977  0.05493647  0.53938617  1
  Ca  Ca2  1  0.94506353  0.58520330  0.53938617  1
  Ca  Ca3  1  0.64013977  0.58520330  0.46061383  1
  Ca  Ca4  1  0.94506353  0.35986023  0.46061383  1
  Ca  Ca5  1  0.41479670  0.05493647  0.46061383  1
  Ca  Ca6  1  0.59340672  0.07044034  0.26754122  1
  Ca  Ca7  1  0.92955966  0.52296638  0.26754122  1
  Ca  Ca8  1  0.47703362  0.40659328  0.26754122  1
  Ca  Ca9  1  0.92955966  0.40659328  0.73245878  1
  Ca  Ca10  1  0.47703362  0.07044034  0.73245878  1
  Ca  Ca11  1  0.59340672  0.52296638  0.73245878  1
  Ca  Ca12  1  0.48106137  0.82077440  0.86154940  1
  Ca  Ca13  1  0.17922560  0.66028698  0.86154940  1
  Ca  Ca14  1  0.33971302  0.51893863  0.86154940  1
  Ca  Ca15  1  0.17922560  0.51893863  0.13845060  1
  Ca  Ca16  1  0.33971302  0.82077440  0.13845060  1
  Ca  Ca17  1  0.48106137  0.66028698  0.13845060  1
  Ca  Ca18  1  0.68754456  0.26056523  0.42713361  1
  Ca  Ca19  1  0.73943477  0.42697933  0.42713361  1
  Ca  Ca20  1  0.57302067  0.31245544  0.42713361  1
  Ca  Ca21  1  0.73943477  0.31245544  0.57286639  1
  Ca  Ca22  1  0.57302067  0.26056523  0.57286639  1
  Ca  Ca23  1  0.68754456  0.42697933  0.57286639  1
  F  F24  1  0.66666667  0.33333333  -0.00000000  1
  F  F25  1  0.33333333  0.66666667  0.50000000  1
  F  F26  1  0.26640256  0.25868500  0.64988370  1
  F  F27  1  -0.25868500  0.00771756  0.64988370  1
  F  F28  1  -0.00771756  -0.26640256  0.64988370  1
  F  F29  1  -0.25868500  -0.26640256  -0.64988370  1
  F  F30  1  -0.00771756  0.25868500  -0.64988370  1
  F  F31  1  0.26640256  0.00771756  -0.64988370  1
  F  F32  1  0.33333333  0.66666667  0.00000000  1
  F  F33  1  0.00000000  0.00000000  0.50000000  1
  F  F34  1  0.84540949  0.38588557  0.98617962  1
  F  F35  1  0.61411443  0.45952393  0.98617962  1
  F  F36  1  0.54047607  0.15459051  0.98617962  1
  F  F37  1  0.61411443  0.15459051  0.01382038  1
  F  F38  1  0.54047607  0.38588557  0.01382038  1
  F  F39  1  0.84540949  0.45952393  0.01382038  1
  F  F40  1  0.00000000  0.00000000  0.39602166  1
  F  F41  1  0.00000000  0.00000000  0.60397834  1
  F  F42  1  0.94531820  0.60300618  0.68125215  1
  F  F43  1  0.39699382  0.34231202  0.68125215  1
  F  F44  1  0.65768798  0.05468180  0.68125215  1
  F  F45  1  0.39699382  0.05468180  0.31874785  1
  F  F46  1  0.65768798  0.60300618  0.31874785  1
  F  F47  1  0.94531820  0.34231202  0.31874785  1
  F  F48  1  0.69090820  0.30909180  0.50000000  1
  F  F49  1  0.69090820  0.38181641  0.50000000  1
  F  F50  1  0.61818359  0.30909180  0.50000000  1
  F  F51  1  0.83775889  0.42688556  0.32635018  1
  F  F52  1  0.57311444  0.41087333  0.32635018  1
  F  F53  1  0.58912667  0.16224111  0.32635018  1
  F  F54  1  0.57311444  0.16224111  0.67364982  1
  F  F55  1  0.58912667  0.42688556  0.67364982  1
  F  F56  1  0.83775889  0.41087333  0.67364982  1
  F  F57  1  0.95606243  0.07001009  0.59259269  1
  F  F58  1  0.92998991  0.88605234  0.59259269  1
  F  F59  1  0.11394766  0.04393757  0.59259269  1
  F  F60  1  0.92998991  0.04393757  0.40740731  1
  F  F61  1  0.11394766  0.07001009  0.40740731  1
  F  F62  1  0.95606243  0.88605234  0.40740731  1
  F  F63  1  0.06654075  0.73277834  0.98827491  1
  F  F64  1  0.26722166  0.33376241  0.98827491  1
  F  F65  1  0.66623759  0.93345925  0.98827491  1
  F  F66  1  0.26722166  0.93345925  0.01172509  1
  F  F67  1  0.66623759  0.73277834  0.01172509  1
  F  F68  1  0.06654075  0.33376241  0.01172509  1
  F  F69  1  0.59542872  0.12618702  0.16763384  1
  F  F70  1  0.87381298  0.46924169  0.16763384  1
  F  F71  1  0.53075831  0.40457128  0.16763384  1
  F  F72  1  0.87381298  0.40457128  0.83236616  1
  F  F73  1  0.53075831  0.12618702  0.83236616  1
  F  F74  1  0.59542872  0.46924169  0.83236616  1
  F  F75  1  0.00000000  0.00000000  0.16200797  1
  F  F76  1  0.00000000  0.00000000  0.83799203  1
  F  F77  1  0.02782676  0.43514551  0.13788483  1
  F  F78  1  0.56485449  0.59268125  0.13788483  1
  F  F79  1  0.40731875  0.97217324  0.13788483  1
  F  F80  1  0.56485449  0.97217324  0.86211517  1
  F  F81  1  0.40731875  0.43514551  0.86211517  1
  F  F82  1  0.02782676  0.59268125  0.86211517  1
  F  F83  1  0.61087767  0.38912233  0.00000000  1
  F  F84  1  0.61087767  0.22175534  0.00000000  1
  F  F85  1  0.77824466  0.38912233  0.00000000  1
  F  F86  1  0.66666667  0.33333333  0.11884760  1
  F  F87  1  0.66666667  0.33333333  0.88115240  1
  Li  Li88  1  0.03788752  0.67926592  0.45305683  1
  Li  Li89  1  0.32073408  0.35862161  0.45305683  1
  Li  Li90  1  0.64137839  0.96211248  0.45305683  1
  Li  Li91  1  0.32073408  0.96211248  0.54694317  1
  Li  Li92  1  0.64137839  0.67926592  0.54694317  1
  Li  Li93  1  0.03788752  0.35862161  0.54694317  1
  Li  Li94  1  0.93021639  0.31091321  0.16738760  1
  Li  Li95  1  0.68908679  0.61930318  0.16738760  1
  Li  Li96  1  0.38069682  0.06978361  0.16738760  1
  Li  Li97  1  0.68908679  0.06978361  0.83261240  1
  Li  Li98  1  0.38069682  0.31091321  0.83261240  1
  Li  Li99  1  0.93021639  0.61930318  0.83261240  1
  Li  Li100  1  0.33333333  0.66666667  0.40889049  1
  Li  Li101  1  0.33333333  0.66666667  0.59110951  1
  Li  Li102  1  0.66666667  0.33333333  0.75230249  1
  Li  Li103  1  0.66666667  0.33333333  0.24769751  1
