# generated using pymatgen
data_Li2LaAlO
_symmetry_space_group_name_H-M   'P 1'
_cell_length_a   3.23258457
_cell_length_b   2.92654606
_cell_length_c   6.50685072
_cell_angle_alpha   107.55386800
_cell_angle_beta   101.91802501
_cell_angle_gamma   103.64704511
_symmetry_Int_Tables_number   1
_chemical_formula_structural   Li2LaAlO
_chemical_formula_sum   'Li2 La1 Al1 O1'
_cell_volume   54.41184202
_cell_formula_units_Z   1
loop_
 _symmetry_equiv_pos_site_id
 _symmetry_equiv_pos_as_xyz
  1  'x, y, z'
loop_
 _atom_site_type_symbol
 _atom_site_label
 _atom_site_symmetry_multiplicity
 _atom_site_fract_x
 _atom_site_fract_y
 _atom_site_fract_z
 _atom_site_occupancy
  Al  Al0  1  0.12500000  0.00000000  0.25000000  1
  Li  Li1  1  0.00000000  0.00000000  0.00000000  1
  Li  Li2  1  0.37500000  0.00000000  0.25000000  1
  O  O3  1  0.25000000  0.25000000  0.25000000  1
  La  La4  1  0.00000000  0.25000000  0.12500000  1
