# generated using pymatgen
data_Li2Y2As3P2Se
_symmetry_space_group_name_H-M   'P 1'
_cell_length_a   5.58270644
_cell_length_b   5.73441808
_cell_length_c   7.33829362
_cell_angle_alpha   93.76497474
_cell_angle_beta   98.19933226
_cell_angle_gamma   105.12240716
_symmetry_Int_Tables_number   1
_chemical_formula_structural   Li2Y2As3P2Se
_chemical_formula_sum   'Li2 Y2 As3 P2 Se1'
_cell_volume   223.16673410
_cell_formula_units_Z   1
loop_
 _symmetry_equiv_pos_site_id
 _symmetry_equiv_pos_as_xyz
  1  'x, y, z'
loop_
 _atom_site_type_symbol
 _atom_site_label
 _atom_site_symmetry_multiplicity
 _atom_site_fract_x
 _atom_site_fract_y
 _atom_site_fract_z
 _atom_site_occupancy
  Se  Se0  1  0.00000000  0.00000000  0.00000000  1
  P  P1  1  0.50000000  0.50000000  0.50000000  1
  P  P2  1  0.25000000  0.25000000  0.25000000  1
  As  As3  1  0.75000000  0.25000000  0.00000000  1
  As  As4  1  0.25000000  0.75000000  0.50000000  1
  As  As5  1  0.26450721  0.37490920  0.55200284  1
  Li  Li6  1  0.34156871  0.89549775  0.20237631  1
  Li  Li7  1  0.77489711  0.16804859  0.31016572  1
  Y  Y8  1  0.12890363  0.83175170  0.31911477  1
  Y  Y9  1  0.13807479  0.65095241  0.72413812  1
