# generated using pymatgen
data_LiF
_symmetry_space_group_name_H-M   'P 1'
_cell_length_a   10.13747364
_cell_length_b   10.13747364
_cell_length_c   6.89719924
_cell_angle_alpha   90.00000000
_cell_angle_beta   90.00000000
_cell_angle_gamma   90.00000000
_symmetry_Int_Tables_number   1
_chemical_formula_structural   LiF
_chemical_formula_sum   'Li32 F32'
_cell_volume   708.81393604
_cell_formula_units_Z   32
loop_
 _symmetry_equiv_pos_site_id
 _symmetry_equiv_pos_as_xyz
  1  'x, y, z'
loop_
 _atom_site_type_symbol
 _atom_site_label
 _atom_site_symmetry_multiplicity
 _atom_site_fract_x
 _atom_site_fract_y
 _atom_site_fract_z
 _atom_site_occupancy
  F  F0  1  0.68492557  0.50000000  0.00000000  1
  F  F1  1  0.31507443  0.50000000  -0.00000000  1
  F  F2  1  0.50000000  0.68492557  0.00000000  1
  F  F3  1  0.50000000  0.31507443  -0.00000000  1
  F  F4  1  0.67030330  0.67030330  0.50000000  1
  F  F5  1  0.32969670  0.32969670  0.50000000  1
  F  F6  1  0.32969670  0.67030330  0.50000000  1
  F  F7  1  0.67030330  0.32969670  0.50000000  1
  F  F8  1  0.84759541  0.50000000  0.50000000  1
  F  F9  1  0.15240459  0.50000000  0.50000000  1
  F  F10  1  0.50000000  0.84759541  0.50000000  1
  F  F11  1  0.50000000  0.15240459  0.50000000  1
  F  F12  1  0.42781781  0.50000000  0.39169275  1
  F  F13  1  0.57218219  0.50000000  0.39169275  1
  F  F14  1  0.50000000  0.42781781  0.39169275  1
  F  F15  1  0.50000000  0.57218219  0.39169275  1
  F  F16  1  0.57218219  0.50000000  0.60830725  1
  F  F17  1  0.42781781  0.50000000  0.60830725  1
  F  F18  1  0.50000000  0.42781781  0.60830725  1
  F  F19  1  0.50000000  0.57218219  0.60830725  1
  F  F20  1  0.50000000  0.50000000  0.82769749  1
  F  F21  1  0.50000000  0.50000000  0.17230251  1
  F  F22  1  0.82218901  0.37662831  0.50000000  1
  F  F23  1  0.17781099  0.62337169  0.50000000  1
  F  F24  1  0.62337169  0.82218901  0.50000000  1
  F  F25  1  0.37662831  0.17781099  0.50000000  1
  F  F26  1  0.17781099  0.37662831  0.50000000  1
  F  F27  1  0.82218901  0.62337169  0.50000000  1
  F  F28  1  0.37662831  0.82218901  0.50000000  1
  F  F29  1  0.62337169  0.17781099  0.50000000  1
  F  F30  1  0.00000000  0.00000000  0.61260562  1
  F  F31  1  0.00000000  0.00000000  0.38739438  1
  Li  Li32  1  0.13089268  0.13089268  0.50000000  1
  Li  Li33  1  0.86910732  0.86910732  0.50000000  1
  Li  Li34  1  0.86910732  0.13089268  0.50000000  1
  Li  Li35  1  0.13089268  0.86910732  0.50000000  1
  Li  Li36  1  0.82597979  0.50000000  0.23861501  1
  Li  Li37  1  0.17402021  0.50000000  0.23861501  1
  Li  Li38  1  0.50000000  0.82597979  0.23861501  1
  Li  Li39  1  0.50000000  0.17402021  0.23861501  1
  Li  Li40  1  0.17402021  0.50000000  0.76138499  1
  Li  Li41  1  0.82597979  0.50000000  0.76138499  1
  Li  Li42  1  0.50000000  0.82597979  0.76138499  1
  Li  Li43  1  0.50000000  0.17402021  0.76138499  1
  Li  Li44  1  0.50000000  0.50000000  0.50000000  1
  Li  Li45  1  0.00000000  0.50000000  0.50000000  1
  Li  Li46  1  0.50000000  0.00000000  0.50000000  1
  Li  Li47  1  0.30735791  0.00000000  0.30695719  1
  Li  Li48  1  0.69264209  -0.00000000  0.30695719  1
  Li  Li49  1  0.00000000  0.30735791  0.30695719  1
  Li  Li50  1  0.00000000  0.69264209  0.30695719  1
  Li  Li51  1  0.69264209  -0.00000000  0.69304281  1
  Li  Li52  1  0.30735791  0.00000000  0.69304281  1
  Li  Li53  1  0.00000000  0.30735791  0.69304281  1
  Li  Li54  1  0.00000000  0.69264209  0.69304281  1
  Li  Li55  1  0.84170485  0.84170485  0.87651609  1
  Li  Li56  1  0.15829515  0.15829515  0.87651609  1
  Li  Li57  1  0.15829515  0.84170485  0.87651609  1
  Li  Li58  1  0.84170485  0.15829515  0.87651609  1
  Li  Li59  1  0.15829515  0.84170485  0.12348391  1
  Li  Li60  1  0.84170485  0.15829515  0.12348391  1
  Li  Li61  1  0.84170485  0.84170485  0.12348391  1
  Li  Li62  1  0.15829515  0.15829515  0.12348391  1
  Li  Li63  1  0.00000000  0.00000000  0.00000000  1
