# generated using pymatgen
data_Li2Ca3F8
_symmetry_space_group_name_H-M   'P 1'
_cell_length_a   12.06427418
_cell_length_b   12.06427418
_cell_length_c   12.06427418
_cell_angle_alpha   90.00000000
_cell_angle_beta   90.00000000
_cell_angle_gamma   90.00000000
_symmetry_Int_Tables_number   1
_chemical_formula_structural   Li2Ca3F8
_chemical_formula_sum   'Li16 Ca24 F64'
_cell_volume   1755.91543292
_cell_formula_units_Z   8
loop_
 _symmetry_equiv_pos_site_id
 _symmetry_equiv_pos_as_xyz
  1  'x, y, z'
loop_
 _atom_site_type_symbol
 _atom_site_label
 _atom_site_symmetry_multiplicity
 _atom_site_fract_x
 _atom_site_fract_y
 _atom_site_fract_z
 _atom_site_occupancy
  Ca  Ca0  1  0.92996510  -0.00000000  0.25000000  1
  Ca  Ca1  1  0.57003490  -0.00000000  0.75000000  1
  Ca  Ca2  1  0.25000000  0.92996510  -0.00000000  1
  Ca  Ca3  1  0.75000000  0.57003490  0.00000000  1
  Ca  Ca4  1  0.00000000  0.25000000  0.92996510  1
  Ca  Ca5  1  0.00000000  0.75000000  0.57003490  1
  Ca  Ca6  1  0.75000000  0.17996510  0.00000000  1
  Ca  Ca7  1  0.75000000  0.82003490  0.50000000  1
  Ca  Ca8  1  0.67996510  0.50000000  0.25000000  1
  Ca  Ca9  1  0.32003490  -0.00000000  0.25000000  1
  Ca  Ca10  1  0.00000000  0.25000000  0.32003490  1
  Ca  Ca11  1  0.50000000  0.25000000  0.67996510  1
  Ca  Ca12  1  0.42996510  0.50000000  0.75000000  1
  Ca  Ca13  1  0.07003490  0.50000000  0.25000000  1
  Ca  Ca14  1  0.75000000  0.42996510  0.50000000  1
  Ca  Ca15  1  0.25000000  0.07003490  0.50000000  1
  Ca  Ca16  1  0.50000000  0.75000000  0.42996510  1
  Ca  Ca17  1  0.50000000  0.25000000  0.07003490  1
  Ca  Ca18  1  0.25000000  0.67996510  0.50000000  1
  Ca  Ca19  1  0.25000000  0.32003490  0.00000000  1
  Ca  Ca20  1  0.17996510  0.00000000  0.75000000  1
  Ca  Ca21  1  0.82003490  0.50000000  0.75000000  1
  Ca  Ca22  1  0.50000000  0.75000000  0.82003490  1
  Ca  Ca23  1  0.00000000  0.75000000  0.17996510  1
  F  F24  1  0.80694837  0.05172179  0.95180886  1
  F  F25  1  -0.30694837  -0.05172179  1.45180886  1
  F  F26  1  -0.80694837  0.55172179  -0.45180886  1
  F  F27  1  1.30694837  0.44827821  -0.95180886  1
  F  F28  1  0.95180886  0.80694837  0.05172179  1
  F  F29  1  1.45180886  -0.30694837  -0.05172179  1
  F  F30  1  -0.45180886  -0.80694837  0.55172179  1
  F  F31  1  -0.95180886  1.30694837  0.44827821  1
  F  F32  1  0.05172179  0.95180886  0.80694837  1
  F  F33  1  -0.05172179  1.45180886  -0.30694837  1
  F  F34  1  0.55172179  -0.45180886  -0.80694837  1
  F  F35  1  0.44827821  -0.95180886  1.30694837  1
  F  F36  1  0.80172179  1.05694837  -0.70180886  1
  F  F37  1  0.69827821  -0.05694837  -0.20180886  1
  F  F38  1  0.30172179  -0.55694837  1.70180886  1
  F  F39  1  0.19827821  1.55694837  1.20180886  1
  F  F40  1  1.55694837  1.20180886  0.19827821  1
  F  F41  1  -0.55694837  1.70180886  0.30172179  1
  F  F42  1  -0.05694837  -0.20180886  0.69827821  1
  F  F43  1  1.05694837  -0.70180886  0.80172179  1
  F  F44  1  1.70180886  0.30172179  -0.55694837  1
  F  F45  1  1.20180886  0.19827821  1.55694837  1
  F  F46  1  -0.70180886  0.80172179  1.05694837  1
  F  F47  1  -0.20180886  0.69827821  -0.05694837  1
  F  F48  1  1.30694837  0.55172179  1.45180886  1
  F  F49  1  0.19305163  0.44827821  1.95180886  1
  F  F50  1  -0.30694837  1.05172179  0.04819114  1
  F  F51  1  1.80694837  0.94827821  -0.45180886  1
  F  F52  1  1.45180886  1.30694837  0.55172179  1
  F  F53  1  1.95180886  0.19305163  0.44827821  1
  F  F54  1  0.04819114  -0.30694837  1.05172179  1
  F  F55  1  -0.45180886  1.80694837  0.94827821  1
  F  F56  1  0.55172179  1.45180886  1.30694837  1
  F  F57  1  0.44827821  1.95180886  0.19305163  1
  F  F58  1  1.05172179  0.04819114  -0.30694837  1
  F  F59  1  0.94827821  -0.45180886  1.80694837  1
  F  F60  1  1.30172179  1.55694837  -0.20180886  1
  F  F61  1  1.19827821  0.44305163  0.29819114  1
  F  F62  1  0.80172179  -0.05694837  2.20180886  1
  F  F63  1  0.69827821  2.05694837  1.70180886  1
  F  F64  1  2.05694837  1.70180886  0.69827821  1
  F  F65  1  -0.05694837  2.20180886  0.80172179  1
  F  F66  1  0.44305163  0.29819114  1.19827821  1
  F  F67  1  1.55694837  -0.20180886  1.30172179  1
  F  F68  1  2.20180886  0.80172179  -0.05694837  1
  F  F69  1  1.70180886  0.69827821  2.05694837  1
  F  F70  1  -0.20180886  1.30172179  1.55694837  1
  F  F71  1  0.29819114  1.19827821  0.44305163  1
  F  F72  1  0.88916433  0.88916433  0.88916433  1
  F  F73  1  0.61083567  0.11083567  0.38916433  1
  F  F74  1  0.11083567  0.38916433  0.61083567  1
  F  F75  1  0.38916433  0.61083567  0.11083567  1
  F  F76  1  0.63916433  0.13916433  0.36083567  1
  F  F77  1  0.86083567  0.86083567  0.86083567  1
  F  F78  1  0.13916433  0.36083567  0.63916433  1
  F  F79  1  0.36083567  0.63916433  0.13916433  1
  F  F80  1  0.38916433  0.38916433  0.38916433  1
  F  F81  1  0.11083567  0.61083567  0.88916433  1
  F  F82  1  0.61083567  0.88916433  0.11083567  1
  F  F83  1  0.88916433  0.11083567  0.61083567  1
  F  F84  1  0.13916433  0.63916433  0.86083567  1
  F  F85  1  0.36083567  0.36083567  0.36083567  1
  F  F86  1  0.63916433  0.86083567  0.13916433  1
  F  F87  1  0.86083567  0.13916433  0.63916433  1
  Li  Li88  1  0.23551916  0.23551916  0.23551916  1
  Li  Li89  1  0.26448084  0.76448084  0.73551916  1
  Li  Li90  1  0.76448084  0.73551916  0.26448084  1
  Li  Li91  1  0.73551916  0.26448084  0.76448084  1
  Li  Li92  1  0.98551916  0.48551916  0.01448084  1
  Li  Li93  1  0.51448084  0.51448084  0.51448084  1
  Li  Li94  1  0.48551916  0.01448084  0.98551916  1
  Li  Li95  1  0.01448084  0.98551916  0.48551916  1
  Li  Li96  1  0.73551916  0.73551916  0.73551916  1
  Li  Li97  1  0.76448084  0.26448084  0.23551916  1
  Li  Li98  1  0.26448084  0.23551916  0.76448084  1
  Li  Li99  1  0.23551916  0.76448084  0.26448084  1
  Li  Li100  1  0.48551916  0.98551916  0.51448084  1
  Li  Li101  1  0.01448084  0.01448084  0.01448084  1
  Li  Li102  1  0.98551916  0.51448084  0.48551916  1
  Li  Li103  1  0.51448084  0.48551916  0.98551916  1
