# generated using pymatgen
data_Li2Y2As4P2Se
_symmetry_space_group_name_H-M   'P 1'
_cell_length_a   5.27649918
_cell_length_b   5.37505443
_cell_length_c   6.66925360
_cell_angle_alpha   93.81305995
_cell_angle_beta   96.64905027
_cell_angle_gamma   102.72006587
_symmetry_Int_Tables_number   1
_chemical_formula_structural   Li2Y2As4P2Se
_chemical_formula_sum   'Li2 Y2 As4 P2 Se1'
_cell_volume   182.43864535
_cell_formula_units_Z   1
loop_
 _symmetry_equiv_pos_site_id
 _symmetry_equiv_pos_as_xyz
  1  'x, y, z'
loop_
 _atom_site_type_symbol
 _atom_site_label
 _atom_site_symmetry_multiplicity
 _atom_site_fract_x
 _atom_site_fract_y
 _atom_site_fract_z
 _atom_site_occupancy
  Se  Se0  1  0.12500000  0.00000000  0.25000000  1
  Y  Y1  1  0.00000000  0.00000000  0.00000000  1
  Y  Y2  1  0.37500000  0.00000000  0.25000000  1
  P  P3  1  0.25000000  0.25000000  0.25000000  1
  P  P4  1  0.00000000  0.25000000  0.12500000  1
  As  As5  1  0.52567329  0.89410301  0.67666655  1
  As  As6  1  0.94036048  0.17866898  0.16709654  1
  As  As7  1  0.88998954  0.15627651  0.99901042  1
  As  As8  1  0.10030803  0.38726973  0.39912712  1
  Li  Li9  1  0.68990261  0.12744344  0.72952084  1
  Li  Li10  1  0.43837692  0.58061548  0.68484023  1
