# generated using pymatgen
data_Li2Y2MoP3Se2
_symmetry_space_group_name_H-M   'P 1'
_cell_length_a   5.43500682
_cell_length_b   5.52850145
_cell_length_c   7.18273359
_cell_angle_alpha   93.95386167
_cell_angle_beta   98.61068872
_cell_angle_gamma   105.88109088
_symmetry_Int_Tables_number   1
_chemical_formula_structural   Li2Y2MoP3Se2
_chemical_formula_sum   'Li2 Y2 Mo1 P3 Se2'
_cell_volume   203.86967928
_cell_formula_units_Z   1
loop_
 _symmetry_equiv_pos_site_id
 _symmetry_equiv_pos_as_xyz
  1  'x, y, z'
loop_
 _atom_site_type_symbol
 _atom_site_label
 _atom_site_symmetry_multiplicity
 _atom_site_fract_x
 _atom_site_fract_y
 _atom_site_fract_z
 _atom_site_occupancy
  Se  Se0  1  0.12500000  0.00000000  0.25000000  1
  Se  Se1  1  0.00000000  0.00000000  0.00000000  1
  Y  Y2  1  0.37500000  0.00000000  0.25000000  1
  Y  Y3  1  0.25000000  0.25000000  0.25000000  1
  P  P4  1  0.00000000  0.25000000  0.12500000  1
  P  P5  1  0.56124740  0.76313030  0.41921741  1
  P  P6  1  0.27238465  0.14320592  0.24517306  1
  Mo  Mo7  1  0.24360330  0.88823292  0.87326485  1
  Li  Li8  1  0.34461006  0.02753834  0.70793337  1
  Li  Li9  1  0.15348952  0.81949478  0.87737599  1
