# generated using pymatgen
data_Li4TeF2
_symmetry_space_group_name_H-M   'P 1'
_cell_length_a   18.25122120
_cell_length_b   18.25122120
_cell_length_c   7.60171158
_cell_angle_alpha   90.00000000
_cell_angle_beta   90.00000000
_cell_angle_gamma   90.00000000
_symmetry_Int_Tables_number   1
_chemical_formula_structural   Li4TeF2
_chemical_formula_sum   'Li96 Te24 F48'
_cell_volume   2532.18391192
_cell_formula_units_Z   24
loop_
 _symmetry_equiv_pos_site_id
 _symmetry_equiv_pos_as_xyz
  1  'x, y, z'
loop_
 _atom_site_type_symbol
 _atom_site_label
 _atom_site_symmetry_multiplicity
 _atom_site_fract_x
 _atom_site_fract_y
 _atom_site_fract_z
 _atom_site_occupancy
  F  F0  1  0.85732093  0.30490244  0.85082661  1
  F  F1  1  -0.85732093  -0.30490244  0.85082661  1
  F  F2  1  -0.30490244  0.85732093  0.85082661  1
  F  F3  1  0.30490244  -0.85732093  0.85082661  1
  F  F4  1  -0.85732093  0.30490244  -0.85082661  1
  F  F5  1  0.85732093  -0.30490244  -0.85082661  1
  F  F6  1  0.30490244  0.85732093  -0.85082661  1
  F  F7  1  -0.30490244  -0.85732093  -0.85082661  1
  F  F8  1  -0.85732093  -0.30490244  -0.85082661  1
  F  F9  1  0.85732093  0.30490244  -0.85082661  1
  F  F10  1  0.30490244  -0.85732093  -0.85082661  1
  F  F11  1  -0.30490244  0.85732093  -0.85082661  1
  F  F12  1  0.85732093  -0.30490244  0.85082661  1
  F  F13  1  -0.85732093  0.30490244  0.85082661  1
  F  F14  1  -0.30490244  -0.85732093  0.85082661  1
  F  F15  1  0.30490244  0.85732093  0.85082661  1
  F  F16  1  0.70225262  0.19854415  0.14381157  1
  F  F17  1  0.29774738  0.80145585  0.14381157  1
  F  F18  1  0.80145585  0.70225262  0.14381157  1
  F  F19  1  0.19854415  0.29774738  0.14381157  1
  F  F20  1  0.29774738  0.19854415  0.85618843  1
  F  F21  1  0.70225262  0.80145585  0.85618843  1
  F  F22  1  0.19854415  0.70225262  0.85618843  1
  F  F23  1  0.80145585  0.29774738  0.85618843  1
  F  F24  1  0.29774738  0.80145585  0.85618843  1
  F  F25  1  0.70225262  0.19854415  0.85618843  1
  F  F26  1  0.19854415  0.29774738  0.85618843  1
  F  F27  1  0.80145585  0.70225262  0.85618843  1
  F  F28  1  0.70225262  0.80145585  0.14381157  1
  F  F29  1  0.29774738  0.19854415  0.14381157  1
  F  F30  1  0.80145585  0.29774738  0.14381157  1
  F  F31  1  0.19854415  0.70225262  0.14381157  1
  F  F32  1  0.03091837  0.41951869  0.19761779  1
  F  F33  1  0.96908163  0.58048131  0.19761779  1
  F  F34  1  0.58048131  0.03091837  0.19761779  1
  F  F35  1  0.41951869  0.96908163  0.19761779  1
  F  F36  1  0.96908163  0.41951869  0.80238221  1
  F  F37  1  0.03091837  0.58048131  0.80238221  1
  F  F38  1  0.41951869  0.03091837  0.80238221  1
  F  F39  1  0.58048131  0.96908163  0.80238221  1
  F  F40  1  0.96908163  0.58048131  0.80238221  1
  F  F41  1  0.03091837  0.41951869  0.80238221  1
  F  F42  1  0.41951869  0.96908163  0.80238221  1
  F  F43  1  0.58048131  0.03091837  0.80238221  1
  F  F44  1  0.03091837  0.58048131  0.19761779  1
  F  F45  1  0.96908163  0.41951869  0.19761779  1
  F  F46  1  0.58048131  0.96908163  0.19761779  1
  F  F47  1  0.41951869  0.03091837  0.19761779  1
  Li  Li48  1  0.05707439  0.62794810  0.00000000  1
  Li  Li49  1  0.94292561  0.37205190  0.00000000  1
  Li  Li50  1  0.37205190  0.05707439  -0.00000000  1
  Li  Li51  1  0.62794810  0.94292561  0.00000000  1
  Li  Li52  1  0.94292561  0.62794810  0.00000000  1
  Li  Li53  1  0.05707439  0.37205190  0.00000000  1
  Li  Li54  1  0.62794810  0.05707439  0.00000000  1
  Li  Li55  1  0.37205190  0.94292561  0.00000000  1
  Li  Li56  1  0.23803717  0.34041769  0.50000000  1
  Li  Li57  1  0.76196283  0.65958231  0.50000000  1
  Li  Li58  1  0.65958231  0.23803717  0.50000000  1
  Li  Li59  1  0.34041769  0.76196283  0.50000000  1
  Li  Li60  1  0.76196283  0.34041769  0.50000000  1
  Li  Li61  1  0.23803717  0.65958231  0.50000000  1
  Li  Li62  1  0.34041769  0.23803717  0.50000000  1
  Li  Li63  1  0.65958231  0.76196283  0.50000000  1
  Li  Li64  1  0.32530427  0.91332912  0.50000000  1
  Li  Li65  1  0.67469573  0.08667088  0.50000000  1
  Li  Li66  1  0.08667088  0.32530427  0.50000000  1
  Li  Li67  1  0.91332912  0.67469573  0.50000000  1
  Li  Li68  1  0.67469573  0.91332912  0.50000000  1
  Li  Li69  1  0.32530427  0.08667088  0.50000000  1
  Li  Li70  1  0.91332912  0.32530427  0.50000000  1
  Li  Li71  1  0.08667088  0.67469573  0.50000000  1
  Li  Li72  1  0.93198292  0.93198292  0.26172271  1
  Li  Li73  1  0.06801708  0.06801708  0.26172271  1
  Li  Li74  1  0.06801708  0.93198292  0.26172271  1
  Li  Li75  1  0.93198292  0.06801708  0.26172271  1
  Li  Li76  1  0.06801708  0.93198292  0.73827729  1
  Li  Li77  1  0.93198292  0.06801708  0.73827729  1
  Li  Li78  1  0.93198292  0.93198292  0.73827729  1
  Li  Li79  1  0.06801708  0.06801708  0.73827729  1
  Li  Li80  1  0.53602063  0.79558788  0.09501854  1
  Li  Li81  1  0.46397937  0.20441212  0.09501854  1
  Li  Li82  1  0.20441212  0.53602063  0.09501854  1
  Li  Li83  1  0.79558788  0.46397937  0.09501854  1
  Li  Li84  1  0.46397937  0.79558788  0.90498146  1
  Li  Li85  1  0.53602063  0.20441212  0.90498146  1
  Li  Li86  1  0.79558788  0.53602063  0.90498146  1
  Li  Li87  1  0.20441212  0.46397937  0.90498146  1
  Li  Li88  1  0.46397937  0.20441212  0.90498146  1
  Li  Li89  1  0.53602063  0.79558788  0.90498146  1
  Li  Li90  1  0.79558788  0.46397937  0.90498146  1
  Li  Li91  1  0.20441212  0.53602063  0.90498146  1
  Li  Li92  1  0.53602063  0.20441212  0.09501854  1
  Li  Li93  1  0.46397937  0.79558788  0.09501854  1
  Li  Li94  1  0.20441212  0.46397937  0.09501854  1
  Li  Li95  1  0.79558788  0.53602063  0.09501854  1
  Li  Li96  1  0.00000000  0.00000000  0.17331569  1
  Li  Li97  1  0.00000000  0.00000000  0.82668431  1
  Li  Li98  1  0.00000000  0.00000000  0.00000000  1
  Li  Li99  1  0.00000000  0.00000000  0.50000000  1
  Li  Li100  1  0.70893407  0.00000000  0.64773232  1
  Li  Li101  1  0.29106593  0.00000000  0.64773232  1
  Li  Li102  1  0.00000000  0.70893407  0.64773232  1
  Li  Li103  1  0.00000000  0.29106593  0.64773232  1
  Li  Li104  1  0.29106593  0.00000000  0.35226768  1
  Li  Li105  1  0.70893407  0.00000000  0.35226768  1
  Li  Li106  1  0.00000000  0.70893407  0.35226768  1
  Li  Li107  1  0.00000000  0.29106593  0.35226768  1
  Li  Li108  1  0.61694957  0.43577660  0.70571875  1
  Li  Li109  1  0.38305043  0.56422340  0.70571875  1
  Li  Li110  1  0.56422340  0.61694957  0.70571875  1
  Li  Li111  1  0.43577660  0.38305043  0.70571875  1
  Li  Li112  1  0.38305043  0.43577660  0.29428125  1
  Li  Li113  1  0.61694957  0.56422340  0.29428125  1
  Li  Li114  1  0.43577660  0.61694957  0.29428125  1
  Li  Li115  1  0.56422340  0.38305043  0.29428125  1
  Li  Li116  1  0.38305043  0.56422340  0.29428125  1
  Li  Li117  1  0.61694957  0.43577660  0.29428125  1
  Li  Li118  1  0.43577660  0.38305043  0.29428125  1
  Li  Li119  1  0.56422340  0.61694957  0.29428125  1
  Li  Li120  1  0.61694957  0.56422340  0.70571875  1
  Li  Li121  1  0.38305043  0.43577660  0.70571875  1
  Li  Li122  1  0.56422340  0.38305043  0.70571875  1
  Li  Li123  1  0.43577660  0.61694957  0.70571875  1
  Li  Li124  1  0.04367524  0.23039796  0.24113062  1
  Li  Li125  1  0.95632476  0.76960204  0.24113062  1
  Li  Li126  1  0.76960204  0.04367524  0.24113062  1
  Li  Li127  1  0.23039796  0.95632476  0.24113062  1
  Li  Li128  1  0.95632476  0.23039796  0.75886938  1
  Li  Li129  1  0.04367524  0.76960204  0.75886938  1
  Li  Li130  1  0.23039796  0.04367524  0.75886938  1
  Li  Li131  1  0.76960204  0.95632476  0.75886938  1
  Li  Li132  1  0.95632476  0.76960204  0.75886938  1
  Li  Li133  1  0.04367524  0.23039796  0.75886938  1
  Li  Li134  1  0.23039796  0.95632476  0.75886938  1
  Li  Li135  1  0.76960204  0.04367524  0.75886938  1
  Li  Li136  1  0.04367524  0.76960204  0.24113062  1
  Li  Li137  1  0.95632476  0.23039796  0.24113062  1
  Li  Li138  1  0.76960204  0.95632476  0.24113062  1
  Li  Li139  1  0.23039796  0.04367524  0.24113062  1
  Li  Li140  1  0.92077945  0.92077945  0.50000000  1
  Li  Li141  1  0.07922055  0.07922055  0.50000000  1
  Li  Li142  1  0.07922055  0.92077945  0.50000000  1
  Li  Li143  1  0.92077945  0.07922055  0.50000000  1
  Te  Te144  1  0.06085754  0.32180739  0.75988518  1
  Te  Te145  1  0.93914246  0.67819261  0.75988518  1
  Te  Te146  1  0.67819261  0.06085754  0.75988518  1
  Te  Te147  1  0.32180739  0.93914246  0.75988518  1
  Te  Te148  1  0.93914246  0.32180739  0.24011482  1
  Te  Te149  1  0.06085754  0.67819261  0.24011482  1
  Te  Te150  1  0.32180739  0.06085754  0.24011482  1
  Te  Te151  1  0.67819261  0.93914246  0.24011482  1
  Te  Te152  1  0.93914246  0.67819261  0.24011482  1
  Te  Te153  1  0.06085754  0.32180739  0.24011482  1
  Te  Te154  1  0.32180739  0.93914246  0.24011482  1
  Te  Te155  1  0.67819261  0.06085754  0.24011482  1
  Te  Te156  1  0.06085754  0.67819261  0.75988518  1
  Te  Te157  1  0.93914246  0.32180739  0.75988518  1
  Te  Te158  1  0.67819261  0.93914246  0.75988518  1
  Te  Te159  1  0.32180739  0.06085754  0.75988518  1
  Te  Te160  1  0.00000000  0.50000000  0.50000000  1
  Te  Te161  1  0.50000000  0.00000000  0.50000000  1
  Te  Te162  1  0.00000000  0.50000000  0.00000000  1
  Te  Te163  1  0.50000000  0.00000000  0.00000000  1
  Te  Te164  1  0.22703459  0.00000000  -0.00000000  1
  Te  Te165  1  0.77296541  0.00000000  0.00000000  1
  Te  Te166  1  0.00000000  0.22703459  -0.00000000  1
  Te  Te167  1  0.00000000  0.77296541  0.00000000  1
