# generated using pymatgen
data_Li3Y2Sb2(As2P)2
_symmetry_space_group_name_H-M   'P 1'
_cell_length_a   5.08468061
_cell_length_b   5.09207057
_cell_length_c   6.99509340
_cell_angle_alpha   94.54251388
_cell_angle_beta   99.89265086
_cell_angle_gamma   108.24547287
_symmetry_Int_Tables_number   1
_chemical_formula_structural   Li3Y2Sb2(As2P)2
_chemical_formula_sum   'Li3 Y2 Sb2 As4 P2'
_cell_volume   167.73004934
_cell_formula_units_Z   1
loop_
 _symmetry_equiv_pos_site_id
 _symmetry_equiv_pos_as_xyz
  1  'x, y, z'
loop_
 _atom_site_type_symbol
 _atom_site_label
 _atom_site_symmetry_multiplicity
 _atom_site_fract_x
 _atom_site_fract_y
 _atom_site_fract_z
 _atom_site_occupancy
  Y  Y0  1  0.12500000  0.00000000  0.25000000  1
  Y  Y1  1  0.00000000  0.00000000  0.00000000  1
  P  P2  1  0.37500000  0.00000000  0.25000000  1
  P  P3  1  0.25000000  0.25000000  0.25000000  1
  As  As4  1  0.00000000  0.25000000  0.12500000  1
  As  As5  1  0.28881938  0.18889807  0.41646781  1
  As  As6  1  0.27192554  0.89239370  0.90763150  1
  As  As7  1  0.23567259  0.48137384  0.28259912  1
  Li  Li8  1  0.11935336  0.29082640  0.32653028  1
  Li  Li9  1  0.22996688  0.07594251  0.33109199  1
  Li  Li10  1  0.20427160  0.39484968  0.18879093  1
  Sb  Sb11  1  0.03185373  0.15556704  0.38180478  1
  Sb  Sb12  1  0.37140518  0.96228412  0.91374170  1
