# generated using pymatgen
data_Li4Y2AlAsSe
_symmetry_space_group_name_H-M   'P 1'
_cell_length_a   7.33323022
_cell_length_b   7.38060631
_cell_length_c   8.18201316
_cell_angle_alpha   90.70066575
_cell_angle_beta   91.02265328
_cell_angle_gamma   90.36865881
_symmetry_Int_Tables_number   1
_chemical_formula_structural   Li4Y2AlAsSe
_chemical_formula_sum   'Li4 Y2 Al1 As1 Se1'
_cell_volume   442.72725947
_cell_formula_units_Z   1
loop_
 _symmetry_equiv_pos_site_id
 _symmetry_equiv_pos_as_xyz
  1  'x, y, z'
loop_
 _atom_site_type_symbol
 _atom_site_label
 _atom_site_symmetry_multiplicity
 _atom_site_fract_x
 _atom_site_fract_y
 _atom_site_fract_z
 _atom_site_occupancy
  Al  Al0  1  0.00000000  0.00000000  0.00000000  1
  Se  Se1  1  0.50000000  0.50000000  0.50000000  1
  As  As2  1  0.50000000  0.50000000  0.00000000  1
  Li  Li3  1  0.50000000  0.00000000  0.50000000  1
  Li  Li4  1  0.00000000  0.50000000  0.50000000  1
  Li  Li5  1  0.09298818  0.71530316  0.02180867  1
  Li  Li6  1  0.55743073  0.40258429  0.21187031  1
  Y  Y7  1  0.68715945  0.59007768  0.73503411  1
  Y  Y8  1  0.77070721  0.17120605  0.86508085  1
