# generated using pymatgen
data_LiF
_symmetry_space_group_name_H-M   'P 1'
_cell_length_a   8.07968029
_cell_length_b   8.07968029
_cell_length_c   21.61006838
_cell_angle_alpha   90.00000000
_cell_angle_beta   90.00000000
_cell_angle_gamma   120.00000000
_symmetry_Int_Tables_number   1
_chemical_formula_structural   LiF
_chemical_formula_sum   'Li48 F48'
_cell_volume   1221.72968176
_cell_formula_units_Z   48
loop_
 _symmetry_equiv_pos_site_id
 _symmetry_equiv_pos_as_xyz
  1  'x, y, z'
loop_
 _atom_site_type_symbol
 _atom_site_label
 _atom_site_symmetry_multiplicity
 _atom_site_fract_x
 _atom_site_fract_y
 _atom_site_fract_z
 _atom_site_occupancy
  F  F0  1  0.00000000  0.00000000  0.00000000  1
  F  F1  1  0.00000000  0.00000000  0.50000000  1
  F  F2  1  0.33333333  0.66666667  0.25000000  1
  F  F3  1  0.66666667  0.33333333  0.75000000  1
  F  F4  1  0.78783005  0.17510405  0.90568371  1
  F  F5  1  -0.17510405  0.61272600  0.90568371  1
  F  F6  1  -0.61272600  -0.78783005  0.90568371  1
  F  F7  1  -0.78783005  -0.17510405  1.40568371  1
  F  F8  1  0.17510405  -0.61272600  1.40568371  1
  F  F9  1  0.61272600  0.78783005  1.40568371  1
  F  F10  1  -0.78783005  -0.17510405  -0.90568371  1
  F  F11  1  0.17510405  -0.61272600  -0.90568371  1
  F  F12  1  0.61272600  0.78783005  -0.90568371  1
  F  F13  1  0.78783005  0.17510405  -0.40568371  1
  F  F14  1  -0.17510405  0.61272600  -0.40568371  1
  F  F15  1  -0.61272600  -0.78783005  -0.40568371  1
  F  F16  1  0.18711725  0.65347526  0.17399035  1
  F  F17  1  0.34652474  0.53364199  0.17399035  1
  F  F18  1  0.46635801  0.81288275  0.17399035  1
  F  F19  1  0.81288275  0.34652474  0.67399035  1
  F  F20  1  0.65347526  0.46635801  0.67399035  1
  F  F21  1  0.53364199  0.18711725  0.67399035  1
  F  F22  1  0.81288275  0.34652474  0.82600965  1
  F  F23  1  0.65347526  0.46635801  0.82600965  1
  F  F24  1  0.53364199  0.18711725  0.82600965  1
  F  F25  1  0.18711725  0.65347526  0.32600965  1
  F  F26  1  0.34652474  0.53364199  0.32600965  1
  F  F27  1  0.46635801  0.81288275  0.32600965  1
  F  F28  1  0.00000000  0.00000000  0.82811174  1
  F  F29  1  0.00000000  0.00000000  0.32811174  1
  F  F30  1  0.00000000  0.00000000  0.17188826  1
  F  F31  1  0.00000000  0.00000000  0.67188826  1
  F  F32  1  0.73537104  0.77145135  0.05971234  1
  F  F33  1  0.22854865  0.96391968  0.05971234  1
  F  F34  1  0.03608032  0.26462896  0.05971234  1
  F  F35  1  0.26462896  0.22854865  0.55971234  1
  F  F36  1  0.77145135  0.03608032  0.55971234  1
  F  F37  1  0.96391968  0.73537104  0.55971234  1
  F  F38  1  0.26462896  0.22854865  0.94028766  1
  F  F39  1  0.77145135  0.03608032  0.94028766  1
  F  F40  1  0.96391968  0.73537104  0.94028766  1
  F  F41  1  0.73537104  0.77145135  0.44028766  1
  F  F42  1  0.22854865  0.96391968  0.44028766  1
  F  F43  1  0.03608032  0.26462896  0.44028766  1
  F  F44  1  0.33333333  0.66666667  0.78557543  1
  F  F45  1  0.66666667  0.33333333  0.28557543  1
  F  F46  1  0.66666667  0.33333333  0.21442457  1
  F  F47  1  0.33333333  0.66666667  0.71442457  1
  Li  Li48  1  0.33333333  0.66666667  0.60658350  1
  Li  Li49  1  0.66666667  0.33333333  0.10658350  1
  Li  Li50  1  0.66666667  0.33333333  0.39341650  1
  Li  Li51  1  0.33333333  0.66666667  0.89341650  1
  Li  Li52  1  0.43967131  0.06729177  0.92396822  1
  Li  Li53  1  0.93270823  0.37237954  0.92396822  1
  Li  Li54  1  0.62762046  0.56032869  0.92396822  1
  Li  Li55  1  0.56032869  0.93270823  0.42396822  1
  Li  Li56  1  0.06729177  0.62762046  0.42396822  1
  Li  Li57  1  0.37237954  0.43967131  0.42396822  1
  Li  Li58  1  0.56032869  0.93270823  0.07603178  1
  Li  Li59  1  0.06729177  0.62762046  0.07603178  1
  Li  Li60  1  0.37237954  0.43967131  0.07603178  1
  Li  Li61  1  0.43967131  0.06729177  0.57603178  1
  Li  Li62  1  0.93270823  0.37237954  0.57603178  1
  Li  Li63  1  0.62762046  0.56032869  0.57603178  1
  Li  Li64  1  0.33333333  0.66666667  0.04455043  1
  Li  Li65  1  0.66666667  0.33333333  0.54455043  1
  Li  Li66  1  0.66666667  0.33333333  0.95544957  1
  Li  Li67  1  0.33333333  0.66666667  0.45544957  1
  Li  Li68  1  0.84006039  0.87779624  0.19221189  1
  Li  Li69  1  0.12220376  0.96226415  0.19221189  1
  Li  Li70  1  0.03773585  0.15993961  0.19221189  1
  Li  Li71  1  0.15993961  0.12220376  0.69221189  1
  Li  Li72  1  0.87779624  0.03773585  0.69221189  1
  Li  Li73  1  0.96226415  0.84006039  0.69221189  1
  Li  Li74  1  0.15993961  0.12220376  0.80778811  1
  Li  Li75  1  0.87779624  0.03773585  0.80778811  1
  Li  Li76  1  0.96226415  0.84006039  0.80778811  1
  Li  Li77  1  0.84006039  0.87779624  0.30778811  1
  Li  Li78  1  0.12220376  0.96226415  0.30778811  1
  Li  Li79  1  0.03773585  0.15993961  0.30778811  1
  Li  Li80  1  0.54748766  0.09161258  0.98373681  1
  Li  Li81  1  0.90838742  0.45587507  0.98373681  1
  Li  Li82  1  0.54412493  0.45251234  0.98373681  1
  Li  Li83  1  0.45251234  0.90838742  0.48373681  1
  Li  Li84  1  0.09161258  0.54412493  0.48373681  1
  Li  Li85  1  0.45587507  0.54748766  0.48373681  1
  Li  Li86  1  0.45251234  0.90838742  0.01626319  1
  Li  Li87  1  0.09161258  0.54412493  0.01626319  1
  Li  Li88  1  0.45587507  0.54748766  0.01626319  1
  Li  Li89  1  0.54748766  0.09161258  0.51626319  1
  Li  Li90  1  0.90838742  0.45587507  0.51626319  1
  Li  Li91  1  0.54412493  0.45251234  0.51626319  1
  Li  Li92  1  0.33333333  0.66666667  0.31368015  1
  Li  Li93  1  0.66666667  0.33333333  0.81368015  1
  Li  Li94  1  0.66666667  0.33333333  0.68631985  1
  Li  Li95  1  0.33333333  0.66666667  0.18631985  1
