# generated using pymatgen
data_Li2Y2AsP4
_symmetry_space_group_name_H-M   'P 1'
_cell_length_a   3.92913986
_cell_length_b   4.25083354
_cell_length_c   6.63800512
_cell_angle_alpha   96.62805031
_cell_angle_beta   103.77638080
_cell_angle_gamma   113.42392183
_symmetry_Int_Tables_number   1
_chemical_formula_structural   Li2Y2AsP4
_chemical_formula_sum   'Li2 Y2 As1 P4'
_cell_volume   96.02065878
_cell_formula_units_Z   1
loop_
 _symmetry_equiv_pos_site_id
 _symmetry_equiv_pos_as_xyz
  1  'x, y, z'
loop_
 _atom_site_type_symbol
 _atom_site_label
 _atom_site_symmetry_multiplicity
 _atom_site_fract_x
 _atom_site_fract_y
 _atom_site_fract_z
 _atom_site_occupancy
  Y  Y0  1  0.12500000  0.00000000  0.25000000  1
  Y  Y1  1  0.00000000  0.00000000  0.00000000  1
  P  P2  1  0.37500000  0.00000000  0.25000000  1
  P  P3  1  0.25000000  0.25000000  0.25000000  1
  P  P4  1  0.00000000  0.25000000  0.12500000  1
  P  P5  1  0.88002372  0.60268456  0.96271798  1
  As  As6  1  0.72017245  0.09390286  0.38119915  1
  Li  Li7  1  0.14516035  0.38364818  0.97477372  1
  Li  Li8  1  0.43936924  0.88152499  0.76300038  1
