# generated using pymatgen
data_LiF
_symmetry_space_group_name_H-M   'P 1'
_cell_length_a   7.14723959
_cell_length_b   9.02427861
_cell_length_c   7.94157310
_cell_angle_alpha   90.00000000
_cell_angle_beta   90.00000000
_cell_angle_gamma   90.00000000
_symmetry_Int_Tables_number   1
_chemical_formula_structural   LiF
_chemical_formula_sum   'Li16 F16'
_cell_volume   512.22099343
_cell_formula_units_Z   16
loop_
 _symmetry_equiv_pos_site_id
 _symmetry_equiv_pos_as_xyz
  1  'x, y, z'
loop_
 _atom_site_type_symbol
 _atom_site_label
 _atom_site_symmetry_multiplicity
 _atom_site_fract_x
 _atom_site_fract_y
 _atom_site_fract_z
 _atom_site_occupancy
  F  F0  1  0.31868276  0.93139194  0.04782853  1
  F  F1  1  0.68131724  0.06860806  0.04782853  1
  F  F2  1  0.18131724  0.43139194  0.95217147  1
  F  F3  1  0.81868276  0.56860806  0.95217147  1
  F  F4  1  0.68131724  0.06860806  0.95217147  1
  F  F5  1  0.31868276  0.93139194  0.95217147  1
  F  F6  1  0.81868276  0.56860806  0.04782853  1
  F  F7  1  0.18131724  0.43139194  0.04782853  1
  F  F8  1  0.81081235  0.75392265  0.50000000  1
  F  F9  1  0.18918765  0.24607735  0.50000000  1
  F  F10  1  0.68918765  0.25392265  0.50000000  1
  F  F11  1  0.31081235  0.74607735  0.50000000  1
  F  F12  1  0.00000000  0.00000000  0.88328200  1
  F  F13  1  0.50000000  0.50000000  0.11671800  1
  F  F14  1  0.00000000  0.00000000  0.11671800  1
  F  F15  1  0.50000000  0.50000000  0.88328200  1
  Li  Li16  1  0.00000000  0.00000000  0.60387267  1
  Li  Li17  1  0.50000000  0.50000000  0.39612733  1
  Li  Li18  1  0.00000000  0.00000000  0.39612733  1
  Li  Li19  1  0.50000000  0.50000000  0.60387267  1
  Li  Li20  1  0.63946503  0.56566170  0.26488901  1
  Li  Li21  1  -0.63946503  -0.56566170  0.26488901  1
  Li  Li22  1  -0.13946503  1.06566170  -0.26488901  1
  Li  Li23  1  1.13946503  -0.06566170  -0.26488901  1
  Li  Li24  1  -0.63946503  -0.56566170  -0.26488901  1
  Li  Li25  1  0.63946503  0.56566170  -0.26488901  1
  Li  Li26  1  1.13946503  -0.06566170  0.26488901  1
  Li  Li27  1  -0.13946503  1.06566170  0.26488901  1
  Li  Li28  1  0.70601253  0.96990730  0.00000000  1
  Li  Li29  1  0.29398747  0.03009270  0.00000000  1
  Li  Li30  1  0.79398747  0.46990730  0.00000000  1
  Li  Li31  1  0.20601253  0.53009270  0.00000000  1
