# generated using pymatgen
data_Li5Al(P2Se)2
_symmetry_space_group_name_H-M   'P 1'
_cell_length_a   7.60549908
_cell_length_b   7.57329753
_cell_length_c   8.21460395
_cell_angle_alpha   90.00000000
_cell_angle_beta   90.00000000
_cell_angle_gamma   90.00000000
_symmetry_Int_Tables_number   1
_chemical_formula_structural   Li5Al(P2Se)2
_chemical_formula_sum   'Li5 Al1 P4 Se2'
_cell_volume   473.15056930
_cell_formula_units_Z   1
loop_
 _symmetry_equiv_pos_site_id
 _symmetry_equiv_pos_as_xyz
  1  'x, y, z'
loop_
 _atom_site_type_symbol
 _atom_site_label
 _atom_site_symmetry_multiplicity
 _atom_site_fract_x
 _atom_site_fract_y
 _atom_site_fract_z
 _atom_site_occupancy
  Al  Al0  1  0.12500000  0.12500000  0.12500000  1
  Se  Se1  1  0.50000000  0.50000000  0.50000000  1
  Se  Se2  1  0.25000000  0.25000000  0.25000000  1
  P  P3  1  0.75000000  0.75000000  0.75000000  1
  P  P4  1  0.83255661  0.88294072  0.62800064  1
  P  P5  1  0.54999235  0.34302393  0.12383614  1
  P  P6  1  0.92560380  0.70166494  0.16970232  1
  Li  Li7  1  0.63383323  0.82465200  0.92539534  1
  Li  Li8  1  0.59720390  0.91552909  0.86167866  1
  Li  Li9  1  0.11551532  0.54345477  0.36012052  1
  Li  Li10  1  0.09438949  0.32979009  0.27714306  1
  Li  Li11  1  0.25578077  0.61522531  0.07380934  1
