# generated using pymatgen
data_LiCaF3
_symmetry_space_group_name_H-M   'P 1'
_cell_length_a   12.94895238
_cell_length_b   12.94895238
_cell_length_c   10.09827983
_cell_angle_alpha   90.00000000
_cell_angle_beta   90.00000000
_cell_angle_gamma   120.00000000
_symmetry_Int_Tables_number   1
_chemical_formula_structural   LiCaF3
_chemical_formula_sum   'Li18 Ca18 F54'
_cell_volume   1466.38260388
_cell_formula_units_Z   18
loop_
 _symmetry_equiv_pos_site_id
 _symmetry_equiv_pos_as_xyz
  1  'x, y, z'
loop_
 _atom_site_type_symbol
 _atom_site_label
 _atom_site_symmetry_multiplicity
 _atom_site_fract_x
 _atom_site_fract_y
 _atom_site_fract_z
 _atom_site_occupancy
  Ca  Ca0  1  0.32837572  0.00000000  0.25000000  1
  Ca  Ca1  1  0.00000000  0.32837572  0.25000000  1
  Ca  Ca2  1  0.67162428  0.67162428  0.25000000  1
  Ca  Ca3  1  0.67162428  0.00000000  0.75000000  1
  Ca  Ca4  1  0.00000000  0.67162428  0.75000000  1
  Ca  Ca5  1  0.32837572  0.32837572  0.75000000  1
  Ca  Ca6  1  0.99504239  0.33333333  0.58333333  1
  Ca  Ca7  1  0.66666667  0.66170906  0.58333333  1
  Ca  Ca8  1  0.33829094  0.00495761  0.58333333  1
  Ca  Ca9  1  0.33829094  0.33333333  0.08333333  1
  Ca  Ca10  1  0.66666667  0.00495761  0.08333333  1
  Ca  Ca11  1  0.99504239  0.66170906  0.08333333  1
  Ca  Ca12  1  0.66170906  0.66666667  0.91666667  1
  Ca  Ca13  1  0.33333333  0.99504239  0.91666667  1
  Ca  Ca14  1  0.00495761  0.33829094  0.91666667  1
  Ca  Ca15  1  0.00495761  0.66666667  0.41666667  1
  Ca  Ca16  1  0.33333333  0.33829094  0.41666667  1
  Ca  Ca17  1  0.66170906  0.99504239  0.41666667  1
  F  F18  1  0.58023983  0.22781131  0.18487114  1
  F  F19  1  -0.22781131  0.35242852  0.18487114  1
  F  F20  1  -0.35242852  -0.58023983  0.18487114  1
  F  F21  1  0.22781131  0.58023983  0.31512886  1
  F  F22  1  0.35242852  -0.22781131  0.31512886  1
  F  F23  1  -0.58023983  -0.35242852  0.31512886  1
  F  F24  1  -0.58023983  -0.22781131  -0.18487114  1
  F  F25  1  0.22781131  -0.35242852  -0.18487114  1
  F  F26  1  0.35242852  0.58023983  -0.18487114  1
  F  F27  1  -0.22781131  -0.58023983  0.68487114  1
  F  F28  1  -0.35242852  0.22781131  0.68487114  1
  F  F29  1  0.58023983  0.35242852  0.68487114  1
  F  F30  1  1.24690650  0.56114464  0.51820447  1
  F  F31  1  0.43885536  0.68576185  0.51820447  1
  F  F32  1  0.31423815  -0.24690650  0.51820447  1
  F  F33  1  0.89447798  0.91357316  0.64846219  1
  F  F34  1  1.01909519  0.10552202  0.64846219  1
  F  F35  1  0.08642684  -0.01909519  0.64846219  1
  F  F36  1  0.08642684  0.10552202  0.14846219  1
  F  F37  1  0.89447798  -0.01909519  0.14846219  1
  F  F38  1  1.01909519  0.91357316  0.14846219  1
  F  F39  1  0.43885536  -0.24690650  1.01820447  1
  F  F40  1  0.31423815  0.56114464  1.01820447  1
  F  F41  1  1.24690650  0.68576185  1.01820447  1
  F  F42  1  0.91357316  0.89447798  0.85153781  1
  F  F43  1  0.10552202  1.01909519  0.85153781  1
  F  F44  1  -0.01909519  0.08642684  0.85153781  1
  F  F45  1  0.56114464  1.24690650  0.98179553  1
  F  F46  1  0.68576185  0.43885536  0.98179553  1
  F  F47  1  -0.24690650  0.31423815  0.98179553  1
  F  F48  1  -0.24690650  0.43885536  0.48179553  1
  F  F49  1  0.56114464  0.31423815  0.48179553  1
  F  F50  1  0.68576185  1.24690650  0.48179553  1
  F  F51  1  0.10552202  0.08642684  1.35153781  1
  F  F52  1  -0.01909519  0.89447798  1.35153781  1
  F  F53  1  0.91357316  1.01909519  1.35153781  1
  F  F54  1  0.68615042  0.00000000  0.25000000  1
  F  F55  1  0.00000000  0.68615042  0.25000000  1
  F  F56  1  0.31384958  0.31384958  0.25000000  1
  F  F57  1  0.31384958  0.00000000  0.75000000  1
  F  F58  1  0.00000000  0.31384958  0.75000000  1
  F  F59  1  0.68615042  0.68615042  0.75000000  1
  F  F60  1  0.35281708  0.33333333  0.58333333  1
  F  F61  1  0.66666667  0.01948375  0.58333333  1
  F  F62  1  0.98051625  0.64718292  0.58333333  1
  F  F63  1  0.98051625  0.33333333  0.08333333  1
  F  F64  1  0.66666667  0.64718292  0.08333333  1
  F  F65  1  0.35281708  0.01948375  0.08333333  1
  F  F66  1  0.01948375  0.66666667  0.91666667  1
  F  F67  1  0.33333333  0.35281708  0.91666667  1
  F  F68  1  0.64718292  0.98051625  0.91666667  1
  F  F69  1  0.64718292  0.66666667  0.41666667  1
  F  F70  1  0.33333333  0.98051625  0.41666667  1
  F  F71  1  0.01948375  0.35281708  0.41666667  1
  Li  Li72  1  0.00000000  0.00000000  0.00000000  1
  Li  Li73  1  0.00000000  0.00000000  0.50000000  1
  Li  Li74  1  0.66666667  0.33333333  0.33333333  1
  Li  Li75  1  0.66666667  0.33333333  0.83333333  1
  Li  Li76  1  0.33333333  0.66666667  0.66666667  1
  Li  Li77  1  0.33333333  0.66666667  0.16666667  1
  Li  Li78  1  0.00000000  0.00000000  0.34079765  1
  Li  Li79  1  0.00000000  0.00000000  0.15920235  1
  Li  Li80  1  0.00000000  0.00000000  0.65920235  1
  Li  Li81  1  0.00000000  0.00000000  0.84079765  1
  Li  Li82  1  0.66666667  0.33333333  0.67413098  1
  Li  Li83  1  0.66666667  0.33333333  0.49253568  1
  Li  Li84  1  0.66666667  0.33333333  0.99253568  1
  Li  Li85  1  0.66666667  0.33333333  0.17413098  1
  Li  Li86  1  0.33333333  0.66666667  0.00746432  1
  Li  Li87  1  0.33333333  0.66666667  0.82586902  1
  Li  Li88  1  0.33333333  0.66666667  0.32586902  1
  Li  Li89  1  0.33333333  0.66666667  0.50746432  1
