# generated using pymatgen
data_LiCu3Sb2As
_symmetry_space_group_name_H-M   'P 1'
_cell_length_a   5.22731297
_cell_length_b   5.13405176
_cell_length_c   6.64332765
_cell_angle_alpha   93.74098372
_cell_angle_beta   95.90172788
_cell_angle_gamma   101.50473087
_symmetry_Int_Tables_number   1
_chemical_formula_structural   LiCu3Sb2As
_chemical_formula_sum   'Li1 Cu3 Sb2 As1'
_cell_volume   173.10695437
_cell_formula_units_Z   1
loop_
 _symmetry_equiv_pos_site_id
 _symmetry_equiv_pos_as_xyz
  1  'x, y, z'
loop_
 _atom_site_type_symbol
 _atom_site_label
 _atom_site_symmetry_multiplicity
 _atom_site_fract_x
 _atom_site_fract_y
 _atom_site_fract_z
 _atom_site_occupancy
  Cu  Cu0  1  0.00000000  0.00000000  0.00000000  1
  Cu  Cu1  1  0.50000000  0.50000000  0.50000000  1
  Cu  Cu2  1  0.25000000  0.25000000  0.25000000  1
  As  As3  1  0.75000000  0.25000000  0.00000000  1
  Li  Li4  1  0.25000000  0.75000000  0.50000000  1
  Sb  Sb5  1  0.03740883  0.67194318  0.77135478  1
  Sb  Sb6  1  0.79647843  0.12802369  0.31967393  1
