# generated using pymatgen
data_Li2Ca3F8
_symmetry_space_group_name_H-M   'P 1'
_cell_length_a   17.08404065
_cell_length_b   17.08404065
_cell_length_c   5.29633751
_cell_angle_alpha   90.00000000
_cell_angle_beta   90.00000000
_cell_angle_gamma   90.00000000
_symmetry_Int_Tables_number   1
_chemical_formula_structural   Li2Ca3F8
_chemical_formula_sum   'Li16 Ca24 F64'
_cell_volume   1545.81260690
_cell_formula_units_Z   8
loop_
 _symmetry_equiv_pos_site_id
 _symmetry_equiv_pos_as_xyz
  1  'x, y, z'
loop_
 _atom_site_type_symbol
 _atom_site_label
 _atom_site_symmetry_multiplicity
 _atom_site_fract_x
 _atom_site_fract_y
 _atom_site_fract_z
 _atom_site_occupancy
  Ca  Ca0  1  0.00000000  0.25000000  0.12500000  1
  Ca  Ca1  1  0.00000000  0.75000000  0.37500000  1
  Ca  Ca2  1  0.00000000  0.75000000  0.87500000  1
  Ca  Ca3  1  0.00000000  0.25000000  0.62500000  1
  Ca  Ca4  1  0.50000000  0.75000000  0.62500000  1
  Ca  Ca5  1  0.50000000  0.25000000  0.87500000  1
  Ca  Ca6  1  0.50000000  0.25000000  0.37500000  1
  Ca  Ca7  1  0.50000000  0.75000000  0.12500000  1
  Ca  Ca8  1  0.20123200  0.45123200  0.12500000  1
  Ca  Ca9  1  0.29876800  0.54876800  0.62500000  1
  Ca  Ca10  1  0.79876800  0.95123200  0.37500000  1
  Ca  Ca11  1  0.70123200  0.04876800  0.87500000  1
  Ca  Ca12  1  0.79876800  0.54876800  0.87500000  1
  Ca  Ca13  1  0.70123200  0.45123200  0.37500000  1
  Ca  Ca14  1  0.20123200  0.04876800  0.62500000  1
  Ca  Ca15  1  0.29876800  0.95123200  0.12500000  1
  Ca  Ca16  1  0.70123200  0.95123200  0.62500000  1
  Ca  Ca17  1  0.79876800  0.04876800  0.12500000  1
  Ca  Ca18  1  0.29876800  0.45123200  0.87500000  1
  Ca  Ca19  1  0.20123200  0.54876800  0.37500000  1
  Ca  Ca20  1  0.29876800  0.04876800  0.37500000  1
  Ca  Ca21  1  0.20123200  0.95123200  0.87500000  1
  Ca  Ca22  1  0.70123200  0.54876800  0.12500000  1
  Ca  Ca23  1  0.79876800  0.45123200  0.62500000  1
  F  F24  1  0.60414382  0.66343207  0.29850849  1
  F  F25  1  -0.10414382  -0.66343207  0.79850849  1
  F  F26  1  -0.41343207  1.35414382  0.54850849  1
  F  F27  1  0.91343207  -0.35414382  1.04850849  1
  F  F28  1  -0.10414382  0.66343207  -0.29850849  1
  F  F29  1  0.60414382  -0.66343207  0.20149151  1
  F  F30  1  0.91343207  1.35414382  0.45149151  1
  F  F31  1  -0.41343207  -0.35414382  -0.04850849  1
  F  F32  1  -0.60414382  -0.66343207  -0.29850849  1
  F  F33  1  1.10414382  0.66343207  0.20149151  1
  F  F34  1  1.41343207  -0.35414382  0.45149151  1
  F  F35  1  0.08656793  1.35414382  -0.04850849  1
  F  F36  1  1.10414382  -0.66343207  0.29850849  1
  F  F37  1  -0.60414382  0.66343207  0.79850849  1
  F  F38  1  0.08656793  -0.35414382  0.54850849  1
  F  F39  1  1.41343207  1.35414382  1.04850849  1
  F  F40  1  1.10414382  1.16343207  0.79850849  1
  F  F41  1  0.39585618  -0.16343207  1.29850849  1
  F  F42  1  0.08656793  1.85414382  1.04850849  1
  F  F43  1  1.41343207  0.14585618  1.54850849  1
  F  F44  1  0.39585618  1.16343207  0.20149151  1
  F  F45  1  1.10414382  -0.16343207  0.70149151  1
  F  F46  1  1.41343207  1.85414382  0.95149151  1
  F  F47  1  0.08656793  0.14585618  0.45149151  1
  F  F48  1  -0.10414382  -0.16343207  0.20149151  1
  F  F49  1  1.60414382  1.16343207  0.70149151  1
  F  F50  1  1.91343207  0.14585618  0.95149151  1
  F  F51  1  0.58656793  1.85414382  0.45149151  1
  F  F52  1  1.60414382  -0.16343207  0.79850849  1
  F  F53  1  -0.10414382  1.16343207  1.29850849  1
  F  F54  1  0.58656793  0.14585618  1.04850849  1
  F  F55  1  1.91343207  1.85414382  1.54850849  1
  F  F56  1  0.80564965  0.30393926  0.10335209  1
  F  F57  1  0.69435035  0.69606074  0.60335209  1
  F  F58  1  0.94606074  0.55564965  0.35335209  1
  F  F59  1  0.55393926  0.44435035  0.85335209  1
  F  F60  1  0.69435035  0.30393926  0.89664791  1
  F  F61  1  0.80564965  0.69606074  0.39664791  1
  F  F62  1  0.55393926  0.55564965  0.64664791  1
  F  F63  1  0.94606074  0.44435035  0.14664791  1
  F  F64  1  0.19435035  0.69606074  0.89664791  1
  F  F65  1  0.30564965  0.30393926  0.39664791  1
  F  F66  1  0.05393926  0.44435035  0.64664791  1
  F  F67  1  0.44606074  0.55564965  0.14664791  1
  F  F68  1  0.30564965  0.69606074  0.10335209  1
  F  F69  1  0.19435035  0.30393926  0.60335209  1
  F  F70  1  0.44606074  0.44435035  0.35335209  1
  F  F71  1  0.05393926  0.55564965  0.85335209  1
  F  F72  1  0.30564965  0.80393926  0.60335209  1
  F  F73  1  0.19435035  0.19606074  0.10335209  1
  F  F74  1  0.44606074  0.05564965  0.85335209  1
  F  F75  1  0.05393926  0.94435035  0.35335209  1
  F  F76  1  0.19435035  0.80393926  0.39664791  1
  F  F77  1  0.30564965  0.19606074  0.89664791  1
  F  F78  1  0.05393926  0.05564965  0.14664791  1
  F  F79  1  0.44606074  0.94435035  0.64664791  1
  F  F80  1  0.69435035  0.19606074  0.39664791  1
  F  F81  1  0.80564965  0.80393926  0.89664791  1
  F  F82  1  0.55393926  0.94435035  0.14664791  1
  F  F83  1  0.94606074  0.05564965  0.64664791  1
  F  F84  1  0.80564965  0.19606074  0.60335209  1
  F  F85  1  0.69435035  0.80393926  0.10335209  1
  F  F86  1  0.94606074  0.94435035  0.85335209  1
  F  F87  1  0.55393926  0.05564965  0.35335209  1
  Li  Li88  1  0.38783514  0.63783514  0.12500000  1
  Li  Li89  1  0.11216486  0.36216486  0.62500000  1
  Li  Li90  1  0.61216486  0.13783514  0.37500000  1
  Li  Li91  1  0.88783514  0.86216486  0.87500000  1
  Li  Li92  1  0.61216486  0.36216486  0.87500000  1
  Li  Li93  1  0.88783514  0.63783514  0.37500000  1
  Li  Li94  1  0.38783514  0.86216486  0.62500000  1
  Li  Li95  1  0.11216486  0.13783514  0.12500000  1
  Li  Li96  1  0.88783514  0.13783514  0.62500000  1
  Li  Li97  1  0.61216486  0.86216486  0.12500000  1
  Li  Li98  1  0.11216486  0.63783514  0.87500000  1
  Li  Li99  1  0.38783514  0.36216486  0.37500000  1
  Li  Li100  1  0.11216486  0.86216486  0.37500000  1
  Li  Li101  1  0.38783514  0.13783514  0.87500000  1
  Li  Li102  1  0.88783514  0.36216486  0.12500000  1
  Li  Li103  1  0.61216486  0.63783514  0.62500000  1
