# generated using pymatgen
data_Li2Y2As2P3Se
_symmetry_space_group_name_H-M   'P 1'
_cell_length_a   5.36161151
_cell_length_b   5.38556045
_cell_length_c   7.29271045
_cell_angle_alpha   94.10016602
_cell_angle_beta   98.57321259
_cell_angle_gamma   105.91028362
_symmetry_Int_Tables_number   1
_chemical_formula_structural   Li2Y2As2P3Se
_chemical_formula_sum   'Li2 Y2 As2 P3 Se1'
_cell_volume   198.84651761
_cell_formula_units_Z   1
loop_
 _symmetry_equiv_pos_site_id
 _symmetry_equiv_pos_as_xyz
  1  'x, y, z'
loop_
 _atom_site_type_symbol
 _atom_site_label
 _atom_site_symmetry_multiplicity
 _atom_site_fract_x
 _atom_site_fract_y
 _atom_site_fract_z
 _atom_site_occupancy
  Se  Se0  1  0.12500000  0.00000000  0.25000000  1
  Y  Y1  1  0.00000000  0.00000000  0.00000000  1
  Y  Y2  1  0.37500000  0.00000000  0.25000000  1
  P  P3  1  0.25000000  0.25000000  0.25000000  1
  P  P4  1  0.00000000  0.25000000  0.12500000  1
  P  P5  1  0.14636040  0.32090376  0.19563548  1
  As  As6  1  0.20108655  0.34439802  0.98563781  1
  As  As7  1  0.85817480  0.72839679  0.88121286  1
  Li  Li8  1  0.04478994  0.60844304  0.86370383  1
  Li  Li9  1  0.62690752  0.02850270  0.58674302  1
