# generated using pymatgen
data_LiYSbP
_symmetry_space_group_name_H-M   'P 1'
_cell_length_a   4.81022503
_cell_length_b   5.01358897
_cell_length_c   6.90922878
_cell_angle_alpha   94.94396915
_cell_angle_beta   100.23524353
_cell_angle_gamma   109.02412310
_symmetry_Int_Tables_number   1
_chemical_formula_structural   LiYSbP
_chemical_formula_sum   'Li2 Y2 Sb2 P2'
_cell_volume   153.14780213
_cell_formula_units_Z   2
loop_
 _symmetry_equiv_pos_site_id
 _symmetry_equiv_pos_as_xyz
  1  'x, y, z'
loop_
 _atom_site_type_symbol
 _atom_site_label
 _atom_site_symmetry_multiplicity
 _atom_site_fract_x
 _atom_site_fract_y
 _atom_site_fract_z
 _atom_site_occupancy
  P  P0  1  0.00000000  0.00000000  0.00000000  1
  P  P1  1  0.50000000  0.50000000  0.50000000  1
  Li  Li2  1  0.50000000  0.50000000  0.00000000  1
  Li  Li3  1  0.50000000  0.00000000  0.50000000  1
  Y  Y4  1  0.00000000  0.50000000  0.50000000  1
  Y  Y5  1  0.00035329  0.30972863  0.27517203  1
  Sb  Sb6  1  0.45139730  0.37443780  0.96490806  1
  Sb  Sb7  1  0.77770963  0.61671262  0.06189652  1
