# generated using pymatgen
data_LiF
_symmetry_space_group_name_H-M   'P 1'
_cell_length_a   6.80528290
_cell_length_b   6.80528290
_cell_length_c   12.09607967
_cell_angle_alpha   90.00000000
_cell_angle_beta   90.00000000
_cell_angle_gamma   120.00000000
_symmetry_Int_Tables_number   1
_chemical_formula_structural   LiF
_chemical_formula_sum   'Li24 F24'
_cell_volume   485.14061931
_cell_formula_units_Z   24
loop_
 _symmetry_equiv_pos_site_id
 _symmetry_equiv_pos_as_xyz
  1  'x, y, z'
loop_
 _atom_site_type_symbol
 _atom_site_label
 _atom_site_symmetry_multiplicity
 _atom_site_fract_x
 _atom_site_fract_y
 _atom_site_fract_z
 _atom_site_occupancy
  F  F0  1  0.33333333  0.66666667  0.50000000  1
  F  F1  1  0.00000000  0.00000000  0.50000000  1
  F  F2  1  0.59816175  0.82500738  0.43303654  1
  F  F3  1  0.17499262  0.77315437  0.43303654  1
  F  F4  1  0.22684563  0.40183825  0.43303654  1
  F  F5  1  0.17499262  0.40183825  0.56696346  1
  F  F6  1  0.22684563  0.82500738  0.56696346  1
  F  F7  1  0.59816175  0.77315437  0.56696346  1
  F  F8  1  0.73051620  0.32535752  0.28367433  1
  F  F9  1  0.67464248  0.40515869  0.28367433  1
  F  F10  1  0.59484131  0.26948380  0.28367433  1
  F  F11  1  0.67464248  0.26948380  0.71632567  1
  F  F12  1  0.59484131  0.32535752  0.71632567  1
  F  F13  1  0.73051620  0.40515869  0.71632567  1
  F  F14  1  0.41645966  0.58354034  0.50000000  1
  F  F15  1  0.41645966  0.83291932  0.50000000  1
  F  F16  1  0.16708068  0.58354034  0.50000000  1
  F  F17  1  0.99518287  0.48308072  0.75290452  1
  F  F18  1  0.51691928  0.51210214  0.75290452  1
  F  F19  1  0.48789786  0.00481713  0.75290452  1
  F  F20  1  0.51691928  0.00481713  0.24709548  1
  F  F21  1  0.48789786  0.48308072  0.24709548  1
  F  F22  1  0.99518287  0.51210214  0.24709548  1
  F  F23  1  0.66666667  0.33333333  0.50000000  1
  Li  Li24  1  0.00000000  0.00000000  0.00000000  1
  Li  Li25  1  0.58628677  0.44806782  0.06693284  1
  Li  Li26  1  -0.44806782  0.13821896  0.06693284  1
  Li  Li27  1  -0.13821896  -0.58628677  0.06693284  1
  Li  Li28  1  -0.44806782  -0.58628677  -0.06693284  1
  Li  Li29  1  -0.13821896  0.44806782  -0.06693284  1
  Li  Li30  1  0.58628677  0.13821896  -0.06693284  1
  Li  Li31  1  0.22506645  0.77493355  -0.00000000  1
  Li  Li32  1  0.22506645  0.45013290  -0.00000000  1
  Li  Li33  1  0.54986710  0.77493355  -0.00000000  1
  Li  Li34  1  0.54394209  0.77999819  0.34437684  1
  Li  Li35  1  0.22000181  0.76394390  0.34437684  1
  Li  Li36  1  0.23605610  0.45605791  0.34437684  1
  Li  Li37  1  0.22000181  0.45605791  0.65562316  1
  Li  Li38  1  0.23605610  0.77999819  0.65562316  1
  Li  Li39  1  0.54394209  0.76394390  0.65562316  1
  Li  Li40  1  0.33333333  0.66666667  0.09131115  1
  Li  Li41  1  0.33333333  0.66666667  0.90868885  1
  Li  Li42  1  0.22295621  0.00580861  0.19960819  1
  Li  Li43  1  0.99419139  0.21714760  0.19960819  1
  Li  Li44  1  0.78285240  0.77704379  0.19960819  1
  Li  Li45  1  0.99419139  0.77704379  0.80039181  1
  Li  Li46  1  0.78285240  0.00580861  0.80039181  1
  Li  Li47  1  0.22295621  0.21714760  0.80039181  1
