# generated using pymatgen
data_LiSb2PSe
_symmetry_space_group_name_H-M   'P 1'
_cell_length_a   5.00091817
_cell_length_b   5.06633298
_cell_length_c   5.84430842
_cell_angle_alpha   93.63267936
_cell_angle_beta   93.46144759
_cell_angle_gamma   97.61260775
_symmetry_Int_Tables_number   1
_chemical_formula_structural   LiSb2PSe
_chemical_formula_sum   'Li1 Sb2 P1 Se1'
_cell_volume   146.11889819
_cell_formula_units_Z   1
loop_
 _symmetry_equiv_pos_site_id
 _symmetry_equiv_pos_as_xyz
  1  'x, y, z'
loop_
 _atom_site_type_symbol
 _atom_site_label
 _atom_site_symmetry_multiplicity
 _atom_site_fract_x
 _atom_site_fract_y
 _atom_site_fract_z
 _atom_site_occupancy
  Se  Se0  1  0.00000000  0.00000000  0.00000000  1
  P  P1  1  0.33300000  0.66700000  0.25000000  1
  Li  Li2  1  0.66700000  0.33300000  0.50000000  1
  Sb  Sb3  1  0.00000000  0.00000000  0.75000000  1
  Sb  Sb4  1  0.97938074  0.52996575  0.30865216  1
