# generated using pymatgen
data_LiF
_symmetry_space_group_name_H-M   'P 1'
_cell_length_a   4.88443929
_cell_length_b   7.28708734
_cell_length_c   9.18055420
_cell_angle_alpha   90.00000000
_cell_angle_beta   90.00000000
_cell_angle_gamma   90.00000000
_symmetry_Int_Tables_number   1
_chemical_formula_structural   LiF
_chemical_formula_sum   'Li14 F14'
_cell_volume   326.76654761
_cell_formula_units_Z   14
loop_
 _symmetry_equiv_pos_site_id
 _symmetry_equiv_pos_as_xyz
  1  'x, y, z'
loop_
 _atom_site_type_symbol
 _atom_site_label
 _atom_site_symmetry_multiplicity
 _atom_site_fract_x
 _atom_site_fract_y
 _atom_site_fract_z
 _atom_site_occupancy
  F  F0  1  0.21544415  0.08474361  0.77643438  1
  F  F1  1  -0.21544415  -0.08474361  0.77643438  1
  F  F2  1  0.28455585  0.58474361  -0.77643438  1
  F  F3  1  0.71544415  0.41525639  -0.77643438  1
  F  F4  1  -0.21544415  -0.08474361  -0.77643438  1
  F  F5  1  0.21544415  0.08474361  -0.77643438  1
  F  F6  1  0.71544415  0.41525639  0.77643438  1
  F  F7  1  0.28455585  0.58474361  0.77643438  1
  F  F8  1  0.14126475  0.34810318  0.00000000  1
  F  F9  1  0.85873525  0.65189682  0.00000000  1
  F  F10  1  0.35873525  0.84810318  0.00000000  1
  F  F11  1  0.64126475  0.15189682  0.00000000  1
  F  F12  1  0.00000000  0.50000000  0.50000000  1
  F  F13  1  0.50000000  0.00000000  0.50000000  1
  Li  Li14  1  0.16319776  0.02572081  0.00000000  1
  Li  Li15  1  0.83680224  0.97427919  0.00000000  1
  Li  Li16  1  0.33680224  0.52572081  0.00000000  1
  Li  Li17  1  0.66319776  0.47427919  0.00000000  1
  Li  Li18  1  0.35531033  0.89180151  0.50000000  1
  Li  Li19  1  0.64468967  0.10819849  0.50000000  1
  Li  Li20  1  0.14468967  0.39180151  0.50000000  1
  Li  Li21  1  0.85531033  0.60819849  0.50000000  1
  Li  Li22  1  0.00000000  0.50000000  0.00000000  1
  Li  Li23  1  0.50000000  0.00000000  0.00000000  1
  Li  Li24  1  0.00000000  0.00000000  0.77853431  1
  Li  Li25  1  0.50000000  0.50000000  0.22146569  1
  Li  Li26  1  0.00000000  0.00000000  0.22146569  1
  Li  Li27  1  0.50000000  0.50000000  0.77853431  1
