# generated using pymatgen
data_Li2TiAlSO
_symmetry_space_group_name_H-M   'P 1'
_cell_length_a   3.34602997
_cell_length_b   3.19866530
_cell_length_c   6.04604251
_cell_angle_alpha   107.09199103
_cell_angle_beta   106.79437824
_cell_angle_gamma   108.19531404
_symmetry_Int_Tables_number   1
_chemical_formula_structural   Li2TiAlSO
_chemical_formula_sum   'Li2 Ti1 Al1 S1 O1'
_cell_volume   53.34514312
_cell_formula_units_Z   1
loop_
 _symmetry_equiv_pos_site_id
 _symmetry_equiv_pos_as_xyz
  1  'x, y, z'
loop_
 _atom_site_type_symbol
 _atom_site_label
 _atom_site_symmetry_multiplicity
 _atom_site_fract_x
 _atom_site_fract_y
 _atom_site_fract_z
 _atom_site_occupancy
  Al  Al0  1  0.00000000  0.00000000  0.00000000  1
  S  S1  1  0.50000000  0.50000000  0.50000000  1
  Li  Li2  1  0.25000000  0.25000000  0.25000000  1
  Li  Li3  1  0.75000000  0.25000000  0.00000000  1
  O  O4  1  0.25000000  0.75000000  0.50000000  1
  Ti  Ti5  1  0.05328566  0.71610754  0.96796765  1
