# generated using pymatgen
data_LiY2(Te2P)2
_symmetry_space_group_name_H-M   'P 1'
_cell_length_a   5.93208900
_cell_length_b   6.23596084
_cell_length_c   7.39980936
_cell_angle_alpha   93.05905166
_cell_angle_beta   96.17516535
_cell_angle_gamma   101.52354278
_symmetry_Int_Tables_number   1
_chemical_formula_structural   LiY2(Te2P)2
_chemical_formula_sum   'Li1 Y2 Te4 P2'
_cell_volume   265.87332001
_cell_formula_units_Z   1
loop_
 _symmetry_equiv_pos_site_id
 _symmetry_equiv_pos_as_xyz
  1  'x, y, z'
loop_
 _atom_site_type_symbol
 _atom_site_label
 _atom_site_symmetry_multiplicity
 _atom_site_fract_x
 _atom_site_fract_y
 _atom_site_fract_z
 _atom_site_occupancy
  Te  Te0  1  0.12500000  0.12500000  0.12500000  1
  Te  Te1  1  0.50000000  0.50000000  0.50000000  1
  Te  Te2  1  0.25000000  0.25000000  0.25000000  1
  Te  Te3  1  0.75000000  0.75000000  0.75000000  1
  P  P4  1  0.58533964  0.50740270  0.88383735  1
  P  P5  1  0.22120420  0.94745178  0.15690733  1
  Li  Li6  1  0.78058729  0.65627499  0.37059545  1
  Y  Y7  1  0.66278265  0.77707106  0.42381523  1
  Y  Y8  1  0.00188666  0.34038201  0.01481778  1
