# generated using pymatgen
data_LiY2Cu3P2
_symmetry_space_group_name_H-M   'P 1'
_cell_length_a   3.63419250
_cell_length_b   3.93723294
_cell_length_c   6.15648105
_cell_angle_alpha   97.08854360
_cell_angle_beta   103.54807077
_cell_angle_gamma   113.92406955
_symmetry_Int_Tables_number   1
_chemical_formula_structural   LiY2Cu3P2
_chemical_formula_sum   'Li1 Y2 Cu3 P2'
_cell_volume   75.88088612
_cell_formula_units_Z   1
loop_
 _symmetry_equiv_pos_site_id
 _symmetry_equiv_pos_as_xyz
  1  'x, y, z'
loop_
 _atom_site_type_symbol
 _atom_site_label
 _atom_site_symmetry_multiplicity
 _atom_site_fract_x
 _atom_site_fract_y
 _atom_site_fract_z
 _atom_site_occupancy
  P  P0  1  0.12500000  0.12500000  0.12500000  1
  P  P1  1  0.50000000  0.50000000  0.50000000  1
  Li  Li2  1  0.25000000  0.25000000  0.25000000  1
  Y  Y3  1  0.75000000  0.75000000  0.75000000  1
  Y  Y4  1  0.17654893  0.96590262  0.76299793  1
  Cu  Cu5  1  0.89023892  0.31886746  0.47029648  1
  Cu  Cu6  1  0.98449436  0.50112898  0.28672087  1
  Cu  Cu7  1  0.67994375  0.76307008  0.54524213  1
