# generated using pymatgen
data_Li2Y2MoP3Se
_symmetry_space_group_name_H-M   'P 1'
_cell_length_a   5.10470883
_cell_length_b   5.36672238
_cell_length_c   7.06354954
_cell_angle_alpha   94.50097557
_cell_angle_beta   99.50956767
_cell_angle_gamma   107.61972220
_symmetry_Int_Tables_number   1
_chemical_formula_structural   Li2Y2MoP3Se
_chemical_formula_sum   'Li2 Y2 Mo1 P3 Se1'
_cell_volume   180.18992014
_cell_formula_units_Z   1
loop_
 _symmetry_equiv_pos_site_id
 _symmetry_equiv_pos_as_xyz
  1  'x, y, z'
loop_
 _atom_site_type_symbol
 _atom_site_label
 _atom_site_symmetry_multiplicity
 _atom_site_fract_x
 _atom_site_fract_y
 _atom_site_fract_z
 _atom_site_occupancy
  Se  Se0  1  0.00000000  0.00000000  0.00000000  1
  P  P1  1  0.50000000  0.50000000  0.50000000  1
  P  P2  1  0.25000000  0.25000000  0.25000000  1
  P  P3  1  0.75000000  0.25000000  0.00000000  1
  Mo  Mo4  1  0.25000000  0.75000000  0.50000000  1
  Li  Li5  1  0.75399377  0.52356653  0.54581243  1
  Li  Li6  1  0.54745342  0.42828779  0.03390402  1
  Y  Y7  1  0.57782083  0.74542135  0.04982283  1
  Y  Y8  1  0.81419236  0.00827796  0.22900613  1
