# generated using pymatgen
data_K4Li6Ti(Se2F3)2
_symmetry_space_group_name_H-M   'P 1'
_cell_length_a   12.49853524
_cell_length_b   14.98071936
_cell_length_c   13.83890000
_cell_angle_alpha   90.00000000
_cell_angle_beta   90.00000000
_cell_angle_gamma   90.00000000
_symmetry_Int_Tables_number   1
_chemical_formula_structural   K4Li6Ti(Se2F3)2
_chemical_formula_sum   'K16 Li24 Ti4 Se16 F24'
_cell_volume   2591.15479510
_cell_formula_units_Z   4
loop_
 _symmetry_equiv_pos_site_id
 _symmetry_equiv_pos_as_xyz
  1  'x, y, z'
loop_
 _atom_site_type_symbol
 _atom_site_label
 _atom_site_symmetry_multiplicity
 _atom_site_fract_x
 _atom_site_fract_y
 _atom_site_fract_z
 _atom_site_occupancy
  F  F0  1  0.68773572  0.78921782  0.20141104  1
  F  F1  1  0.81226428  0.21078218  0.70141104  1
  F  F2  1  0.31226428  0.28921782  0.79858896  1
  F  F3  1  0.18773572  0.71078218  0.29858896  1
  F  F4  1  0.31226428  0.21078218  0.79858896  1
  F  F5  1  0.18773572  0.78921782  0.29858896  1
  F  F6  1  0.68773572  0.71078218  0.20141104  1
  F  F7  1  0.81226428  0.28921782  0.70141104  1
  F  F8  1  0.86949443  0.94148661  0.32019201  1
  F  F9  1  0.63050557  0.05851339  0.82019201  1
  F  F10  1  0.13050557  0.44148661  0.67980799  1
  F  F11  1  0.36949443  0.55851339  0.17980799  1
  F  F12  1  0.13050557  0.05851339  0.67980799  1
  F  F13  1  0.36949443  0.94148661  0.17980799  1
  F  F14  1  0.86949443  0.55851339  0.32019201  1
  F  F15  1  0.63050557  0.44148661  0.82019201  1
  F  F16  1  0.30629252  0.96699191  0.11807600  1
  F  F17  1  0.19370748  0.03300809  0.61807600  1
  F  F18  1  0.69370748  0.46699191  0.88192400  1
  F  F19  1  0.80629252  0.53300809  0.38192400  1
  F  F20  1  0.69370748  0.03300809  0.88192400  1
  F  F21  1  0.80629252  0.96699191  0.38192400  1
  F  F22  1  0.30629252  0.53300809  0.11807600  1
  F  F23  1  0.19370748  0.46699191  0.61807600  1
  K  K24  1  0.45820626  0.82912179  0.06005723  1
  K  K25  1  0.04179374  0.17087821  0.56005723  1
  K  K26  1  0.54179374  0.32912179  0.93994277  1
  K  K27  1  0.95820626  0.67087821  0.43994277  1
  K  K28  1  0.54179374  0.17087821  0.93994277  1
  K  K29  1  0.95820626  0.82912179  0.43994277  1
  K  K30  1  0.45820626  0.67087821  0.06005723  1
  K  K31  1  0.04179374  0.32912179  0.56005723  1
  K  K32  1  0.88695163  0.25000000  0.26882462  1
  K  K33  1  0.61304837  0.75000000  0.76882462  1
  K  K34  1  0.11304837  0.75000000  0.73117538  1
  K  K35  1  0.38695163  0.25000000  0.23117538  1
  K  K36  1  0.00000000  0.00000000  0.00000000  1
  K  K37  1  0.50000000  0.00000000  0.50000000  1
  K  K38  1  0.00000000  0.50000000  0.00000000  1
  K  K39  1  0.50000000  0.50000000  0.50000000  1
  Li  Li40  1  0.53674239  0.25000000  0.38110381  1
  Li  Li41  1  0.96325761  0.75000000  0.88110381  1
  Li  Li42  1  0.46325761  0.75000000  0.61889619  1
  Li  Li43  1  0.03674239  0.25000000  0.11889619  1
  Li  Li44  1  0.23715810  0.97334547  0.98922632  1
  Li  Li45  1  0.26284190  -0.97334547  1.48922632  1
  Li  Li46  1  -0.23715810  1.47334547  -0.98922632  1
  Li  Li47  1  0.73715810  -0.47334547  -0.48922632  1
  Li  Li48  1  -0.23715810  -0.97334547  -0.98922632  1
  Li  Li49  1  0.73715810  0.97334547  -0.48922632  1
  Li  Li50  1  0.23715810  -0.47334547  0.98922632  1
  Li  Li51  1  0.26284190  1.47334547  1.48922632  1
  Li  Li52  1  0.65110775  0.13557378  0.28328045  1
  Li  Li53  1  0.84889225  0.86442622  0.78328045  1
  Li  Li54  1  0.34889225  0.63557378  0.71671955  1
  Li  Li55  1  0.15110775  0.36442622  0.21671955  1
  Li  Li56  1  0.34889225  0.86442622  0.71671955  1
  Li  Li57  1  0.15110775  0.13557378  0.21671955  1
  Li  Li58  1  0.65110775  0.36442622  0.28328045  1
  Li  Li59  1  0.84889225  0.63557378  0.78328045  1
  Li  Li60  1  0.00000000  0.00000000  0.50000000  1
  Li  Li61  1  0.50000000  0.00000000  -0.00000000  1
  Li  Li62  1  0.00000000  0.50000000  0.50000000  1
  Li  Li63  1  0.50000000  0.50000000  0.00000000  1
  Se  Se64  1  0.65680504  0.96970877  0.92767222  1
  Se  Se65  1  0.84319496  0.03029123  0.42767222  1
  Se  Se66  1  0.34319496  0.46970877  0.07232778  1
  Se  Se67  1  0.15680504  0.53029123  0.57232778  1
  Se  Se68  1  0.34319496  0.03029123  0.07232778  1
  Se  Se69  1  0.15680504  0.96970877  0.57232778  1
  Se  Se70  1  0.65680504  0.53029123  0.92767222  1
  Se  Se71  1  0.84319496  0.46970877  0.42767222  1
  Se  Se72  1  0.43303734  0.92259514  0.82778240  1
  Se  Se73  1  0.06696266  0.07740486  0.32778240  1
  Se  Se74  1  0.56696266  0.42259514  0.17221760  1
  Se  Se75  1  0.93303734  0.57740486  0.67221760  1
  Se  Se76  1  0.56696266  0.07740486  0.17221760  1
  Se  Se77  1  0.93303734  0.92259514  0.67221760  1
  Se  Se78  1  0.43303734  0.57740486  0.82778240  1
  Se  Se79  1  0.06696266  0.42259514  0.32778240  1
  Ti  Ti80  1  0.86272229  0.25000000  0.81558818  1
  Ti  Ti81  1  0.63727771  0.75000000  0.31558818  1
  Ti  Ti82  1  0.13727771  0.75000000  0.18441182  1
  Ti  Ti83  1  0.36272229  0.25000000  0.68441182  1
