# generated using pymatgen
data_Li2Si4Te3F12
_symmetry_space_group_name_H-M   'P 1'
_cell_length_a   16.05624743
_cell_length_b   16.05624743
_cell_length_c   5.86628663
_cell_angle_alpha   90.00000000
_cell_angle_beta   90.00000000
_cell_angle_gamma   120.00000000
_symmetry_Int_Tables_number   1
_chemical_formula_structural   Li2Si4Te3F12
_chemical_formula_sum   'Li8 Si16 Te12 F48'
_cell_volume   1309.73072308
_cell_formula_units_Z   4
loop_
 _symmetry_equiv_pos_site_id
 _symmetry_equiv_pos_as_xyz
  1  'x, y, z'
loop_
 _atom_site_type_symbol
 _atom_site_label
 _atom_site_symmetry_multiplicity
 _atom_site_fract_x
 _atom_site_fract_y
 _atom_site_fract_z
 _atom_site_occupancy
  F  F0  1  0.54943523  0.06557077  0.57646546  1
  F  F1  1  -0.06557077  0.48386446  0.57646546  1
  F  F2  1  -0.48386446  -0.54943523  0.57646546  1
  F  F3  1  -0.54943523  -0.06557077  1.07646546  1
  F  F4  1  0.06557077  -0.48386446  1.07646546  1
  F  F5  1  0.48386446  0.54943523  1.07646546  1
  F  F6  1  -0.54943523  -0.06557077  -0.57646546  1
  F  F7  1  0.06557077  -0.48386446  -0.57646546  1
  F  F8  1  0.48386446  0.54943523  -0.57646546  1
  F  F9  1  0.54943523  0.06557077  -0.07646546  1
  F  F10  1  -0.06557077  0.48386446  -0.07646546  1
  F  F11  1  -0.48386446  -0.54943523  -0.07646546  1
  F  F12  1  0.58440863  0.55821739  0.38101209  1
  F  F13  1  0.44178261  0.02619124  0.38101209  1
  F  F14  1  0.97380876  0.41559137  0.38101209  1
  F  F15  1  0.41559137  0.44178261  0.88101209  1
  F  F16  1  0.55821739  0.97380876  0.88101209  1
  F  F17  1  0.02619124  0.58440863  0.88101209  1
  F  F18  1  0.41559137  0.44178261  0.61898791  1
  F  F19  1  0.55821739  0.97380876  0.61898791  1
  F  F20  1  0.02619124  0.58440863  0.61898791  1
  F  F21  1  0.58440863  0.55821739  0.11898791  1
  F  F22  1  0.44178261  0.02619124  0.11898791  1
  F  F23  1  0.97380876  0.41559137  0.11898791  1
  F  F24  1  0.00000000  0.00000000  0.25000000  1
  F  F25  1  0.00000000  0.00000000  0.75000000  1
  F  F26  1  0.49415486  0.08738303  0.49167066  1
  F  F27  1  0.91261697  0.40677183  0.49167066  1
  F  F28  1  0.59322817  0.50584514  0.49167066  1
  F  F29  1  0.50584514  0.91261697  0.99167066  1
  F  F30  1  0.08738303  0.59322817  0.99167066  1
  F  F31  1  0.40677183  0.49415486  0.99167066  1
  F  F32  1  0.50584514  0.91261697  0.50832934  1
  F  F33  1  0.08738303  0.59322817  0.50832934  1
  F  F34  1  0.40677183  0.49415486  0.50832934  1
  F  F35  1  0.49415486  0.08738303  0.00832934  1
  F  F36  1  0.91261697  0.40677183  0.00832934  1
  F  F37  1  0.59322817  0.50584514  0.00832934  1
  F  F38  1  0.64397001  0.24376426  0.25000000  1
  F  F39  1  0.75623574  0.40020575  0.25000000  1
  F  F40  1  0.59979425  0.35602999  0.25000000  1
  F  F41  1  0.35602999  0.75623574  0.75000000  1
  F  F42  1  0.24376426  0.59979425  0.75000000  1
  F  F43  1  0.40020575  0.64397001  0.75000000  1
  F  F44  1  0.33333333  0.66666667  0.47760715  1
  F  F45  1  0.66666667  0.33333333  0.97760715  1
  F  F46  1  0.66666667  0.33333333  0.52239285  1
  F  F47  1  0.33333333  0.66666667  0.02239285  1
  Li  Li48  1  0.50548714  0.72118105  0.25000000  1
  Li  Li49  1  0.27881895  0.78430609  0.25000000  1
  Li  Li50  1  0.21569391  0.49451286  0.25000000  1
  Li  Li51  1  0.49451286  0.27881895  0.75000000  1
  Li  Li52  1  0.72118105  0.21569391  0.75000000  1
  Li  Li53  1  0.78430609  0.50548714  0.75000000  1
  Li  Li54  1  0.00000000  0.00000000  0.00000000  1
  Li  Li55  1  0.00000000  0.00000000  0.50000000  1
  Si  Si56  1  0.33333333  0.66666667  0.25000000  1
  Si  Si57  1  0.66666667  0.33333333  0.75000000  1
  Si  Si58  1  0.00952827  0.82171437  0.25000000  1
  Si  Si59  1  0.17828563  0.18781391  0.25000000  1
  Si  Si60  1  0.81218609  0.99047173  0.25000000  1
  Si  Si61  1  0.99047173  0.17828563  0.75000000  1
  Si  Si62  1  0.82171437  0.81218609  0.75000000  1
  Si  Si63  1  0.18781391  0.00952827  0.75000000  1
  Si  Si64  1  0.66666667  0.33333333  0.25000000  1
  Si  Si65  1  0.33333333  0.66666667  0.75000000  1
  Si  Si66  1  0.50000000  0.00000000  0.00000000  1
  Si  Si67  1  0.00000000  0.50000000  0.00000000  1
  Si  Si68  1  0.50000000  0.50000000  0.00000000  1
  Si  Si69  1  0.50000000  0.00000000  0.50000000  1
  Si  Si70  1  0.00000000  0.50000000  0.50000000  1
  Si  Si71  1  0.50000000  0.50000000  0.50000000  1
  Te  Te72  1  0.93883244  0.01671668  0.25000000  1
  Te  Te73  1  0.98328332  0.92211576  0.25000000  1
  Te  Te74  1  0.07788424  0.06116756  0.25000000  1
  Te  Te75  1  0.06116756  0.98328332  0.75000000  1
  Te  Te76  1  0.01671668  0.07788424  0.75000000  1
  Te  Te77  1  0.92211576  0.93883244  0.75000000  1
  Te  Te78  1  0.56213505  0.19162636  0.25000000  1
  Te  Te79  1  0.80837364  0.37050869  0.25000000  1
  Te  Te80  1  0.62949131  0.43786495  0.25000000  1
  Te  Te81  1  0.43786495  0.80837364  0.75000000  1
  Te  Te82  1  0.19162636  0.62949131  0.75000000  1
  Te  Te83  1  0.37050869  0.56213505  0.75000000  1
