# generated using pymatgen
data_Li2YMoAsP3
_symmetry_space_group_name_H-M   'P 1'
_cell_length_a   4.66530036
_cell_length_b   4.91450436
_cell_length_c   7.05865730
_cell_angle_alpha   95.67268916
_cell_angle_beta   102.15798587
_cell_angle_gamma   111.83267558
_symmetry_Int_Tables_number   1
_chemical_formula_structural   Li2YMoAsP3
_chemical_formula_sum   'Li2 Y1 Mo1 As1 P3'
_cell_volume   144.03451023
_cell_formula_units_Z   1
loop_
 _symmetry_equiv_pos_site_id
 _symmetry_equiv_pos_as_xyz
  1  'x, y, z'
loop_
 _atom_site_type_symbol
 _atom_site_label
 _atom_site_symmetry_multiplicity
 _atom_site_fract_x
 _atom_site_fract_y
 _atom_site_fract_z
 _atom_site_occupancy
  P  P0  1  0.00000000  0.00000000  0.00000000  1
  P  P1  1  0.50000000  0.50000000  0.50000000  1
  P  P2  1  0.25000000  0.25000000  0.25000000  1
  Mo  Mo3  1  0.75000000  0.25000000  0.00000000  1
  As  As4  1  0.25000000  0.75000000  0.50000000  1
  Li  Li5  1  0.24401324  0.45183238  0.95966909  1
  Li  Li6  1  0.54526099  0.44196321  0.66463440  1
  Y  Y7  1  0.61891985  0.90578420  0.13015698  1
