# generated using pymatgen
data_LiF
_symmetry_space_group_name_H-M   'P 1'
_cell_length_a   11.06158608
_cell_length_b   11.06158608
_cell_length_c   18.26601301
_cell_angle_alpha   90.00000000
_cell_angle_beta   90.00000000
_cell_angle_gamma   90.00000000
_symmetry_Int_Tables_number   1
_chemical_formula_structural   LiF
_chemical_formula_sum   'Li64 F64'
_cell_volume   2235.00536014
_cell_formula_units_Z   64
loop_
 _symmetry_equiv_pos_site_id
 _symmetry_equiv_pos_as_xyz
  1  'x, y, z'
loop_
 _atom_site_type_symbol
 _atom_site_label
 _atom_site_symmetry_multiplicity
 _atom_site_fract_x
 _atom_site_fract_y
 _atom_site_fract_z
 _atom_site_occupancy
  F  F0  1  0.56539078  0.13896862  0.74888543  1
  F  F1  1  0.93460922  0.86103138  0.24888543  1
  F  F2  1  0.11103138  0.31539078  0.99888543  1
  F  F3  1  0.38896862  0.68460922  0.49888543  1
  F  F4  1  0.93460922  0.13896862  0.25111457  1
  F  F5  1  0.56539078  0.86103138  0.75111457  1
  F  F6  1  0.38896862  0.31539078  0.00111457  1
  F  F7  1  0.11103138  0.68460922  0.50111457  1
  F  F8  1  0.43460922  0.86103138  0.25111457  1
  F  F9  1  0.06539078  0.13896862  0.75111457  1
  F  F10  1  0.88896862  0.68460922  0.00111457  1
  F  F11  1  0.61103138  0.31539078  0.50111457  1
  F  F12  1  0.06539078  0.86103138  0.74888543  1
  F  F13  1  0.43460922  0.13896862  0.24888543  1
  F  F14  1  0.61103138  0.68460922  0.99888543  1
  F  F15  1  0.88896862  0.31539078  0.49888543  1
  F  F16  1  0.06539078  0.63896862  0.24888543  1
  F  F17  1  0.43460922  0.36103138  0.74888543  1
  F  F18  1  0.61103138  0.81539078  0.49888543  1
  F  F19  1  0.88896862  0.18460922  0.99888543  1
  F  F20  1  0.43460922  0.63896862  0.75111457  1
  F  F21  1  0.06539078  0.36103138  0.25111457  1
  F  F22  1  0.88896862  0.81539078  0.50111457  1
  F  F23  1  0.61103138  0.18460922  0.00111457  1
  F  F24  1  0.93460922  0.36103138  0.75111457  1
  F  F25  1  0.56539078  0.63896862  0.25111457  1
  F  F26  1  0.38896862  0.18460922  0.50111457  1
  F  F27  1  0.11103138  0.81539078  0.00111457  1
  F  F28  1  0.56539078  0.36103138  0.24888543  1
  F  F29  1  0.93460922  0.63896862  0.74888543  1
  F  F30  1  0.11103138  0.18460922  0.49888543  1
  F  F31  1  0.38896862  0.81539078  0.99888543  1
  F  F32  1  0.12814983  0.42774237  0.93118056  1
  F  F33  1  0.37185017  0.57225763  0.43118056  1
  F  F34  1  0.82225763  0.87814983  0.18118056  1
  F  F35  1  0.67774237  0.12185017  0.68118056  1
  F  F36  1  0.37185017  0.42774237  0.06881944  1
  F  F37  1  0.12814983  0.57225763  0.56881944  1
  F  F38  1  0.67774237  0.87814983  0.81881944  1
  F  F39  1  0.82225763  0.12185017  0.31881944  1
  F  F40  1  0.87185017  0.57225763  0.06881944  1
  F  F41  1  0.62814983  0.42774237  0.56881944  1
  F  F42  1  0.17774237  0.12185017  0.81881944  1
  F  F43  1  0.32225763  0.87814983  0.31881944  1
  F  F44  1  0.62814983  0.57225763  0.93118056  1
  F  F45  1  0.87185017  0.42774237  0.43118056  1
  F  F46  1  0.32225763  0.12185017  0.18118056  1
  F  F47  1  0.17774237  0.87814983  0.68118056  1
  F  F48  1  0.62814983  0.92774237  0.43118056  1
  F  F49  1  0.87185017  0.07225763  0.93118056  1
  F  F50  1  0.32225763  0.37814983  0.68118056  1
  F  F51  1  0.17774237  0.62185017  0.18118056  1
  F  F52  1  0.87185017  0.92774237  0.56881944  1
  F  F53  1  0.62814983  0.07225763  0.06881944  1
  F  F54  1  0.17774237  0.37814983  0.31881944  1
  F  F55  1  0.32225763  0.62185017  0.81881944  1
  F  F56  1  0.37185017  0.07225763  0.56881944  1
  F  F57  1  0.12814983  0.92774237  0.06881944  1
  F  F58  1  0.67774237  0.62185017  0.31881944  1
  F  F59  1  0.82225763  0.37814983  0.81881944  1
  F  F60  1  0.12814983  0.07225763  0.43118056  1
  F  F61  1  0.37185017  0.92774237  0.93118056  1
  F  F62  1  0.82225763  0.62185017  0.68118056  1
  F  F63  1  0.67774237  0.37814983  0.18118056  1
  Li  Li64  1  0.57038691  0.45305365  0.37848782  1
  Li  Li65  1  -0.07038691  -0.45305365  0.87848782  1
  Li  Li66  1  -0.20305365  1.32038691  0.62848782  1
  Li  Li67  1  0.70305365  -0.32038691  1.12848782  1
  Li  Li68  1  -0.07038691  0.45305365  -0.37848782  1
  Li  Li69  1  0.57038691  -0.45305365  0.12151218  1
  Li  Li70  1  0.70305365  1.32038691  0.37151218  1
  Li  Li71  1  -0.20305365  -0.32038691  -0.12848782  1
  Li  Li72  1  -0.57038691  -0.45305365  -0.37848782  1
  Li  Li73  1  1.07038691  0.45305365  0.12151218  1
  Li  Li74  1  1.20305365  -0.32038691  0.37151218  1
  Li  Li75  1  0.29694635  1.32038691  -0.12848782  1
  Li  Li76  1  1.07038691  -0.45305365  0.37848782  1
  Li  Li77  1  -0.57038691  0.45305365  0.87848782  1
  Li  Li78  1  0.29694635  -0.32038691  0.62848782  1
  Li  Li79  1  1.20305365  1.32038691  1.12848782  1
  Li  Li80  1  1.07038691  0.95305365  0.87848782  1
  Li  Li81  1  0.42961309  0.04694635  1.37848782  1
  Li  Li82  1  0.29694635  1.82038691  1.12848782  1
  Li  Li83  1  1.20305365  0.17961309  1.62848782  1
  Li  Li84  1  0.42961309  0.95305365  0.12151218  1
  Li  Li85  1  1.07038691  0.04694635  0.62151218  1
  Li  Li86  1  1.20305365  1.82038691  0.87151218  1
  Li  Li87  1  0.29694635  0.17961309  0.37151218  1
  Li  Li88  1  -0.07038691  0.04694635  0.12151218  1
  Li  Li89  1  1.57038691  0.95305365  0.62151218  1
  Li  Li90  1  1.70305365  0.17961309  0.87151218  1
  Li  Li91  1  0.79694635  1.82038691  0.37151218  1
  Li  Li92  1  1.57038691  0.04694635  0.87848782  1
  Li  Li93  1  -0.07038691  0.95305365  1.37848782  1
  Li  Li94  1  0.79694635  0.17961309  1.12848782  1
  Li  Li95  1  1.70305365  1.82038691  1.62848782  1
  Li  Li96  1  0.00000000  0.25000000  0.12500000  1
  Li  Li97  1  0.00000000  0.75000000  0.37500000  1
  Li  Li98  1  0.00000000  0.75000000  0.87500000  1
  Li  Li99  1  0.00000000  0.25000000  0.62500000  1
  Li  Li100  1  0.50000000  0.75000000  0.62500000  1
  Li  Li101  1  0.50000000  0.25000000  0.87500000  1
  Li  Li102  1  0.50000000  0.25000000  0.37500000  1
  Li  Li103  1  0.50000000  0.75000000  0.12500000  1
  Li  Li104  1  0.34295733  0.00000000  0.25000000  1
  Li  Li105  1  0.15704267  -0.00000000  0.75000000  1
  Li  Li106  1  0.25000000  0.09295733  0.50000000  1
  Li  Li107  1  0.25000000  0.90704267  0.00000000  1
  Li  Li108  1  0.65704267  -0.00000000  0.75000000  1
  Li  Li109  1  0.84295733  -0.00000000  0.25000000  1
  Li  Li110  1  0.75000000  0.90704267  0.50000000  1
  Li  Li111  1  0.75000000  0.09295733  0.00000000  1
  Li  Li112  1  0.84295733  0.50000000  0.75000000  1
  Li  Li113  1  0.65704267  0.50000000  0.25000000  1
  Li  Li114  1  0.75000000  0.59295733  0.00000000  1
  Li  Li115  1  0.75000000  0.40704267  0.50000000  1
  Li  Li116  1  0.15704267  0.50000000  0.25000000  1
  Li  Li117  1  0.34295733  0.50000000  0.75000000  1
  Li  Li118  1  0.25000000  0.40704267  0.00000000  1
  Li  Li119  1  0.25000000  0.59295733  0.50000000  1
  Li  Li120  1  0.00000000  0.25000000  0.37500000  1
  Li  Li121  1  0.00000000  0.75000000  0.62500000  1
  Li  Li122  1  0.50000000  0.25000000  0.62500000  1
  Li  Li123  1  0.50000000  0.75000000  0.37500000  1
  Li  Li124  1  0.50000000  0.75000000  0.87500000  1
  Li  Li125  1  0.50000000  0.25000000  0.12500000  1
  Li  Li126  1  0.00000000  0.75000000  0.12500000  1
  Li  Li127  1  0.00000000  0.25000000  0.87500000  1
