# generated using pymatgen
data_Li4TeF2
_symmetry_space_group_name_H-M   'P 1'
_cell_length_a   19.25665384
_cell_length_b   19.25665384
_cell_length_c   9.12620970
_cell_angle_alpha   90.00000000
_cell_angle_beta   90.00000000
_cell_angle_gamma   90.00000000
_symmetry_Int_Tables_number   1
_chemical_formula_structural   Li4TeF2
_chemical_formula_sum   'Li96 Te24 F48'
_cell_volume   3384.16937094
_cell_formula_units_Z   24
loop_
 _symmetry_equiv_pos_site_id
 _symmetry_equiv_pos_as_xyz
  1  'x, y, z'
loop_
 _atom_site_type_symbol
 _atom_site_label
 _atom_site_symmetry_multiplicity
 _atom_site_fract_x
 _atom_site_fract_y
 _atom_site_fract_z
 _atom_site_occupancy
  F  F0  1  0.80559180  0.45509831  0.04265388  1
  F  F1  1  -0.30559180  -0.45509831  0.54265388  1
  F  F2  1  -0.20509831  1.55559180  0.29265388  1
  F  F3  1  0.70509831  -0.55559180  0.79265388  1
  F  F4  1  -0.30559180  0.45509831  -0.04265388  1
  F  F5  1  0.80559180  -0.45509831  0.45734612  1
  F  F6  1  0.70509831  1.55559180  0.70734612  1
  F  F7  1  -0.20509831  -0.55559180  0.20734612  1
  F  F8  1  -0.80559180  -0.45509831  -0.04265388  1
  F  F9  1  1.30559180  0.45509831  0.45734612  1
  F  F10  1  1.20509831  -0.55559180  0.70734612  1
  F  F11  1  0.29490169  1.55559180  0.20734612  1
  F  F12  1  1.30559180  -0.45509831  0.04265388  1
  F  F13  1  -0.80559180  0.45509831  0.54265388  1
  F  F14  1  0.29490169  -0.55559180  0.29265388  1
  F  F15  1  1.20509831  1.55559180  0.79265388  1
  F  F16  1  1.30559180  0.95509831  0.54265388  1
  F  F17  1  0.19440820  0.04490169  1.04265388  1
  F  F18  1  0.29490169  2.05559180  0.79265388  1
  F  F19  1  1.20509831  -0.05559180  1.29265388  1
  F  F20  1  0.19440820  0.95509831  0.45734612  1
  F  F21  1  1.30559180  0.04490169  0.95734612  1
  F  F22  1  1.20509831  2.05559180  1.20734612  1
  F  F23  1  0.29490169  -0.05559180  0.70734612  1
  F  F24  1  -0.30559180  0.04490169  0.45734612  1
  F  F25  1  1.80559180  0.95509831  0.95734612  1
  F  F26  1  1.70509831  -0.05559180  1.20734612  1
  F  F27  1  0.79490169  2.05559180  0.70734612  1
  F  F28  1  1.80559180  0.04490169  0.54265388  1
  F  F29  1  -0.30559180  0.95509831  1.04265388  1
  F  F30  1  0.79490169  -0.05559180  0.79265388  1
  F  F31  1  1.70509831  2.05559180  1.29265388  1
  F  F32  1  0.00000000  0.25000000  0.91966849  1
  F  F33  1  0.00000000  0.75000000  0.16966849  1
  F  F34  1  0.50000000  0.25000000  0.08033151  1
  F  F35  1  0.50000000  0.75000000  0.83033151  1
  F  F36  1  0.00000000  0.75000000  0.08033151  1
  F  F37  1  0.00000000  0.25000000  0.83033151  1
  F  F38  1  0.50000000  0.75000000  0.91966849  1
  F  F39  1  0.50000000  0.25000000  0.16966849  1
  F  F40  1  0.50000000  0.75000000  0.41966849  1
  F  F41  1  0.50000000  0.25000000  0.66966849  1
  F  F42  1  0.00000000  0.75000000  0.58033151  1
  F  F43  1  0.00000000  0.25000000  0.33033151  1
  F  F44  1  0.50000000  0.25000000  0.58033151  1
  F  F45  1  0.50000000  0.75000000  0.33033151  1
  F  F46  1  0.00000000  0.25000000  0.41966849  1
  F  F47  1  0.00000000  0.75000000  0.66966849  1
  Li  Li48  1  0.04202990  0.91287176  0.53461975  1
  Li  Li49  1  0.45797010  0.08712824  0.03461975  1
  Li  Li50  1  0.33712824  0.79202990  0.78461975  1
  Li  Li51  1  0.16287176  0.20797010  0.28461975  1
  Li  Li52  1  0.45797010  0.91287176  0.46538025  1
  Li  Li53  1  0.04202990  0.08712824  0.96538025  1
  Li  Li54  1  0.16287176  0.79202990  0.21538025  1
  Li  Li55  1  0.33712824  0.20797010  0.71538025  1
  Li  Li56  1  0.95797010  0.08712824  0.46538025  1
  Li  Li57  1  0.54202990  0.91287176  0.96538025  1
  Li  Li58  1  0.66287176  0.20797010  0.21538025  1
  Li  Li59  1  0.83712824  0.79202990  0.71538025  1
  Li  Li60  1  0.54202990  0.08712824  0.53461975  1
  Li  Li61  1  0.95797010  0.91287176  0.03461975  1
  Li  Li62  1  0.83712824  0.20797010  0.78461975  1
  Li  Li63  1  0.66287176  0.79202990  0.28461975  1
  Li  Li64  1  0.54202990  0.41287176  0.03461975  1
  Li  Li65  1  0.95797010  0.58712824  0.53461975  1
  Li  Li66  1  0.83712824  0.29202990  0.28461975  1
  Li  Li67  1  0.66287176  0.70797010  0.78461975  1
  Li  Li68  1  0.95797010  0.41287176  0.96538025  1
  Li  Li69  1  0.54202990  0.58712824  0.46538025  1
  Li  Li70  1  0.66287176  0.29202990  0.71538025  1
  Li  Li71  1  0.83712824  0.70797010  0.21538025  1
  Li  Li72  1  0.45797010  0.58712824  0.96538025  1
  Li  Li73  1  0.04202990  0.41287176  0.46538025  1
  Li  Li74  1  0.16287176  0.70797010  0.71538025  1
  Li  Li75  1  0.33712824  0.29202990  0.21538025  1
  Li  Li76  1  0.04202990  0.58712824  0.03461975  1
  Li  Li77  1  0.45797010  0.41287176  0.53461975  1
  Li  Li78  1  0.33712824  0.70797010  0.28461975  1
  Li  Li79  1  0.16287176  0.29202990  0.78461975  1
  Li  Li80  1  0.02246667  0.14441906  0.64702087  1
  Li  Li81  1  0.47753333  0.85558094  0.14702087  1
  Li  Li82  1  0.10558094  0.77246667  0.89702087  1
  Li  Li83  1  0.39441906  0.22753333  0.39702087  1
  Li  Li84  1  0.47753333  0.14441906  0.35297913  1
  Li  Li85  1  0.02246667  0.85558094  0.85297913  1
  Li  Li86  1  0.39441906  0.77246667  0.10297913  1
  Li  Li87  1  0.10558094  0.22753333  0.60297913  1
  Li  Li88  1  0.97753333  0.85558094  0.35297913  1
  Li  Li89  1  0.52246667  0.14441906  0.85297913  1
  Li  Li90  1  0.89441906  0.22753333  0.10297913  1
  Li  Li91  1  0.60558094  0.77246667  0.60297913  1
  Li  Li92  1  0.52246667  0.85558094  0.64702087  1
  Li  Li93  1  0.97753333  0.14441906  0.14702087  1
  Li  Li94  1  0.60558094  0.22753333  0.89702087  1
  Li  Li95  1  0.89441906  0.77246667  0.39702087  1
  Li  Li96  1  0.52246667  0.64441906  0.14702087  1
  Li  Li97  1  0.97753333  0.35558094  0.64702087  1
  Li  Li98  1  0.60558094  0.27246667  0.39702087  1
  Li  Li99  1  0.89441906  0.72753333  0.89702087  1
  Li  Li100  1  0.97753333  0.64441906  0.85297913  1
  Li  Li101  1  0.52246667  0.35558094  0.35297913  1
  Li  Li102  1  0.89441906  0.27246667  0.60297913  1
  Li  Li103  1  0.60558094  0.72753333  0.10297913  1
  Li  Li104  1  0.47753333  0.35558094  0.85297913  1
  Li  Li105  1  0.02246667  0.64441906  0.35297913  1
  Li  Li106  1  0.39441906  0.72753333  0.60297913  1
  Li  Li107  1  0.10558094  0.27246667  0.10297913  1
  Li  Li108  1  0.02246667  0.35558094  0.14702087  1
  Li  Li109  1  0.47753333  0.64441906  0.64702087  1
  Li  Li110  1  0.10558094  0.72753333  0.39702087  1
  Li  Li111  1  0.39441906  0.27246667  0.89702087  1
  Li  Li112  1  0.16132226  0.01559434  0.62007200  1
  Li  Li113  1  0.33867774  0.98440566  0.12007200  1
  Li  Li114  1  0.23440566  0.91132226  0.87007200  1
  Li  Li115  1  0.26559434  0.08867774  0.37007200  1
  Li  Li116  1  0.33867774  0.01559434  0.37992800  1
  Li  Li117  1  0.16132226  0.98440566  0.87992800  1
  Li  Li118  1  0.26559434  0.91132226  0.12992800  1
  Li  Li119  1  0.23440566  0.08867774  0.62992800  1
  Li  Li120  1  0.83867774  0.98440566  0.37992800  1
  Li  Li121  1  0.66132226  0.01559434  0.87992800  1
  Li  Li122  1  0.76559434  0.08867774  0.12992800  1
  Li  Li123  1  0.73440566  0.91132226  0.62992800  1
  Li  Li124  1  0.66132226  0.98440566  0.62007200  1
  Li  Li125  1  0.83867774  0.01559434  0.12007200  1
  Li  Li126  1  0.73440566  0.08867774  0.87007200  1
  Li  Li127  1  0.76559434  0.91132226  0.37007200  1
  Li  Li128  1  0.66132226  0.51559434  0.12007200  1
  Li  Li129  1  0.83867774  0.48440566  0.62007200  1
  Li  Li130  1  0.73440566  0.41132226  0.37007200  1
  Li  Li131  1  0.76559434  0.58867774  0.87007200  1
  Li  Li132  1  0.83867774  0.51559434  0.87992800  1
  Li  Li133  1  0.66132226  0.48440566  0.37992800  1
  Li  Li134  1  0.76559434  0.41132226  0.62992800  1
  Li  Li135  1  0.73440566  0.58867774  0.12992800  1
  Li  Li136  1  0.33867774  0.48440566  0.87992800  1
  Li  Li137  1  0.16132226  0.51559434  0.37992800  1
  Li  Li138  1  0.26559434  0.58867774  0.62992800  1
  Li  Li139  1  0.23440566  0.41132226  0.12992800  1
  Li  Li140  1  0.16132226  0.48440566  0.12007200  1
  Li  Li141  1  0.33867774  0.51559434  0.62007200  1
  Li  Li142  1  0.23440566  0.58867774  0.37007200  1
  Li  Li143  1  0.26559434  0.41132226  0.87007200  1
  Te  Te144  1  0.51925740  0.00000000  0.25000000  1
  Te  Te145  1  0.98074260  0.00000000  0.75000000  1
  Te  Te146  1  0.25000000  0.26925740  0.50000000  1
  Te  Te147  1  0.25000000  0.73074260  0.00000000  1
  Te  Te148  1  0.48074260  0.00000000  0.75000000  1
  Te  Te149  1  0.01925740  0.00000000  0.25000000  1
  Te  Te150  1  0.75000000  0.73074260  0.50000000  1
  Te  Te151  1  0.75000000  0.26925740  0.00000000  1
  Te  Te152  1  0.01925740  0.50000000  0.75000000  1
  Te  Te153  1  0.48074260  0.50000000  0.25000000  1
  Te  Te154  1  0.75000000  0.76925740  0.00000000  1
  Te  Te155  1  0.75000000  0.23074260  0.50000000  1
  Te  Te156  1  0.98074260  0.50000000  0.25000000  1
  Te  Te157  1  0.51925740  0.50000000  0.75000000  1
  Te  Te158  1  0.25000000  0.23074260  0.00000000  1
  Te  Te159  1  0.25000000  0.76925740  0.50000000  1
  Te  Te160  1  0.00000000  0.25000000  0.12500000  1
  Te  Te161  1  0.00000000  0.75000000  0.37500000  1
  Te  Te162  1  0.00000000  0.75000000  0.87500000  1
  Te  Te163  1  0.00000000  0.25000000  0.62500000  1
  Te  Te164  1  0.50000000  0.75000000  0.62500000  1
  Te  Te165  1  0.50000000  0.25000000  0.87500000  1
  Te  Te166  1  0.50000000  0.25000000  0.37500000  1
  Te  Te167  1  0.50000000  0.75000000  0.12500000  1
