# generated using pymatgen
data_LiF
_symmetry_space_group_name_H-M   'P 1'
_cell_length_a   5.32560395
_cell_length_b   5.32560395
_cell_length_c   20.72487834
_cell_angle_alpha   90.00000000
_cell_angle_beta   90.00000000
_cell_angle_gamma   90.00000000
_symmetry_Int_Tables_number   1
_chemical_formula_structural   LiF
_chemical_formula_sum   'Li32 F32'
_cell_volume   587.80019060
_cell_formula_units_Z   32
loop_
 _symmetry_equiv_pos_site_id
 _symmetry_equiv_pos_as_xyz
  1  'x, y, z'
loop_
 _atom_site_type_symbol
 _atom_site_label
 _atom_site_symmetry_multiplicity
 _atom_site_fract_x
 _atom_site_fract_y
 _atom_site_fract_z
 _atom_site_occupancy
  F  F0  1  0.68786636  0.49141357  0.78990327  1
  F  F1  1  -0.18786636  -0.49141357  1.28990327  1
  F  F2  1  -0.24141357  1.43786636  1.03990327  1
  F  F3  1  0.74141357  -0.43786636  1.53990327  1
  F  F4  1  -0.18786636  0.49141357  -0.78990327  1
  F  F5  1  0.68786636  -0.49141357  -0.28990327  1
  F  F6  1  0.74141357  1.43786636  -0.03990327  1
  F  F7  1  -0.24141357  -0.43786636  -0.53990327  1
  F  F8  1  -0.68786636  -0.49141357  -0.78990327  1
  F  F9  1  1.18786636  0.49141357  -0.28990327  1
  F  F10  1  1.24141357  -0.43786636  -0.03990327  1
  F  F11  1  0.25858643  1.43786636  -0.53990327  1
  F  F12  1  1.18786636  -0.49141357  0.78990327  1
  F  F13  1  -0.68786636  0.49141357  1.28990327  1
  F  F14  1  0.25858643  -0.43786636  1.03990327  1
  F  F15  1  1.24141357  1.43786636  1.53990327  1
  F  F16  1  1.18786636  0.99141357  1.28990327  1
  F  F17  1  0.31213364  0.00858643  1.78990327  1
  F  F18  1  0.25858643  1.93786636  1.53990327  1
  F  F19  1  1.24141357  0.06213364  2.03990327  1
  F  F20  1  0.31213364  0.99141357  -0.28990327  1
  F  F21  1  1.18786636  0.00858643  0.21009673  1
  F  F22  1  1.24141357  1.93786636  0.46009673  1
  F  F23  1  0.25858643  0.06213364  -0.03990327  1
  F  F24  1  -0.18786636  0.00858643  -0.28990327  1
  F  F25  1  1.68786636  0.99141357  0.21009673  1
  F  F26  1  1.74141357  0.06213364  0.46009673  1
  F  F27  1  0.75858643  1.93786636  -0.03990327  1
  F  F28  1  1.68786636  0.00858643  1.28990327  1
  F  F29  1  -0.18786636  0.99141357  1.78990327  1
  F  F30  1  0.75858643  0.06213364  1.53990327  1
  F  F31  1  1.74141357  1.93786636  2.03990327  1
  Li  Li32  1  0.07783595  0.00000000  0.25000000  1
  Li  Li33  1  0.42216405  0.00000000  0.75000000  1
  Li  Li34  1  0.25000000  0.82783595  0.50000000  1
  Li  Li35  1  0.25000000  0.17216405  0.00000000  1
  Li  Li36  1  0.92216405  0.00000000  0.75000000  1
  Li  Li37  1  0.57783595  -0.00000000  0.25000000  1
  Li  Li38  1  0.75000000  0.17216405  0.50000000  1
  Li  Li39  1  0.75000000  0.82783595  0.00000000  1
  Li  Li40  1  0.57783595  0.50000000  0.75000000  1
  Li  Li41  1  0.92216405  0.50000000  0.25000000  1
  Li  Li42  1  0.75000000  0.32783595  -0.00000000  1
  Li  Li43  1  0.75000000  0.67216405  0.50000000  1
  Li  Li44  1  0.42216405  0.50000000  0.25000000  1
  Li  Li45  1  0.07783595  0.50000000  0.75000000  1
  Li  Li46  1  0.25000000  0.67216405  0.00000000  1
  Li  Li47  1  0.25000000  0.32783595  0.50000000  1
  Li  Li48  1  0.00000000  0.25000000  0.37500000  1
  Li  Li49  1  0.00000000  0.75000000  0.62500000  1
  Li  Li50  1  0.50000000  0.25000000  0.62500000  1
  Li  Li51  1  0.50000000  0.75000000  0.37500000  1
  Li  Li52  1  0.50000000  0.75000000  0.87500000  1
  Li  Li53  1  0.50000000  0.25000000  0.12500000  1
  Li  Li54  1  0.00000000  0.75000000  0.12500000  1
  Li  Li55  1  0.00000000  0.25000000  0.87500000  1
  Li  Li56  1  0.00000000  0.25000000  0.12500000  1
  Li  Li57  1  0.00000000  0.75000000  0.37500000  1
  Li  Li58  1  0.00000000  0.75000000  0.87500000  1
  Li  Li59  1  0.00000000  0.25000000  0.62500000  1
  Li  Li60  1  0.50000000  0.75000000  0.62500000  1
  Li  Li61  1  0.50000000  0.25000000  0.87500000  1
  Li  Li62  1  0.50000000  0.25000000  0.37500000  1
  Li  Li63  1  0.50000000  0.75000000  0.12500000  1
