# generated using pymatgen
data_LiF
_symmetry_space_group_name_H-M   'P 1'
_cell_length_a   24.06618495
_cell_length_b   24.06618495
_cell_length_c   3.65483387
_cell_angle_alpha   90.00000000
_cell_angle_beta   90.00000000
_cell_angle_gamma   120.00000000
_symmetry_Int_Tables_number   1
_chemical_formula_structural   LiF
_chemical_formula_sum   'Li48 F48'
_cell_volume   1833.21234277
_cell_formula_units_Z   48
loop_
 _symmetry_equiv_pos_site_id
 _symmetry_equiv_pos_as_xyz
  1  'x, y, z'
loop_
 _atom_site_type_symbol
 _atom_site_label
 _atom_site_symmetry_multiplicity
 _atom_site_fract_x
 _atom_site_fract_y
 _atom_site_fract_z
 _atom_site_occupancy
  F  F0  1  0.51018370  0.80512064  0.25000000  1
  F  F1  1  0.19487936  0.70506305  0.25000000  1
  F  F2  1  0.29493695  0.48981630  0.25000000  1
  F  F3  1  0.48981630  0.19487936  0.75000000  1
  F  F4  1  0.80512064  0.29493695  0.75000000  1
  F  F5  1  0.70506305  0.51018370  0.75000000  1
  F  F6  1  0.56027086  0.04664228  0.05310415  1
  F  F7  1  -0.04664228  0.51362857  0.05310415  1
  F  F8  1  -0.51362857  -0.56027086  0.05310415  1
  F  F9  1  -0.56027086  -0.04664228  0.55310415  1
  F  F10  1  0.04664228  -0.51362857  0.55310415  1
  F  F11  1  0.51362857  0.56027086  0.55310415  1
  F  F12  1  -0.56027086  -0.04664228  -0.05310415  1
  F  F13  1  0.04664228  -0.51362857  -0.05310415  1
  F  F14  1  0.51362857  0.56027086  -0.05310415  1
  F  F15  1  0.56027086  0.04664228  0.44689585  1
  F  F16  1  -0.04664228  0.51362857  0.44689585  1
  F  F17  1  -0.51362857  -0.56027086  0.44689585  1
  F  F18  1  0.92267744  0.74096744  0.25000000  1
  F  F19  1  0.25903256  0.18171000  0.25000000  1
  F  F20  1  0.81829000  0.07732256  0.25000000  1
  F  F21  1  0.07732256  0.25903256  0.75000000  1
  F  F22  1  0.74096744  0.81829000  0.75000000  1
  F  F23  1  0.18171000  0.92267744  0.75000000  1
  F  F24  1  0.33333333  0.66666667  0.25000000  1
  F  F25  1  0.66666667  0.33333333  0.75000000  1
  F  F26  1  0.78355885  0.77816564  0.95885314  1
  F  F27  1  0.22183436  0.00539321  0.95885314  1
  F  F28  1  0.99460679  0.21644115  0.95885314  1
  F  F29  1  0.21644115  0.22183436  0.45885314  1
  F  F30  1  0.77816564  0.99460679  0.45885314  1
  F  F31  1  0.00539321  0.78355885  0.45885314  1
  F  F32  1  0.21644115  0.22183436  0.04114686  1
  F  F33  1  0.77816564  0.99460679  0.04114686  1
  F  F34  1  0.00539321  0.78355885  0.04114686  1
  F  F35  1  0.78355885  0.77816564  0.54114686  1
  F  F36  1  0.22183436  0.00539321  0.54114686  1
  F  F37  1  0.99460679  0.21644115  0.54114686  1
  F  F38  1  0.00000000  0.00000000  0.25000000  1
  F  F39  1  0.00000000  0.00000000  0.75000000  1
  F  F40  1  0.85320191  0.04040904  0.25000000  1
  F  F41  1  0.95959096  0.81279287  0.25000000  1
  F  F42  1  0.18720713  0.14679809  0.25000000  1
  F  F43  1  0.14679809  0.95959096  0.75000000  1
  F  F44  1  0.04040904  0.18720713  0.75000000  1
  F  F45  1  0.81279287  0.85320191  0.75000000  1
  F  F46  1  0.00000000  0.00000000  0.00000000  1
  F  F47  1  0.00000000  0.00000000  0.50000000  1
  Li  Li48  1  0.60409686  0.57626662  0.25000000  1
  Li  Li49  1  0.42373338  0.02783024  0.25000000  1
  Li  Li50  1  0.97216976  0.39590314  0.25000000  1
  Li  Li51  1  0.39590314  0.42373338  0.75000000  1
  Li  Li52  1  0.57626662  0.97216976  0.75000000  1
  Li  Li53  1  0.02783024  0.60409686  0.75000000  1
  Li  Li54  1  0.40258789  0.91330111  0.25000000  1
  Li  Li55  1  0.08669889  0.48928678  0.25000000  1
  Li  Li56  1  0.51071322  0.59741211  0.25000000  1
  Li  Li57  1  0.59741211  0.08669889  0.75000000  1
  Li  Li58  1  0.91330111  0.51071322  0.75000000  1
  Li  Li59  1  0.48928678  0.40258789  0.75000000  1
  Li  Li60  1  0.39127646  0.82635186  0.52727850  1
  Li  Li61  1  0.17364814  0.56492459  0.52727850  1
  Li  Li62  1  0.43507541  0.60872354  0.52727850  1
  Li  Li63  1  0.60872354  0.17364814  0.02727850  1
  Li  Li64  1  0.82635186  0.43507541  0.02727850  1
  Li  Li65  1  0.56492459  0.39127646  0.02727850  1
  Li  Li66  1  0.60872354  0.17364814  0.47272150  1
  Li  Li67  1  0.82635186  0.43507541  0.47272150  1
  Li  Li68  1  0.56492459  0.39127646  0.47272150  1
  Li  Li69  1  0.39127646  0.82635186  0.97272150  1
  Li  Li70  1  0.17364814  0.56492459  0.97272150  1
  Li  Li71  1  0.43507541  0.60872354  0.97272150  1
  Li  Li72  1  0.60731585  0.89482872  0.03507959  1
  Li  Li73  1  0.10517128  0.71248713  0.03507959  1
  Li  Li74  1  0.28751287  0.39268415  0.03507959  1
  Li  Li75  1  0.39268415  0.10517128  0.53507959  1
  Li  Li76  1  0.89482872  0.28751287  0.53507959  1
  Li  Li77  1  0.71248713  0.60731585  0.53507959  1
  Li  Li78  1  0.39268415  0.10517128  0.96492041  1
  Li  Li79  1  0.89482872  0.28751287  0.96492041  1
  Li  Li80  1  0.71248713  0.60731585  0.96492041  1
  Li  Li81  1  0.60731585  0.89482872  0.46492041  1
  Li  Li82  1  0.10517128  0.71248713  0.46492041  1
  Li  Li83  1  0.28751287  0.39268415  0.46492041  1
  Li  Li84  1  0.65916518  0.81068351  0.25000000  1
  Li  Li85  1  0.18931649  0.84848168  0.25000000  1
  Li  Li86  1  0.15151832  0.34083482  0.25000000  1
  Li  Li87  1  0.34083482  0.18931649  0.75000000  1
  Li  Li88  1  0.81068351  0.15151832  0.75000000  1
  Li  Li89  1  0.84848168  0.65916518  0.75000000  1
  Li  Li90  1  0.65947492  0.39475800  0.25000000  1
  Li  Li91  1  0.60524200  0.26471692  0.25000000  1
  Li  Li92  1  0.73528308  0.34052508  0.25000000  1
  Li  Li93  1  0.34052508  0.60524200  0.75000000  1
  Li  Li94  1  0.39475800  0.73528308  0.75000000  1
  Li  Li95  1  0.26471692  0.65947492  0.75000000  1
