# generated using pymatgen
data_LiF
_symmetry_space_group_name_H-M   'P 1'
_cell_length_a   7.16375431
_cell_length_b   7.16375431
_cell_length_c   12.33101223
_cell_angle_alpha   90.00000000
_cell_angle_beta   90.00000000
_cell_angle_gamma   120.00000000
_symmetry_Int_Tables_number   1
_chemical_formula_structural   LiF
_chemical_formula_sum   'Li15 F15'
_cell_volume   548.03806692
_cell_formula_units_Z   15
loop_
 _symmetry_equiv_pos_site_id
 _symmetry_equiv_pos_as_xyz
  1  'x, y, z'
loop_
 _atom_site_type_symbol
 _atom_site_label
 _atom_site_symmetry_multiplicity
 _atom_site_fract_x
 _atom_site_fract_y
 _atom_site_fract_z
 _atom_site_occupancy
  F  F0  1  0.66666667  0.33333333  0.00000000  1
  F  F1  1  0.33333333  0.66666667  0.89641261  1
  F  F2  1  0.33333333  0.66666667  0.10358739  1
  F  F3  1  0.63872032  0.17509338  0.25576766  1
  F  F4  1  0.82490662  0.46362694  0.25576766  1
  F  F5  1  0.53637306  0.36127968  0.25576766  1
  F  F6  1  0.82490662  0.36127968  0.74423234  1
  F  F7  1  0.53637306  0.17509338  0.74423234  1
  F  F8  1  0.63872032  0.46362694  0.74423234  1
  F  F9  1  0.65249312  0.59771622  0.25756902  1
  F  F10  1  0.40228378  0.05477690  0.25756902  1
  F  F11  1  0.94522310  0.34750688  0.25756902  1
  F  F12  1  0.40228378  0.34750688  0.74243098  1
  F  F13  1  0.94522310  0.59771622  0.74243098  1
  F  F14  1  0.65249312  0.05477690  0.74243098  1
  Li  Li15  1  0.96891756  0.32234116  0.06824495  1
  Li  Li16  1  -0.32234116  0.64657640  0.06824495  1
  Li  Li17  1  -0.64657640  -0.96891756  0.06824495  1
  Li  Li18  1  -0.32234116  -0.96891756  -0.06824495  1
  Li  Li19  1  -0.64657640  0.32234116  -0.06824495  1
  Li  Li20  1  0.96891756  0.64657640  -0.06824495  1
  Li  Li21  1  0.00000000  0.00000000  0.50000000  1
  Li  Li22  1  0.29331876  0.76236327  0.76141820  1
  Li  Li23  1  0.23763673  0.53095549  0.76141820  1
  Li  Li24  1  0.46904451  0.70668124  0.76141820  1
  Li  Li25  1  0.23763673  0.70668124  0.23858180  1
  Li  Li26  1  0.46904451  0.76236327  0.23858180  1
  Li  Li27  1  0.29331876  0.53095549  0.23858180  1
  Li  Li28  1  0.66666667  0.33333333  0.50000000  1
  Li  Li29  1  0.33333333  0.66666667  0.50000000  1
