# generated using pymatgen
data_LiAs4P2Se
_symmetry_space_group_name_H-M   'P 1'
_cell_length_a   4.81762924
_cell_length_b   4.97173451
_cell_length_c   6.52209515
_cell_angle_alpha   95.06834355
_cell_angle_beta   99.63800575
_cell_angle_gamma   106.98804309
_symmetry_Int_Tables_number   1
_chemical_formula_structural   LiAs4P2Se
_chemical_formula_sum   'Li1 As4 P2 Se1'
_cell_volume   145.72275338
_cell_formula_units_Z   1
loop_
 _symmetry_equiv_pos_site_id
 _symmetry_equiv_pos_as_xyz
  1  'x, y, z'
loop_
 _atom_site_type_symbol
 _atom_site_label
 _atom_site_symmetry_multiplicity
 _atom_site_fract_x
 _atom_site_fract_y
 _atom_site_fract_z
 _atom_site_occupancy
  Se  Se0  1  0.00000000  0.00000000  0.00000000  1
  P  P1  1  0.50000000  0.50000000  0.50000000  1
  P  P2  1  0.25000000  0.25000000  0.25000000  1
  As  As3  1  0.75000000  0.25000000  0.00000000  1
  As  As4  1  0.25000000  0.75000000  0.50000000  1
  As  As5  1  0.76991588  0.34784358  0.06297622  1
  As  As6  1  0.62689834  0.21037081  0.84601083  1
  Li  Li7  1  0.74115245  0.90761755  0.17228673  1
