# generated using pymatgen
data_LiF
_symmetry_space_group_name_H-M   'P 1'
_cell_length_a   9.63231108
_cell_length_b   9.63231108
_cell_length_c   9.63231108
_cell_angle_alpha   90.00000000
_cell_angle_beta   90.00000000
_cell_angle_gamma   90.00000000
_symmetry_Int_Tables_number   1
_chemical_formula_structural   LiF
_chemical_formula_sum   'Li40 F40'
_cell_volume   893.69946745
_cell_formula_units_Z   40
loop_
 _symmetry_equiv_pos_site_id
 _symmetry_equiv_pos_as_xyz
  1  'x, y, z'
loop_
 _atom_site_type_symbol
 _atom_site_label
 _atom_site_symmetry_multiplicity
 _atom_site_fract_x
 _atom_site_fract_y
 _atom_site_fract_z
 _atom_site_occupancy
  F  F0  1  0.12500000  0.77773248  1.02773248  1
  F  F1  1  0.37500000  -0.77773248  1.52773248  1
  F  F2  1  0.87500000  1.27773248  -0.52773248  1
  F  F3  1  0.62500000  -0.27773248  -0.02773248  1
  F  F4  1  1.02773248  0.12500000  0.77773248  1
  F  F5  1  1.52773248  0.37500000  -0.77773248  1
  F  F6  1  -0.52773248  0.87500000  1.27773248  1
  F  F7  1  -0.02773248  0.62500000  -0.27773248  1
  F  F8  1  0.77773248  1.02773248  0.12500000  1
  F  F9  1  -0.77773248  1.52773248  0.37500000  1
  F  F10  1  1.27773248  -0.52773248  0.87500000  1
  F  F11  1  -0.27773248  -0.02773248  0.62500000  1
  F  F12  1  0.62500000  1.27773248  1.52773248  1
  F  F13  1  0.87500000  -0.27773248  2.02773248  1
  F  F14  1  1.37500000  1.77773248  -0.02773248  1
  F  F15  1  1.12500000  0.22226752  0.47226752  1
  F  F16  1  1.52773248  0.62500000  1.27773248  1
  F  F17  1  2.02773248  0.87500000  -0.27773248  1
  F  F18  1  -0.02773248  1.37500000  1.77773248  1
  F  F19  1  0.47226752  1.12500000  0.22226752  1
  F  F20  1  1.27773248  1.52773248  0.62500000  1
  F  F21  1  -0.27773248  2.02773248  0.87500000  1
  F  F22  1  1.77773248  -0.02773248  1.37500000  1
  F  F23  1  0.22226752  0.47226752  1.12500000  1
  F  F24  1  0.08653677  0.08653677  0.08653677  1
  F  F25  1  0.41346323  0.91346323  0.58653677  1
  F  F26  1  0.91346323  0.58653677  0.41346323  1
  F  F27  1  0.58653677  0.41346323  0.91346323  1
  F  F28  1  0.83653677  0.33653677  0.16346323  1
  F  F29  1  0.66346323  0.66346323  0.66346323  1
  F  F30  1  0.33653677  0.16346323  0.83653677  1
  F  F31  1  0.16346323  0.83653677  0.33653677  1
  F  F32  1  0.58653677  0.58653677  0.58653677  1
  F  F33  1  0.91346323  0.41346323  0.08653677  1
  F  F34  1  0.41346323  0.08653677  0.91346323  1
  F  F35  1  0.08653677  0.91346323  0.41346323  1
  F  F36  1  0.33653677  0.83653677  0.66346323  1
  F  F37  1  0.16346323  0.16346323  0.16346323  1
  F  F38  1  0.83653677  0.66346323  0.33653677  1
  F  F39  1  0.66346323  0.33653677  0.83653677  1
  Li  Li40  1  0.42620066  0.42620066  0.42620066  1
  Li  Li41  1  0.07379934  0.57379934  0.92620066  1
  Li  Li42  1  0.57379934  0.92620066  0.07379934  1
  Li  Li43  1  0.92620066  0.07379934  0.57379934  1
  Li  Li44  1  0.17620066  0.67620066  0.82379934  1
  Li  Li45  1  0.32379934  0.32379934  0.32379934  1
  Li  Li46  1  0.67620066  0.82379934  0.17620066  1
  Li  Li47  1  0.82379934  0.17620066  0.67620066  1
  Li  Li48  1  0.92620066  0.92620066  0.92620066  1
  Li  Li49  1  0.57379934  0.07379934  0.42620066  1
  Li  Li50  1  0.07379934  0.42620066  0.57379934  1
  Li  Li51  1  0.42620066  0.57379934  0.07379934  1
  Li  Li52  1  0.67620066  0.17620066  0.32379934  1
  Li  Li53  1  0.82379934  0.82379934  0.82379934  1
  Li  Li54  1  0.17620066  0.32379934  0.67620066  1
  Li  Li55  1  0.32379934  0.67620066  0.17620066  1
  Li  Li56  1  0.62500000  0.00000000  0.25000000  1
  Li  Li57  1  0.87500000  0.00000000  0.75000000  1
  Li  Li58  1  0.25000000  0.62500000  0.00000000  1
  Li  Li59  1  0.75000000  0.87500000  0.00000000  1
  Li  Li60  1  0.00000000  0.25000000  0.62500000  1
  Li  Li61  1  0.00000000  0.75000000  0.87500000  1
  Li  Li62  1  0.12500000  0.50000000  0.75000000  1
  Li  Li63  1  0.37500000  0.50000000  0.25000000  1
  Li  Li64  1  0.75000000  0.12500000  0.50000000  1
  Li  Li65  1  0.25000000  0.37500000  0.50000000  1
  Li  Li66  1  0.50000000  0.75000000  0.12500000  1
  Li  Li67  1  0.50000000  0.25000000  0.37500000  1
  Li  Li68  1  0.12500000  0.00000000  0.25000000  1
  Li  Li69  1  0.37500000  0.00000000  0.75000000  1
  Li  Li70  1  0.25000000  0.12500000  0.00000000  1
  Li  Li71  1  0.75000000  0.37500000  0.00000000  1
  Li  Li72  1  0.00000000  0.25000000  0.12500000  1
  Li  Li73  1  0.00000000  0.75000000  0.37500000  1
  Li  Li74  1  0.62500000  0.50000000  0.75000000  1
  Li  Li75  1  0.87500000  0.50000000  0.25000000  1
  Li  Li76  1  0.75000000  0.62500000  0.50000000  1
  Li  Li77  1  0.25000000  0.87500000  0.50000000  1
  Li  Li78  1  0.50000000  0.75000000  0.62500000  1
  Li  Li79  1  0.50000000  0.25000000  0.87500000  1
