# generated using pymatgen
data_Li2Y2MoP3Se2
_symmetry_space_group_name_H-M   'P 1'
_cell_length_a   4.33168546
_cell_length_b   4.62576233
_cell_length_c   6.91015761
_cell_angle_alpha   95.94445222
_cell_angle_beta   102.94578110
_cell_angle_gamma   113.87650197
_symmetry_Int_Tables_number   1
_chemical_formula_structural   Li2Y2MoP3Se2
_chemical_formula_sum   'Li2 Y2 Mo1 P3 Se2'
_cell_volume   120.42682431
_cell_formula_units_Z   1
loop_
 _symmetry_equiv_pos_site_id
 _symmetry_equiv_pos_as_xyz
  1  'x, y, z'
loop_
 _atom_site_type_symbol
 _atom_site_label
 _atom_site_symmetry_multiplicity
 _atom_site_fract_x
 _atom_site_fract_y
 _atom_site_fract_z
 _atom_site_occupancy
  Se  Se0  1  0.12500000  0.00000000  0.25000000  1
  Se  Se1  1  0.00000000  0.00000000  0.00000000  1
  P  P2  1  0.37500000  0.00000000  0.25000000  1
  P  P3  1  0.25000000  0.25000000  0.25000000  1
  P  P4  1  0.00000000  0.25000000  0.12500000  1
  Mo  Mo5  1  0.44111428  0.08844187  0.40258729  1
  Li  Li6  1  0.61971165  0.83587791  0.32677856  1
  Li  Li7  1  0.45654723  0.54058124  0.96546956  1
  Y  Y8  1  0.01603188  0.75932509  0.55391747  1
  Y  Y9  1  0.88485068  0.11531911  0.54970985  1
