# generated using pymatgen
data_Li3Y2MoP3
_symmetry_space_group_name_H-M   'P 1'
_cell_length_a   5.72636209
_cell_length_b   5.75445970
_cell_length_c   7.27752678
_cell_angle_alpha   93.45475752
_cell_angle_beta   97.52374364
_cell_angle_gamma   103.87638788
_symmetry_Int_Tables_number   1
_chemical_formula_structural   Li3Y2MoP3
_chemical_formula_sum   'Li3 Y2 Mo1 P3'
_cell_volume   229.75770292
_cell_formula_units_Z   1
loop_
 _symmetry_equiv_pos_site_id
 _symmetry_equiv_pos_as_xyz
  1  'x, y, z'
loop_
 _atom_site_type_symbol
 _atom_site_label
 _atom_site_symmetry_multiplicity
 _atom_site_fract_x
 _atom_site_fract_y
 _atom_site_fract_z
 _atom_site_occupancy
  Y  Y0  1  0.12500000  0.00000000  0.25000000  1
  Y  Y1  1  0.00000000  0.00000000  0.00000000  1
  P  P2  1  0.37500000  0.00000000  0.25000000  1
  P  P3  1  0.25000000  0.25000000  0.25000000  1
  P  P4  1  0.00000000  0.25000000  0.12500000  1
  Mo  Mo5  1  0.84677182  0.82757271  0.45778985  1
  Li  Li6  1  0.19922482  0.96032621  0.73441027  1
  Li  Li7  1  0.09713508  0.92630548  0.49595351  1
  Li  Li8  1  0.98420946  0.92875184  0.98688717  1
