# generated using pymatgen
data_Li2Cu3P2Se
_symmetry_space_group_name_H-M   'P 1'
_cell_length_a   4.77192638
_cell_length_b   5.14242247
_cell_length_c   6.22143283
_cell_angle_alpha   93.56864984
_cell_angle_beta   96.12736192
_cell_angle_gamma   101.55020284
_symmetry_Int_Tables_number   1
_chemical_formula_structural   Li2Cu3P2Se
_chemical_formula_sum   'Li2 Cu3 P2 Se1'
_cell_volume   148.17434915
_cell_formula_units_Z   1
loop_
 _symmetry_equiv_pos_site_id
 _symmetry_equiv_pos_as_xyz
  1  'x, y, z'
loop_
 _atom_site_type_symbol
 _atom_site_label
 _atom_site_symmetry_multiplicity
 _atom_site_fract_x
 _atom_site_fract_y
 _atom_site_fract_z
 _atom_site_occupancy
  Se  Se0  1  0.12500000  0.12500000  0.12500000  1
  Cu  Cu1  1  0.50000000  0.50000000  0.50000000  1
  Cu  Cu2  1  0.25000000  0.25000000  0.25000000  1
  Cu  Cu3  1  0.75000000  0.75000000  0.75000000  1
  P  P4  1  0.95353612  0.25285849  0.99933051  1
  P  P5  1  0.87538406  0.84912048  0.83449028  1
  Li  Li6  1  0.17580476  0.40256127  0.33838699  1
  Li  Li7  1  0.94302611  0.31873962  0.70961734  1
