# generated using pymatgen
data_Li2La5YTiF2
_symmetry_space_group_name_H-M   'P 1'
_cell_length_a   8.20682627
_cell_length_b   7.56623051
_cell_length_c   8.83967054
_cell_angle_alpha   95.63299005
_cell_angle_beta   96.49812977
_cell_angle_gamma   98.67528856
_symmetry_Int_Tables_number   1
_chemical_formula_structural   Li2La5YTiF2
_chemical_formula_sum   'Li2 La5 Y1 Ti1 F2'
_cell_volume   535.40839002
_cell_formula_units_Z   1
loop_
 _symmetry_equiv_pos_site_id
 _symmetry_equiv_pos_as_xyz
  1  'x, y, z'
loop_
 _atom_site_type_symbol
 _atom_site_label
 _atom_site_symmetry_multiplicity
 _atom_site_fract_x
 _atom_site_fract_y
 _atom_site_fract_z
 _atom_site_occupancy
  La  La0  1  0.00000000  0.00000000  0.00000000  1
  La  La1  1  0.50000000  0.50000000  0.50000000  1
  La  La2  1  0.25000000  0.25000000  0.25000000  1
  La  La3  1  0.75000000  0.25000000  0.00000000  1
  La  La4  1  0.25000000  0.75000000  0.50000000  1
  F  F5  1  0.29280691  0.66685996  0.42302046  1
  F  F6  1  0.39630686  0.57011634  0.66632014  1
  Y  Y7  1  0.09512263  0.76448241  0.03288513  1
  Ti  Ti8  1  0.88124529  0.58411225  0.97366895  1
  Li  Li9  1  0.32593080  0.35439784  0.27997432  1
  Li  Li10  1  0.73282022  0.16616419  0.49240587  1
