# generated using pymatgen
data_LiF
_symmetry_space_group_name_H-M   'P 1'
_cell_length_a   19.09364225
_cell_length_b   19.09364225
_cell_length_c   4.69703171
_cell_angle_alpha   90.00000000
_cell_angle_beta   90.00000000
_cell_angle_gamma   120.00000000
_symmetry_Int_Tables_number   1
_chemical_formula_structural   LiF
_chemical_formula_sum   'Li42 F42'
_cell_volume   1482.96767943
_cell_formula_units_Z   42
loop_
 _symmetry_equiv_pos_site_id
 _symmetry_equiv_pos_as_xyz
  1  'x, y, z'
loop_
 _atom_site_type_symbol
 _atom_site_label
 _atom_site_symmetry_multiplicity
 _atom_site_fract_x
 _atom_site_fract_y
 _atom_site_fract_z
 _atom_site_occupancy
  F  F0  1  0.34569664  0.23389584  0.25409584  1
  F  F1  1  -0.23389584  0.11180080  0.25409584  1
  F  F2  1  -0.11180080  -0.34569664  0.25409584  1
  F  F3  1  0.23389584  0.34569664  0.24590416  1
  F  F4  1  0.11180080  -0.23389584  0.24590416  1
  F  F5  1  -0.34569664  -0.11180080  0.24590416  1
  F  F6  1  -0.34569664  -0.23389584  -0.25409584  1
  F  F7  1  0.23389584  -0.11180080  -0.25409584  1
  F  F8  1  0.11180080  0.34569664  -0.25409584  1
  F  F9  1  -0.23389584  -0.34569664  0.75409584  1
  F  F10  1  -0.11180080  0.23389584  0.75409584  1
  F  F11  1  0.34569664  0.11180080  0.75409584  1
  F  F12  1  1.01236331  0.56722917  0.58742917  1
  F  F13  1  0.43277083  0.44513413  0.58742917  1
  F  F14  1  0.55486587  -0.01236331  0.58742917  1
  F  F15  1  0.90056251  0.67902997  0.57923750  1
  F  F16  1  0.77846747  0.09943749  0.57923750  1
  F  F17  1  0.32097003  0.22153253  0.57923750  1
  F  F18  1  0.32097003  0.09943749  0.07923750  1
  F  F19  1  0.90056251  0.22153253  0.07923750  1
  F  F20  1  0.77846747  0.67902997  0.07923750  1
  F  F21  1  0.43277083  -0.01236331  1.08742917  1
  F  F22  1  0.55486587  0.56722917  1.08742917  1
  F  F23  1  1.01236331  0.44513413  1.08742917  1
  F  F24  1  0.67902997  0.90056251  0.92076250  1
  F  F25  1  0.09943749  0.77846747  0.92076250  1
  F  F26  1  0.22153253  0.32097003  0.92076250  1
  F  F27  1  0.56722917  1.01236331  0.91257083  1
  F  F28  1  0.44513413  0.43277083  0.91257083  1
  F  F29  1  -0.01236331  0.55486587  0.91257083  1
  F  F30  1  -0.01236331  0.43277083  0.41257083  1
  F  F31  1  0.56722917  0.55486587  0.41257083  1
  F  F32  1  0.44513413  1.01236331  0.41257083  1
  F  F33  1  0.09943749  0.32097003  1.42076250  1
  F  F34  1  0.22153253  0.90056251  1.42076250  1
  F  F35  1  0.67902997  0.77846747  1.42076250  1
  F  F36  1  0.00000000  0.00000000  0.00000000  1
  F  F37  1  0.00000000  0.00000000  0.50000000  1
  F  F38  1  0.66666667  0.33333333  0.33333333  1
  F  F39  1  0.66666667  0.33333333  0.83333333  1
  F  F40  1  0.33333333  0.66666667  0.66666667  1
  F  F41  1  0.33333333  0.66666667  0.16666667  1
  Li  Li42  1  0.00000000  0.00000000  0.25000000  1
  Li  Li43  1  0.00000000  0.00000000  0.75000000  1
  Li  Li44  1  0.66666667  0.33333333  0.58333333  1
  Li  Li45  1  0.66666667  0.33333333  0.08333333  1
  Li  Li46  1  0.33333333  0.66666667  0.91666667  1
  Li  Li47  1  0.33333333  0.66666667  0.41666667  1
  Li  Li48  1  0.50000000  0.00000000  0.00000000  1
  Li  Li49  1  0.00000000  0.50000000  0.00000000  1
  Li  Li50  1  0.50000000  0.50000000  0.00000000  1
  Li  Li51  1  0.00000000  0.50000000  0.50000000  1
  Li  Li52  1  0.50000000  0.00000000  0.50000000  1
  Li  Li53  1  0.50000000  0.50000000  0.50000000  1
  Li  Li54  1  0.16666667  0.33333333  0.33333333  1
  Li  Li55  1  0.66666667  0.83333333  0.33333333  1
  Li  Li56  1  0.16666667  0.83333333  0.33333333  1
  Li  Li57  1  0.66666667  0.83333333  0.83333333  1
  Li  Li58  1  0.16666667  0.33333333  0.83333333  1
  Li  Li59  1  0.16666667  0.83333333  0.83333333  1
  Li  Li60  1  0.83333333  0.66666667  0.66666667  1
  Li  Li61  1  0.33333333  0.16666667  0.66666667  1
  Li  Li62  1  0.83333333  0.16666667  0.66666667  1
  Li  Li63  1  0.33333333  0.16666667  0.16666667  1
  Li  Li64  1  0.83333333  0.66666667  0.16666667  1
  Li  Li65  1  0.83333333  0.16666667  0.16666667  1
  Li  Li66  1  0.58559355  -0.00000000  0.25000000  1
  Li  Li67  1  0.00000000  0.58559355  0.25000000  1
  Li  Li68  1  0.41440645  0.41440645  0.25000000  1
  Li  Li69  1  0.41440645  0.00000000  0.75000000  1
  Li  Li70  1  0.00000000  0.41440645  0.75000000  1
  Li  Li71  1  0.58559355  0.58559355  0.75000000  1
  Li  Li72  1  0.25226022  0.33333333  0.58333333  1
  Li  Li73  1  0.66666667  0.91892688  0.58333333  1
  Li  Li74  1  0.08107312  0.74773978  0.58333333  1
  Li  Li75  1  0.08107312  0.33333333  0.08333333  1
  Li  Li76  1  0.66666667  0.74773978  0.08333333  1
  Li  Li77  1  0.25226022  0.91892688  0.08333333  1
  Li  Li78  1  0.91892688  0.66666667  0.91666667  1
  Li  Li79  1  0.33333333  0.25226022  0.91666667  1
  Li  Li80  1  0.74773978  0.08107312  0.91666667  1
  Li  Li81  1  0.74773978  0.66666667  0.41666667  1
  Li  Li82  1  0.33333333  0.08107312  0.41666667  1
  Li  Li83  1  0.91892688  0.25226022  0.41666667  1
