# generated using pymatgen
data_LiY2Te4P2Se
_symmetry_space_group_name_H-M   'P 1'
_cell_length_a   4.71308959
_cell_length_b   4.87191102
_cell_length_c   6.69988994
_cell_angle_alpha   95.01708589
_cell_angle_beta   99.87200667
_cell_angle_gamma   108.49843287
_symmetry_Int_Tables_number   1
_chemical_formula_structural   LiY2Te4P2Se
_chemical_formula_sum   'Li1 Y2 Te4 P2 Se1'
_cell_volume   142.06614641
_cell_formula_units_Z   1
loop_
 _symmetry_equiv_pos_site_id
 _symmetry_equiv_pos_as_xyz
  1  'x, y, z'
loop_
 _atom_site_type_symbol
 _atom_site_label
 _atom_site_symmetry_multiplicity
 _atom_site_fract_x
 _atom_site_fract_y
 _atom_site_fract_z
 _atom_site_occupancy
  Se  Se0  1  0.00000000  0.00000000  0.00000000  1
  Te  Te1  1  0.50000000  0.50000000  0.50000000  1
  Te  Te2  1  0.50000000  0.50000000  0.00000000  1
  Te  Te3  1  0.50000000  0.00000000  0.50000000  1
  Te  Te4  1  0.00000000  0.50000000  0.50000000  1
  P  P5  1  0.08360246  0.60505586  0.32262209  1
  P  P6  1  0.80181712  0.69063490  0.64386703  1
  Li  Li7  1  0.98797283  0.59103566  0.15945380  1
  Y  Y8  1  0.12334897  0.85686163  0.76621715  1
  Y  Y9  1  0.84072435  0.71613691  0.68284081  1
