# generated using pymatgen
data_Li2Y2P3Se2
_symmetry_space_group_name_H-M   'P 1'
_cell_length_a   4.47462074
_cell_length_b   4.68831947
_cell_length_c   6.88964808
_cell_angle_alpha   95.65000061
_cell_angle_beta   102.30452671
_cell_angle_gamma   112.69380689
_symmetry_Int_Tables_number   1
_chemical_formula_structural   Li2Y2P3Se2
_chemical_formula_sum   'Li2 Y2 P3 Se2'
_cell_volume   127.63739930
_cell_formula_units_Z   1
loop_
 _symmetry_equiv_pos_site_id
 _symmetry_equiv_pos_as_xyz
  1  'x, y, z'
loop_
 _atom_site_type_symbol
 _atom_site_label
 _atom_site_symmetry_multiplicity
 _atom_site_fract_x
 _atom_site_fract_y
 _atom_site_fract_z
 _atom_site_occupancy
  P  P0  1  0.12500000  0.00000000  0.25000000  1
  P  P1  1  0.00000000  0.00000000  0.00000000  1
  P  P2  1  0.37500000  0.00000000  0.25000000  1
  Se  Se3  1  0.25000000  0.25000000  0.25000000  1
  Se  Se4  1  0.00000000  0.25000000  0.12500000  1
  Li  Li5  1  0.13856870  0.58813793  0.73762149  1
  Li  Li6  1  0.62519316  0.17452544  0.03549925  1
  Y  Y7  1  0.22106410  0.54051853  0.88201599  1
  Y  Y8  1  0.54326221  0.64564930  0.09566439  1
