# generated using pymatgen
data_LiF
_symmetry_space_group_name_H-M   'P 1'
_cell_length_a   10.49604245
_cell_length_b   10.49604245
_cell_length_c   8.48241255
_cell_angle_alpha   90.00000000
_cell_angle_beta   90.00000000
_cell_angle_gamma   90.00000000
_symmetry_Int_Tables_number   1
_chemical_formula_structural   LiF
_chemical_formula_sum   'Li33 F33'
_cell_volume   934.48115517
_cell_formula_units_Z   33
loop_
 _symmetry_equiv_pos_site_id
 _symmetry_equiv_pos_as_xyz
  1  'x, y, z'
loop_
 _atom_site_type_symbol
 _atom_site_label
 _atom_site_symmetry_multiplicity
 _atom_site_fract_x
 _atom_site_fract_y
 _atom_site_fract_z
 _atom_site_occupancy
  F  F0  1  0.87543536  0.87543536  0.10933033  1
  F  F1  1  0.12456464  0.12456464  0.10933033  1
  F  F2  1  0.12456464  0.87543536  0.10933033  1
  F  F3  1  0.87543536  0.12456464  0.10933033  1
  F  F4  1  0.12456464  0.87543536  0.89066967  1
  F  F5  1  0.87543536  0.12456464  0.89066967  1
  F  F6  1  0.87543536  0.87543536  0.89066967  1
  F  F7  1  0.12456464  0.12456464  0.89066967  1
  F  F8  1  0.24225132  0.03067438  0.89768897  1
  F  F9  1  0.75774868  0.96932562  0.89768897  1
  F  F10  1  0.96932562  0.24225132  0.89768897  1
  F  F11  1  0.03067438  0.75774868  0.89768897  1
  F  F12  1  0.75774868  0.03067438  0.10231103  1
  F  F13  1  0.24225132  0.96932562  0.10231103  1
  F  F14  1  0.03067438  0.24225132  0.10231103  1
  F  F15  1  0.96932562  0.75774868  0.10231103  1
  F  F16  1  0.75774868  0.96932562  0.10231103  1
  F  F17  1  0.24225132  0.03067438  0.10231103  1
  F  F18  1  0.03067438  0.75774868  0.10231103  1
  F  F19  1  0.96932562  0.24225132  0.10231103  1
  F  F20  1  0.24225132  0.96932562  0.89768897  1
  F  F21  1  0.75774868  0.03067438  0.89768897  1
  F  F22  1  0.96932562  0.75774868  0.89768897  1
  F  F23  1  0.03067438  0.24225132  0.89768897  1
  F  F24  1  0.73882344  0.50000000  0.00000000  1
  F  F25  1  0.26117656  0.50000000  0.00000000  1
  F  F26  1  0.50000000  0.73882344  0.00000000  1
  F  F27  1  0.50000000  0.26117656  0.00000000  1
  F  F28  1  0.50000000  0.50000000  0.00000000  1
  F  F29  1  0.50000000  0.50000000  0.75238497  1
  F  F30  1  0.50000000  0.50000000  0.24761503  1
  F  F31  1  0.00000000  0.00000000  0.08235853  1
  F  F32  1  0.00000000  0.00000000  0.91764147  1
  Li  Li33  1  0.00000000  0.50000000  0.50000000  1
  Li  Li34  1  0.50000000  0.00000000  0.50000000  1
  Li  Li35  1  0.41337053  0.68239230  0.65817779  1
  Li  Li36  1  -0.41337053  -0.68239230  0.65817779  1
  Li  Li37  1  -0.68239230  0.41337053  0.65817779  1
  Li  Li38  1  0.68239230  -0.41337053  0.65817779  1
  Li  Li39  1  -0.41337053  0.68239230  -0.65817779  1
  Li  Li40  1  0.41337053  -0.68239230  -0.65817779  1
  Li  Li41  1  0.68239230  0.41337053  -0.65817779  1
  Li  Li42  1  -0.68239230  -0.41337053  -0.65817779  1
  Li  Li43  1  -0.41337053  -0.68239230  -0.65817779  1
  Li  Li44  1  0.41337053  0.68239230  -0.65817779  1
  Li  Li45  1  0.68239230  -0.41337053  -0.65817779  1
  Li  Li46  1  -0.68239230  0.41337053  -0.65817779  1
  Li  Li47  1  0.41337053  -0.68239230  0.65817779  1
  Li  Li48  1  -0.41337053  0.68239230  0.65817779  1
  Li  Li49  1  -0.68239230  -0.41337053  0.65817779  1
  Li  Li50  1  0.68239230  0.41337053  0.65817779  1
  Li  Li51  1  0.14410156  0.14410156  0.50000000  1
  Li  Li52  1  0.85589844  0.85589844  0.50000000  1
  Li  Li53  1  0.85589844  0.14410156  0.50000000  1
  Li  Li54  1  0.14410156  0.85589844  0.50000000  1
  Li  Li55  1  0.31723142  0.13305285  0.50000000  1
  Li  Li56  1  0.68276858  0.86694715  0.50000000  1
  Li  Li57  1  0.86694715  0.31723142  0.50000000  1
  Li  Li58  1  0.13305285  0.68276858  0.50000000  1
  Li  Li59  1  0.68276858  0.13305285  0.50000000  1
  Li  Li60  1  0.31723142  0.86694715  0.50000000  1
  Li  Li61  1  0.13305285  0.31723142  0.50000000  1
  Li  Li62  1  0.86694715  0.68276858  0.50000000  1
  Li  Li63  1  0.00000000  0.50000000  0.00000000  1
  Li  Li64  1  0.50000000  0.00000000  0.00000000  1
  Li  Li65  1  0.50000000  0.50000000  0.50000000  1
