# generated using pymatgen
data_Li2Y2As(P2Se)2
_symmetry_space_group_name_H-M   'P 1'
_cell_length_a   3.81007477
_cell_length_b   4.12014524
_cell_length_c   6.61310456
_cell_angle_alpha   96.84268526
_cell_angle_beta   104.36043438
_cell_angle_gamma   114.85277648
_symmetry_Int_Tables_number   1
_chemical_formula_structural   Li2Y2As(P2Se)2
_chemical_formula_sum   'Li2 Y2 As1 P4 Se2'
_cell_volume   88.25986138
_cell_formula_units_Z   1
loop_
 _symmetry_equiv_pos_site_id
 _symmetry_equiv_pos_as_xyz
  1  'x, y, z'
loop_
 _atom_site_type_symbol
 _atom_site_label
 _atom_site_symmetry_multiplicity
 _atom_site_fract_x
 _atom_site_fract_y
 _atom_site_fract_z
 _atom_site_occupancy
  Se  Se0  1  0.12500000  0.00000000  0.25000000  1
  Se  Se1  1  0.00000000  0.00000000  0.00000000  1
  P  P2  1  0.37500000  0.00000000  0.25000000  1
  P  P3  1  0.25000000  0.25000000  0.25000000  1
  P  P4  1  0.00000000  0.25000000  0.12500000  1
  P  P5  1  0.74821185  0.45972694  0.02032624  1
  As  As6  1  0.19961191  0.61900990  0.12353769  1
  Li  Li7  1  0.19862510  0.63901888  0.24138013  1
  Li  Li8  1  0.50480089  0.70856990  0.63878266  1
  Y  Y9  1  0.62588707  0.24689262  0.63839986  1
  Y  Y10  1  0.47118241  0.04298046  0.66073748  1
