# generated using pymatgen
data_LiAl3Sb2P2F6
_symmetry_space_group_name_H-M   'P 1'
_cell_length_a   5.36348053
_cell_length_b   5.11643090
_cell_length_c   6.04053871
_cell_angle_alpha   93.05588793
_cell_angle_beta   92.12237768
_cell_angle_gamma   95.16579693
_symmetry_Int_Tables_number   1
_chemical_formula_structural   LiAl3Sb2P2F6
_chemical_formula_sum   'Li1 Al3 Sb2 P2 F6'
_cell_volume   164.70977462
_cell_formula_units_Z   1
loop_
 _symmetry_equiv_pos_site_id
 _symmetry_equiv_pos_as_xyz
  1  'x, y, z'
loop_
 _atom_site_type_symbol
 _atom_site_label
 _atom_site_symmetry_multiplicity
 _atom_site_fract_x
 _atom_site_fract_y
 _atom_site_fract_z
 _atom_site_occupancy
  Al  Al0  1  0.12500000  0.00000000  0.25000000  1
  Al  Al1  1  0.00000000  0.00000000  0.00000000  1
  Al  Al2  1  0.37500000  0.00000000  0.25000000  1
  F  F3  1  0.25000000  0.25000000  0.25000000  1
  F  F4  1  0.00000000  0.25000000  0.12500000  1
  F  F5  1  0.95021150  0.30651502  0.77853527  1
  F  F6  1  0.14838258  0.57284928  0.76613138  1
  F  F7  1  0.91661290  0.68177819  0.59890997  1
  F  F8  1  0.49374188  0.03201231  0.84945585  1
  P  P9  1  0.23657942  0.12512984  0.97205234  1
  P  P10  1  0.30250068  0.66171731  0.32643911  1
  Li  Li11  1  0.02174629  0.71895568  0.09697456  1
  Sb  Sb12  1  0.69608967  0.68900384  0.95326720  1
  Sb  Sb13  1  0.37988712  0.33397819  0.96901554  1
