# generated using pymatgen
data_LiF
_symmetry_space_group_name_H-M   'P 1'
_cell_length_a   3.57244121
_cell_length_b   9.07306797
_cell_length_c   4.55634206
_cell_angle_alpha   90.00000000
_cell_angle_beta   90.00000000
_cell_angle_gamma   90.00000000
_symmetry_Int_Tables_number   1
_chemical_formula_structural   LiF
_chemical_formula_sum   'Li10 F10'
_cell_volume   147.68472390
_cell_formula_units_Z   10
loop_
 _symmetry_equiv_pos_site_id
 _symmetry_equiv_pos_as_xyz
  1  'x, y, z'
loop_
 _atom_site_type_symbol
 _atom_site_label
 _atom_site_symmetry_multiplicity
 _atom_site_fract_x
 _atom_site_fract_y
 _atom_site_fract_z
 _atom_site_occupancy
  F  F0  1  0.40162086  0.63938522  0.27555994  1
  F  F1  1  -0.40162086  -0.63938522  0.27555994  1
  F  F2  1  0.09837914  1.13938522  -0.27555994  1
  F  F3  1  0.90162086  -0.13938522  -0.27555994  1
  F  F4  1  -0.40162086  -0.63938522  -0.27555994  1
  F  F5  1  0.40162086  0.63938522  -0.27555994  1
  F  F6  1  0.90162086  -0.13938522  0.27555994  1
  F  F7  1  0.09837914  1.13938522  0.27555994  1
  F  F8  1  0.00000000  0.00000000  0.00000000  1
  F  F9  1  0.50000000  0.50000000  0.00000000  1
  Li  Li10  1  0.00000000  0.50000000  0.00000000  1
  Li  Li11  1  0.50000000  0.00000000  0.00000000  1
  Li  Li12  1  0.76798951  0.31242715  0.50000000  1
  Li  Li13  1  0.23201049  0.68757285  0.50000000  1
  Li  Li14  1  0.73201049  0.81242715  0.50000000  1
  Li  Li15  1  0.26798951  0.18757285  0.50000000  1
  Li  Li16  1  0.00000000  0.00000000  0.21173230  1
  Li  Li17  1  0.50000000  0.50000000  0.78826770  1
  Li  Li18  1  0.00000000  0.00000000  0.78826770  1
  Li  Li19  1  0.50000000  0.50000000  0.21173230  1
