# generated using pymatgen
data_LiY2Cu3(As2P)2
_symmetry_space_group_name_H-M   'P 1'
_cell_length_a   4.34598044
_cell_length_b   4.50975107
_cell_length_c   6.71260754
_cell_angle_alpha   95.81273167
_cell_angle_beta   102.38516106
_cell_angle_gamma   112.91810465
_symmetry_Int_Tables_number   1
_chemical_formula_structural   LiY2Cu3(As2P)2
_chemical_formula_sum   'Li1 Y2 Cu3 As4 P2'
_cell_volume   115.83302067
_cell_formula_units_Z   1
loop_
 _symmetry_equiv_pos_site_id
 _symmetry_equiv_pos_as_xyz
  1  'x, y, z'
loop_
 _atom_site_type_symbol
 _atom_site_label
 _atom_site_symmetry_multiplicity
 _atom_site_fract_x
 _atom_site_fract_y
 _atom_site_fract_z
 _atom_site_occupancy
  Cu  Cu0  1  0.00000000  0.00000000  0.00000000  1
  Cu  Cu1  1  0.50000000  0.50000000  0.50000000  1
  Cu  Cu2  1  0.50000000  0.50000000  0.00000000  1
  P  P3  1  0.50000000  0.00000000  0.50000000  1
  P  P4  1  0.00000000  0.50000000  0.50000000  1
  As  As5  1  0.24124086  0.12079887  0.19933431  1
  As  As6  1  0.96948097  0.12053134  0.71791956  1
  As  As7  1  0.12515406  0.37117030  0.02188151  1
  As  As8  1  0.50143760  0.37608176  0.44475691  1
  Li  Li9  1  0.36481621  0.75294730  0.64573819  1
  Y  Y10  1  0.74958728  0.60306566  0.23195470  1
  Y  Y11  1  0.59726127  0.57769346  0.97747846  1
