# generated using pymatgen
data_Li2Y2As2P3Se
_symmetry_space_group_name_H-M   'P 1'
_cell_length_a   4.95600651
_cell_length_b   4.97597187
_cell_length_c   7.18157838
_cell_angle_alpha   94.89006605
_cell_angle_beta   100.64954723
_cell_angle_gamma   109.64145181
_symmetry_Int_Tables_number   1
_chemical_formula_structural   Li2Y2As2P3Se
_chemical_formula_sum   'Li2 Y2 As2 P3 Se1'
_cell_volume   161.83577173
_cell_formula_units_Z   1
loop_
 _symmetry_equiv_pos_site_id
 _symmetry_equiv_pos_as_xyz
  1  'x, y, z'
loop_
 _atom_site_type_symbol
 _atom_site_label
 _atom_site_symmetry_multiplicity
 _atom_site_fract_x
 _atom_site_fract_y
 _atom_site_fract_z
 _atom_site_occupancy
  Se  Se0  1  0.12500000  0.00000000  0.25000000  1
  P  P1  1  0.00000000  0.00000000  0.00000000  1
  P  P2  1  0.37500000  0.00000000  0.25000000  1
  P  P3  1  0.25000000  0.25000000  0.25000000  1
  As  As4  1  0.00000000  0.25000000  0.12500000  1
  As  As5  1  0.88025888  0.67770216  0.41708737  1
  Li  Li6  1  0.97277499  0.11738879  0.22296164  1
  Li  Li7  1  0.61811025  0.23597896  0.30483842  1
  Y  Y8  1  0.89437255  0.82199358  0.36470887  1
  Y  Y9  1  0.52281081  0.80563096  0.08225247  1
