# generated using pymatgen
data_Li4TeF2
_symmetry_space_group_name_H-M   'P 1'
_cell_length_a   15.86245404
_cell_length_b   15.86245404
_cell_length_c   13.67296697
_cell_angle_alpha   90.00000000
_cell_angle_beta   90.00000000
_cell_angle_gamma   90.00000000
_symmetry_Int_Tables_number   1
_chemical_formula_structural   Li4TeF2
_chemical_formula_sum   'Li96 Te24 F48'
_cell_volume   3440.35705604
_cell_formula_units_Z   24
loop_
 _symmetry_equiv_pos_site_id
 _symmetry_equiv_pos_as_xyz
  1  'x, y, z'
loop_
 _atom_site_type_symbol
 _atom_site_label
 _atom_site_symmetry_multiplicity
 _atom_site_fract_x
 _atom_site_fract_y
 _atom_site_fract_z
 _atom_site_occupancy
  F  F0  1  0.20398276  0.50000000  0.50000000  1
  F  F1  1  0.79601724  0.50000000  0.50000000  1
  F  F2  1  0.50000000  0.20398276  0.50000000  1
  F  F3  1  0.50000000  0.79601724  0.50000000  1
  F  F4  1  0.00000000  0.50000000  0.50000000  1
  F  F5  1  0.50000000  0.00000000  0.50000000  1
  F  F6  1  0.77302088  0.50000000  -0.00000000  1
  F  F7  1  0.22697912  0.50000000  0.00000000  1
  F  F8  1  0.50000000  0.77302088  0.00000000  1
  F  F9  1  0.50000000  0.22697912  0.00000000  1
  F  F10  1  0.86502077  0.44839136  0.20797193  1
  F  F11  1  -0.86502077  -0.44839136  0.20797193  1
  F  F12  1  -0.44839136  0.86502077  0.20797193  1
  F  F13  1  0.44839136  -0.86502077  0.20797193  1
  F  F14  1  -0.86502077  0.44839136  -0.20797193  1
  F  F15  1  0.86502077  -0.44839136  -0.20797193  1
  F  F16  1  0.44839136  0.86502077  -0.20797193  1
  F  F17  1  -0.44839136  -0.86502077  -0.20797193  1
  F  F18  1  -0.86502077  -0.44839136  -0.20797193  1
  F  F19  1  0.86502077  0.44839136  -0.20797193  1
  F  F20  1  0.44839136  -0.86502077  -0.20797193  1
  F  F21  1  -0.44839136  0.86502077  -0.20797193  1
  F  F22  1  0.86502077  -0.44839136  0.20797193  1
  F  F23  1  -0.86502077  0.44839136  0.20797193  1
  F  F24  1  -0.44839136  -0.86502077  0.20797193  1
  F  F25  1  0.44839136  0.86502077  0.20797193  1
  F  F26  1  0.29330993  0.50000000  0.73862795  1
  F  F27  1  0.70669007  0.50000000  0.73862795  1
  F  F28  1  0.50000000  0.29330993  0.73862795  1
  F  F29  1  0.50000000  0.70669007  0.73862795  1
  F  F30  1  0.70669007  0.50000000  0.26137205  1
  F  F31  1  0.29330993  0.50000000  0.26137205  1
  F  F32  1  0.50000000  0.29330993  0.26137205  1
  F  F33  1  0.50000000  0.70669007  0.26137205  1
  F  F34  1  0.23337703  0.50000000  0.85681868  1
  F  F35  1  0.76662297  0.50000000  0.85681868  1
  F  F36  1  0.50000000  0.23337703  0.85681868  1
  F  F37  1  0.50000000  0.76662297  0.85681868  1
  F  F38  1  0.76662297  0.50000000  0.14318132  1
  F  F39  1  0.23337703  0.50000000  0.14318132  1
  F  F40  1  0.50000000  0.23337703  0.14318132  1
  F  F41  1  0.50000000  0.76662297  0.14318132  1
  F  F42  1  0.97005688  0.00000000  0.00000000  1
  F  F43  1  0.02994312  0.00000000  0.00000000  1
  F  F44  1  0.00000000  0.97005688  0.00000000  1
  F  F45  1  0.00000000  0.02994312  0.00000000  1
  F  F46  1  0.50000000  0.50000000  -0.00000000  1
  F  F47  1  0.50000000  0.50000000  0.50000000  1
  Li  Li48  1  0.91189391  0.27471246  0.50000000  1
  Li  Li49  1  0.08810609  0.72528754  0.50000000  1
  Li  Li50  1  0.72528754  0.91189391  0.50000000  1
  Li  Li51  1  0.27471246  0.08810609  0.50000000  1
  Li  Li52  1  0.08810609  0.27471246  0.50000000  1
  Li  Li53  1  0.91189391  0.72528754  0.50000000  1
  Li  Li54  1  0.27471246  0.91189391  0.50000000  1
  Li  Li55  1  0.72528754  0.08810609  0.50000000  1
  Li  Li56  1  0.42549809  0.35200833  0.39792238  1
  Li  Li57  1  0.57450191  0.64799167  0.39792238  1
  Li  Li58  1  0.64799167  0.42549809  0.39792238  1
  Li  Li59  1  0.35200833  0.57450191  0.39792238  1
  Li  Li60  1  0.57450191  0.35200833  0.60207762  1
  Li  Li61  1  0.42549809  0.64799167  0.60207762  1
  Li  Li62  1  0.35200833  0.42549809  0.60207762  1
  Li  Li63  1  0.64799167  0.57450191  0.60207762  1
  Li  Li64  1  0.57450191  0.64799167  0.60207762  1
  Li  Li65  1  0.42549809  0.35200833  0.60207762  1
  Li  Li66  1  0.35200833  0.57450191  0.60207762  1
  Li  Li67  1  0.64799167  0.42549809  0.60207762  1
  Li  Li68  1  0.42549809  0.64799167  0.39792238  1
  Li  Li69  1  0.57450191  0.35200833  0.39792238  1
  Li  Li70  1  0.64799167  0.57450191  0.39792238  1
  Li  Li71  1  0.35200833  0.42549809  0.39792238  1
  Li  Li72  1  0.58111990  0.95501687  0.30506044  1
  Li  Li73  1  0.41888010  0.04498313  0.30506044  1
  Li  Li74  1  0.04498313  0.58111990  0.30506044  1
  Li  Li75  1  0.95501687  0.41888010  0.30506044  1
  Li  Li76  1  0.41888010  0.95501687  0.69493956  1
  Li  Li77  1  0.58111990  0.04498313  0.69493956  1
  Li  Li78  1  0.95501687  0.58111990  0.69493956  1
  Li  Li79  1  0.04498313  0.41888010  0.69493956  1
  Li  Li80  1  0.41888010  0.04498313  0.69493956  1
  Li  Li81  1  0.58111990  0.95501687  0.69493956  1
  Li  Li82  1  0.95501687  0.41888010  0.69493956  1
  Li  Li83  1  0.04498313  0.58111990  0.69493956  1
  Li  Li84  1  0.58111990  0.04498313  0.30506044  1
  Li  Li85  1  0.41888010  0.95501687  0.30506044  1
  Li  Li86  1  0.04498313  0.41888010  0.30506044  1
  Li  Li87  1  0.95501687  0.58111990  0.30506044  1
  Li  Li88  1  0.41270077  0.50000000  0.59341071  1
  Li  Li89  1  0.58729923  0.50000000  0.59341071  1
  Li  Li90  1  0.50000000  0.41270077  0.59341071  1
  Li  Li91  1  0.50000000  0.58729923  0.59341071  1
  Li  Li92  1  0.58729923  0.50000000  0.40658929  1
  Li  Li93  1  0.41270077  0.50000000  0.40658929  1
  Li  Li94  1  0.50000000  0.41270077  0.40658929  1
  Li  Li95  1  0.50000000  0.58729923  0.40658929  1
  Li  Li96  1  0.17209533  0.50000000  0.28064832  1
  Li  Li97  1  0.82790467  0.50000000  0.28064832  1
  Li  Li98  1  0.50000000  0.17209533  0.28064832  1
  Li  Li99  1  0.50000000  0.82790467  0.28064832  1
  Li  Li100  1  0.82790467  0.50000000  0.71935168  1
  Li  Li101  1  0.17209533  0.50000000  0.71935168  1
  Li  Li102  1  0.50000000  0.17209533  0.71935168  1
  Li  Li103  1  0.50000000  0.82790467  0.71935168  1
  Li  Li104  1  0.64960014  0.00000000  0.40805273  1
  Li  Li105  1  0.35039986  0.00000000  0.40805273  1
  Li  Li106  1  0.00000000  0.64960014  0.40805273  1
  Li  Li107  1  0.00000000  0.35039986  0.40805273  1
  Li  Li108  1  0.35039986  0.00000000  0.59194727  1
  Li  Li109  1  0.64960014  0.00000000  0.59194727  1
  Li  Li110  1  0.00000000  0.64960014  0.59194727  1
  Li  Li111  1  0.00000000  0.35039986  0.59194727  1
  Li  Li112  1  0.00000000  0.50000000  0.34394037  1
  Li  Li113  1  0.50000000  0.00000000  0.34394037  1
  Li  Li114  1  0.00000000  0.50000000  0.65605963  1
  Li  Li115  1  0.50000000  0.00000000  0.65605963  1
  Li  Li116  1  0.59494533  0.59494533  0.15906416  1
  Li  Li117  1  0.40505467  0.40505467  0.15906416  1
  Li  Li118  1  0.40505467  0.59494533  0.15906416  1
  Li  Li119  1  0.59494533  0.40505467  0.15906416  1
  Li  Li120  1  0.40505467  0.59494533  0.84093584  1
  Li  Li121  1  0.59494533  0.40505467  0.84093584  1
  Li  Li122  1  0.59494533  0.59494533  0.84093584  1
  Li  Li123  1  0.40505467  0.40505467  0.84093584  1
  Li  Li124  1  0.62469706  0.93692634  0.10856180  1
  Li  Li125  1  0.37530294  0.06307366  0.10856180  1
  Li  Li126  1  0.06307366  0.62469706  0.10856180  1
  Li  Li127  1  0.93692634  0.37530294  0.10856180  1
  Li  Li128  1  0.37530294  0.93692634  0.89143820  1
  Li  Li129  1  0.62469706  0.06307366  0.89143820  1
  Li  Li130  1  0.93692634  0.62469706  0.89143820  1
  Li  Li131  1  0.06307366  0.37530294  0.89143820  1
  Li  Li132  1  0.37530294  0.06307366  0.89143820  1
  Li  Li133  1  0.62469706  0.93692634  0.89143820  1
  Li  Li134  1  0.93692634  0.37530294  0.89143820  1
  Li  Li135  1  0.06307366  0.62469706  0.89143820  1
  Li  Li136  1  0.62469706  0.06307366  0.10856180  1
  Li  Li137  1  0.37530294  0.93692634  0.10856180  1
  Li  Li138  1  0.06307366  0.37530294  0.10856180  1
  Li  Li139  1  0.93692634  0.62469706  0.10856180  1
  Li  Li140  1  0.30646980  0.30646980  0.50000000  1
  Li  Li141  1  0.69353020  0.69353020  0.50000000  1
  Li  Li142  1  0.69353020  0.30646980  0.50000000  1
  Li  Li143  1  0.30646980  0.69353020  0.50000000  1
  Te  Te144  1  0.76402065  0.13753190  0.68185294  1
  Te  Te145  1  0.23597935  0.86246810  0.68185294  1
  Te  Te146  1  0.86246810  0.76402065  0.68185294  1
  Te  Te147  1  0.13753190  0.23597935  0.68185294  1
  Te  Te148  1  0.23597935  0.13753190  0.31814706  1
  Te  Te149  1  0.76402065  0.86246810  0.31814706  1
  Te  Te150  1  0.13753190  0.76402065  0.31814706  1
  Te  Te151  1  0.86246810  0.23597935  0.31814706  1
  Te  Te152  1  0.23597935  0.86246810  0.31814706  1
  Te  Te153  1  0.76402065  0.13753190  0.31814706  1
  Te  Te154  1  0.13753190  0.23597935  0.31814706  1
  Te  Te155  1  0.86246810  0.76402065  0.31814706  1
  Te  Te156  1  0.76402065  0.86246810  0.68185294  1
  Te  Te157  1  0.23597935  0.13753190  0.68185294  1
  Te  Te158  1  0.86246810  0.23597935  0.68185294  1
  Te  Te159  1  0.13753190  0.76402065  0.68185294  1
  Te  Te160  1  0.59548358  0.11530634  0.50000000  1
  Te  Te161  1  0.40451642  0.88469366  0.50000000  1
  Te  Te162  1  0.88469366  0.59548358  0.50000000  1
  Te  Te163  1  0.11530634  0.40451642  0.50000000  1
  Te  Te164  1  0.40451642  0.11530634  0.50000000  1
  Te  Te165  1  0.59548358  0.88469366  0.50000000  1
  Te  Te166  1  0.11530634  0.59548358  0.50000000  1
  Te  Te167  1  0.88469366  0.40451642  0.50000000  1
