# generated using pymatgen
data_Li2Ca3F8
_symmetry_space_group_name_H-M   'P 1'
_cell_length_a   12.21537270
_cell_length_b   12.21537270
_cell_length_c   12.84697493
_cell_angle_alpha   90.00000000
_cell_angle_beta   90.00000000
_cell_angle_gamma   90.00000000
_symmetry_Int_Tables_number   1
_chemical_formula_structural   Li2Ca3F8
_chemical_formula_sum   'Li16 Ca24 F64'
_cell_volume   1916.96560626
_cell_formula_units_Z   8
loop_
 _symmetry_equiv_pos_site_id
 _symmetry_equiv_pos_as_xyz
  1  'x, y, z'
loop_
 _atom_site_type_symbol
 _atom_site_label
 _atom_site_symmetry_multiplicity
 _atom_site_fract_x
 _atom_site_fract_y
 _atom_site_fract_z
 _atom_site_occupancy
  Ca  Ca0  1  0.11499728  0.28658758  0.88044792  1
  Ca  Ca1  1  0.88500272  0.71341242  0.88044792  1
  Ca  Ca2  1  0.71341242  0.11499728  0.88044792  1
  Ca  Ca3  1  0.28658758  0.88500272  0.88044792  1
  Ca  Ca4  1  0.88500272  0.28658758  0.11955208  1
  Ca  Ca5  1  0.11499728  0.71341242  0.11955208  1
  Ca  Ca6  1  0.28658758  0.11499728  0.11955208  1
  Ca  Ca7  1  0.71341242  0.88500272  0.11955208  1
  Ca  Ca8  1  0.88500272  0.71341242  0.11955208  1
  Ca  Ca9  1  0.11499728  0.28658758  0.11955208  1
  Ca  Ca10  1  0.28658758  0.88500272  0.11955208  1
  Ca  Ca11  1  0.71341242  0.11499728  0.11955208  1
  Ca  Ca12  1  0.11499728  0.71341242  0.88044792  1
  Ca  Ca13  1  0.88500272  0.28658758  0.88044792  1
  Ca  Ca14  1  0.71341242  0.88500272  0.88044792  1
  Ca  Ca15  1  0.28658758  0.11499728  0.88044792  1
  Ca  Ca16  1  0.83866415  0.50000000  0.39035200  1
  Ca  Ca17  1  0.16133585  0.50000000  0.39035200  1
  Ca  Ca18  1  0.50000000  0.83866415  0.39035200  1
  Ca  Ca19  1  0.50000000  0.16133585  0.39035200  1
  Ca  Ca20  1  0.16133585  0.50000000  0.60964800  1
  Ca  Ca21  1  0.83866415  0.50000000  0.60964800  1
  Ca  Ca22  1  0.50000000  0.83866415  0.60964800  1
  Ca  Ca23  1  0.50000000  0.16133585  0.60964800  1
  F  F24  1  0.24415785  0.30535449  0.12088375  1
  F  F25  1  -0.24415785  -0.30535449  0.12088375  1
  F  F26  1  -0.30535449  0.24415785  0.12088375  1
  F  F27  1  0.30535449  -0.24415785  0.12088375  1
  F  F28  1  -0.24415785  0.30535449  -0.12088375  1
  F  F29  1  0.24415785  -0.30535449  -0.12088375  1
  F  F30  1  0.30535449  0.24415785  -0.12088375  1
  F  F31  1  -0.30535449  -0.24415785  -0.12088375  1
  F  F32  1  -0.24415785  -0.30535449  -0.12088375  1
  F  F33  1  0.24415785  0.30535449  -0.12088375  1
  F  F34  1  0.30535449  -0.24415785  -0.12088375  1
  F  F35  1  -0.30535449  0.24415785  -0.12088375  1
  F  F36  1  0.24415785  -0.30535449  0.12088375  1
  F  F37  1  -0.24415785  0.30535449  0.12088375  1
  F  F38  1  -0.30535449  -0.24415785  0.12088375  1
  F  F39  1  0.30535449  0.24415785  0.12088375  1
  F  F40  1  0.10792937  0.50000000  0.08607700  1
  F  F41  1  0.89207063  0.50000000  0.08607700  1
  F  F42  1  0.50000000  0.10792937  0.08607700  1
  F  F43  1  0.50000000  0.89207063  0.08607700  1
  F  F44  1  0.89207063  0.50000000  0.91392300  1
  F  F45  1  0.10792937  0.50000000  0.91392300  1
  F  F46  1  0.50000000  0.10792937  0.91392300  1
  F  F47  1  0.50000000  0.89207063  0.91392300  1
  F  F48  1  0.37394544  0.37394544  0.00000000  1
  F  F49  1  0.62605456  0.62605456  -0.00000000  1
  F  F50  1  0.62605456  0.37394544  0.00000000  1
  F  F51  1  0.37394544  0.62605456  0.00000000  1
  F  F52  1  0.63637743  0.69984903  0.55987281  1
  F  F53  1  0.36362257  0.30015097  0.55987281  1
  F  F54  1  0.30015097  0.63637743  0.55987281  1
  F  F55  1  0.69984903  0.36362257  0.55987281  1
  F  F56  1  0.36362257  0.69984903  0.44012719  1
  F  F57  1  0.63637743  0.30015097  0.44012719  1
  F  F58  1  0.69984903  0.63637743  0.44012719  1
  F  F59  1  0.30015097  0.36362257  0.44012719  1
  F  F60  1  0.36362257  0.30015097  0.44012719  1
  F  F61  1  0.63637743  0.69984903  0.44012719  1
  F  F62  1  0.69984903  0.36362257  0.44012719  1
  F  F63  1  0.30015097  0.63637743  0.44012719  1
  F  F64  1  0.63637743  0.30015097  0.55987281  1
  F  F65  1  0.36362257  0.69984903  0.55987281  1
  F  F66  1  0.30015097  0.36362257  0.55987281  1
  F  F67  1  0.69984903  0.63637743  0.55987281  1
  F  F68  1  0.84924985  0.41919530  0.73386230  1
  F  F69  1  0.15075015  0.58080470  0.73386230  1
  F  F70  1  0.58080470  0.84924985  0.73386230  1
  F  F71  1  0.41919530  0.15075015  0.73386230  1
  F  F72  1  0.15075015  0.41919530  0.26613770  1
  F  F73  1  0.84924985  0.58080470  0.26613770  1
  F  F74  1  0.41919530  0.84924985  0.26613770  1
  F  F75  1  0.58080470  0.15075015  0.26613770  1
  F  F76  1  0.15075015  0.58080470  0.26613770  1
  F  F77  1  0.84924985  0.41919530  0.26613770  1
  F  F78  1  0.41919530  0.15075015  0.26613770  1
  F  F79  1  0.58080470  0.84924985  0.26613770  1
  F  F80  1  0.84924985  0.58080470  0.73386230  1
  F  F81  1  0.15075015  0.41919530  0.73386230  1
  F  F82  1  0.58080470  0.15075015  0.73386230  1
  F  F83  1  0.41919530  0.84924985  0.73386230  1
  F  F84  1  0.04138303  0.04138303  0.50000000  1
  F  F85  1  0.95861697  0.95861697  0.50000000  1
  F  F86  1  0.95861697  0.04138303  0.50000000  1
  F  F87  1  0.04138303  0.95861697  0.50000000  1
  Li  Li88  1  0.50000000  0.50000000  0.00000000  1
  Li  Li89  1  0.50000000  0.50000000  0.50000000  1
  Li  Li90  1  0.12877405  0.12877405  0.68451476  1
  Li  Li91  1  0.87122595  0.87122595  0.68451476  1
  Li  Li92  1  0.87122595  0.12877405  0.68451476  1
  Li  Li93  1  0.12877405  0.87122595  0.68451476  1
  Li  Li94  1  0.87122595  0.12877405  0.31548524  1
  Li  Li95  1  0.12877405  0.87122595  0.31548524  1
  Li  Li96  1  0.12877405  0.12877405  0.31548524  1
  Li  Li97  1  0.87122595  0.87122595  0.31548524  1
  Li  Li98  1  0.85930732  0.00000000  0.00000000  1
  Li  Li99  1  0.14069268  0.00000000  0.00000000  1
  Li  Li100  1  0.00000000  0.85930732  0.00000000  1
  Li  Li101  1  0.00000000  0.14069268  0.00000000  1
  Li  Li102  1  0.00000000  0.50000000  0.50000000  1
  Li  Li103  1  0.50000000  0.00000000  0.50000000  1
