# generated using pymatgen
data_LiF
_symmetry_space_group_name_H-M   'P 1'
_cell_length_a   9.54769613
_cell_length_b   9.54769613
_cell_length_c   15.12093302
_cell_angle_alpha   90.00000000
_cell_angle_beta   90.00000000
_cell_angle_gamma   90.00000000
_symmetry_Int_Tables_number   1
_chemical_formula_structural   LiF
_chemical_formula_sum   'Li64 F64'
_cell_volume   1378.40159232
_cell_formula_units_Z   64
loop_
 _symmetry_equiv_pos_site_id
 _symmetry_equiv_pos_as_xyz
  1  'x, y, z'
loop_
 _atom_site_type_symbol
 _atom_site_label
 _atom_site_symmetry_multiplicity
 _atom_site_fract_x
 _atom_site_fract_y
 _atom_site_fract_z
 _atom_site_occupancy
  F  F0  1  0.34404972  0.14081514  0.15080817  1
  F  F1  1  0.15595028  -0.14081514  0.65080817  1
  F  F2  1  0.10918486  1.09404972  0.40080817  1
  F  F3  1  0.39081514  -0.09404972  0.90080817  1
  F  F4  1  0.15595028  0.14081514  -0.15080817  1
  F  F5  1  0.34404972  -0.14081514  0.34919183  1
  F  F6  1  0.39081514  1.09404972  0.59919183  1
  F  F7  1  0.10918486  -0.09404972  0.09919183  1
  F  F8  1  -0.34404972  -0.14081514  -0.15080817  1
  F  F9  1  0.84404972  0.14081514  0.34919183  1
  F  F10  1  0.89081514  -0.09404972  0.59919183  1
  F  F11  1  0.60918486  1.09404972  0.09919183  1
  F  F12  1  0.84404972  -0.14081514  0.15080817  1
  F  F13  1  -0.34404972  0.14081514  0.65080817  1
  F  F14  1  0.60918486  -0.09404972  0.40080817  1
  F  F15  1  0.89081514  1.09404972  0.90080817  1
  F  F16  1  0.84404972  0.64081514  0.65080817  1
  F  F17  1  0.65595028  0.35918486  1.15080817  1
  F  F18  1  0.60918486  1.59404972  0.90080817  1
  F  F19  1  0.89081514  0.40595028  1.40080817  1
  F  F20  1  0.65595028  0.64081514  0.34919183  1
  F  F21  1  0.84404972  0.35918486  0.84919183  1
  F  F22  1  0.89081514  1.59404972  1.09919183  1
  F  F23  1  0.60918486  0.40595028  0.59919183  1
  F  F24  1  0.15595028  0.35918486  0.34919183  1
  F  F25  1  1.34404972  0.64081514  0.84919183  1
  F  F26  1  1.39081514  0.40595028  1.09919183  1
  F  F27  1  1.10918486  1.59404972  0.59919183  1
  F  F28  1  1.34404972  0.35918486  0.65080817  1
  F  F29  1  0.15595028  0.64081514  1.15080817  1
  F  F30  1  1.10918486  0.40595028  0.90080817  1
  F  F31  1  1.39081514  1.59404972  1.40080817  1
  F  F32  1  0.42703314  0.38387112  0.24440186  1
  F  F33  1  0.07296686  0.61612888  0.74440186  1
  F  F34  1  0.86612888  0.17703314  0.49440186  1
  F  F35  1  0.63387112  0.82296686  0.99440186  1
  F  F36  1  0.07296686  0.38387112  0.75559814  1
  F  F37  1  0.42703314  0.61612888  0.25559814  1
  F  F38  1  0.63387112  0.17703314  0.50559814  1
  F  F39  1  0.86612888  0.82296686  0.00559814  1
  F  F40  1  0.57296686  0.61612888  0.75559814  1
  F  F41  1  0.92703314  0.38387112  0.25559814  1
  F  F42  1  0.13387112  0.82296686  0.50559814  1
  F  F43  1  0.36612888  0.17703314  0.00559814  1
  F  F44  1  0.92703314  0.61612888  0.24440186  1
  F  F45  1  0.57296686  0.38387112  0.74440186  1
  F  F46  1  0.36612888  0.82296686  0.49440186  1
  F  F47  1  0.13387112  0.17703314  0.99440186  1
  F  F48  1  0.92703314  0.88387112  0.74440186  1
  F  F49  1  0.57296686  0.11612888  0.24440186  1
  F  F50  1  0.36612888  0.67703314  0.99440186  1
  F  F51  1  0.13387112  0.32296686  0.49440186  1
  F  F52  1  0.57296686  0.88387112  0.25559814  1
  F  F53  1  0.92703314  0.11612888  0.75559814  1
  F  F54  1  0.13387112  0.67703314  0.00559814  1
  F  F55  1  0.36612888  0.32296686  0.50559814  1
  F  F56  1  0.07296686  0.11612888  0.25559814  1
  F  F57  1  0.42703314  0.88387112  0.75559814  1
  F  F58  1  0.63387112  0.32296686  0.00559814  1
  F  F59  1  0.86612888  0.67703314  0.50559814  1
  F  F60  1  0.42703314  0.11612888  0.74440186  1
  F  F61  1  0.07296686  0.88387112  0.24440186  1
  F  F62  1  0.86612888  0.32296686  0.99440186  1
  F  F63  1  0.63387112  0.67703314  0.49440186  1
  Li  Li64  1  0.65017980  0.68521490  0.00056592  1
  Li  Li65  1  0.84982020  0.31478510  0.50056592  1
  Li  Li66  1  0.56478510  0.40017980  0.25056592  1
  Li  Li67  1  0.93521490  0.59982020  0.75056592  1
  Li  Li68  1  0.84982020  0.68521490  0.99943408  1
  Li  Li69  1  0.65017980  0.31478510  0.49943408  1
  Li  Li70  1  0.93521490  0.40017980  0.74943408  1
  Li  Li71  1  0.56478510  0.59982020  0.24943408  1
  Li  Li72  1  0.34982020  0.31478510  0.99943408  1
  Li  Li73  1  0.15017980  0.68521490  0.49943408  1
  Li  Li74  1  0.43521490  0.59982020  0.74943408  1
  Li  Li75  1  0.06478510  0.40017980  0.24943408  1
  Li  Li76  1  0.15017980  0.31478510  0.00056592  1
  Li  Li77  1  0.34982020  0.68521490  0.50056592  1
  Li  Li78  1  0.06478510  0.59982020  0.25056592  1
  Li  Li79  1  0.43521490  0.40017980  0.75056592  1
  Li  Li80  1  0.15017980  0.18521490  0.50056592  1
  Li  Li81  1  0.34982020  0.81478510  0.00056592  1
  Li  Li82  1  0.06478510  0.90017980  0.75056592  1
  Li  Li83  1  0.43521490  0.09982020  0.25056592  1
  Li  Li84  1  0.34982020  0.18521490  0.49943408  1
  Li  Li85  1  0.15017980  0.81478510  0.99943408  1
  Li  Li86  1  0.43521490  0.90017980  0.24943408  1
  Li  Li87  1  0.06478510  0.09982020  0.74943408  1
  Li  Li88  1  0.84982020  0.81478510  0.49943408  1
  Li  Li89  1  0.65017980  0.18521490  0.99943408  1
  Li  Li90  1  0.93521490  0.09982020  0.24943408  1
  Li  Li91  1  0.56478510  0.90017980  0.74943408  1
  Li  Li92  1  0.65017980  0.81478510  0.50056592  1
  Li  Li93  1  0.84982020  0.18521490  0.00056592  1
  Li  Li94  1  0.56478510  0.09982020  0.75056592  1
  Li  Li95  1  0.93521490  0.90017980  0.25056592  1
  Li  Li96  1  0.00000000  0.00000000  0.00000000  1
  Li  Li97  1  0.50000000  0.00000000  0.50000000  1
  Li  Li98  1  0.25000000  0.75000000  0.25000000  1
  Li  Li99  1  0.25000000  0.25000000  0.75000000  1
  Li  Li100  1  0.50000000  0.00000000  0.00000000  1
  Li  Li101  1  0.00000000  0.00000000  0.50000000  1
  Li  Li102  1  0.25000000  0.75000000  0.75000000  1
  Li  Li103  1  0.25000000  0.25000000  0.25000000  1
  Li  Li104  1  0.50000000  0.50000000  0.50000000  1
  Li  Li105  1  0.00000000  0.50000000  0.00000000  1
  Li  Li106  1  0.75000000  0.25000000  0.75000000  1
  Li  Li107  1  0.75000000  0.75000000  0.25000000  1
  Li  Li108  1  0.00000000  0.50000000  0.50000000  1
  Li  Li109  1  0.50000000  0.50000000  0.00000000  1
  Li  Li110  1  0.75000000  0.25000000  0.25000000  1
  Li  Li111  1  0.75000000  0.75000000  0.75000000  1
  Li  Li112  1  0.77381650  0.00000000  0.25000000  1
  Li  Li113  1  0.72618350  -0.00000000  0.75000000  1
  Li  Li114  1  0.25000000  0.52381650  0.50000000  1
  Li  Li115  1  0.25000000  0.47618350  0.00000000  1
  Li  Li116  1  0.22618350  -0.00000000  0.75000000  1
  Li  Li117  1  0.27381650  0.00000000  0.25000000  1
  Li  Li118  1  0.75000000  0.47618350  0.50000000  1
  Li  Li119  1  0.75000000  0.52381650  0.00000000  1
  Li  Li120  1  0.27381650  0.50000000  0.75000000  1
  Li  Li121  1  0.22618350  0.50000000  0.25000000  1
  Li  Li122  1  0.75000000  0.02381650  0.00000000  1
  Li  Li123  1  0.75000000  0.97618350  0.50000000  1
  Li  Li124  1  0.72618350  0.50000000  0.25000000  1
  Li  Li125  1  0.77381650  0.50000000  0.75000000  1
  Li  Li126  1  0.25000000  0.97618350  -0.00000000  1
  Li  Li127  1  0.25000000  0.02381650  0.50000000  1
