# generated using pymatgen
data_Li2Y3P3Se
_symmetry_space_group_name_H-M   'P 1'
_cell_length_a   5.10546926
_cell_length_b   5.31761604
_cell_length_c   6.86557532
_cell_angle_alpha   93.71090410
_cell_angle_beta   98.53083360
_cell_angle_gamma   105.44767778
_symmetry_Int_Tables_number   1
_chemical_formula_structural   Li2Y3P3Se
_chemical_formula_sum   'Li2 Y3 P3 Se1'
_cell_volume   176.60619844
_cell_formula_units_Z   1
loop_
 _symmetry_equiv_pos_site_id
 _symmetry_equiv_pos_as_xyz
  1  'x, y, z'
loop_
 _atom_site_type_symbol
 _atom_site_label
 _atom_site_symmetry_multiplicity
 _atom_site_fract_x
 _atom_site_fract_y
 _atom_site_fract_z
 _atom_site_occupancy
  Se  Se0  1  0.00000000  0.00000000  0.00000000  1
  P  P1  1  0.33300000  0.66700000  0.25000000  1
  P  P2  1  0.66700000  0.33300000  0.50000000  1
  P  P3  1  0.00000000  0.00000000  0.75000000  1
  Li  Li4  1  0.34428591  0.70798679  0.19522619  1
  Li  Li5  1  0.71361883  0.09830497  0.74781470  1
  Y  Y6  1  0.74005910  0.45641600  0.06398371  1
  Y  Y7  1  0.80230847  0.70154085  0.50929110  1
  Y  Y8  1  0.82575932  0.06213874  0.70562700  1
