# generated using pymatgen
data_LiF
_symmetry_space_group_name_H-M   'P 1'
_cell_length_a   8.17380649
_cell_length_b   8.17380649
_cell_length_c   17.39469184
_cell_angle_alpha   90.00000000
_cell_angle_beta   90.00000000
_cell_angle_gamma   90.00000000
_symmetry_Int_Tables_number   1
_chemical_formula_structural   LiF
_chemical_formula_sum   'Li64 F64'
_cell_volume   1162.15871437
_cell_formula_units_Z   64
loop_
 _symmetry_equiv_pos_site_id
 _symmetry_equiv_pos_as_xyz
  1  'x, y, z'
loop_
 _atom_site_type_symbol
 _atom_site_label
 _atom_site_symmetry_multiplicity
 _atom_site_fract_x
 _atom_site_fract_y
 _atom_site_fract_z
 _atom_site_occupancy
  F  F0  1  0.99483709  0.53284788  0.57771635  1
  F  F1  1  -0.49483709  -0.53284788  1.07771635  1
  F  F2  1  -0.28284788  1.74483709  0.82771635  1
  F  F3  1  0.78284788  -0.74483709  1.32771635  1
  F  F4  1  -0.49483709  0.53284788  -0.57771635  1
  F  F5  1  0.99483709  -0.53284788  -0.07771635  1
  F  F6  1  0.78284788  1.74483709  0.17228365  1
  F  F7  1  -0.28284788  -0.74483709  -0.32771635  1
  F  F8  1  -0.99483709  -0.53284788  -0.57771635  1
  F  F9  1  1.49483709  0.53284788  -0.07771635  1
  F  F10  1  1.28284788  -0.74483709  0.17228365  1
  F  F11  1  0.21715212  1.74483709  -0.32771635  1
  F  F12  1  1.49483709  -0.53284788  0.57771635  1
  F  F13  1  -0.99483709  0.53284788  1.07771635  1
  F  F14  1  0.21715212  -0.74483709  0.82771635  1
  F  F15  1  1.28284788  1.74483709  1.32771635  1
  F  F16  1  1.49483709  1.03284788  1.07771635  1
  F  F17  1  0.00516291  -0.03284788  1.57771635  1
  F  F18  1  0.21715212  2.24483709  1.32771635  1
  F  F19  1  1.28284788  -0.24483709  1.82771635  1
  F  F20  1  0.00516291  1.03284788  -0.07771635  1
  F  F21  1  1.49483709  -0.03284788  0.42228365  1
  F  F22  1  1.28284788  2.24483709  0.67228365  1
  F  F23  1  0.21715212  -0.24483709  0.17228365  1
  F  F24  1  -0.49483709  -0.03284788  -0.07771635  1
  F  F25  1  1.99483709  1.03284788  0.42228365  1
  F  F26  1  1.78284788  -0.24483709  0.67228365  1
  F  F27  1  0.71715212  2.24483709  0.17228365  1
  F  F28  1  1.99483709  -0.03284788  1.07771635  1
  F  F29  1  -0.49483709  1.03284788  1.57771635  1
  F  F30  1  0.71715212  -0.24483709  1.32771635  1
  F  F31  1  1.78284788  2.24483709  1.82771635  1
  F  F32  1  0.00000000  0.25000000  0.37500000  1
  F  F33  1  0.00000000  0.75000000  0.62500000  1
  F  F34  1  0.50000000  0.25000000  0.62500000  1
  F  F35  1  0.50000000  0.75000000  0.37500000  1
  F  F36  1  0.50000000  0.75000000  0.87500000  1
  F  F37  1  0.50000000  0.25000000  0.12500000  1
  F  F38  1  0.00000000  0.75000000  0.12500000  1
  F  F39  1  0.00000000  0.25000000  0.87500000  1
  F  F40  1  0.00000000  0.25000000  0.22405662  1
  F  F41  1  0.00000000  0.75000000  0.47405662  1
  F  F42  1  0.50000000  0.25000000  0.77594338  1
  F  F43  1  0.50000000  0.75000000  0.52594338  1
  F  F44  1  0.00000000  0.75000000  0.77594338  1
  F  F45  1  0.00000000  0.25000000  0.52594338  1
  F  F46  1  0.50000000  0.75000000  0.22405662  1
  F  F47  1  0.50000000  0.25000000  0.47405662  1
  F  F48  1  0.50000000  0.75000000  0.72405662  1
  F  F49  1  0.50000000  0.25000000  0.97405662  1
  F  F50  1  0.00000000  0.75000000  0.27594338  1
  F  F51  1  0.00000000  0.25000000  0.02594338  1
  F  F52  1  0.50000000  0.25000000  0.27594338  1
  F  F53  1  0.50000000  0.75000000  0.02594338  1
  F  F54  1  0.00000000  0.25000000  0.72405662  1
  F  F55  1  0.00000000  0.75000000  0.97405662  1
  F  F56  1  0.00000000  0.25000000  0.12500000  1
  F  F57  1  0.00000000  0.75000000  0.37500000  1
  F  F58  1  0.00000000  0.75000000  0.87500000  1
  F  F59  1  0.00000000  0.25000000  0.62500000  1
  F  F60  1  0.50000000  0.75000000  0.62500000  1
  F  F61  1  0.50000000  0.25000000  0.87500000  1
  F  F62  1  0.50000000  0.25000000  0.37500000  1
  F  F63  1  0.50000000  0.75000000  0.12500000  1
  Li  Li64  1  0.11632600  0.36632600  0.12500000  1
  Li  Li65  1  0.38367400  0.63367400  0.62500000  1
  Li  Li66  1  0.88367400  0.86632600  0.37500000  1
  Li  Li67  1  0.61632600  0.13367400  0.87500000  1
  Li  Li68  1  0.88367400  0.63367400  0.87500000  1
  Li  Li69  1  0.61632600  0.36632600  0.37500000  1
  Li  Li70  1  0.11632600  0.13367400  0.62500000  1
  Li  Li71  1  0.38367400  0.86632600  0.12500000  1
  Li  Li72  1  0.61632600  0.86632600  0.62500000  1
  Li  Li73  1  0.88367400  0.13367400  0.12500000  1
  Li  Li74  1  0.38367400  0.36632600  0.87500000  1
  Li  Li75  1  0.11632600  0.63367400  0.37500000  1
  Li  Li76  1  0.38367400  0.13367400  0.37500000  1
  Li  Li77  1  0.11632600  0.86632600  0.87500000  1
  Li  Li78  1  0.61632600  0.63367400  0.12500000  1
  Li  Li79  1  0.88367400  0.36632600  0.62500000  1
  Li  Li80  1  0.90655654  0.93731665  0.13914335  1
  Li  Li81  1  0.59344346  0.06268335  0.63914335  1
  Li  Li82  1  0.31268335  0.65655654  0.38914335  1
  Li  Li83  1  0.18731665  0.34344346  0.88914335  1
  Li  Li84  1  0.59344346  0.93731665  0.86085665  1
  Li  Li85  1  0.90655654  0.06268335  0.36085665  1
  Li  Li86  1  0.18731665  0.65655654  0.61085665  1
  Li  Li87  1  0.31268335  0.34344346  0.11085665  1
  Li  Li88  1  0.09344346  0.06268335  0.86085665  1
  Li  Li89  1  0.40655654  0.93731665  0.36085665  1
  Li  Li90  1  0.68731665  0.34344346  0.61085665  1
  Li  Li91  1  0.81268335  0.65655654  0.11085665  1
  Li  Li92  1  0.40655654  0.06268335  0.13914335  1
  Li  Li93  1  0.09344346  0.93731665  0.63914335  1
  Li  Li94  1  0.81268335  0.34344346  0.38914335  1
  Li  Li95  1  0.68731665  0.65655654  0.88914335  1
  Li  Li96  1  0.40655654  0.43731665  0.63914335  1
  Li  Li97  1  0.09344346  0.56268335  0.13914335  1
  Li  Li98  1  0.81268335  0.15655654  0.88914335  1
  Li  Li99  1  0.68731665  0.84344346  0.38914335  1
  Li  Li100  1  0.09344346  0.43731665  0.36085665  1
  Li  Li101  1  0.40655654  0.56268335  0.86085665  1
  Li  Li102  1  0.68731665  0.15655654  0.11085665  1
  Li  Li103  1  0.81268335  0.84344346  0.61085665  1
  Li  Li104  1  0.59344346  0.56268335  0.36085665  1
  Li  Li105  1  0.90655654  0.43731665  0.86085665  1
  Li  Li106  1  0.18731665  0.84344346  0.11085665  1
  Li  Li107  1  0.31268335  0.15655654  0.61085665  1
  Li  Li108  1  0.90655654  0.56268335  0.63914335  1
  Li  Li109  1  0.59344346  0.43731665  0.13914335  1
  Li  Li110  1  0.31268335  0.84344346  0.88914335  1
  Li  Li111  1  0.18731665  0.15655654  0.38914335  1
  Li  Li112  1  0.31403947  0.56403947  0.12500000  1
  Li  Li113  1  0.18596053  0.43596053  0.62500000  1
  Li  Li114  1  0.68596053  0.06403947  0.37500000  1
  Li  Li115  1  0.81403947  0.93596053  0.87500000  1
  Li  Li116  1  0.68596053  0.43596053  0.87500000  1
  Li  Li117  1  0.81403947  0.56403947  0.37500000  1
  Li  Li118  1  0.31403947  0.93596053  0.62500000  1
  Li  Li119  1  0.18596053  0.06403947  0.12500000  1
  Li  Li120  1  0.81403947  0.06403947  0.62500000  1
  Li  Li121  1  0.68596053  0.93596053  0.12500000  1
  Li  Li122  1  0.18596053  0.56403947  0.87500000  1
  Li  Li123  1  0.31403947  0.43596053  0.37500000  1
  Li  Li124  1  0.18596053  0.93596053  0.37500000  1
  Li  Li125  1  0.31403947  0.06403947  0.87500000  1
  Li  Li126  1  0.81403947  0.43596053  0.12500000  1
  Li  Li127  1  0.68596053  0.56403947  0.62500000  1
