# generated using pymatgen
data_Li4TeF2
_symmetry_space_group_name_H-M   'P 1'
_cell_length_a   11.28398457
_cell_length_b   11.28398457
_cell_length_c   24.91716752
_cell_angle_alpha   90.00000000
_cell_angle_beta   90.00000000
_cell_angle_gamma   90.00000000
_symmetry_Int_Tables_number   1
_chemical_formula_structural   Li4TeF2
_chemical_formula_sum   'Li96 Te24 F48'
_cell_volume   3172.66077329
_cell_formula_units_Z   24
loop_
 _symmetry_equiv_pos_site_id
 _symmetry_equiv_pos_as_xyz
  1  'x, y, z'
loop_
 _atom_site_type_symbol
 _atom_site_label
 _atom_site_symmetry_multiplicity
 _atom_site_fract_x
 _atom_site_fract_y
 _atom_site_fract_z
 _atom_site_occupancy
  F  F0  1  0.76142840  0.00000000  0.25000000  1
  F  F1  1  0.73857160  -0.00000000  0.75000000  1
  F  F2  1  0.25000000  0.51142840  0.50000000  1
  F  F3  1  0.25000000  0.48857160  0.00000000  1
  F  F4  1  0.23857160  -0.00000000  0.75000000  1
  F  F5  1  0.26142840  0.00000000  0.25000000  1
  F  F6  1  0.75000000  0.48857160  0.50000000  1
  F  F7  1  0.75000000  0.51142840  -0.00000000  1
  F  F8  1  0.26142840  0.50000000  0.75000000  1
  F  F9  1  0.23857160  0.50000000  0.25000000  1
  F  F10  1  0.75000000  0.01142840  -0.00000000  1
  F  F11  1  0.75000000  0.98857160  0.50000000  1
  F  F12  1  0.73857160  0.50000000  0.25000000  1
  F  F13  1  0.76142840  0.50000000  0.75000000  1
  F  F14  1  0.25000000  0.98857160  0.00000000  1
  F  F15  1  0.25000000  0.01142840  0.50000000  1
  F  F16  1  0.95133561  0.23654821  0.43775282  1
  F  F17  1  -0.45133561  -0.23654821  0.93775282  1
  F  F18  1  0.01345179  1.70133561  0.68775282  1
  F  F19  1  0.48654821  -0.70133561  1.18775282  1
  F  F20  1  -0.45133561  0.23654821  -0.43775282  1
  F  F21  1  0.95133561  -0.23654821  0.06224718  1
  F  F22  1  0.48654821  1.70133561  0.31224718  1
  F  F23  1  0.01345179  -0.70133561  -0.18775282  1
  F  F24  1  -0.95133561  -0.23654821  -0.43775282  1
  F  F25  1  1.45133561  0.23654821  0.06224718  1
  F  F26  1  0.98654821  -0.70133561  0.31224718  1
  F  F27  1  0.51345179  1.70133561  -0.18775282  1
  F  F28  1  1.45133561  -0.23654821  0.43775282  1
  F  F29  1  -0.95133561  0.23654821  0.93775282  1
  F  F30  1  0.51345179  -0.70133561  0.68775282  1
  F  F31  1  0.98654821  1.70133561  1.18775282  1
  F  F32  1  1.45133561  0.73654821  0.93775282  1
  F  F33  1  0.04866439  0.26345179  1.43775282  1
  F  F34  1  0.51345179  2.20133561  1.18775282  1
  F  F35  1  0.98654821  -0.20133561  1.68775282  1
  F  F36  1  0.04866439  0.73654821  0.06224718  1
  F  F37  1  1.45133561  0.26345179  0.56224718  1
  F  F38  1  0.98654821  2.20133561  0.81224718  1
  F  F39  1  0.51345179  -0.20133561  0.31224718  1
  F  F40  1  -0.45133561  0.26345179  0.06224718  1
  F  F41  1  1.95133561  0.73654821  0.56224718  1
  F  F42  1  1.48654821  -0.20133561  0.81224718  1
  F  F43  1  1.01345179  2.20133561  0.31224718  1
  F  F44  1  1.95133561  0.26345179  0.93775282  1
  F  F45  1  -0.45133561  0.73654821  1.43775282  1
  F  F46  1  1.01345179  -0.20133561  1.18775282  1
  F  F47  1  1.48654821  2.20133561  1.68775282  1
  Li  Li48  1  0.00000000  0.25000000  0.84393790  1
  Li  Li49  1  0.00000000  0.75000000  0.09393790  1
  Li  Li50  1  0.50000000  0.25000000  0.15606210  1
  Li  Li51  1  0.50000000  0.75000000  0.90606210  1
  Li  Li52  1  0.00000000  0.75000000  0.15606210  1
  Li  Li53  1  0.00000000  0.25000000  0.90606210  1
  Li  Li54  1  0.50000000  0.75000000  0.84393790  1
  Li  Li55  1  0.50000000  0.25000000  0.09393790  1
  Li  Li56  1  0.50000000  0.75000000  0.34393790  1
  Li  Li57  1  0.50000000  0.25000000  0.59393790  1
  Li  Li58  1  0.00000000  0.75000000  0.65606210  1
  Li  Li59  1  0.00000000  0.25000000  0.40606210  1
  Li  Li60  1  0.50000000  0.25000000  0.65606210  1
  Li  Li61  1  0.50000000  0.75000000  0.40606210  1
  Li  Li62  1  0.00000000  0.25000000  0.34393790  1
  Li  Li63  1  0.00000000  0.75000000  0.59393790  1
  Li  Li64  1  0.15750512  0.00000000  0.25000000  1
  Li  Li65  1  0.34249488  0.00000000  0.75000000  1
  Li  Li66  1  0.25000000  0.90750512  0.50000000  1
  Li  Li67  1  0.25000000  0.09249488  -0.00000000  1
  Li  Li68  1  0.84249488  0.00000000  0.75000000  1
  Li  Li69  1  0.65750512  0.00000000  0.25000000  1
  Li  Li70  1  0.75000000  0.09249488  0.50000000  1
  Li  Li71  1  0.75000000  0.90750512  -0.00000000  1
  Li  Li72  1  0.65750512  0.50000000  0.75000000  1
  Li  Li73  1  0.84249488  0.50000000  0.25000000  1
  Li  Li74  1  0.75000000  0.40750512  0.00000000  1
  Li  Li75  1  0.75000000  0.59249488  0.50000000  1
  Li  Li76  1  0.34249488  0.50000000  0.25000000  1
  Li  Li77  1  0.15750512  0.50000000  0.75000000  1
  Li  Li78  1  0.25000000  0.59249488  0.00000000  1
  Li  Li79  1  0.25000000  0.40750512  0.50000000  1
  Li  Li80  1  0.22905843  0.61701931  0.72227961  1
  Li  Li81  1  0.27094157  0.38298069  0.22227961  1
  Li  Li82  1  0.63298069  0.97905843  0.97227961  1
  Li  Li83  1  0.86701931  0.02094157  0.47227961  1
  Li  Li84  1  0.27094157  0.61701931  0.27772039  1
  Li  Li85  1  0.22905843  0.38298069  0.77772039  1
  Li  Li86  1  0.86701931  0.97905843  0.02772039  1
  Li  Li87  1  0.63298069  0.02094157  0.52772039  1
  Li  Li88  1  0.77094157  0.38298069  0.27772039  1
  Li  Li89  1  0.72905843  0.61701931  0.77772039  1
  Li  Li90  1  0.36701931  0.02094157  0.02772039  1
  Li  Li91  1  0.13298069  0.97905843  0.52772039  1
  Li  Li92  1  0.72905843  0.38298069  0.72227961  1
  Li  Li93  1  0.77094157  0.61701931  0.22227961  1
  Li  Li94  1  0.13298069  0.02094157  0.97227961  1
  Li  Li95  1  0.36701931  0.97905843  0.47227961  1
  Li  Li96  1  0.72905843  0.11701931  0.22227961  1
  Li  Li97  1  0.77094157  0.88298069  0.72227961  1
  Li  Li98  1  0.13298069  0.47905843  0.47227961  1
  Li  Li99  1  0.36701931  0.52094157  0.97227961  1
  Li  Li100  1  0.77094157  0.11701931  0.77772039  1
  Li  Li101  1  0.72905843  0.88298069  0.27772039  1
  Li  Li102  1  0.36701931  0.47905843  0.52772039  1
  Li  Li103  1  0.13298069  0.52094157  0.02772039  1
  Li  Li104  1  0.27094157  0.88298069  0.77772039  1
  Li  Li105  1  0.22905843  0.11701931  0.27772039  1
  Li  Li106  1  0.86701931  0.52094157  0.52772039  1
  Li  Li107  1  0.63298069  0.47905843  0.02772039  1
  Li  Li108  1  0.22905843  0.88298069  0.22227961  1
  Li  Li109  1  0.27094157  0.11701931  0.72227961  1
  Li  Li110  1  0.63298069  0.52094157  0.47227961  1
  Li  Li111  1  0.86701931  0.47905843  0.97227961  1
  Li  Li112  1  0.01236383  0.53074213  0.29697242  1
  Li  Li113  1  0.48763617  0.46925787  0.79697242  1
  Li  Li114  1  0.71925787  0.76236383  0.54697242  1
  Li  Li115  1  0.78074213  0.23763617  0.04697242  1
  Li  Li116  1  0.48763617  0.53074213  0.70302758  1
  Li  Li117  1  0.01236383  0.46925787  0.20302758  1
  Li  Li118  1  0.78074213  0.76236383  0.45302758  1
  Li  Li119  1  0.71925787  0.23763617  0.95302758  1
  Li  Li120  1  0.98763617  0.46925787  0.70302758  1
  Li  Li121  1  0.51236383  0.53074213  0.20302758  1
  Li  Li122  1  0.28074213  0.23763617  0.45302758  1
  Li  Li123  1  0.21925787  0.76236383  0.95302758  1
  Li  Li124  1  0.51236383  0.46925787  0.29697242  1
  Li  Li125  1  0.98763617  0.53074213  0.79697242  1
  Li  Li126  1  0.21925787  0.23763617  0.54697242  1
  Li  Li127  1  0.28074213  0.76236383  0.04697242  1
  Li  Li128  1  0.51236383  0.03074213  0.79697242  1
  Li  Li129  1  0.98763617  0.96925787  0.29697242  1
  Li  Li130  1  0.21925787  0.26236383  0.04697242  1
  Li  Li131  1  0.28074213  0.73763617  0.54697242  1
  Li  Li132  1  0.98763617  0.03074213  0.20302758  1
  Li  Li133  1  0.51236383  0.96925787  0.70302758  1
  Li  Li134  1  0.28074213  0.26236383  0.95302758  1
  Li  Li135  1  0.21925787  0.73763617  0.45302758  1
  Li  Li136  1  0.48763617  0.96925787  0.20302758  1
  Li  Li137  1  0.01236383  0.03074213  0.70302758  1
  Li  Li138  1  0.78074213  0.73763617  0.95302758  1
  Li  Li139  1  0.71925787  0.26236383  0.45302758  1
  Li  Li140  1  0.01236383  0.96925787  0.79697242  1
  Li  Li141  1  0.48763617  0.03074213  0.29697242  1
  Li  Li142  1  0.71925787  0.73763617  0.04697242  1
  Li  Li143  1  0.78074213  0.26236383  0.54697242  1
  Te  Te144  1  0.00000000  0.00000000  0.00000000  1
  Te  Te145  1  0.50000000  0.00000000  0.50000000  1
  Te  Te146  1  0.25000000  0.75000000  0.25000000  1
  Te  Te147  1  0.25000000  0.25000000  0.75000000  1
  Te  Te148  1  0.50000000  0.00000000  0.00000000  1
  Te  Te149  1  0.00000000  0.00000000  0.50000000  1
  Te  Te150  1  0.25000000  0.75000000  0.75000000  1
  Te  Te151  1  0.25000000  0.25000000  0.25000000  1
  Te  Te152  1  0.50000000  0.50000000  0.50000000  1
  Te  Te153  1  0.00000000  0.50000000  0.00000000  1
  Te  Te154  1  0.75000000  0.25000000  0.75000000  1
  Te  Te155  1  0.75000000  0.75000000  0.25000000  1
  Te  Te156  1  0.00000000  0.50000000  0.50000000  1
  Te  Te157  1  0.50000000  0.50000000  0.00000000  1
  Te  Te158  1  0.75000000  0.25000000  0.25000000  1
  Te  Te159  1  0.75000000  0.75000000  0.75000000  1
  Te  Te160  1  0.00000000  0.25000000  0.12500000  1
  Te  Te161  1  0.00000000  0.75000000  0.37500000  1
  Te  Te162  1  0.00000000  0.75000000  0.87500000  1
  Te  Te163  1  0.00000000  0.25000000  0.62500000  1
  Te  Te164  1  0.50000000  0.75000000  0.62500000  1
  Te  Te165  1  0.50000000  0.25000000  0.87500000  1
  Te  Te166  1  0.50000000  0.25000000  0.37500000  1
  Te  Te167  1  0.50000000  0.75000000  0.12500000  1
