# generated using pymatgen
data_LiF
_symmetry_space_group_name_H-M   'P 1'
_cell_length_a   12.42546811
_cell_length_b   12.42546811
_cell_length_c   3.42470447
_cell_angle_alpha   90.00000000
_cell_angle_beta   90.00000000
_cell_angle_gamma   120.00000000
_symmetry_Int_Tables_number   1
_chemical_formula_structural   LiF
_chemical_formula_sum   'Li17 F17'
_cell_volume   457.90907574
_cell_formula_units_Z   17
loop_
 _symmetry_equiv_pos_site_id
 _symmetry_equiv_pos_as_xyz
  1  'x, y, z'
loop_
 _atom_site_type_symbol
 _atom_site_label
 _atom_site_symmetry_multiplicity
 _atom_site_fract_x
 _atom_site_fract_y
 _atom_site_fract_z
 _atom_site_occupancy
  F  F0  1  0.16083223  0.83916777  0.50000000  1
  F  F1  1  0.16083223  0.32166446  0.50000000  1
  F  F2  1  0.67833554  0.83916777  0.50000000  1
  F  F3  1  0.41131422  0.44727116  0.33086437  1
  F  F4  1  0.55272884  0.96404306  0.33086437  1
  F  F5  1  0.03595694  0.58868578  0.33086437  1
  F  F6  1  0.55272884  0.58868578  0.66913563  1
  F  F7  1  0.03595694  0.44727116  0.66913563  1
  F  F8  1  0.41131422  0.96404306  0.66913563  1
  F  F9  1  0.37280113  0.05388583  0.51540992  1
  F  F10  1  0.94611417  0.31891530  0.51540992  1
  F  F11  1  0.68108470  0.62719887  0.51540992  1
  F  F12  1  0.94611417  0.62719887  0.48459008  1
  F  F13  1  0.68108470  0.05388583  0.48459008  1
  F  F14  1  0.37280113  0.31891530  0.48459008  1
  F  F15  1  0.66666667  0.33333333  -0.00000000  1
  F  F16  1  0.00000000  0.00000000  0.50000000  1
  Li  Li17  1  0.50282584  0.84923082  0.33860964  1
  Li  Li18  1  -0.84923082  -0.34640497  0.33860964  1
  Li  Li19  1  0.34640497  -0.50282584  0.33860964  1
  Li  Li20  1  -0.84923082  -0.50282584  -0.33860964  1
  Li  Li21  1  0.34640497  0.84923082  -0.33860964  1
  Li  Li22  1  0.50282584  -0.34640497  -0.33860964  1
  Li  Li23  1  0.33333333  0.66666667  -0.00000000  1
  Li  Li24  1  0.00000000  0.00000000  0.00000000  1
  Li  Li25  1  0.73259340  0.74930925  0.96331994  1
  Li  Li26  1  0.25069075  0.98328414  0.96331994  1
  Li  Li27  1  0.01671586  0.26740660  0.96331994  1
  Li  Li28  1  0.25069075  0.26740660  0.03668006  1
  Li  Li29  1  0.01671586  0.74930925  0.03668006  1
  Li  Li30  1  0.73259340  0.98328414  0.03668006  1
  Li  Li31  1  0.50773158  0.49226842  -0.00000000  1
  Li  Li32  1  0.50773158  0.01546316  -0.00000000  1
  Li  Li33  1  0.98453684  0.49226842  -0.00000000  1
