# generated using pymatgen
data_Li4TeF2
_symmetry_space_group_name_H-M   'P 1'
_cell_length_a   15.16182331
_cell_length_b   15.16182331
_cell_length_c   15.16182331
_cell_angle_alpha   90.00000000
_cell_angle_beta   90.00000000
_cell_angle_gamma   90.00000000
_symmetry_Int_Tables_number   1
_chemical_formula_structural   Li4TeF2
_chemical_formula_sum   'Li96 Te24 F48'
_cell_volume   3485.41337620
_cell_formula_units_Z   24
loop_
 _symmetry_equiv_pos_site_id
 _symmetry_equiv_pos_as_xyz
  1  'x, y, z'
loop_
 _atom_site_type_symbol
 _atom_site_label
 _atom_site_symmetry_multiplicity
 _atom_site_fract_x
 _atom_site_fract_y
 _atom_site_fract_z
 _atom_site_occupancy
  F  F0  1  0.36740962  0.59168343  0.26054329  1
  F  F1  1  0.13259038  -0.59168343  0.76054329  1
  F  F2  1  -0.36740962  1.09168343  0.23945671  1
  F  F3  1  0.86740962  -0.09168343  -0.26054329  1
  F  F4  1  0.26054329  0.36740962  0.59168343  1
  F  F5  1  0.76054329  0.13259038  -0.59168343  1
  F  F6  1  0.23945671  -0.36740962  1.09168343  1
  F  F7  1  -0.26054329  0.86740962  -0.09168343  1
  F  F8  1  0.59168343  0.26054329  0.36740962  1
  F  F9  1  -0.59168343  0.76054329  0.13259038  1
  F  F10  1  1.09168343  0.23945671  -0.36740962  1
  F  F11  1  -0.09168343  -0.26054329  0.86740962  1
  F  F12  1  1.34168343  0.61740962  -0.01054329  1
  F  F13  1  0.15831657  0.38259038  0.48945671  1
  F  F14  1  0.84168343  -0.11740962  1.01054329  1
  F  F15  1  -0.34168343  1.11740962  0.51054329  1
  F  F16  1  1.11740962  0.51054329  -0.34168343  1
  F  F17  1  -0.11740962  1.01054329  0.84168343  1
  F  F18  1  0.38259038  0.48945671  0.15831657  1
  F  F19  1  0.61740962  -0.01054329  1.34168343  1
  F  F20  1  1.01054329  0.84168343  -0.11740962  1
  F  F21  1  0.51054329  -0.34168343  1.11740962  1
  F  F22  1  -0.01054329  1.34168343  0.61740962  1
  F  F23  1  0.48945671  0.15831657  0.38259038  1
  F  F24  1  0.86740962  1.09168343  0.76054329  1
  F  F25  1  0.63259038  -0.09168343  1.26054329  1
  F  F26  1  0.13259038  1.59168343  0.73945671  1
  F  F27  1  1.36740962  0.40831657  0.23945671  1
  F  F28  1  0.76054329  0.86740962  1.09168343  1
  F  F29  1  1.26054329  0.63259038  -0.09168343  1
  F  F30  1  0.73945671  0.13259038  1.59168343  1
  F  F31  1  0.23945671  1.36740962  0.40831657  1
  F  F32  1  1.09168343  0.76054329  0.86740962  1
  F  F33  1  -0.09168343  1.26054329  0.63259038  1
  F  F34  1  1.59168343  0.73945671  0.13259038  1
  F  F35  1  0.40831657  0.23945671  1.36740962  1
  F  F36  1  1.84168343  1.11740962  0.48945671  1
  F  F37  1  0.65831657  0.88259038  0.98945671  1
  F  F38  1  1.34168343  0.38259038  1.51054329  1
  F  F39  1  0.15831657  1.61740962  1.01054329  1
  F  F40  1  1.61740962  1.01054329  0.15831657  1
  F  F41  1  0.38259038  1.51054329  1.34168343  1
  F  F42  1  0.88259038  0.98945671  0.65831657  1
  F  F43  1  1.11740962  0.48945671  1.84168343  1
  F  F44  1  1.51054329  1.34168343  0.38259038  1
  F  F45  1  1.01054329  0.15831657  1.61740962  1
  F  F46  1  0.48945671  1.84168343  1.11740962  1
  F  F47  1  0.98945671  0.65831657  0.88259038  1
  Li  Li48  1  0.91246212  0.00000000  0.25000000  1
  Li  Li49  1  0.58753788  0.00000000  0.75000000  1
  Li  Li50  1  0.25000000  0.91246212  0.00000000  1
  Li  Li51  1  0.75000000  0.58753788  0.00000000  1
  Li  Li52  1  0.00000000  0.25000000  0.91246212  1
  Li  Li53  1  0.00000000  0.75000000  0.58753788  1
  Li  Li54  1  0.75000000  0.16246212  0.00000000  1
  Li  Li55  1  0.75000000  0.83753788  0.50000000  1
  Li  Li56  1  0.66246212  0.50000000  0.25000000  1
  Li  Li57  1  0.33753788  0.00000000  0.25000000  1
  Li  Li58  1  0.00000000  0.25000000  0.33753788  1
  Li  Li59  1  0.50000000  0.25000000  0.66246212  1
  Li  Li60  1  0.41246212  0.50000000  0.75000000  1
  Li  Li61  1  0.08753788  0.50000000  0.25000000  1
  Li  Li62  1  0.75000000  0.41246212  0.50000000  1
  Li  Li63  1  0.25000000  0.08753788  0.50000000  1
  Li  Li64  1  0.50000000  0.75000000  0.41246212  1
  Li  Li65  1  0.50000000  0.25000000  0.08753788  1
  Li  Li66  1  0.25000000  0.66246212  0.50000000  1
  Li  Li67  1  0.25000000  0.33753788  0.00000000  1
  Li  Li68  1  0.16246212  0.00000000  0.75000000  1
  Li  Li69  1  0.83753788  0.50000000  0.75000000  1
  Li  Li70  1  0.50000000  0.75000000  0.83753788  1
  Li  Li71  1  0.00000000  0.75000000  0.16246212  1
  Li  Li72  1  0.12500000  0.91648322  0.33351678  1
  Li  Li73  1  0.37500000  0.08351678  0.83351678  1
  Li  Li74  1  0.87500000  0.41648322  0.16648322  1
  Li  Li75  1  0.62500000  0.58351678  0.66648322  1
  Li  Li76  1  0.33351678  0.12500000  0.91648322  1
  Li  Li77  1  0.83351678  0.37500000  0.08351678  1
  Li  Li78  1  0.16648322  0.87500000  0.41648322  1
  Li  Li79  1  0.66648322  0.62500000  0.58351678  1
  Li  Li80  1  0.91648322  0.33351678  0.12500000  1
  Li  Li81  1  0.08351678  0.83351678  0.37500000  1
  Li  Li82  1  0.41648322  0.16648322  0.87500000  1
  Li  Li83  1  0.58351678  0.66648322  0.62500000  1
  Li  Li84  1  0.62500000  0.41648322  0.83351678  1
  Li  Li85  1  0.87500000  0.58351678  0.33351678  1
  Li  Li86  1  0.37500000  0.91648322  0.66648322  1
  Li  Li87  1  0.12500000  0.08351678  0.16648322  1
  Li  Li88  1  0.83351678  0.62500000  0.41648322  1
  Li  Li89  1  0.33351678  0.87500000  0.58351678  1
  Li  Li90  1  0.66648322  0.37500000  0.91648322  1
  Li  Li91  1  0.16648322  0.12500000  0.08351678  1
  Li  Li92  1  0.41648322  0.83351678  0.62500000  1
  Li  Li93  1  0.58351678  0.33351678  0.87500000  1
  Li  Li94  1  0.91648322  0.66648322  0.37500000  1
  Li  Li95  1  0.08351678  0.16648322  0.12500000  1
  Li  Li96  1  0.12500000  0.23701160  0.01298840  1
  Li  Li97  1  0.37500000  0.76298840  0.51298840  1
  Li  Li98  1  0.87500000  0.73701160  0.48701160  1
  Li  Li99  1  0.62500000  0.26298840  0.98701160  1
  Li  Li100  1  0.01298840  0.12500000  0.23701160  1
  Li  Li101  1  0.51298840  0.37500000  0.76298840  1
  Li  Li102  1  0.48701160  0.87500000  0.73701160  1
  Li  Li103  1  0.98701160  0.62500000  0.26298840  1
  Li  Li104  1  0.23701160  0.01298840  0.12500000  1
  Li  Li105  1  0.76298840  0.51298840  0.37500000  1
  Li  Li106  1  0.73701160  0.48701160  0.87500000  1
  Li  Li107  1  0.26298840  0.98701160  0.62500000  1
  Li  Li108  1  0.62500000  0.73701160  0.51298840  1
  Li  Li109  1  0.87500000  0.26298840  0.01298840  1
  Li  Li110  1  0.37500000  0.23701160  0.98701160  1
  Li  Li111  1  0.12500000  0.76298840  0.48701160  1
  Li  Li112  1  0.51298840  0.62500000  0.73701160  1
  Li  Li113  1  0.01298840  0.87500000  0.26298840  1
  Li  Li114  1  0.98701160  0.37500000  0.23701160  1
  Li  Li115  1  0.48701160  0.12500000  0.76298840  1
  Li  Li116  1  0.73701160  0.51298840  0.62500000  1
  Li  Li117  1  0.26298840  0.01298840  0.87500000  1
  Li  Li118  1  0.23701160  0.98701160  0.37500000  1
  Li  Li119  1  0.76298840  0.48701160  0.12500000  1
  Li  Li120  1  0.12500000  0.14726661  0.39726661  1
  Li  Li121  1  0.37500000  0.85273339  0.89726661  1
  Li  Li122  1  0.87500000  0.64726661  0.10273339  1
  Li  Li123  1  0.62500000  0.35273339  0.60273339  1
  Li  Li124  1  0.39726661  0.12500000  0.14726661  1
  Li  Li125  1  0.89726661  0.37500000  0.85273339  1
  Li  Li126  1  0.10273339  0.87500000  0.64726661  1
  Li  Li127  1  0.60273339  0.62500000  0.35273339  1
  Li  Li128  1  0.14726661  0.39726661  0.12500000  1
  Li  Li129  1  0.85273339  0.89726661  0.37500000  1
  Li  Li130  1  0.64726661  0.10273339  0.87500000  1
  Li  Li131  1  0.35273339  0.60273339  0.62500000  1
  Li  Li132  1  0.62500000  0.64726661  0.89726661  1
  Li  Li133  1  0.87500000  0.35273339  0.39726661  1
  Li  Li134  1  0.37500000  0.14726661  0.60273339  1
  Li  Li135  1  0.12500000  0.85273339  0.10273339  1
  Li  Li136  1  0.89726661  0.62500000  0.64726661  1
  Li  Li137  1  0.39726661  0.87500000  0.35273339  1
  Li  Li138  1  0.60273339  0.37500000  0.14726661  1
  Li  Li139  1  0.10273339  0.12500000  0.85273339  1
  Li  Li140  1  0.64726661  0.89726661  0.62500000  1
  Li  Li141  1  0.35273339  0.39726661  0.87500000  1
  Li  Li142  1  0.14726661  0.60273339  0.37500000  1
  Li  Li143  1  0.85273339  0.10273339  0.12500000  1
  Te  Te144  1  0.87500000  0.87500000  0.87500000  1
  Te  Te145  1  0.62500000  0.12500000  0.37500000  1
  Te  Te146  1  0.12500000  0.37500000  0.62500000  1
  Te  Te147  1  0.37500000  0.62500000  0.12500000  1
  Te  Te148  1  0.37500000  0.37500000  0.37500000  1
  Te  Te149  1  0.12500000  0.62500000  0.87500000  1
  Te  Te150  1  0.62500000  0.87500000  0.12500000  1
  Te  Te151  1  0.87500000  0.12500000  0.62500000  1
  Te  Te152  1  0.99924584  0.99924584  0.99924584  1
  Te  Te153  1  0.50075416  0.00075416  0.49924584  1
  Te  Te154  1  0.00075416  0.49924584  0.50075416  1
  Te  Te155  1  0.49924584  0.50075416  0.00075416  1
  Te  Te156  1  0.74924584  0.24924584  0.25075416  1
  Te  Te157  1  0.75075416  0.75075416  0.75075416  1
  Te  Te158  1  0.24924584  0.25075416  0.74924584  1
  Te  Te159  1  0.25075416  0.74924584  0.24924584  1
  Te  Te160  1  0.49924584  0.49924584  0.49924584  1
  Te  Te161  1  0.00075416  0.50075416  0.99924584  1
  Te  Te162  1  0.50075416  0.99924584  0.00075416  1
  Te  Te163  1  0.99924584  0.00075416  0.50075416  1
  Te  Te164  1  0.24924584  0.74924584  0.75075416  1
  Te  Te165  1  0.25075416  0.25075416  0.25075416  1
  Te  Te166  1  0.74924584  0.75075416  0.24924584  1
  Te  Te167  1  0.75075416  0.24924584  0.74924584  1
