# generated using pymatgen
data_Li2YP3
_symmetry_space_group_name_H-M   'P 1'
_cell_length_a   4.87569610
_cell_length_b   4.92508452
_cell_length_c   7.24730427
_cell_angle_alpha   95.76888010
_cell_angle_beta   102.56342153
_cell_angle_gamma   113.17129856
_symmetry_Int_Tables_number   1
_chemical_formula_structural   Li2YP3
_chemical_formula_sum   'Li2 Y1 P3'
_cell_volume   152.76593873
_cell_formula_units_Z   1
loop_
 _symmetry_equiv_pos_site_id
 _symmetry_equiv_pos_as_xyz
  1  'x, y, z'
loop_
 _atom_site_type_symbol
 _atom_site_label
 _atom_site_symmetry_multiplicity
 _atom_site_fract_x
 _atom_site_fract_y
 _atom_site_fract_z
 _atom_site_occupancy
  P  P0  1  0.12500000  0.12500000  0.12500000  1
  P  P1  1  0.50000000  0.50000000  0.50000000  1
  P  P2  1  0.25000000  0.25000000  0.25000000  1
  Li  Li3  1  0.75000000  0.75000000  0.75000000  1
  Li  Li4  1  0.57704991  0.88214078  0.04901669  1
  Y  Y5  1  0.20114863  0.64145876  0.48462947  1
