# generated using pymatgen
data_Li2Y2MoAs2P3
_symmetry_space_group_name_H-M   'P 1'
_cell_length_a   4.96938971
_cell_length_b   5.19998480
_cell_length_c   7.19889650
_cell_angle_alpha   94.84141528
_cell_angle_beta   100.54359596
_cell_angle_gamma   109.44604098
_symmetry_Int_Tables_number   1
_chemical_formula_structural   Li2Y2MoAs2P3
_chemical_formula_sum   'Li2 Y2 Mo1 As2 P3'
_cell_volume   170.31958559
_cell_formula_units_Z   1
loop_
 _symmetry_equiv_pos_site_id
 _symmetry_equiv_pos_as_xyz
  1  'x, y, z'
loop_
 _atom_site_type_symbol
 _atom_site_label
 _atom_site_symmetry_multiplicity
 _atom_site_fract_x
 _atom_site_fract_y
 _atom_site_fract_z
 _atom_site_occupancy
  Y  Y0  1  0.00000000  0.00000000  0.00000000  1
  Y  Y1  1  0.50000000  0.50000000  0.50000000  1
  P  P2  1  0.25000000  0.25000000  0.25000000  1
  P  P3  1  0.75000000  0.25000000  0.00000000  1
  P  P4  1  0.25000000  0.75000000  0.50000000  1
  Mo  Mo5  1  0.90332713  0.62190796  0.18893551  1
  As  As6  1  0.16339859  0.38083127  0.07201220  1
  As  As7  1  0.01884917  0.65688087  0.76744212  1
  Li  Li8  1  0.49644028  0.59279812  0.64508114  1
  Li  Li9  1  0.32923814  0.85453714  0.70513834  1
