# generated using pymatgen
data_Li2MoAs4P2Se
_symmetry_space_group_name_H-M   'P 1'
_cell_length_a   5.02848203
_cell_length_b   5.20898093
_cell_length_c   6.89985418
_cell_angle_alpha   94.36871126
_cell_angle_beta   99.72427403
_cell_angle_gamma   107.80109574
_symmetry_Int_Tables_number   1
_chemical_formula_structural   Li2MoAs4P2Se
_chemical_formula_sum   'Li2 Mo1 As4 P2 Se1'
_cell_volume   168.02424492
_cell_formula_units_Z   1
loop_
 _symmetry_equiv_pos_site_id
 _symmetry_equiv_pos_as_xyz
  1  'x, y, z'
loop_
 _atom_site_type_symbol
 _atom_site_label
 _atom_site_symmetry_multiplicity
 _atom_site_fract_x
 _atom_site_fract_y
 _atom_site_fract_z
 _atom_site_occupancy
  Se  Se0  1  0.12500000  0.00000000  0.25000000  1
  P  P1  1  0.00000000  0.00000000  0.00000000  1
  P  P2  1  0.37500000  0.00000000  0.25000000  1
  Mo  Mo3  1  0.25000000  0.25000000  0.25000000  1
  As  As4  1  0.00000000  0.25000000  0.12500000  1
  As  As5  1  0.42436071  0.12760772  0.15572847  1
  As  As6  1  0.42271385  0.62254641  0.67773109  1
  As  As7  1  0.52457478  0.04833617  0.13039413  1
  Li  Li8  1  0.71267863  0.57093182  0.02976255  1
  Li  Li9  1  0.77116158  0.24242294  0.73775874  1
