# generated using pymatgen
data_LiF
_symmetry_space_group_name_H-M   'P 1'
_cell_length_a   17.46948310
_cell_length_b   17.46948310
_cell_length_c   4.12491817
_cell_angle_alpha   90.00000000
_cell_angle_beta   90.00000000
_cell_angle_gamma   90.00000000
_symmetry_Int_Tables_number   1
_chemical_formula_structural   LiF
_chemical_formula_sum   'Li36 F36'
_cell_volume   1258.85424246
_cell_formula_units_Z   36
loop_
 _symmetry_equiv_pos_site_id
 _symmetry_equiv_pos_as_xyz
  1  'x, y, z'
loop_
 _atom_site_type_symbol
 _atom_site_label
 _atom_site_symmetry_multiplicity
 _atom_site_fract_x
 _atom_site_fract_y
 _atom_site_fract_z
 _atom_site_occupancy
  F  F0  1  0.00000000  0.00000000  0.00000000  1
  F  F1  1  0.50000000  0.00000000  0.50000000  1
  F  F2  1  0.25000000  0.75000000  0.25000000  1
  F  F3  1  0.25000000  0.25000000  0.75000000  1
  F  F4  1  0.50000000  0.50000000  0.50000000  1
  F  F5  1  0.00000000  0.50000000  0.00000000  1
  F  F6  1  0.75000000  0.25000000  0.75000000  1
  F  F7  1  0.75000000  0.75000000  0.25000000  1
  F  F8  1  0.38716584  0.63716584  0.87500000  1
  F  F9  1  0.11283416  0.36283416  0.37500000  1
  F  F10  1  0.61283416  0.13716584  0.12500000  1
  F  F11  1  0.88716584  0.86283416  0.62500000  1
  F  F12  1  0.61283416  0.36283416  0.12500000  1
  F  F13  1  0.88716584  0.63716584  0.62500000  1
  F  F14  1  0.38716584  0.86283416  0.87500000  1
  F  F15  1  0.11283416  0.13716584  0.37500000  1
  F  F16  1  0.88716584  0.13716584  0.37500000  1
  F  F17  1  0.61283416  0.86283416  0.87500000  1
  F  F18  1  0.11283416  0.63716584  0.62500000  1
  F  F19  1  0.38716584  0.36283416  0.12500000  1
  F  F20  1  0.11283416  0.86283416  0.62500000  1
  F  F21  1  0.38716584  0.13716584  0.12500000  1
  F  F22  1  0.88716584  0.36283416  0.37500000  1
  F  F23  1  0.61283416  0.63716584  0.87500000  1
  F  F24  1  0.00000000  0.00000000  0.50000000  1
  F  F25  1  0.50000000  0.00000000  0.00000000  1
  F  F26  1  0.25000000  0.75000000  0.75000000  1
  F  F27  1  0.25000000  0.25000000  0.25000000  1
  F  F28  1  0.50000000  0.50000000  0.00000000  1
  F  F29  1  0.00000000  0.50000000  0.50000000  1
  F  F30  1  0.75000000  0.25000000  0.25000000  1
  F  F31  1  0.75000000  0.75000000  0.75000000  1
  F  F32  1  0.00000000  0.25000000  0.37500000  1
  F  F33  1  0.00000000  0.75000000  0.62500000  1
  F  F34  1  0.50000000  0.75000000  0.87500000  1
  F  F35  1  0.50000000  0.25000000  0.12500000  1
  Li  Li36  1  0.78413779  0.42886850  0.07664394  1
  Li  Li37  1  -0.28413779  -0.42886850  0.57664394  1
  Li  Li38  1  -0.17886850  1.53413779  0.32664394  1
  Li  Li39  1  0.67886850  -0.53413779  0.82664394  1
  Li  Li40  1  -0.28413779  0.42886850  0.42335606  1
  Li  Li41  1  0.78413779  -0.42886850  -0.07664394  1
  Li  Li42  1  0.67886850  1.53413779  0.17335606  1
  Li  Li43  1  -0.17886850  -0.53413779  0.67335606  1
  Li  Li44  1  -0.78413779  -0.42886850  -0.07664394  1
  Li  Li45  1  1.28413779  0.42886850  0.42335606  1
  Li  Li46  1  1.17886850  -0.53413779  0.67335606  1
  Li  Li47  1  0.32113150  1.53413779  0.17335606  1
  Li  Li48  1  1.28413779  -0.42886850  0.57664394  1
  Li  Li49  1  -0.78413779  0.42886850  0.07664394  1
  Li  Li50  1  0.32113150  -0.53413779  0.82664394  1
  Li  Li51  1  1.17886850  1.53413779  0.32664394  1
  Li  Li52  1  1.28413779  0.92886850  0.57664394  1
  Li  Li53  1  0.21586221  0.07113150  1.07664394  1
  Li  Li54  1  0.32113150  2.03413779  0.82664394  1
  Li  Li55  1  1.17886850  -0.03413779  1.32664394  1
  Li  Li56  1  0.21586221  0.92886850  0.92335606  1
  Li  Li57  1  1.28413779  0.07113150  0.42335606  1
  Li  Li58  1  1.17886850  2.03413779  0.67335606  1
  Li  Li59  1  0.32113150  -0.03413779  1.17335606  1
  Li  Li60  1  -0.28413779  0.07113150  0.42335606  1
  Li  Li61  1  1.78413779  0.92886850  0.92335606  1
  Li  Li62  1  1.67886850  -0.03413779  1.17335606  1
  Li  Li63  1  0.82113150  2.03413779  0.67335606  1
  Li  Li64  1  1.78413779  0.07113150  1.07664394  1
  Li  Li65  1  -0.28413779  0.92886850  0.57664394  1
  Li  Li66  1  0.82113150  -0.03413779  1.32664394  1
  Li  Li67  1  1.67886850  2.03413779  0.82664394  1
  Li  Li68  1  0.00000000  0.75000000  0.12500000  1
  Li  Li69  1  0.50000000  0.75000000  0.37500000  1
  Li  Li70  1  0.50000000  0.25000000  0.62500000  1
  Li  Li71  1  0.00000000  0.25000000  0.87500000  1
