# generated using pymatgen
data_LiY2P3Se
_symmetry_space_group_name_H-M   'P 1'
_cell_length_a   5.18510446
_cell_length_b   5.41043762
_cell_length_c   7.18889576
_cell_angle_alpha   94.42933117
_cell_angle_beta   99.49127131
_cell_angle_gamma   107.54795261
_symmetry_Int_Tables_number   1
_chemical_formula_structural   LiY2P3Se
_chemical_formula_sum   'Li1 Y2 P3 Se1'
_cell_volume   187.92179129
_cell_formula_units_Z   1
loop_
 _symmetry_equiv_pos_site_id
 _symmetry_equiv_pos_as_xyz
  1  'x, y, z'
loop_
 _atom_site_type_symbol
 _atom_site_label
 _atom_site_symmetry_multiplicity
 _atom_site_fract_x
 _atom_site_fract_y
 _atom_site_fract_z
 _atom_site_occupancy
  Se  Se0  1  0.00000000  0.00000000  0.00000000  1
  Y  Y1  1  0.50000000  0.50000000  0.50000000  1
  Y  Y2  1  0.25000000  0.25000000  0.25000000  1
  P  P3  1  0.75000000  0.25000000  0.00000000  1
  P  P4  1  0.25000000  0.75000000  0.50000000  1
  P  P5  1  0.01448976  0.23268623  0.27656643  1
  Li  Li6  1  0.85754185  0.71561481  0.21812971  1
