# generated using pymatgen
data_LiF
_symmetry_space_group_name_H-M   'P 1'
_cell_length_a   8.48333927
_cell_length_b   8.48333927
_cell_length_c   9.71535503
_cell_angle_alpha   90.00000000
_cell_angle_beta   90.00000000
_cell_angle_gamma   120.00000000
_symmetry_Int_Tables_number   1
_chemical_formula_structural   LiF
_chemical_formula_sum   'Li22 F22'
_cell_volume   605.51231424
_cell_formula_units_Z   22
loop_
 _symmetry_equiv_pos_site_id
 _symmetry_equiv_pos_as_xyz
  1  'x, y, z'
loop_
 _atom_site_type_symbol
 _atom_site_label
 _atom_site_symmetry_multiplicity
 _atom_site_fract_x
 _atom_site_fract_y
 _atom_site_fract_z
 _atom_site_occupancy
  F  F0  1  0.46039876  0.00000000  0.00000000  1
  F  F1  1  0.00000000  0.46039876  0.00000000  1
  F  F2  1  0.53960124  0.53960124  -0.00000000  1
  F  F3  1  0.62966375  0.00000000  0.00000000  1
  F  F4  1  0.00000000  0.62966375  -0.00000000  1
  F  F5  1  0.37033625  0.37033625  0.00000000  1
  F  F6  1  0.00000000  0.00000000  0.00000000  1
  F  F7  1  0.87767120  0.72280946  -0.00000000  1
  F  F8  1  0.27719054  0.15486174  0.00000000  1
  F  F9  1  0.84513826  0.12232880  0.00000000  1
  F  F10  1  0.72280946  0.87767120  -0.00000000  1
  F  F11  1  0.15486174  0.27719054  0.00000000  1
  F  F12  1  0.12232880  0.84513826  0.00000000  1
  F  F13  1  0.30883636  0.00000000  0.00000000  1
  F  F14  1  0.00000000  0.30883636  0.00000000  1
  F  F15  1  0.69116364  0.69116364  0.00000000  1
  F  F16  1  0.33333333  0.66666667  0.00000000  1
  F  F17  1  0.66666667  0.33333333  0.00000000  1
  F  F18  1  0.33333333  0.66666667  0.23131121  1
  F  F19  1  0.33333333  0.66666667  0.76868879  1
  F  F20  1  0.66666667  0.33333333  0.76868879  1
  F  F21  1  0.66666667  0.33333333  0.23131121  1
  Li  Li22  1  0.00000000  0.00000000  0.67890685  1
  Li  Li23  1  0.00000000  0.00000000  0.32109315  1
  Li  Li24  1  0.20880129  0.91229932  0.76424904  1
  Li  Li25  1  -0.91229932  -0.70349803  0.76424904  1
  Li  Li26  1  0.70349803  -0.20880129  0.76424904  1
  Li  Li27  1  0.20880129  0.91229932  -0.76424904  1
  Li  Li28  1  -0.91229932  -0.70349803  -0.76424904  1
  Li  Li29  1  0.70349803  -0.20880129  -0.76424904  1
  Li  Li30  1  0.91229932  0.20880129  -0.76424904  1
  Li  Li31  1  -0.70349803  -0.91229932  -0.76424904  1
  Li  Li32  1  -0.20880129  0.70349803  -0.76424904  1
  Li  Li33  1  0.91229932  0.20880129  0.76424904  1
  Li  Li34  1  -0.70349803  -0.91229932  0.76424904  1
  Li  Li35  1  -0.20880129  0.70349803  0.76424904  1
  Li  Li36  1  0.29953991  0.00000000  0.50000000  1
  Li  Li37  1  0.00000000  0.29953991  0.50000000  1
  Li  Li38  1  0.70046009  0.70046009  0.50000000  1
  Li  Li39  1  0.33333333  0.66666667  0.50000000  1
  Li  Li40  1  0.66666667  0.33333333  0.50000000  1
  Li  Li41  1  0.54924514  0.00000000  0.50000000  1
  Li  Li42  1  0.00000000  0.54924514  0.50000000  1
  Li  Li43  1  0.45075486  0.45075486  0.50000000  1
