# generated using pymatgen
data_Li2Te4AsP3Se
_symmetry_space_group_name_H-M   'P 1'
_cell_length_a   4.47933815
_cell_length_b   4.82298019
_cell_length_c   6.70390447
_cell_angle_alpha   95.29607686
_cell_angle_beta   101.25012023
_cell_angle_gamma   108.96267225
_symmetry_Int_Tables_number   1
_chemical_formula_structural   Li2Te4AsP3Se
_chemical_formula_sum   'Li2 Te4 As1 P3 Se1'
_cell_volume   132.43172230
_cell_formula_units_Z   1
loop_
 _symmetry_equiv_pos_site_id
 _symmetry_equiv_pos_as_xyz
  1  'x, y, z'
loop_
 _atom_site_type_symbol
 _atom_site_label
 _atom_site_symmetry_multiplicity
 _atom_site_fract_x
 _atom_site_fract_y
 _atom_site_fract_z
 _atom_site_occupancy
  Se  Se0  1  0.00000000  0.00000000  0.00000000  1
  Te  Te1  1  0.50000000  0.50000000  0.50000000  1
  Te  Te2  1  0.50000000  0.50000000  0.00000000  1
  Te  Te3  1  0.50000000  0.00000000  0.50000000  1
  Te  Te4  1  0.00000000  0.50000000  0.50000000  1
  P  P5  1  0.62722499  0.72261099  0.97821813  1
  P  P6  1  0.11493083  0.25167424  0.20642323  1
  P  P7  1  0.31902888  0.52971143  0.68130771  1
  As  As8  1  0.10607999  0.44091813  0.68511509  1
  Li  Li9  1  0.21690361  0.56209786  0.10736861  1
  Li  Li10  1  0.71718356  0.37603439  0.63424553  1
