# generated using pymatgen
data_LiF
_symmetry_space_group_name_H-M   'P 1'
_cell_length_a   9.41918105
_cell_length_b   9.41918105
_cell_length_c   6.50293931
_cell_angle_alpha   90.00000000
_cell_angle_beta   90.00000000
_cell_angle_gamma   90.00000000
_symmetry_Int_Tables_number   1
_chemical_formula_structural   LiF
_chemical_formula_sum   'Li29 F29'
_cell_volume   576.94709455
_cell_formula_units_Z   29
loop_
 _symmetry_equiv_pos_site_id
 _symmetry_equiv_pos_as_xyz
  1  'x, y, z'
loop_
 _atom_site_type_symbol
 _atom_site_label
 _atom_site_symmetry_multiplicity
 _atom_site_fract_x
 _atom_site_fract_y
 _atom_site_fract_z
 _atom_site_occupancy
  F  F0  1  0.07824457  0.58900593  -0.00000000  1
  F  F1  1  0.92175543  0.41099407  -0.00000000  1
  F  F2  1  0.41099407  0.07824457  -0.00000000  1
  F  F3  1  0.58900593  0.92175543  -0.00000000  1
  F  F4  1  0.92175543  0.58900593  -0.00000000  1
  F  F5  1  0.07824457  0.41099407  -0.00000000  1
  F  F6  1  0.58900593  0.07824457  -0.00000000  1
  F  F7  1  0.41099407  0.92175543  0.00000000  1
  F  F8  1  0.31550823  0.50000000  0.36466388  1
  F  F9  1  0.68449177  0.50000000  0.36466388  1
  F  F10  1  0.50000000  0.31550823  0.36466388  1
  F  F11  1  0.50000000  0.68449177  0.36466388  1
  F  F12  1  0.68449177  0.50000000  0.63533612  1
  F  F13  1  0.31550823  0.50000000  0.63533612  1
  F  F14  1  0.50000000  0.31550823  0.63533612  1
  F  F15  1  0.50000000  0.68449177  0.63533612  1
  F  F16  1  0.65845779  -0.00000000  0.34299192  1
  F  F17  1  0.34154221  -0.00000000  0.34299192  1
  F  F18  1  0.00000000  0.65845779  0.34299192  1
  F  F19  1  0.00000000  0.34154221  0.34299192  1
  F  F20  1  0.34154221  -0.00000000  0.65700808  1
  F  F21  1  0.65845779  -0.00000000  0.65700808  1
  F  F22  1  0.00000000  0.65845779  0.65700808  1
  F  F23  1  0.00000000  0.34154221  0.65700808  1
  F  F24  1  0.71717758  0.71717758  0.50000000  1
  F  F25  1  0.28282242  0.28282242  0.50000000  1
  F  F26  1  0.28282242  0.71717758  0.50000000  1
  F  F27  1  0.71717758  0.28282242  0.50000000  1
  F  F28  1  0.50000000  0.50000000  0.50000000  1
  Li  Li29  1  0.83158765  0.50000000  0.50000000  1
  Li  Li30  1  0.16841235  0.50000000  0.50000000  1
  Li  Li31  1  0.50000000  0.83158765  0.50000000  1
  Li  Li32  1  0.50000000  0.16841235  0.50000000  1
  Li  Li33  1  0.72269559  0.72269559  0.32614919  1
  Li  Li34  1  0.27730441  0.27730441  0.32614919  1
  Li  Li35  1  0.27730441  0.72269559  0.32614919  1
  Li  Li36  1  0.72269559  0.27730441  0.32614919  1
  Li  Li37  1  0.27730441  0.72269559  0.67385081  1
  Li  Li38  1  0.72269559  0.27730441  0.67385081  1
  Li  Li39  1  0.72269559  0.72269559  0.67385081  1
  Li  Li40  1  0.27730441  0.27730441  0.67385081  1
  Li  Li41  1  0.00000000  0.50000000  0.18571341  1
  Li  Li42  1  0.50000000  0.00000000  0.18571341  1
  Li  Li43  1  0.00000000  0.50000000  0.81428659  1
  Li  Li44  1  0.50000000  0.00000000  0.81428659  1
  Li  Li45  1  0.38244424  0.72785705  0.50000000  1
  Li  Li46  1  0.61755576  0.27214295  0.50000000  1
  Li  Li47  1  0.27214295  0.38244424  0.50000000  1
  Li  Li48  1  0.72785705  0.61755576  0.50000000  1
  Li  Li49  1  0.61755576  0.72785705  0.50000000  1
  Li  Li50  1  0.38244424  0.27214295  0.50000000  1
  Li  Li51  1  0.72785705  0.38244424  0.50000000  1
  Li  Li52  1  0.27214295  0.61755576  0.50000000  1
  Li  Li53  1  0.50000000  0.50000000  -0.00000000  1
  Li  Li54  1  0.10679031  -0.00000000  0.50000000  1
  Li  Li55  1  0.89320969  0.00000000  0.50000000  1
  Li  Li56  1  0.00000000  0.10679031  0.50000000  1
  Li  Li57  1  0.00000000  0.89320969  0.50000000  1
