# generated using pymatgen
data_LiF
_symmetry_space_group_name_H-M   'P 1'
_cell_length_a   12.68119183
_cell_length_b   12.68119183
_cell_length_c   3.58408893
_cell_angle_alpha   90.00000000
_cell_angle_beta   90.00000000
_cell_angle_gamma   120.00000000
_symmetry_Int_Tables_number   1
_chemical_formula_structural   LiF
_chemical_formula_sum   'Li25 F25'
_cell_volume   499.14825024
_cell_formula_units_Z   25
loop_
 _symmetry_equiv_pos_site_id
 _symmetry_equiv_pos_as_xyz
  1  'x, y, z'
loop_
 _atom_site_type_symbol
 _atom_site_label
 _atom_site_symmetry_multiplicity
 _atom_site_fract_x
 _atom_site_fract_y
 _atom_site_fract_z
 _atom_site_occupancy
  F  F0  1  0.21969264  0.35840202  0.21524896  1
  F  F1  1  0.64159798  0.86129062  0.21524896  1
  F  F2  1  0.13870938  0.78030736  0.21524896  1
  F  F3  1  0.64159798  0.78030736  0.78475104  1
  F  F4  1  0.13870938  0.35840202  0.78475104  1
  F  F5  1  0.21969264  0.86129062  0.78475104  1
  F  F6  1  0.33333333  0.66666667  0.50000000  1
  F  F7  1  0.66666667  0.33333333  0.50000000  1
  F  F8  1  0.86655792  0.87664489  0.67070116  1
  F  F9  1  0.12335511  0.98991303  0.67070116  1
  F  F10  1  0.01008697  0.13344208  0.67070116  1
  F  F11  1  0.12335511  0.13344208  0.32929884  1
  F  F12  1  0.01008697  0.87664489  0.32929884  1
  F  F13  1  0.86655792  0.98991303  0.32929884  1
  F  F14  1  0.28355127  0.04617834  0.97103699  1
  F  F15  1  0.95382166  0.23737294  0.97103699  1
  F  F16  1  0.76262706  0.71644873  0.97103699  1
  F  F17  1  0.95382166  0.71644873  0.02896301  1
  F  F18  1  0.76262706  0.04617834  0.02896301  1
  F  F19  1  0.28355127  0.23737294  0.02896301  1
  F  F20  1  0.00000000  0.00000000  0.00000000  1
  F  F21  1  0.00000000  0.00000000  0.50000000  1
  F  F22  1  0.23213224  0.76786776  0.00000000  1
  F  F23  1  0.23213224  0.46426448  0.00000000  1
  F  F24  1  0.53573552  0.76786776  -0.00000000  1
  Li  Li25  1  0.07785904  0.43758443  0.29663171  1
  Li  Li26  1  -0.43758443  -0.35972538  0.29663171  1
  Li  Li27  1  0.35972538  -0.07785904  0.29663171  1
  Li  Li28  1  -0.43758443  -0.07785904  -0.29663171  1
  Li  Li29  1  0.35972538  0.43758443  -0.29663171  1
  Li  Li30  1  0.07785904  -0.35972538  -0.29663171  1
  Li  Li31  1  0.66666667  0.33333333  0.00000000  1
  Li  Li32  1  0.84553038  0.51241055  0.09393992  1
  Li  Li33  1  0.48758945  0.33311983  0.09393992  1
  Li  Li34  1  0.66688017  0.15446962  0.09393992  1
  Li  Li35  1  0.48758945  0.15446962  0.90606008  1
  Li  Li36  1  0.66688017  0.51241055  0.90606008  1
  Li  Li37  1  0.84553038  0.33311983  0.90606008  1
  Li  Li38  1  0.57058588  0.42941412  0.50000000  1
  Li  Li39  1  0.57058588  0.14117175  0.50000000  1
  Li  Li40  1  0.85882825  0.42941412  0.50000000  1
  Li  Li41  1  0.86647616  0.33159731  0.43937808  1
  Li  Li42  1  0.66840269  0.53487886  0.43937808  1
  Li  Li43  1  0.46512114  0.13352384  0.43937808  1
  Li  Li44  1  0.66840269  0.13352384  0.56062192  1
  Li  Li45  1  0.46512114  0.33159731  0.56062192  1
  Li  Li46  1  0.86647616  0.53487886  0.56062192  1
  Li  Li47  1  0.81043363  0.18956637  -0.00000000  1
  Li  Li48  1  0.81043363  0.62086726  0.00000000  1
  Li  Li49  1  0.37913274  0.18956637  -0.00000000  1
