# generated using pymatgen
data_LiY2Te4P3
_symmetry_space_group_name_H-M   'P 1'
_cell_length_a   5.15552095
_cell_length_b   5.05602108
_cell_length_c   7.35637356
_cell_angle_alpha   94.77508253
_cell_angle_beta   100.39913702
_cell_angle_gamma   109.17960868
_symmetry_Int_Tables_number   1
_chemical_formula_structural   LiY2Te4P3
_chemical_formula_sum   'Li1 Y2 Te4 P3'
_cell_volume   176.02622966
_cell_formula_units_Z   1
loop_
 _symmetry_equiv_pos_site_id
 _symmetry_equiv_pos_as_xyz
  1  'x, y, z'
loop_
 _atom_site_type_symbol
 _atom_site_label
 _atom_site_symmetry_multiplicity
 _atom_site_fract_x
 _atom_site_fract_y
 _atom_site_fract_z
 _atom_site_occupancy
  Te  Te0  1  0.12500000  0.00000000  0.25000000  1
  Te  Te1  1  0.00000000  0.00000000  0.00000000  1
  Te  Te2  1  0.37500000  0.00000000  0.25000000  1
  Te  Te3  1  0.25000000  0.25000000  0.25000000  1
  Y  Y4  1  0.00000000  0.25000000  0.12500000  1
  Y  Y5  1  0.01840607  0.84236883  0.67012495  1
  P  P6  1  0.79979161  0.64314505  0.59558596  1
  P  P7  1  0.56637487  0.09946994  0.23981605  1
  P  P8  1  0.43866269  0.37779470  0.94502873  1
  Li  Li9  1  0.49681150  0.18281081  0.53530651  1
