# generated using pymatgen
data_Li4TeF2
_symmetry_space_group_name_H-M   'P 1'
_cell_length_a   12.98044245
_cell_length_b   12.98044245
_cell_length_c   14.43427404
_cell_angle_alpha   90.00000000
_cell_angle_beta   90.00000000
_cell_angle_gamma   90.00000000
_symmetry_Int_Tables_number   1
_chemical_formula_structural   Li4TeF2
_chemical_formula_sum   'Li96 Te24 F48'
_cell_volume   2432.05806040
_cell_formula_units_Z   24
loop_
 _symmetry_equiv_pos_site_id
 _symmetry_equiv_pos_as_xyz
  1  'x, y, z'
loop_
 _atom_site_type_symbol
 _atom_site_label
 _atom_site_symmetry_multiplicity
 _atom_site_fract_x
 _atom_site_fract_y
 _atom_site_fract_z
 _atom_site_occupancy
  F  F0  1  0.37019554  0.34984372  0.40743418  1
  F  F1  1  0.12980446  -0.34984372  0.90743418  1
  F  F2  1  -0.09984372  1.12019554  0.65743418  1
  F  F3  1  0.59984372  -0.12019554  1.15743418  1
  F  F4  1  0.12980446  0.34984372  -0.40743418  1
  F  F5  1  0.37019554  -0.34984372  0.09256582  1
  F  F6  1  0.59984372  1.12019554  0.34256582  1
  F  F7  1  -0.09984372  -0.12019554  -0.15743418  1
  F  F8  1  -0.37019554  -0.34984372  -0.40743418  1
  F  F9  1  0.87019554  0.34984372  0.09256582  1
  F  F10  1  1.09984372  -0.12019554  0.34256582  1
  F  F11  1  0.40015628  1.12019554  -0.15743418  1
  F  F12  1  0.87019554  -0.34984372  0.40743418  1
  F  F13  1  -0.37019554  0.34984372  0.90743418  1
  F  F14  1  0.40015628  -0.12019554  0.65743418  1
  F  F15  1  1.09984372  1.12019554  1.15743418  1
  F  F16  1  0.87019554  0.84984372  0.90743418  1
  F  F17  1  0.62980446  0.15015628  1.40743418  1
  F  F18  1  0.40015628  1.62019554  1.15743418  1
  F  F19  1  1.09984372  0.37980446  1.65743418  1
  F  F20  1  0.62980446  0.84984372  0.09256582  1
  F  F21  1  0.87019554  0.15015628  0.59256582  1
  F  F22  1  1.09984372  1.62019554  0.84256582  1
  F  F23  1  0.40015628  0.37980446  0.34256582  1
  F  F24  1  0.12980446  0.15015628  0.09256582  1
  F  F25  1  1.37019554  0.84984372  0.59256582  1
  F  F26  1  1.59984372  0.37980446  0.84256582  1
  F  F27  1  0.90015628  1.62019554  0.34256582  1
  F  F28  1  1.37019554  0.15015628  0.90743418  1
  F  F29  1  0.12980446  0.84984372  1.40743418  1
  F  F30  1  0.90015628  0.37980446  1.15743418  1
  F  F31  1  1.59984372  1.62019554  1.65743418  1
  F  F32  1  0.51387887  0.00000000  0.25000000  1
  F  F33  1  0.98612113  -0.00000000  0.75000000  1
  F  F34  1  0.25000000  0.26387887  0.50000000  1
  F  F35  1  0.25000000  0.73612113  -0.00000000  1
  F  F36  1  0.48612113  -0.00000000  0.75000000  1
  F  F37  1  0.01387887  -0.00000000  0.25000000  1
  F  F38  1  0.75000000  0.73612113  0.50000000  1
  F  F39  1  0.75000000  0.26387887  0.00000000  1
  F  F40  1  0.01387887  0.50000000  0.75000000  1
  F  F41  1  0.48612113  0.50000000  0.25000000  1
  F  F42  1  0.75000000  0.76387887  -0.00000000  1
  F  F43  1  0.75000000  0.23612113  0.50000000  1
  F  F44  1  0.98612113  0.50000000  0.25000000  1
  F  F45  1  0.51387887  0.50000000  0.75000000  1
  F  F46  1  0.25000000  0.23612113  0.00000000  1
  F  F47  1  0.25000000  0.76387887  0.50000000  1
  Li  Li48  1  0.71547747  0.96547747  0.12500000  1
  Li  Li49  1  0.78452253  0.03452253  0.62500000  1
  Li  Li50  1  0.28452253  0.46547747  0.37500000  1
  Li  Li51  1  0.21547747  0.53452253  0.87500000  1
  Li  Li52  1  0.28452253  0.03452253  0.87500000  1
  Li  Li53  1  0.21547747  0.96547747  0.37500000  1
  Li  Li54  1  0.71547747  0.53452253  0.62500000  1
  Li  Li55  1  0.78452253  0.46547747  0.12500000  1
  Li  Li56  1  0.21547747  0.46547747  0.62500000  1
  Li  Li57  1  0.28452253  0.53452253  0.12500000  1
  Li  Li58  1  0.78452253  0.96547747  0.87500000  1
  Li  Li59  1  0.71547747  0.03452253  0.37500000  1
  Li  Li60  1  0.78452253  0.53452253  0.37500000  1
  Li  Li61  1  0.71547747  0.46547747  0.87500000  1
  Li  Li62  1  0.21547747  0.03452253  0.12500000  1
  Li  Li63  1  0.28452253  0.96547747  0.62500000  1
  Li  Li64  1  0.91686379  0.90099681  0.48252540  1
  Li  Li65  1  0.58313621  0.09900319  0.98252540  1
  Li  Li66  1  0.34900319  0.66686379  0.73252540  1
  Li  Li67  1  0.15099681  0.33313621  0.23252540  1
  Li  Li68  1  0.58313621  0.90099681  0.51747460  1
  Li  Li69  1  0.91686379  0.09900319  0.01747460  1
  Li  Li70  1  0.15099681  0.66686379  0.26747460  1
  Li  Li71  1  0.34900319  0.33313621  0.76747460  1
  Li  Li72  1  0.08313621  0.09900319  0.51747460  1
  Li  Li73  1  0.41686379  0.90099681  0.01747460  1
  Li  Li74  1  0.65099681  0.33313621  0.26747460  1
  Li  Li75  1  0.84900319  0.66686379  0.76747460  1
  Li  Li76  1  0.41686379  0.09900319  0.48252540  1
  Li  Li77  1  0.08313621  0.90099681  0.98252540  1
  Li  Li78  1  0.84900319  0.33313621  0.73252540  1
  Li  Li79  1  0.65099681  0.66686379  0.23252540  1
  Li  Li80  1  0.41686379  0.40099681  0.98252540  1
  Li  Li81  1  0.08313621  0.59900319  0.48252540  1
  Li  Li82  1  0.84900319  0.16686379  0.23252540  1
  Li  Li83  1  0.65099681  0.83313621  0.73252540  1
  Li  Li84  1  0.08313621  0.40099681  0.01747460  1
  Li  Li85  1  0.41686379  0.59900319  0.51747460  1
  Li  Li86  1  0.65099681  0.16686379  0.76747460  1
  Li  Li87  1  0.84900319  0.83313621  0.26747460  1
  Li  Li88  1  0.58313621  0.59900319  0.01747460  1
  Li  Li89  1  0.91686379  0.40099681  0.51747460  1
  Li  Li90  1  0.15099681  0.83313621  0.76747460  1
  Li  Li91  1  0.34900319  0.16686379  0.26747460  1
  Li  Li92  1  0.91686379  0.59900319  0.98252540  1
  Li  Li93  1  0.58313621  0.40099681  0.48252540  1
  Li  Li94  1  0.34900319  0.83313621  0.23252540  1
  Li  Li95  1  0.15099681  0.16686379  0.73252540  1
  Li  Li96  1  0.95337455  0.65410633  0.21563237  1
  Li  Li97  1  0.54662545  0.34589367  0.71563237  1
  Li  Li98  1  0.59589367  0.70337455  0.46563237  1
  Li  Li99  1  0.90410633  0.29662545  0.96563237  1
  Li  Li100  1  0.54662545  0.65410633  0.78436763  1
  Li  Li101  1  0.95337455  0.34589367  0.28436763  1
  Li  Li102  1  0.90410633  0.70337455  0.53436763  1
  Li  Li103  1  0.59589367  0.29662545  0.03436763  1
  Li  Li104  1  0.04662545  0.34589367  0.78436763  1
  Li  Li105  1  0.45337455  0.65410633  0.28436763  1
  Li  Li106  1  0.40410633  0.29662545  0.53436763  1
  Li  Li107  1  0.09589367  0.70337455  0.03436763  1
  Li  Li108  1  0.45337455  0.34589367  0.21563237  1
  Li  Li109  1  0.04662545  0.65410633  0.71563237  1
  Li  Li110  1  0.09589367  0.29662545  0.46563237  1
  Li  Li111  1  0.40410633  0.70337455  0.96563237  1
  Li  Li112  1  0.45337455  0.15410633  0.71563237  1
  Li  Li113  1  0.04662545  0.84589367  0.21563237  1
  Li  Li114  1  0.09589367  0.20337455  0.96563237  1
  Li  Li115  1  0.40410633  0.79662545  0.46563237  1
  Li  Li116  1  0.04662545  0.15410633  0.28436763  1
  Li  Li117  1  0.45337455  0.84589367  0.78436763  1
  Li  Li118  1  0.40410633  0.20337455  0.03436763  1
  Li  Li119  1  0.09589367  0.79662545  0.53436763  1
  Li  Li120  1  0.54662545  0.84589367  0.28436763  1
  Li  Li121  1  0.95337455  0.15410633  0.78436763  1
  Li  Li122  1  0.90410633  0.79662545  0.03436763  1
  Li  Li123  1  0.59589367  0.20337455  0.53436763  1
  Li  Li124  1  0.95337455  0.84589367  0.71563237  1
  Li  Li125  1  0.54662545  0.15410633  0.21563237  1
  Li  Li126  1  0.59589367  0.79662545  0.96563237  1
  Li  Li127  1  0.90410633  0.20337455  0.46563237  1
  Li  Li128  1  0.64824317  0.00000000  0.25000000  1
  Li  Li129  1  0.85175683  -0.00000000  0.75000000  1
  Li  Li130  1  0.25000000  0.39824317  0.50000000  1
  Li  Li131  1  0.25000000  0.60175683  0.00000000  1
  Li  Li132  1  0.35175683  0.00000000  0.75000000  1
  Li  Li133  1  0.14824317  0.00000000  0.25000000  1
  Li  Li134  1  0.75000000  0.60175683  0.50000000  1
  Li  Li135  1  0.75000000  0.39824317  0.00000000  1
  Li  Li136  1  0.14824317  0.50000000  0.75000000  1
  Li  Li137  1  0.35175683  0.50000000  0.25000000  1
  Li  Li138  1  0.75000000  0.89824317  0.00000000  1
  Li  Li139  1  0.75000000  0.10175683  0.50000000  1
  Li  Li140  1  0.85175683  0.50000000  0.25000000  1
  Li  Li141  1  0.64824317  0.50000000  0.75000000  1
  Li  Li142  1  0.25000000  0.10175683  0.00000000  1
  Li  Li143  1  0.25000000  0.89824317  0.50000000  1
  Te  Te144  1  0.00000000  0.00000000  0.00000000  1
  Te  Te145  1  0.50000000  0.00000000  0.50000000  1
  Te  Te146  1  0.25000000  0.75000000  0.25000000  1
  Te  Te147  1  0.25000000  0.25000000  0.75000000  1
  Te  Te148  1  0.50000000  0.00000000  0.00000000  1
  Te  Te149  1  0.00000000  0.00000000  0.50000000  1
  Te  Te150  1  0.25000000  0.75000000  0.75000000  1
  Te  Te151  1  0.25000000  0.25000000  0.25000000  1
  Te  Te152  1  0.50000000  0.50000000  0.50000000  1
  Te  Te153  1  0.00000000  0.50000000  -0.00000000  1
  Te  Te154  1  0.75000000  0.25000000  0.75000000  1
  Te  Te155  1  0.75000000  0.75000000  0.25000000  1
  Te  Te156  1  0.00000000  0.50000000  0.50000000  1
  Te  Te157  1  0.50000000  0.50000000  0.00000000  1
  Te  Te158  1  0.75000000  0.25000000  0.25000000  1
  Te  Te159  1  0.75000000  0.75000000  0.75000000  1
  Te  Te160  1  0.00000000  0.25000000  0.12500000  1
  Te  Te161  1  0.00000000  0.75000000  0.37500000  1
  Te  Te162  1  0.00000000  0.75000000  0.87500000  1
  Te  Te163  1  0.00000000  0.25000000  0.62500000  1
  Te  Te164  1  0.50000000  0.75000000  0.62500000  1
  Te  Te165  1  0.50000000  0.25000000  0.87500000  1
  Te  Te166  1  0.50000000  0.25000000  0.37500000  1
  Te  Te167  1  0.50000000  0.75000000  0.12500000  1
