# generated using pymatgen
data_LiY2Te4P3Se2
_symmetry_space_group_name_H-M   'P 1'
_cell_length_a   5.05907357
_cell_length_b   5.12024957
_cell_length_c   7.26630993
_cell_angle_alpha   94.84059163
_cell_angle_beta   100.54180222
_cell_angle_gamma   109.44273271
_symmetry_Int_Tables_number   1
_chemical_formula_structural   LiY2Te4P3Se2
_chemical_formula_sum   'Li1 Y2 Te4 P3 Se2'
_cell_volume   172.33910922
_cell_formula_units_Z   1
loop_
 _symmetry_equiv_pos_site_id
 _symmetry_equiv_pos_as_xyz
  1  'x, y, z'
loop_
 _atom_site_type_symbol
 _atom_site_label
 _atom_site_symmetry_multiplicity
 _atom_site_fract_x
 _atom_site_fract_y
 _atom_site_fract_z
 _atom_site_occupancy
  Se  Se0  1  0.12500000  0.00000000  0.25000000  1
  Se  Se1  1  0.00000000  0.00000000  0.00000000  1
  Te  Te2  1  0.37500000  0.00000000  0.25000000  1
  Te  Te3  1  0.25000000  0.25000000  0.25000000  1
  Te  Te4  1  0.00000000  0.25000000  0.12500000  1
  Te  Te5  1  0.09088576  0.31409687  0.87221348  1
  Y  Y6  1  0.20653382  0.70094427  0.06802498  1
  Y  Y7  1  0.06154707  0.56319041  0.18415936  1
  P  P8  1  0.49696115  0.19795336  0.63225999  1
  P  P9  1  0.41162051  0.75099225  0.54925890  1
  P  P10  1  0.31858237  0.93127992  0.67912896  1
  Li  Li11  1  0.07243479  0.08107351  0.95796984  1
