# generated using pymatgen
data_LiF
_symmetry_space_group_name_H-M   'P 1'
_cell_length_a   6.74017992
_cell_length_b   6.74017992
_cell_length_c   13.65237977
_cell_angle_alpha   90.00000000
_cell_angle_beta   90.00000000
_cell_angle_gamma   120.00000000
_symmetry_Int_Tables_number   1
_chemical_formula_structural   LiF
_chemical_formula_sum   'Li36 F36'
_cell_volume   537.13316897
_cell_formula_units_Z   36
loop_
 _symmetry_equiv_pos_site_id
 _symmetry_equiv_pos_as_xyz
  1  'x, y, z'
loop_
 _atom_site_type_symbol
 _atom_site_label
 _atom_site_symmetry_multiplicity
 _atom_site_fract_x
 _atom_site_fract_y
 _atom_site_fract_z
 _atom_site_occupancy
  F  F0  1  0.65732719  0.17381075  0.18526733  1
  F  F1  1  0.82618925  0.48351644  0.18526733  1
  F  F2  1  0.51648356  0.34267281  0.18526733  1
  F  F3  1  0.17381075  0.65732719  0.31473267  1
  F  F4  1  0.48351644  0.82618925  0.31473267  1
  F  F5  1  0.34267281  0.51648356  0.31473267  1
  F  F6  1  0.34267281  0.82618925  0.81473267  1
  F  F7  1  0.17381075  0.51648356  0.81473267  1
  F  F8  1  0.48351644  0.65732719  0.81473267  1
  F  F9  1  0.82618925  0.34267281  0.68526733  1
  F  F10  1  0.51648356  0.17381075  0.68526733  1
  F  F11  1  0.65732719  0.48351644  0.68526733  1
  F  F12  1  0.32399385  0.50714408  0.51860066  1
  F  F13  1  0.49285592  0.81684977  0.51860066  1
  F  F14  1  0.18315023  0.67600615  0.51860066  1
  F  F15  1  0.84047741  0.99066052  0.64806601  1
  F  F16  1  0.15018311  0.15952259  0.64806601  1
  F  F17  1  0.00933948  0.84981689  0.64806601  1
  F  F18  1  0.00933948  0.15952259  0.14806601  1
  F  F19  1  0.84047741  0.84981689  0.14806601  1
  F  F20  1  0.15018311  0.99066052  0.14806601  1
  F  F21  1  0.49285592  0.67600615  0.01860066  1
  F  F22  1  0.18315023  0.50714408  0.01860066  1
  F  F23  1  0.32399385  0.81684977  0.01860066  1
  F  F24  1  0.99066052  0.84047741  0.85193399  1
  F  F25  1  0.15952259  0.15018311  0.85193399  1
  F  F26  1  0.84981689  0.00933948  0.85193399  1
  F  F27  1  0.50714408  0.32399385  0.98139934  1
  F  F28  1  0.81684977  0.49285592  0.98139934  1
  F  F29  1  0.67600615  0.18315023  0.98139934  1
  F  F30  1  0.67600615  0.49285592  0.48139934  1
  F  F31  1  0.50714408  0.18315023  0.48139934  1
  F  F32  1  0.81684977  0.32399385  0.48139934  1
  F  F33  1  0.15952259  0.00933948  0.35193399  1
  F  F34  1  0.84981689  0.84047741  0.35193399  1
  F  F35  1  0.99066052  0.15018311  0.35193399  1
  Li  Li36  1  0.83562267  0.51286815  0.37888683  1
  Li  Li37  1  -0.51286815  0.32275452  0.37888683  1
  Li  Li38  1  -0.32275452  -0.83562267  0.37888683  1
  Li  Li39  1  0.51286815  0.83562267  0.12111317  1
  Li  Li40  1  0.32275452  -0.51286815  0.12111317  1
  Li  Li41  1  -0.83562267  -0.32275452  0.12111317  1
  Li  Li42  1  -0.83562267  -0.51286815  -0.37888683  1
  Li  Li43  1  0.51286815  -0.32275452  -0.37888683  1
  Li  Li44  1  0.32275452  0.83562267  -0.37888683  1
  Li  Li45  1  -0.51286815  -0.83562267  0.87888683  1
  Li  Li46  1  -0.32275452  0.51286815  0.87888683  1
  Li  Li47  1  0.83562267  0.32275452  0.87888683  1
  Li  Li48  1  1.50228934  0.84620148  0.71222016  1
  Li  Li49  1  0.15379852  0.65608786  0.71222016  1
  Li  Li50  1  0.34391214  -0.50228934  0.71222016  1
  Li  Li51  1  1.17953481  1.16895600  0.45444651  1
  Li  Li52  1  0.98942119  -0.17953481  0.45444651  1
  Li  Li53  1  -0.16895600  0.01057881  0.45444651  1
  Li  Li54  1  -0.16895600  -0.17953481  -0.04555349  1
  Li  Li55  1  1.17953481  0.01057881  -0.04555349  1
  Li  Li56  1  0.98942119  1.16895600  -0.04555349  1
  Li  Li57  1  0.15379852  -0.50228934  1.21222016  1
  Li  Li58  1  0.34391214  0.84620148  1.21222016  1
  Li  Li59  1  1.50228934  0.65608786  1.21222016  1
  Li  Li60  1  1.16895600  1.17953481  1.04555349  1
  Li  Li61  1  -0.17953481  0.98942119  1.04555349  1
  Li  Li62  1  0.01057881  -0.16895600  1.04555349  1
  Li  Li63  1  0.84620148  1.50228934  0.78777984  1
  Li  Li64  1  0.65608786  0.15379852  0.78777984  1
  Li  Li65  1  -0.50228934  0.34391214  0.78777984  1
  Li  Li66  1  -0.50228934  0.15379852  0.28777984  1
  Li  Li67  1  0.84620148  0.34391214  0.28777984  1
  Li  Li68  1  0.65608786  1.50228934  0.28777984  1
  Li  Li69  1  -0.17953481  -0.16895600  1.54555349  1
  Li  Li70  1  0.01057881  1.17953481  1.54555349  1
  Li  Li71  1  1.16895600  0.98942119  1.54555349  1
