# generated using pymatgen
data_Li2Y2As2P3Se
_symmetry_space_group_name_H-M   'P 1'
_cell_length_a   5.39923870
_cell_length_b   5.47285844
_cell_length_c   7.21490246
_cell_angle_alpha   93.96370577
_cell_angle_beta   98.12109435
_cell_angle_gamma   105.11919609
_symmetry_Int_Tables_number   1
_chemical_formula_structural   Li2Y2As2P3Se
_chemical_formula_sum   'Li2 Y2 As2 P3 Se1'
_cell_volume   202.49501189
_cell_formula_units_Z   1
loop_
 _symmetry_equiv_pos_site_id
 _symmetry_equiv_pos_as_xyz
  1  'x, y, z'
loop_
 _atom_site_type_symbol
 _atom_site_label
 _atom_site_symmetry_multiplicity
 _atom_site_fract_x
 _atom_site_fract_y
 _atom_site_fract_z
 _atom_site_occupancy
  Se  Se0  1  0.00000000  0.00000000  0.00000000  1
  Y  Y1  1  0.50000000  0.50000000  0.50000000  1
  Y  Y2  1  0.25000000  0.25000000  0.25000000  1
  P  P3  1  0.75000000  0.25000000  0.00000000  1
  P  P4  1  0.25000000  0.75000000  0.50000000  1
  P  P5  1  0.94275080  0.81729026  0.99593014  1
  As  As6  1  0.94023570  0.28682016  0.20908503  1
  As  As7  1  0.80134583  0.68032292  0.17798115  1
  Li  Li8  1  0.91539540  0.53092237  0.01162532  1
  Li  Li9  1  0.50557491  0.46564637  0.32223009  1
