# generated using pymatgen
data_Li2LaScTiF
_symmetry_space_group_name_H-M   'P 1'
_cell_length_a   3.39663136
_cell_length_b   3.01283295
_cell_length_c   6.23662777
_cell_angle_alpha   110.25930813
_cell_angle_beta   110.61580763
_cell_angle_gamma   107.77353376
_symmetry_Int_Tables_number   1
_chemical_formula_structural   Li2LaScTiF
_chemical_formula_sum   'Li2 La1 Sc1 Ti1 F1'
_cell_volume   48.96090342
_cell_formula_units_Z   1
loop_
 _symmetry_equiv_pos_site_id
 _symmetry_equiv_pos_as_xyz
  1  'x, y, z'
loop_
 _atom_site_type_symbol
 _atom_site_label
 _atom_site_symmetry_multiplicity
 _atom_site_fract_x
 _atom_site_fract_y
 _atom_site_fract_z
 _atom_site_occupancy
  F  F0  1  0.00000000  0.00000000  0.00000000  1
  Sc  Sc1  1  0.50000000  0.50000000  0.50000000  1
  Ti  Ti2  1  0.50000000  0.50000000  0.00000000  1
  Li  Li3  1  0.50000000  0.00000000  0.50000000  1
  Li  Li4  1  0.00000000  0.50000000  0.50000000  1
  La  La5  1  0.69767523  0.04355210  0.87639492  1
