# generated using pymatgen
data_LiCaF3
_symmetry_space_group_name_H-M   'P 1'
_cell_length_a   17.14181340
_cell_length_b   17.14181340
_cell_length_c   6.10816133
_cell_angle_alpha   90.00000000
_cell_angle_beta   90.00000000
_cell_angle_gamma   120.00000000
_symmetry_Int_Tables_number   1
_chemical_formula_structural   LiCaF3
_chemical_formula_sum   'Li18 Ca18 F54'
_cell_volume   1554.37090254
_cell_formula_units_Z   18
loop_
 _symmetry_equiv_pos_site_id
 _symmetry_equiv_pos_as_xyz
  1  'x, y, z'
loop_
 _atom_site_type_symbol
 _atom_site_label
 _atom_site_symmetry_multiplicity
 _atom_site_fract_x
 _atom_site_fract_y
 _atom_site_fract_z
 _atom_site_occupancy
  Ca  Ca0  1  0.50000000  0.00000000  -0.00000000  1
  Ca  Ca1  1  0.00000000  0.50000000  0.00000000  1
  Ca  Ca2  1  0.50000000  0.50000000  0.00000000  1
  Ca  Ca3  1  0.00000000  0.50000000  0.50000000  1
  Ca  Ca4  1  0.50000000  0.00000000  0.50000000  1
  Ca  Ca5  1  0.50000000  0.50000000  0.50000000  1
  Ca  Ca6  1  0.16666667  0.33333333  0.33333333  1
  Ca  Ca7  1  0.66666667  0.83333333  0.33333333  1
  Ca  Ca8  1  0.16666667  0.83333333  0.33333333  1
  Ca  Ca9  1  0.66666667  0.83333333  0.83333333  1
  Ca  Ca10  1  0.16666667  0.33333333  0.83333333  1
  Ca  Ca11  1  0.16666667  0.83333333  0.83333333  1
  Ca  Ca12  1  0.83333333  0.66666667  0.66666667  1
  Ca  Ca13  1  0.33333333  0.16666667  0.66666667  1
  Ca  Ca14  1  0.83333333  0.16666667  0.66666667  1
  Ca  Ca15  1  0.33333333  0.16666667  0.16666667  1
  Ca  Ca16  1  0.83333333  0.66666667  0.16666667  1
  Ca  Ca17  1  0.83333333  0.16666667  0.16666667  1
  F  F18  1  0.00000000  0.00000000  0.25000000  1
  F  F19  1  0.00000000  0.00000000  0.75000000  1
  F  F20  1  0.66666667  0.33333333  0.58333333  1
  F  F21  1  0.66666667  0.33333333  0.08333333  1
  F  F22  1  0.33333333  0.66666667  0.91666667  1
  F  F23  1  0.33333333  0.66666667  0.41666667  1
  F  F24  1  0.67087405  0.08880388  0.27580447  1
  F  F25  1  -0.08880388  0.58207017  0.27580447  1
  F  F26  1  -0.58207017  -0.67087405  0.27580447  1
  F  F27  1  0.08880388  0.67087405  0.22419553  1
  F  F28  1  0.58207017  -0.08880388  0.22419553  1
  F  F29  1  -0.67087405  -0.58207017  0.22419553  1
  F  F30  1  -0.67087405  -0.08880388  -0.27580447  1
  F  F31  1  0.08880388  -0.58207017  -0.27580447  1
  F  F32  1  0.58207017  0.67087405  -0.27580447  1
  F  F33  1  -0.08880388  -0.67087405  0.77580447  1
  F  F34  1  -0.58207017  0.08880388  0.77580447  1
  F  F35  1  0.67087405  0.58207017  0.77580447  1
  F  F36  1  1.33754072  0.42213722  0.60913780  1
  F  F37  1  0.57786278  0.91540350  0.60913780  1
  F  F38  1  0.08459650  -0.33754072  0.60913780  1
  F  F39  1  0.75547055  1.00420739  0.55752887  1
  F  F40  1  1.24873684  0.24452945  0.55752887  1
  F  F41  1  -0.00420739  -0.24873684  0.55752887  1
  F  F42  1  -0.00420739  0.24452945  0.05752887  1
  F  F43  1  0.75547055  -0.24873684  0.05752887  1
  F  F44  1  1.24873684  1.00420739  0.05752887  1
  F  F45  1  0.57786278  -0.33754072  1.10913780  1
  F  F46  1  0.08459650  0.42213722  1.10913780  1
  F  F47  1  1.33754072  0.91540350  1.10913780  1
  F  F48  1  1.00420739  0.75547055  0.94247113  1
  F  F49  1  0.24452945  1.24873684  0.94247113  1
  F  F50  1  -0.24873684  -0.00420739  0.94247113  1
  F  F51  1  0.42213722  1.33754072  0.89086220  1
  F  F52  1  0.91540350  0.57786278  0.89086220  1
  F  F53  1  -0.33754072  0.08459650  0.89086220  1
  F  F54  1  -0.33754072  0.57786278  0.39086220  1
  F  F55  1  0.42213722  0.08459650  0.39086220  1
  F  F56  1  0.91540350  1.33754072  0.39086220  1
  F  F57  1  0.24452945  -0.00420739  1.44247113  1
  F  F58  1  -0.24873684  0.75547055  1.44247113  1
  F  F59  1  1.00420739  1.24873684  1.44247113  1
  F  F60  1  0.00000000  0.00000000  0.60809781  1
  F  F61  1  0.00000000  0.00000000  0.89190219  1
  F  F62  1  0.00000000  0.00000000  0.39190219  1
  F  F63  1  0.00000000  0.00000000  0.10809781  1
  F  F64  1  0.66666667  0.33333333  0.94143114  1
  F  F65  1  0.66666667  0.33333333  0.22523552  1
  F  F66  1  0.66666667  0.33333333  0.72523552  1
  F  F67  1  0.66666667  0.33333333  0.44143114  1
  F  F68  1  0.33333333  0.66666667  0.27476448  1
  F  F69  1  0.33333333  0.66666667  0.55856886  1
  F  F70  1  0.33333333  0.66666667  0.05856886  1
  F  F71  1  0.33333333  0.66666667  0.77476448  1
  Li  Li72  1  0.70769560  0.00000000  0.25000000  1
  Li  Li73  1  0.00000000  0.70769560  0.25000000  1
  Li  Li74  1  0.29230440  0.29230440  0.25000000  1
  Li  Li75  1  0.29230440  0.00000000  0.75000000  1
  Li  Li76  1  0.00000000  0.29230440  0.75000000  1
  Li  Li77  1  0.70769560  0.70769560  0.75000000  1
  Li  Li78  1  0.37436227  0.33333333  0.58333333  1
  Li  Li79  1  0.66666667  0.04102893  0.58333333  1
  Li  Li80  1  0.95897107  0.62563773  0.58333333  1
  Li  Li81  1  0.95897107  0.33333333  0.08333333  1
  Li  Li82  1  0.66666667  0.62563773  0.08333333  1
  Li  Li83  1  0.37436227  0.04102893  0.08333333  1
  Li  Li84  1  0.04102893  0.66666667  0.91666667  1
  Li  Li85  1  0.33333333  0.37436227  0.91666667  1
  Li  Li86  1  0.62563773  0.95897107  0.91666667  1
  Li  Li87  1  0.62563773  0.66666667  0.41666667  1
  Li  Li88  1  0.33333333  0.95897107  0.41666667  1
  Li  Li89  1  0.04102893  0.37436227  0.41666667  1
