# generated using pymatgen
data_Li2Ca3F8
_symmetry_space_group_name_H-M   'P 1'
_cell_length_a   17.94338230
_cell_length_b   17.94338230
_cell_length_c   5.83977626
_cell_angle_alpha   90.00000000
_cell_angle_beta   90.00000000
_cell_angle_gamma   90.00000000
_symmetry_Int_Tables_number   1
_chemical_formula_structural   Li2Ca3F8
_chemical_formula_sum   'Li16 Ca24 F64'
_cell_volume   1880.20337832
_cell_formula_units_Z   8
loop_
 _symmetry_equiv_pos_site_id
 _symmetry_equiv_pos_as_xyz
  1  'x, y, z'
loop_
 _atom_site_type_symbol
 _atom_site_label
 _atom_site_symmetry_multiplicity
 _atom_site_fract_x
 _atom_site_fract_y
 _atom_site_fract_z
 _atom_site_occupancy
  Ca  Ca0  1  0.54560992  0.79560992  0.12500000  1
  Ca  Ca1  1  0.95439008  0.20439008  0.62500000  1
  Ca  Ca2  1  0.45439008  0.29560992  0.37500000  1
  Ca  Ca3  1  0.04560992  0.70439008  0.87500000  1
  Ca  Ca4  1  0.45439008  0.20439008  0.87500000  1
  Ca  Ca5  1  0.04560992  0.79560992  0.37500000  1
  Ca  Ca6  1  0.54560992  0.70439008  0.62500000  1
  Ca  Ca7  1  0.95439008  0.29560992  0.12500000  1
  Ca  Ca8  1  0.04560992  0.29560992  0.62500000  1
  Ca  Ca9  1  0.45439008  0.70439008  0.12500000  1
  Ca  Ca10  1  0.95439008  0.79560992  0.87500000  1
  Ca  Ca11  1  0.54560992  0.20439008  0.37500000  1
  Ca  Ca12  1  0.95439008  0.70439008  0.37500000  1
  Ca  Ca13  1  0.54560992  0.29560992  0.87500000  1
  Ca  Ca14  1  0.04560992  0.20439008  0.12500000  1
  Ca  Ca15  1  0.45439008  0.79560992  0.62500000  1
  Ca  Ca16  1  0.00000000  0.25000000  0.37500000  1
  Ca  Ca17  1  0.00000000  0.75000000  0.62500000  1
  Ca  Ca18  1  0.50000000  0.25000000  0.62500000  1
  Ca  Ca19  1  0.50000000  0.75000000  0.37500000  1
  Ca  Ca20  1  0.50000000  0.75000000  0.87500000  1
  Ca  Ca21  1  0.50000000  0.25000000  0.12500000  1
  Ca  Ca22  1  0.00000000  0.75000000  0.12500000  1
  Ca  Ca23  1  0.00000000  0.25000000  0.87500000  1
  F  F24  1  0.42419095  0.97484264  0.07923740  1
  F  F25  1  0.07580905  -0.97484264  0.57923740  1
  F  F26  1  -0.72484264  1.17419095  0.32923740  1
  F  F27  1  1.22484264  -0.17419095  0.82923740  1
  F  F28  1  0.07580905  0.97484264  -0.07923740  1
  F  F29  1  0.42419095  -0.97484264  0.42076260  1
  F  F30  1  1.22484264  1.17419095  0.67076260  1
  F  F31  1  -0.72484264  -0.17419095  0.17076260  1
  F  F32  1  -0.42419095  -0.97484264  -0.07923740  1
  F  F33  1  0.92419095  0.97484264  0.42076260  1
  F  F34  1  1.72484264  -0.17419095  0.67076260  1
  F  F35  1  -0.22484264  1.17419095  0.17076260  1
  F  F36  1  0.92419095  -0.97484264  0.07923740  1
  F  F37  1  -0.42419095  0.97484264  0.57923740  1
  F  F38  1  -0.22484264  -0.17419095  0.32923740  1
  F  F39  1  1.72484264  1.17419095  0.82923740  1
  F  F40  1  0.92419095  1.47484264  0.57923740  1
  F  F41  1  0.57580905  -0.47484264  1.07923740  1
  F  F42  1  -0.22484264  1.67419095  0.82923740  1
  F  F43  1  1.72484264  0.32580905  1.32923740  1
  F  F44  1  0.57580905  1.47484264  0.42076260  1
  F  F45  1  0.92419095  -0.47484264  0.92076260  1
  F  F46  1  1.72484264  1.67419095  1.17076260  1
  F  F47  1  -0.22484264  0.32580905  0.67076260  1
  F  F48  1  0.07580905  -0.47484264  0.42076260  1
  F  F49  1  1.42419095  1.47484264  0.92076260  1
  F  F50  1  2.22484264  0.32580905  1.17076260  1
  F  F51  1  0.27515736  1.67419095  0.67076260  1
  F  F52  1  1.42419095  -0.47484264  0.57923740  1
  F  F53  1  0.07580905  1.47484264  1.07923740  1
  F  F54  1  0.27515736  0.32580905  0.82923740  1
  F  F55  1  2.22484264  1.67419095  1.32923740  1
  F  F56  1  0.82091931  0.55044330  0.79150494  1
  F  F57  1  0.67908069  0.44955670  0.29150494  1
  F  F58  1  0.69955670  0.57091931  0.04150494  1
  F  F59  1  0.80044330  0.42908069  0.54150494  1
  F  F60  1  0.67908069  0.55044330  0.20849506  1
  F  F61  1  0.82091931  0.44955670  0.70849506  1
  F  F62  1  0.80044330  0.57091931  0.95849506  1
  F  F63  1  0.69955670  0.42908069  0.45849506  1
  F  F64  1  0.17908069  0.44955670  0.20849506  1
  F  F65  1  0.32091931  0.55044330  0.70849506  1
  F  F66  1  0.30044330  0.42908069  0.95849506  1
  F  F67  1  0.19955670  0.57091931  0.45849506  1
  F  F68  1  0.32091931  0.44955670  0.79150494  1
  F  F69  1  0.17908069  0.55044330  0.29150494  1
  F  F70  1  0.19955670  0.42908069  0.04150494  1
  F  F71  1  0.30044330  0.57091931  0.54150494  1
  F  F72  1  0.32091931  0.05044330  0.29150494  1
  F  F73  1  0.17908069  0.94955670  0.79150494  1
  F  F74  1  0.19955670  0.07091931  0.54150494  1
  F  F75  1  0.30044330  0.92908069  0.04150494  1
  F  F76  1  0.17908069  0.05044330  0.70849506  1
  F  F77  1  0.32091931  0.94955670  0.20849506  1
  F  F78  1  0.30044330  0.07091931  0.45849506  1
  F  F79  1  0.19955670  0.92908069  0.95849506  1
  F  F80  1  0.67908069  0.94955670  0.70849506  1
  F  F81  1  0.82091931  0.05044330  0.20849506  1
  F  F82  1  0.80044330  0.92908069  0.45849506  1
  F  F83  1  0.69955670  0.07091931  0.95849506  1
  F  F84  1  0.82091931  0.94955670  0.29150494  1
  F  F85  1  0.67908069  0.05044330  0.79150494  1
  F  F86  1  0.69955670  0.92908069  0.54150494  1
  F  F87  1  0.80044330  0.07091931  0.04150494  1
  Li  Li88  1  0.00000000  0.00000000  0.00000000  1
  Li  Li89  1  0.50000000  0.00000000  0.50000000  1
  Li  Li90  1  0.25000000  0.75000000  0.25000000  1
  Li  Li91  1  0.25000000  0.25000000  0.75000000  1
  Li  Li92  1  0.50000000  0.00000000  0.00000000  1
  Li  Li93  1  0.00000000  0.00000000  0.50000000  1
  Li  Li94  1  0.25000000  0.75000000  0.75000000  1
  Li  Li95  1  0.25000000  0.25000000  0.25000000  1
  Li  Li96  1  0.50000000  0.50000000  0.50000000  1
  Li  Li97  1  0.00000000  0.50000000  0.00000000  1
  Li  Li98  1  0.75000000  0.25000000  0.75000000  1
  Li  Li99  1  0.75000000  0.75000000  0.25000000  1
  Li  Li100  1  0.00000000  0.50000000  0.50000000  1
  Li  Li101  1  0.50000000  0.50000000  0.00000000  1
  Li  Li102  1  0.75000000  0.25000000  0.25000000  1
  Li  Li103  1  0.75000000  0.75000000  0.75000000  1
