# generated using pymatgen
data_Li2Y2As4P2Se
_symmetry_space_group_name_H-M   'P 1'
_cell_length_a   5.57479217
_cell_length_b   5.70740322
_cell_length_c   6.88362344
_cell_angle_alpha   93.00279028
_cell_angle_beta   96.20773536
_cell_angle_gamma   101.43408362
_symmetry_Int_Tables_number   1
_chemical_formula_structural   Li2Y2As4P2Se
_chemical_formula_sum   'Li2 Y2 As4 P2 Se1'
_cell_volume   212.80138091
_cell_formula_units_Z   1
loop_
 _symmetry_equiv_pos_site_id
 _symmetry_equiv_pos_as_xyz
  1  'x, y, z'
loop_
 _atom_site_type_symbol
 _atom_site_label
 _atom_site_symmetry_multiplicity
 _atom_site_fract_x
 _atom_site_fract_y
 _atom_site_fract_z
 _atom_site_occupancy
  Se  Se0  1  0.00000000  0.00000000  0.00000000  1
  P  P1  1  0.50000000  0.50000000  0.50000000  1
  P  P2  1  0.25000000  0.25000000  0.25000000  1
  As  As3  1  0.75000000  0.25000000  0.00000000  1
  As  As4  1  0.25000000  0.75000000  0.50000000  1
  As  As5  1  0.57158742  0.13408107  0.33570794  1
  As  As6  1  0.59322280  0.88817675  0.59358687  1
  Li  Li7  1  0.30493254  0.34988252  0.30175209  1
  Li  Li8  1  0.26546622  0.34730756  0.38088404  1
  Y  Y9  1  0.74275150  0.29465950  0.40247420  1
  Y  Y10  1  0.82980162  0.37109583  0.55932785  1
