# generated using pymatgen
data_LiF
_symmetry_space_group_name_H-M   'P 1'
_cell_length_a   9.99123970
_cell_length_b   9.99123970
_cell_length_c   9.86143754
_cell_angle_alpha   90.00000000
_cell_angle_beta   90.00000000
_cell_angle_gamma   120.00000000
_symmetry_Int_Tables_number   1
_chemical_formula_structural   LiF
_chemical_formula_sum   'Li25 F25'
_cell_volume   852.52989389
_cell_formula_units_Z   25
loop_
 _symmetry_equiv_pos_site_id
 _symmetry_equiv_pos_as_xyz
  1  'x, y, z'
loop_
 _atom_site_type_symbol
 _atom_site_label
 _atom_site_symmetry_multiplicity
 _atom_site_fract_x
 _atom_site_fract_y
 _atom_site_fract_z
 _atom_site_occupancy
  F  F0  1  0.33333333  0.66666667  0.05701905  1
  F  F1  1  0.33333333  0.66666667  0.94298095  1
  F  F2  1  0.66666667  0.33333333  0.94298095  1
  F  F3  1  0.66666667  0.33333333  0.05701905  1
  F  F4  1  0.40406523  0.57515782  0.00000000  1
  F  F5  1  0.42484218  0.82890742  0.00000000  1
  F  F6  1  0.17109258  0.59593477  0.00000000  1
  F  F7  1  0.57515782  0.40406523  0.00000000  1
  F  F8  1  0.82890742  0.42484218  0.00000000  1
  F  F9  1  0.59593477  0.17109258  0.00000000  1
  F  F10  1  0.13919599  0.92409248  0.61444344  1
  F  F11  1  0.07590752  0.21510350  0.61444344  1
  F  F12  1  0.78489650  0.86080401  0.61444344  1
  F  F13  1  0.13919599  0.92409248  0.38555656  1
  F  F14  1  0.07590752  0.21510350  0.38555656  1
  F  F15  1  0.78489650  0.86080401  0.38555656  1
  F  F16  1  0.92409248  0.13919599  0.38555656  1
  F  F17  1  0.21510350  0.07590752  0.38555656  1
  F  F18  1  0.86080401  0.78489650  0.38555656  1
  F  F19  1  0.92409248  0.13919599  0.61444344  1
  F  F20  1  0.21510350  0.07590752  0.61444344  1
  F  F21  1  0.86080401  0.78489650  0.61444344  1
  F  F22  1  0.09482973  -0.00000000  0.00000000  1
  F  F23  1  0.00000000  0.09482973  0.00000000  1
  F  F24  1  0.90517027  0.90517027  0.00000000  1
  Li  Li25  1  0.00000000  0.00000000  0.70614669  1
  Li  Li26  1  0.00000000  0.00000000  0.29385331  1
  Li  Li27  1  0.20686338  0.53216658  0.57566445  1
  Li  Li28  1  -0.53216658  -0.32530320  0.57566445  1
  Li  Li29  1  0.32530320  -0.20686338  0.57566445  1
  Li  Li30  1  0.20686338  0.53216658  -0.57566445  1
  Li  Li31  1  -0.53216658  -0.32530320  -0.57566445  1
  Li  Li32  1  0.32530320  -0.20686338  -0.57566445  1
  Li  Li33  1  0.53216658  0.20686338  -0.57566445  1
  Li  Li34  1  -0.32530320  -0.53216658  -0.57566445  1
  Li  Li35  1  -0.20686338  0.32530320  -0.57566445  1
  Li  Li36  1  0.53216658  0.20686338  0.57566445  1
  Li  Li37  1  -0.32530320  -0.53216658  0.57566445  1
  Li  Li38  1  -0.20686338  0.32530320  0.57566445  1
  Li  Li39  1  0.00000000  0.00000000  0.00000000  1
  Li  Li40  1  0.00000000  0.00000000  0.50000000  1
  Li  Li41  1  0.17511073  -0.00000000  0.50000000  1
  Li  Li42  1  0.00000000  0.17511073  0.50000000  1
  Li  Li43  1  0.82488927  0.82488927  0.50000000  1
  Li  Li44  1  0.46700803  0.23772867  0.00000000  1
  Li  Li45  1  0.76227133  0.22927936  0.00000000  1
  Li  Li46  1  0.77072064  0.53299197  0.00000000  1
  Li  Li47  1  0.23772867  0.46700803  0.00000000  1
  Li  Li48  1  0.22927936  0.76227133  0.00000000  1
  Li  Li49  1  0.53299197  0.77072064  0.00000000  1
