# generated using pymatgen
data_LiF
_symmetry_space_group_name_H-M   'P 1'
_cell_length_a   9.63179728
_cell_length_b   9.63179728
_cell_length_c   6.99686330
_cell_angle_alpha   90.00000000
_cell_angle_beta   90.00000000
_cell_angle_gamma   90.00000000
_symmetry_Int_Tables_number   1
_chemical_formula_structural   LiF
_chemical_formula_sum   'Li24 F24'
_cell_volume   649.10963498
_cell_formula_units_Z   24
loop_
 _symmetry_equiv_pos_site_id
 _symmetry_equiv_pos_as_xyz
  1  'x, y, z'
loop_
 _atom_site_type_symbol
 _atom_site_label
 _atom_site_symmetry_multiplicity
 _atom_site_fract_x
 _atom_site_fract_y
 _atom_site_fract_z
 _atom_site_occupancy
  F  F0  1  0.29767950  0.00000000  0.50000000  1
  F  F1  1  0.70232050  0.00000000  0.50000000  1
  F  F2  1  0.00000000  0.29767950  0.50000000  1
  F  F3  1  0.00000000  0.70232050  0.50000000  1
  F  F4  1  0.88826271  0.66036440  0.11195536  1
  F  F5  1  -0.88826271  -0.66036440  0.11195536  1
  F  F6  1  -0.66036440  0.88826271  0.11195536  1
  F  F7  1  0.66036440  -0.88826271  0.11195536  1
  F  F8  1  -0.88826271  0.66036440  -0.11195536  1
  F  F9  1  0.88826271  -0.66036440  -0.11195536  1
  F  F10  1  0.66036440  0.88826271  -0.11195536  1
  F  F11  1  -0.66036440  -0.88826271  -0.11195536  1
  F  F12  1  -0.88826271  -0.66036440  -0.11195536  1
  F  F13  1  0.88826271  0.66036440  -0.11195536  1
  F  F14  1  0.66036440  -0.88826271  -0.11195536  1
  F  F15  1  -0.66036440  0.88826271  -0.11195536  1
  F  F16  1  0.88826271  -0.66036440  0.11195536  1
  F  F17  1  -0.88826271  0.66036440  0.11195536  1
  F  F18  1  -0.66036440  -0.88826271  0.11195536  1
  F  F19  1  0.66036440  0.88826271  0.11195536  1
  F  F20  1  0.12210884  0.50000000  0.00000000  1
  F  F21  1  0.87789116  0.50000000  0.00000000  1
  F  F22  1  0.50000000  0.12210884  0.00000000  1
  F  F23  1  0.50000000  0.87789116  0.00000000  1
  Li  Li24  1  0.19400377  0.50000000  0.90244942  1
  Li  Li25  1  0.80599623  0.50000000  0.90244942  1
  Li  Li26  1  0.50000000  0.19400377  0.90244942  1
  Li  Li27  1  0.50000000  0.80599623  0.90244942  1
  Li  Li28  1  0.80599623  0.50000000  0.09755058  1
  Li  Li29  1  0.19400377  0.50000000  0.09755058  1
  Li  Li30  1  0.50000000  0.19400377  0.09755058  1
  Li  Li31  1  0.50000000  0.80599623  0.09755058  1
  Li  Li32  1  0.50000000  0.50000000  0.50000000  1
  Li  Li33  1  0.41201701  0.11874956  0.50000000  1
  Li  Li34  1  0.58798299  0.88125044  0.50000000  1
  Li  Li35  1  0.88125044  0.41201701  0.50000000  1
  Li  Li36  1  0.11874956  0.58798299  0.50000000  1
  Li  Li37  1  0.58798299  0.11874956  0.50000000  1
  Li  Li38  1  0.41201701  0.88125044  0.50000000  1
  Li  Li39  1  0.11874956  0.41201701  0.50000000  1
  Li  Li40  1  0.88125044  0.58798299  0.50000000  1
  Li  Li41  1  0.24176820  0.24176820  0.50000000  1
  Li  Li42  1  0.75823180  0.75823180  0.50000000  1
  Li  Li43  1  0.75823180  0.24176820  0.50000000  1
  Li  Li44  1  0.24176820  0.75823180  0.50000000  1
  Li  Li45  1  0.00000000  0.00000000  0.24623380  1
  Li  Li46  1  0.00000000  0.00000000  0.75376620  1
  Li  Li47  1  0.00000000  0.00000000  0.50000000  1
