# generated using pymatgen
data_LiYP3
_symmetry_space_group_name_H-M   'P 1'
_cell_length_a   5.46351579
_cell_length_b   5.52993858
_cell_length_c   7.55238805
_cell_angle_alpha   94.97319199
_cell_angle_beta   100.83057824
_cell_angle_gamma   109.97533566
_symmetry_Int_Tables_number   1
_chemical_formula_structural   LiYP3
_chemical_formula_sum   'Li1 Y1 P3'
_cell_volume   207.79955590
_cell_formula_units_Z   1
loop_
 _symmetry_equiv_pos_site_id
 _symmetry_equiv_pos_as_xyz
  1  'x, y, z'
loop_
 _atom_site_type_symbol
 _atom_site_label
 _atom_site_symmetry_multiplicity
 _atom_site_fract_x
 _atom_site_fract_y
 _atom_site_fract_z
 _atom_site_occupancy
  Y  Y0  1  0.00000000  0.00000000  0.00000000  1
  P  P1  1  0.50000000  0.50000000  0.50000000  1
  P  P2  1  0.50000000  0.50000000  0.00000000  1
  P  P3  1  0.50000000  0.00000000  0.50000000  1
  Li  Li4  1  0.00000000  0.50000000  0.50000000  1
