# generated using pymatgen
data_LiF
_symmetry_space_group_name_H-M   'P 1'
_cell_length_a   12.26506496
_cell_length_b   12.26506496
_cell_length_c   12.26506496
_cell_angle_alpha   90.00000000
_cell_angle_beta   90.00000000
_cell_angle_gamma   90.00000000
_symmetry_Int_Tables_number   1
_chemical_formula_structural   LiF
_chemical_formula_sum   'Li48 F48'
_cell_volume   1845.05602689
_cell_formula_units_Z   48
loop_
 _symmetry_equiv_pos_site_id
 _symmetry_equiv_pos_as_xyz
  1  'x, y, z'
loop_
 _atom_site_type_symbol
 _atom_site_label
 _atom_site_symmetry_multiplicity
 _atom_site_fract_x
 _atom_site_fract_y
 _atom_site_fract_z
 _atom_site_occupancy
  F  F0  1  0.54929967  0.70507725  0.19549380  1
  F  F1  1  -0.04929967  -0.70507725  0.69549380  1
  F  F2  1  -0.54929967  1.20507725  0.30450620  1
  F  F3  1  1.04929967  -0.20507725  -0.19549380  1
  F  F4  1  0.19549380  0.54929967  0.70507725  1
  F  F5  1  0.69549380  -0.04929967  -0.70507725  1
  F  F6  1  0.30450620  -0.54929967  1.20507725  1
  F  F7  1  -0.19549380  1.04929967  -0.20507725  1
  F  F8  1  0.70507725  0.19549380  0.54929967  1
  F  F9  1  -0.70507725  0.69549380  -0.04929967  1
  F  F10  1  1.20507725  0.30450620  -0.54929967  1
  F  F11  1  -0.20507725  -0.19549380  1.04929967  1
  F  F12  1  1.45507725  0.79929967  0.05450620  1
  F  F13  1  0.04492275  0.20070033  0.55450620  1
  F  F14  1  0.95507725  -0.29929967  0.94549380  1
  F  F15  1  -0.45507725  1.29929967  0.44549380  1
  F  F16  1  1.29929967  0.44549380  -0.45507725  1
  F  F17  1  -0.29929967  0.94549380  0.95507725  1
  F  F18  1  0.20070033  0.55450620  0.04492275  1
  F  F19  1  0.79929967  0.05450620  1.45507725  1
  F  F20  1  0.94549380  0.95507725  -0.29929967  1
  F  F21  1  0.44549380  -0.45507725  1.29929967  1
  F  F22  1  0.05450620  1.45507725  0.79929967  1
  F  F23  1  0.55450620  0.04492275  0.20070033  1
  F  F24  1  1.04929967  1.20507725  0.69549380  1
  F  F25  1  0.45070033  -0.20507725  1.19549380  1
  F  F26  1  -0.04929967  1.70507725  0.80450620  1
  F  F27  1  1.54929967  0.29492275  0.30450620  1
  F  F28  1  0.69549380  1.04929967  1.20507725  1
  F  F29  1  1.19549380  0.45070033  -0.20507725  1
  F  F30  1  0.80450620  -0.04929967  1.70507725  1
  F  F31  1  0.30450620  1.54929967  0.29492275  1
  F  F32  1  1.20507725  0.69549380  1.04929967  1
  F  F33  1  -0.20507725  1.19549380  0.45070033  1
  F  F34  1  1.70507725  0.80450620  -0.04929967  1
  F  F35  1  0.29492275  0.30450620  1.54929967  1
  F  F36  1  1.95507725  1.29929967  0.55450620  1
  F  F37  1  0.54492275  0.70070033  1.05450620  1
  F  F38  1  1.45507725  0.20070033  1.44549380  1
  F  F39  1  0.04492275  1.79929967  0.94549380  1
  F  F40  1  1.79929967  0.94549380  0.04492275  1
  F  F41  1  0.20070033  1.44549380  1.45507725  1
  F  F42  1  0.70070033  1.05450620  0.54492275  1
  F  F43  1  1.29929967  0.55450620  1.95507725  1
  F  F44  1  1.44549380  1.45507725  0.20070033  1
  F  F45  1  0.94549380  0.04492275  1.79929967  1
  F  F46  1  0.55450620  1.95507725  1.29929967  1
  F  F47  1  1.05450620  0.54492275  0.70070033  1
  Li  Li48  1  0.30357600  0.30357600  0.30357600  1
  Li  Li49  1  0.19642400  0.69642400  0.80357600  1
  Li  Li50  1  0.69642400  0.80357600  0.19642400  1
  Li  Li51  1  0.80357600  0.19642400  0.69642400  1
  Li  Li52  1  0.05357600  0.55357600  0.94642400  1
  Li  Li53  1  0.44642400  0.44642400  0.44642400  1
  Li  Li54  1  0.55357600  0.94642400  0.05357600  1
  Li  Li55  1  0.94642400  0.05357600  0.55357600  1
  Li  Li56  1  0.80357600  0.80357600  0.80357600  1
  Li  Li57  1  0.69642400  0.19642400  0.30357600  1
  Li  Li58  1  0.19642400  0.30357600  0.69642400  1
  Li  Li59  1  0.30357600  0.69642400  0.19642400  1
  Li  Li60  1  0.55357600  0.05357600  0.44642400  1
  Li  Li61  1  0.94642400  0.94642400  0.94642400  1
  Li  Li62  1  0.05357600  0.44642400  0.55357600  1
  Li  Li63  1  0.44642400  0.55357600  0.05357600  1
  Li  Li64  1  0.12500000  0.67344253  0.57655747  1
  Li  Li65  1  0.37500000  0.32655747  0.07655747  1
  Li  Li66  1  0.87500000  0.17344253  0.92344253  1
  Li  Li67  1  0.62500000  0.82655747  0.42344253  1
  Li  Li68  1  0.57655747  0.12500000  0.67344253  1
  Li  Li69  1  0.07655747  0.37500000  0.32655747  1
  Li  Li70  1  0.92344253  0.87500000  0.17344253  1
  Li  Li71  1  0.42344253  0.62500000  0.82655747  1
  Li  Li72  1  0.67344253  0.57655747  0.12500000  1
  Li  Li73  1  0.32655747  0.07655747  0.37500000  1
  Li  Li74  1  0.17344253  0.92344253  0.87500000  1
  Li  Li75  1  0.82655747  0.42344253  0.62500000  1
  Li  Li76  1  0.62500000  0.17344253  0.07655747  1
  Li  Li77  1  0.87500000  0.82655747  0.57655747  1
  Li  Li78  1  0.37500000  0.67344253  0.42344253  1
  Li  Li79  1  0.12500000  0.32655747  0.92344253  1
  Li  Li80  1  0.07655747  0.62500000  0.17344253  1
  Li  Li81  1  0.57655747  0.87500000  0.82655747  1
  Li  Li82  1  0.42344253  0.37500000  0.67344253  1
  Li  Li83  1  0.92344253  0.12500000  0.32655747  1
  Li  Li84  1  0.17344253  0.07655747  0.62500000  1
  Li  Li85  1  0.82655747  0.57655747  0.87500000  1
  Li  Li86  1  0.67344253  0.42344253  0.37500000  1
  Li  Li87  1  0.32655747  0.92344253  0.12500000  1
  Li  Li88  1  0.12500000  0.12500000  0.12500000  1
  Li  Li89  1  0.37500000  0.87500000  0.62500000  1
  Li  Li90  1  0.87500000  0.62500000  0.37500000  1
  Li  Li91  1  0.62500000  0.37500000  0.87500000  1
  Li  Li92  1  0.62500000  0.62500000  0.62500000  1
  Li  Li93  1  0.87500000  0.37500000  0.12500000  1
  Li  Li94  1  0.37500000  0.12500000  0.87500000  1
  Li  Li95  1  0.12500000  0.87500000  0.37500000  1
