# generated using pymatgen
data_Li2Y2Cu3P2Se
_symmetry_space_group_name_H-M   'P 1'
_cell_length_a   4.80387351
_cell_length_b   5.13251821
_cell_length_c   6.88253710
_cell_angle_alpha   95.02766663
_cell_angle_beta   100.05982095
_cell_angle_gamma   108.05326009
_symmetry_Int_Tables_number   1
_chemical_formula_structural   Li2Y2Cu3P2Se
_chemical_formula_sum   'Li2 Y2 Cu3 P2 Se1'
_cell_volume   157.02864670
_cell_formula_units_Z   1
loop_
 _symmetry_equiv_pos_site_id
 _symmetry_equiv_pos_as_xyz
  1  'x, y, z'
loop_
 _atom_site_type_symbol
 _atom_site_label
 _atom_site_symmetry_multiplicity
 _atom_site_fract_x
 _atom_site_fract_y
 _atom_site_fract_z
 _atom_site_occupancy
  Se  Se0  1  0.00000000  0.00000000  0.00000000  1
  Cu  Cu1  1  0.50000000  0.50000000  0.50000000  1
  Cu  Cu2  1  0.25000000  0.25000000  0.25000000  1
  Cu  Cu3  1  0.75000000  0.25000000  0.00000000  1
  Y  Y4  1  0.25000000  0.75000000  0.50000000  1
  Y  Y5  1  0.13714663  0.00617294  0.38228414  1
  P  P6  1  0.37432695  0.34321162  0.84778712  1
  P  P7  1  0.45736502  0.49707662  0.16841047  1
  Li  Li8  1  0.83669067  0.26715992  0.63277512  1
  Li  Li9  1  0.68361044  0.61811947  0.52717508  1
