# generated using pymatgen
data_LiF
_symmetry_space_group_name_H-M   'P 1'
_cell_length_a   5.48381716
_cell_length_b   5.48381716
_cell_length_c   7.46374143
_cell_angle_alpha   90.00000000
_cell_angle_beta   90.00000000
_cell_angle_gamma   120.00000000
_symmetry_Int_Tables_number   1
_chemical_formula_structural   LiF
_chemical_formula_sum   'Li7 F7'
_cell_volume   194.38070364
_cell_formula_units_Z   7
loop_
 _symmetry_equiv_pos_site_id
 _symmetry_equiv_pos_as_xyz
  1  'x, y, z'
loop_
 _atom_site_type_symbol
 _atom_site_label
 _atom_site_symmetry_multiplicity
 _atom_site_fract_x
 _atom_site_fract_y
 _atom_site_fract_z
 _atom_site_occupancy
  F  F0  1  0.12245334  0.00000000  0.00000000  1
  F  F1  1  0.00000000  0.12245334  0.00000000  1
  F  F2  1  0.87754666  0.87754666  0.00000000  1
  F  F3  1  0.33333333  0.66666667  0.16962086  1
  F  F4  1  0.33333333  0.66666667  -0.16962086  1
  F  F5  1  0.66666667  0.33333333  -0.16962086  1
  F  F6  1  0.66666667  0.33333333  0.16962086  1
  Li  Li7  1  0.33333333  0.66666667  0.50000000  1
  Li  Li8  1  0.66666667  0.33333333  0.50000000  1
  Li  Li9  1  0.00000000  0.00000000  0.50000000  1
  Li  Li10  1  0.00000000  0.00000000  0.12630854  1
  Li  Li11  1  0.00000000  0.00000000  0.87369146  1
  Li  Li12  1  0.00000000  0.00000000  0.68969452  1
  Li  Li13  1  0.00000000  0.00000000  0.31030548  1
