# generated using pymatgen
data_Li2YMoAs2P3
_symmetry_space_group_name_H-M   'P 1'
_cell_length_a   5.14157645
_cell_length_b   5.26491001
_cell_length_c   7.07848362
_cell_angle_alpha   94.73308686
_cell_angle_beta   100.15749073
_cell_angle_gamma   108.28106151
_symmetry_Int_Tables_number   1
_chemical_formula_structural   Li2YMoAs2P3
_chemical_formula_sum   'Li2 Y1 Mo1 As2 P3'
_cell_volume   177.13344654
_cell_formula_units_Z   1
loop_
 _symmetry_equiv_pos_site_id
 _symmetry_equiv_pos_as_xyz
  1  'x, y, z'
loop_
 _atom_site_type_symbol
 _atom_site_label
 _atom_site_symmetry_multiplicity
 _atom_site_fract_x
 _atom_site_fract_y
 _atom_site_fract_z
 _atom_site_occupancy
  Y  Y0  1  0.00000000  0.00000000  0.00000000  1
  P  P1  1  0.50000000  0.50000000  0.50000000  1
  P  P2  1  0.25000000  0.25000000  0.25000000  1
  P  P3  1  0.75000000  0.25000000  0.00000000  1
  Mo  Mo4  1  0.25000000  0.75000000  0.50000000  1
  As  As5  1  0.75908129  0.76730606  0.30048002  1
  As  As6  1  0.79313796  0.10241559  0.53989951  1
  Li  Li7  1  0.68587115  0.32510365  0.52639051  1
  Li  Li8  1  0.30631965  0.39781620  0.84030075  1
