# generated using pymatgen
data_Li2TiSF
_symmetry_space_group_name_H-M   'P 1'
_cell_length_a   3.20234956
_cell_length_b   2.98669413
_cell_length_c   5.03493216
_cell_angle_alpha   98.04641166
_cell_angle_beta   101.11570462
_cell_angle_gamma   106.64268203
_symmetry_Int_Tables_number   1
_chemical_formula_structural   Li2TiSF
_chemical_formula_sum   'Li2 Ti1 S1 F1'
_cell_volume   44.28690426
_cell_formula_units_Z   1
loop_
 _symmetry_equiv_pos_site_id
 _symmetry_equiv_pos_as_xyz
  1  'x, y, z'
loop_
 _atom_site_type_symbol
 _atom_site_label
 _atom_site_symmetry_multiplicity
 _atom_site_fract_x
 _atom_site_fract_y
 _atom_site_fract_z
 _atom_site_occupancy
  F  F0  1  0.12500000  0.12500000  0.12500000  1
  Li  Li1  1  0.50000000  0.50000000  0.50000000  1
  Li  Li2  1  0.25000000  0.25000000  0.25000000  1
  S  S3  1  0.75000000  0.75000000  0.75000000  1
  Ti  Ti4  1  0.94311000  0.93549815  0.91091796  1
