# generated using pymatgen
data_LiF
_symmetry_space_group_name_H-M   'P 1'
_cell_length_a   16.83065731
_cell_length_b   16.83065731
_cell_length_c   1.91975660
_cell_angle_alpha   90.00000000
_cell_angle_beta   90.00000000
_cell_angle_gamma   120.00000000
_symmetry_Int_Tables_number   1
_chemical_formula_structural   LiF
_chemical_formula_sum   'Li17 F17'
_cell_volume   470.95450530
_cell_formula_units_Z   17
loop_
 _symmetry_equiv_pos_site_id
 _symmetry_equiv_pos_as_xyz
  1  'x, y, z'
loop_
 _atom_site_type_symbol
 _atom_site_label
 _atom_site_symmetry_multiplicity
 _atom_site_fract_x
 _atom_site_fract_y
 _atom_site_fract_z
 _atom_site_occupancy
  F  F0  1  0.66666667  0.33333333  0.00000000  1
  F  F1  1  0.45122246  0.54877754  0.00000000  1
  F  F2  1  0.45122246  0.90244492  0.00000000  1
  F  F3  1  0.09755508  0.54877754  0.00000000  1
  F  F4  1  0.03877821  0.08849773  0.14767109  1
  F  F5  1  0.91150227  0.95028048  0.14767109  1
  F  F6  1  0.04971952  0.96122179  0.14767109  1
  F  F7  1  0.91150227  0.96122179  0.85232891  1
  F  F8  1  0.04971952  0.08849773  0.85232891  1
  F  F9  1  0.03877821  0.95028048  0.85232891  1
  F  F10  1  0.33333333  0.66666667  0.00000000  1
  F  F11  1  0.66223160  0.05260299  0.30467025  1
  F  F12  1  0.94739701  0.60962862  0.30467025  1
  F  F13  1  0.39037138  0.33776840  0.30467025  1
  F  F14  1  0.94739701  0.33776840  0.69532975  1
  F  F15  1  0.39037138  0.05260299  0.69532975  1
  F  F16  1  0.66223160  0.60962862  0.69532975  1
  Li  Li17  1  0.39305884  0.60694116  0.00000000  1
  Li  Li18  1  0.39305884  0.78611768  0.00000000  1
  Li  Li19  1  0.21388232  0.60694116  0.00000000  1
  Li  Li20  1  0.00000000  0.00000000  0.50000000  1
  Li  Li21  1  0.29246328  0.40502486  0.30415545  1
  Li  Li22  1  -0.40502486  -0.11256158  0.30415545  1
  Li  Li23  1  0.11256158  -0.29246328  0.30415545  1
  Li  Li24  1  -0.40502486  -0.29246328  -0.30415545  1
  Li  Li25  1  0.11256158  0.40502486  -0.30415545  1
  Li  Li26  1  0.29246328  -0.11256158  -0.30415545  1
  Li  Li27  1  0.66666667  0.33333333  0.50000000  1
  Li  Li28  1  0.23065706  0.05979096  0.40256979  1
  Li  Li29  1  0.94020904  0.17086610  0.40256979  1
  Li  Li30  1  0.82913390  0.76934294  0.40256979  1
  Li  Li31  1  0.94020904  0.76934294  0.59743021  1
  Li  Li32  1  0.82913390  0.05979096  0.59743021  1
  Li  Li33  1  0.23065706  0.17086610  0.59743021  1
