# generated using pymatgen
data_Li2Ca3F8
_symmetry_space_group_name_H-M   'P 1'
_cell_length_a   16.34126890
_cell_length_b   14.85650740
_cell_length_c   8.50362933
_cell_angle_alpha   90.00000000
_cell_angle_beta   90.00000000
_cell_angle_gamma   90.00000000
_symmetry_Int_Tables_number   1
_chemical_formula_structural   Li2Ca3F8
_chemical_formula_sum   'Li16 Ca24 F64'
_cell_volume   2064.46165632
_cell_formula_units_Z   8
loop_
 _symmetry_equiv_pos_site_id
 _symmetry_equiv_pos_as_xyz
  1  'x, y, z'
loop_
 _atom_site_type_symbol
 _atom_site_label
 _atom_site_symmetry_multiplicity
 _atom_site_fract_x
 _atom_site_fract_y
 _atom_site_fract_z
 _atom_site_occupancy
  Ca  Ca0  1  0.80942997  0.13696568  0.20249702  1
  Ca  Ca1  1  0.19057003  0.86303432  0.20249702  1
  Ca  Ca2  1  0.69057003  0.63696568  0.79750298  1
  Ca  Ca3  1  0.30942997  0.36303432  0.79750298  1
  Ca  Ca4  1  0.19057003  0.86303432  0.79750298  1
  Ca  Ca5  1  0.80942997  0.13696568  0.79750298  1
  Ca  Ca6  1  0.30942997  0.36303432  0.20249702  1
  Ca  Ca7  1  0.69057003  0.63696568  0.20249702  1
  Ca  Ca8  1  0.37011126  0.16726805  0.27180690  1
  Ca  Ca9  1  0.62988874  0.83273195  0.27180690  1
  Ca  Ca10  1  0.12988874  0.66726805  0.72819310  1
  Ca  Ca11  1  0.87011126  0.33273195  0.72819310  1
  Ca  Ca12  1  0.62988874  0.83273195  0.72819310  1
  Ca  Ca13  1  0.37011126  0.16726805  0.72819310  1
  Ca  Ca14  1  0.87011126  0.33273195  0.27180690  1
  Ca  Ca15  1  0.12988874  0.66726805  0.27180690  1
  Ca  Ca16  1  0.82059176  0.44439472  0.00000000  1
  Ca  Ca17  1  0.17940824  0.55560528  0.00000000  1
  Ca  Ca18  1  0.67940824  0.94439472  0.00000000  1
  Ca  Ca19  1  0.32059176  0.05560528  0.00000000  1
  Ca  Ca20  1  0.31445585  0.45890554  0.50000000  1
  Ca  Ca21  1  0.68554415  0.54109446  0.50000000  1
  Ca  Ca22  1  0.18554415  0.95890554  0.50000000  1
  Ca  Ca23  1  0.81445585  0.04109446  0.50000000  1
  F  F24  1  0.87100482  0.62072657  0.12400033  1
  F  F25  1  -0.87100482  -0.62072657  0.12400033  1
  F  F26  1  -0.37100482  1.12072657  -0.12400033  1
  F  F27  1  1.37100482  -0.12072657  -0.12400033  1
  F  F28  1  -0.87100482  -0.62072657  -0.12400033  1
  F  F29  1  0.87100482  0.62072657  -0.12400033  1
  F  F30  1  1.37100482  -0.12072657  0.12400033  1
  F  F31  1  -0.37100482  1.12072657  0.12400033  1
  F  F32  1  0.00000000  0.00000000  0.50000000  1
  F  F33  1  0.50000000  0.50000000  0.50000000  1
  F  F34  1  0.02242458  0.07334179  0.93340243  1
  F  F35  1  0.97757542  0.92665821  0.93340243  1
  F  F36  1  0.47757542  0.57334179  0.06659757  1
  F  F37  1  0.52242458  0.42665821  0.06659757  1
  F  F38  1  0.97757542  0.92665821  0.06659757  1
  F  F39  1  0.02242458  0.07334179  0.06659757  1
  F  F40  1  0.52242458  0.42665821  0.93340243  1
  F  F41  1  0.47757542  0.57334179  0.93340243  1
  F  F42  1  0.88272911  0.49365651  0.50000000  1
  F  F43  1  0.11727089  0.50634349  0.50000000  1
  F  F44  1  0.61727089  0.99365651  0.50000000  1
  F  F45  1  0.38272911  0.00634349  0.50000000  1
  F  F46  1  0.00000000  0.50000000  0.43177664  1
  F  F47  1  0.50000000  0.00000000  0.56822336  1
  F  F48  1  0.00000000  0.50000000  0.56822336  1
  F  F49  1  0.50000000  0.00000000  0.43177664  1
  F  F50  1  0.40403672  0.07438987  0.37066590  1
  F  F51  1  0.59596328  0.92561013  0.37066590  1
  F  F52  1  0.09596328  0.57438987  0.62933410  1
  F  F53  1  0.90403672  0.42561013  0.62933410  1
  F  F54  1  0.59596328  0.92561013  0.62933410  1
  F  F55  1  0.40403672  0.07438987  0.62933410  1
  F  F56  1  0.90403672  0.42561013  0.37066590  1
  F  F57  1  0.09596328  0.57438987  0.37066590  1
  F  F58  1  0.59264383  0.43984008  0.44193985  1
  F  F59  1  0.40735617  0.56015992  0.44193985  1
  F  F60  1  0.90735617  0.93984008  0.55806015  1
  F  F61  1  0.09264383  0.06015992  0.55806015  1
  F  F62  1  0.40735617  0.56015992  0.55806015  1
  F  F63  1  0.59264383  0.43984008  0.55806015  1
  F  F64  1  0.09264383  0.06015992  0.44193985  1
  F  F65  1  0.90735617  0.93984008  0.44193985  1
  F  F66  1  0.00000000  0.50000000  0.64919483  1
  F  F67  1  0.50000000  0.00000000  0.35080517  1
  F  F68  1  0.00000000  0.50000000  0.35080517  1
  F  F69  1  0.50000000  0.00000000  0.64919483  1
  F  F70  1  0.28065340  0.55685175  0.14305362  1
  F  F71  1  0.71934660  0.44314825  0.14305362  1
  F  F72  1  0.21934660  0.05685175  0.85694638  1
  F  F73  1  0.78065340  0.94314825  0.85694638  1
  F  F74  1  0.71934660  0.44314825  0.85694638  1
  F  F75  1  0.28065340  0.55685175  0.85694638  1
  F  F76  1  0.78065340  0.94314825  0.14305362  1
  F  F77  1  0.21934660  0.05685175  0.14305362  1
  F  F78  1  0.00000000  0.00000000  0.35826464  1
  F  F79  1  0.50000000  0.50000000  0.64173536  1
  F  F80  1  0.00000000  0.00000000  0.64173536  1
  F  F81  1  0.50000000  0.50000000  0.35826464  1
  F  F82  1  0.00000000  0.50000000  0.22785988  1
  F  F83  1  0.50000000  0.00000000  0.77214012  1
  F  F84  1  0.00000000  0.50000000  0.77214012  1
  F  F85  1  0.50000000  0.00000000  0.22785988  1
  F  F86  1  0.00000000  0.00000000  0.00000000  1
  F  F87  1  0.50000000  0.50000000  0.00000000  1
  Li  Li88  1  0.47764759  0.29080675  -0.00000000  1
  Li  Li89  1  0.52235241  0.70919325  0.00000000  1
  Li  Li90  1  0.02235241  0.79080675  0.00000000  1
  Li  Li91  1  0.97764759  0.20919325  -0.00000000  1
  Li  Li92  1  0.53491101  0.07169939  0.17979971  1
  Li  Li93  1  0.46508899  0.92830061  0.17979971  1
  Li  Li94  1  0.96508899  0.57169939  0.82020029  1
  Li  Li95  1  0.03491101  0.42830061  0.82020029  1
  Li  Li96  1  0.46508899  0.92830061  0.82020029  1
  Li  Li97  1  0.53491101  0.07169939  0.82020029  1
  Li  Li98  1  0.03491101  0.42830061  0.17979971  1
  Li  Li99  1  0.96508899  0.57169939  0.17979971  1
  Li  Li100  1  0.16892350  0.83453883  0.00000000  1
  Li  Li101  1  0.83107650  0.16546117  -0.00000000  1
  Li  Li102  1  0.33107650  0.33453883  0.00000000  1
  Li  Li103  1  0.66892350  0.66546117  0.00000000  1
