# generated using pymatgen
data_Li3Hf3B(SeF)6
_symmetry_space_group_name_H-M   'P 1'
_cell_length_a   24.84447246
_cell_length_b   24.84447246
_cell_length_c   11.02294894
_cell_angle_alpha   90.00000000
_cell_angle_beta   90.00000000
_cell_angle_gamma   120.00000000
_symmetry_Int_Tables_number   1
_chemical_formula_structural   Li3Hf3B(SeF)6
_chemical_formula_sum   'Li48 Hf48 B16 Se96 F96'
_cell_volume   5892.34254429
_cell_formula_units_Z   16
loop_
 _symmetry_equiv_pos_site_id
 _symmetry_equiv_pos_as_xyz
  1  'x, y, z'
loop_
 _atom_site_type_symbol
 _atom_site_label
 _atom_site_symmetry_multiplicity
 _atom_site_fract_x
 _atom_site_fract_y
 _atom_site_fract_z
 _atom_site_occupancy
  B  B0  1  0.50050675  0.68792021  0.45708335  1
  B  B1  1  0.31207979  0.81258654  0.45708335  1
  B  B2  1  0.18741346  0.49949325  0.45708335  1
  B  B3  1  0.31207979  0.49949325  0.54291665  1
  B  B4  1  0.18741346  0.68792021  0.54291665  1
  B  B5  1  0.50050675  0.81258654  0.54291665  1
  B  B6  1  0.74884090  0.56479777  0.00062695  1
  B  B7  1  0.43520223  0.18404313  0.00062695  1
  B  B8  1  0.81595687  0.25115910  0.00062695  1
  B  B9  1  0.43520223  0.25115910  0.99937305  1
  B  B10  1  0.81595687  0.56479777  0.99937305  1
  B  B11  1  0.74884090  0.18404313  0.99937305  1
  B  B12  1  0.86316794  0.13683206  0.50000000  1
  B  B13  1  0.86316794  0.72633588  0.50000000  1
  B  B14  1  0.27366412  0.13683206  0.50000000  1
  B  B15  1  0.00000000  0.00000000  0.50000000  1
  F  F16  1  0.10287738  0.68052027  0.44352426  1
  F  F17  1  -0.68052027  -0.57764290  0.44352426  1
  F  F18  1  0.57764290  -0.10287738  0.44352426  1
  F  F19  1  -0.68052027  -0.10287738  -0.44352426  1
  F  F20  1  0.57764290  0.68052027  -0.44352426  1
  F  F21  1  0.10287738  -0.57764290  -0.44352426  1
  F  F22  1  0.83148456  0.72554953  0.27021010  1
  F  F23  1  0.27445047  0.10593502  0.27021010  1
  F  F24  1  0.89406498  0.16851544  0.27021010  1
  F  F25  1  0.27445047  0.16851544  0.72978990  1
  F  F26  1  0.89406498  0.72554953  0.72978990  1
  F  F27  1  0.83148456  0.10593502  0.72978990  1
  F  F28  1  0.88557691  0.50190387  0.64669004  1
  F  F29  1  0.49809613  0.38367304  0.64669004  1
  F  F30  1  0.61632696  0.11442309  0.64669004  1
  F  F31  1  0.49809613  0.11442309  0.35330996  1
  F  F32  1  0.61632696  0.50190387  0.35330996  1
  F  F33  1  0.88557691  0.38367304  0.35330996  1
  F  F34  1  0.33333333  0.66666667  0.69201023  1
  F  F35  1  0.33333333  0.66666667  0.30798977  1
  F  F36  1  0.23908277  0.76091723  0.00000000  1
  F  F37  1  0.23908277  0.47816554  0.00000000  1
  F  F38  1  0.52183446  0.76091723  0.00000000  1
  F  F39  1  0.66666667  0.33333333  0.50000000  1
  F  F40  1  0.10703078  0.77029584  0.78506794  1
  F  F41  1  0.22970416  0.33673495  0.78506794  1
  F  F42  1  0.66326505  0.89296922  0.78506794  1
  F  F43  1  0.22970416  0.89296922  0.21493206  1
  F  F44  1  0.66326505  0.77029584  0.21493206  1
  F  F45  1  0.10703078  0.33673495  0.21493206  1
  F  F46  1  0.88078703  0.05850873  0.76699985  1
  F  F47  1  0.94149127  0.82227830  0.76699985  1
  F  F48  1  0.17772170  0.11921297  0.76699985  1
  F  F49  1  0.94149127  0.11921297  0.23300015  1
  F  F50  1  0.17772170  0.05850873  0.23300015  1
  F  F51  1  0.88078703  0.82227830  0.23300015  1
  F  F52  1  0.60537853  0.39462147  0.50000000  1
  F  F53  1  0.60537853  0.21075707  0.50000000  1
  F  F54  1  0.78924293  0.39462147  0.50000000  1
  F  F55  1  0.62810729  0.98511137  0.94317734  1
  F  F56  1  0.01488863  0.64299592  0.94317734  1
  F  F57  1  0.35700408  0.37189271  0.94317734  1
  F  F58  1  0.01488863  0.37189271  0.05682266  1
  F  F59  1  0.35700408  0.98511137  0.05682266  1
  F  F60  1  0.62810729  0.64299592  0.05682266  1
  F  F61  1  0.96227934  0.32579513  0.76778352  1
  F  F62  1  0.67420487  0.63648421  0.76778352  1
  F  F63  1  0.36351579  0.03772066  0.76778352  1
  F  F64  1  0.67420487  0.03772066  0.23221648  1
  F  F65  1  0.36351579  0.32579513  0.23221648  1
  F  F66  1  0.96227934  0.63648421  0.23221648  1
  F  F67  1  0.00000000  0.00000000  0.00000000  1
  F  F68  1  0.70254011  0.29745989  0.50000000  1
  F  F69  1  0.70254011  0.40508021  0.50000000  1
  F  F70  1  0.59491979  0.29745989  0.50000000  1
  F  F71  1  0.63347585  0.92467320  0.39297922  1
  F  F72  1  0.07532680  0.70880264  0.39297922  1
  F  F73  1  0.29119736  0.36652415  0.39297922  1
  F  F74  1  0.07532680  0.36652415  0.60702078  1
  F  F75  1  0.29119736  0.92467320  0.60702078  1
  F  F76  1  0.63347585  0.70880264  0.60702078  1
  F  F77  1  0.33333333  0.66666667  0.09149572  1
  F  F78  1  0.33333333  0.66666667  0.90850428  1
  F  F79  1  0.10613036  0.82023025  0.35498180  1
  F  F80  1  0.17976975  0.28590012  0.35498180  1
  F  F81  1  0.71409988  0.89386964  0.35498180  1
  F  F82  1  0.17976975  0.89386964  0.64501820  1
  F  F83  1  0.71409988  0.82023025  0.64501820  1
  F  F84  1  0.10613036  0.28590012  0.64501820  1
  F  F85  1  0.27567942  0.19423116  0.79118327  1
  F  F86  1  0.80576884  0.08144826  0.79118327  1
  F  F87  1  0.91855174  0.72432058  0.79118327  1
  F  F88  1  0.80576884  0.72432058  0.20881673  1
  F  F89  1  0.91855174  0.19423116  0.20881673  1
  F  F90  1  0.27567942  0.08144826  0.20881673  1
  F  F91  1  0.32402666  0.31328010  0.71598986  1
  F  F92  1  0.68671990  0.01074656  0.71598986  1
  F  F93  1  0.98925344  0.67597334  0.71598986  1
  F  F94  1  0.68671990  0.67597334  0.28401014  1
  F  F95  1  0.98925344  0.31328010  0.28401014  1
  F  F96  1  0.32402666  0.01074656  0.28401014  1
  F  F97  1  0.84228404  0.77023732  0.77433533  1
  F  F98  1  0.22976268  0.07204672  0.77433533  1
  F  F99  1  0.92795328  0.15771596  0.77433533  1
  F  F100  1  0.22976268  0.15771596  0.22566467  1
  F  F101  1  0.92795328  0.77023732  0.22566467  1
  F  F102  1  0.84228404  0.07204672  0.22566467  1
  F  F103  1  0.33333333  0.66666667  0.00000000  1
  F  F104  1  0.00000000  0.00000000  0.14738656  1
  F  F105  1  0.00000000  0.00000000  0.85261344  1
  F  F106  1  0.82807360  0.03393322  0.20337989  1
  F  F107  1  0.96606678  0.79414037  0.20337989  1
  F  F108  1  0.20585963  0.17192640  0.20337989  1
  F  F109  1  0.96606678  0.17192640  0.79662011  1
  F  F110  1  0.20585963  0.03393322  0.79662011  1
  F  F111  1  0.82807360  0.79414037  0.79662011  1
  Hf  Hf112  1  0.54733738  0.02934848  0.73598748  1
  Hf  Hf113  1  0.97065152  0.51798890  0.73598748  1
  Hf  Hf114  1  0.48201110  0.45266262  0.73598748  1
  Hf  Hf115  1  0.97065152  0.45266262  0.26401252  1
  Hf  Hf116  1  0.48201110  0.02934848  0.26401252  1
  Hf  Hf117  1  0.54733738  0.51798890  0.26401252  1
  Hf  Hf118  1  0.83610711  0.81430463  0.61355695  1
  Hf  Hf119  1  0.18569537  0.02180248  0.61355695  1
  Hf  Hf120  1  0.97819752  0.16389289  0.61355695  1
  Hf  Hf121  1  0.18569537  0.16389289  0.38644305  1
  Hf  Hf122  1  0.97819752  0.81430463  0.38644305  1
  Hf  Hf123  1  0.83610711  0.02180248  0.38644305  1
  Hf  Hf124  1  0.92404347  0.95644045  0.60231977  1
  Hf  Hf125  1  0.04355955  0.96760302  0.60231977  1
  Hf  Hf126  1  0.03239698  0.07595653  0.60231977  1
  Hf  Hf127  1  0.04355955  0.07595653  0.39768023  1
  Hf  Hf128  1  0.03239698  0.95644045  0.39768023  1
  Hf  Hf129  1  0.92404347  0.96760302  0.39768023  1
  Hf  Hf130  1  0.62565438  0.56617821  0.15638645  1
  Hf  Hf131  1  0.43382179  0.05947617  0.15638645  1
  Hf  Hf132  1  0.94052383  0.37434562  0.15638645  1
  Hf  Hf133  1  0.43382179  0.37434562  0.84361355  1
  Hf  Hf134  1  0.94052383  0.56617821  0.84361355  1
  Hf  Hf135  1  0.62565438  0.05947617  0.84361355  1
  Hf  Hf136  1  0.16524810  0.56648229  0.69211111  1
  Hf  Hf137  1  0.43351771  0.59876581  0.69211111  1
  Hf  Hf138  1  0.40123419  0.83475190  0.69211111  1
  Hf  Hf139  1  0.43351771  0.83475190  0.30788889  1
  Hf  Hf140  1  0.40123419  0.56648229  0.30788889  1
  Hf  Hf141  1  0.16524810  0.59876581  0.30788889  1
  Hf  Hf142  1  0.53695873  0.81163144  0.83788532  1
  Hf  Hf143  1  0.18836856  0.72532730  0.83788532  1
  Hf  Hf144  1  0.27467270  0.46304127  0.83788532  1
  Hf  Hf145  1  0.18836856  0.46304127  0.16211468  1
  Hf  Hf146  1  0.27467270  0.81163144  0.16211468  1
  Hf  Hf147  1  0.53695873  0.72532730  0.16211468  1
  Hf  Hf148  1  0.96484549  0.72194017  0.79937024  1
  Hf  Hf149  1  0.27805983  0.24290533  0.79937024  1
  Hf  Hf150  1  0.75709467  0.03515451  0.79937024  1
  Hf  Hf151  1  0.27805983  0.03515451  0.20062976  1
  Hf  Hf152  1  0.75709467  0.72194017  0.20062976  1
  Hf  Hf153  1  0.96484549  0.24290533  0.20062976  1
  Hf  Hf154  1  0.72597616  0.50657320  0.82726473  1
  Hf  Hf155  1  0.49342680  0.21940297  0.82726473  1
  Hf  Hf156  1  0.78059703  0.27402384  0.82726473  1
  Hf  Hf157  1  0.49342680  0.27402384  0.17273527  1
  Hf  Hf158  1  0.78059703  0.50657320  0.17273527  1
  Hf  Hf159  1  0.72597616  0.21940297  0.17273527  1
  Li  Li160  1  0.86478825  0.54339680  0.28057568  1
  Li  Li161  1  0.45660320  0.32139145  0.28057568  1
  Li  Li162  1  0.67860855  0.13521175  0.28057568  1
  Li  Li163  1  0.45660320  0.13521175  0.71942432  1
  Li  Li164  1  0.67860855  0.54339680  0.71942432  1
  Li  Li165  1  0.86478825  0.32139145  0.71942432  1
  Li  Li166  1  0.94040281  0.52054195  0.22178847  1
  Li  Li167  1  0.47945805  0.41986086  0.22178847  1
  Li  Li168  1  0.58013914  0.05959719  0.22178847  1
  Li  Li169  1  0.47945805  0.05959719  0.77821153  1
  Li  Li170  1  0.58013914  0.52054195  0.77821153  1
  Li  Li171  1  0.94040281  0.41986086  0.77821153  1
  Li  Li172  1  0.71634975  0.64964021  0.77571615  1
  Li  Li173  1  0.35035979  0.06670954  0.77571615  1
  Li  Li174  1  0.93329046  0.28365025  0.77571615  1
  Li  Li175  1  0.35035979  0.28365025  0.22428385  1
  Li  Li176  1  0.93329046  0.64964021  0.22428385  1
  Li  Li177  1  0.71634975  0.06670954  0.22428385  1
  Li  Li178  1  0.62025669  0.01056066  0.11874389  1
  Li  Li179  1  0.98943934  0.60969603  0.11874389  1
  Li  Li180  1  0.39030397  0.37974331  0.11874389  1
  Li  Li181  1  0.98943934  0.37974331  0.88125611  1
  Li  Li182  1  0.39030397  0.01056066  0.88125611  1
  Li  Li183  1  0.62025669  0.60969603  0.88125611  1
  Li  Li184  1  0.10174301  0.33776104  0.91324098  1
  Li  Li185  1  0.66223896  0.76398197  0.91324098  1
  Li  Li186  1  0.23601803  0.89825699  0.91324098  1
  Li  Li187  1  0.66223896  0.89825699  0.08675902  1
  Li  Li188  1  0.23601803  0.33776104  0.08675902  1
  Li  Li189  1  0.10174301  0.76398197  0.08675902  1
  Li  Li190  1  0.06749851  0.49046027  0.52799268  1
  Li  Li191  1  0.50953973  0.57703824  0.52799268  1
  Li  Li192  1  0.42296176  0.93250149  0.52799268  1
  Li  Li193  1  0.50953973  0.93250149  0.47200732  1
  Li  Li194  1  0.42296176  0.49046027  0.47200732  1
  Li  Li195  1  0.06749851  0.57703824  0.47200732  1
  Li  Li196  1  0.59674870  0.14306652  0.82955116  1
  Li  Li197  1  0.85693348  0.45368219  0.82955116  1
  Li  Li198  1  0.54631781  0.40325130  0.82955116  1
  Li  Li199  1  0.85693348  0.40325130  0.17044884  1
  Li  Li200  1  0.54631781  0.14306652  0.17044884  1
  Li  Li201  1  0.59674870  0.45368219  0.17044884  1
  Li  Li202  1  0.27282302  0.28461557  0.21783951  1
  Li  Li203  1  0.71538443  0.98820745  0.21783951  1
  Li  Li204  1  0.01179255  0.72717698  0.21783951  1
  Li  Li205  1  0.71538443  0.72717698  0.78216049  1
  Li  Li206  1  0.01179255  0.28461557  0.78216049  1
  Li  Li207  1  0.27282302  0.98820745  0.78216049  1
  Se  Se208  1  0.49978056  0.62604094  0.44693303  1
  Se  Se209  1  0.37395906  0.87373962  0.44693303  1
  Se  Se210  1  0.12626038  0.50021944  0.44693303  1
  Se  Se211  1  0.37395906  0.50021944  0.55306697  1
  Se  Se212  1  0.12626038  0.62604094  0.55306697  1
  Se  Se213  1  0.49978056  0.87373962  0.55306697  1
  Se  Se214  1  0.19794345  0.65316129  0.39278175  1
  Se  Se215  1  0.34683871  0.54478216  0.39278175  1
  Se  Se216  1  0.45521784  0.80205655  0.39278175  1
  Se  Se217  1  0.34683871  0.80205655  0.60721825  1
  Se  Se218  1  0.45521784  0.65316129  0.60721825  1
  Se  Se219  1  0.19794345  0.54478216  0.60721825  1
  Se  Se220  1  0.33333333  0.66666667  0.50000000  1
  Se  Se221  1  0.08207772  0.59316633  0.95487769  1
  Se  Se222  1  0.40683367  0.48891139  0.95487769  1
  Se  Se223  1  0.51108861  0.91792228  0.95487769  1
  Se  Se224  1  0.40683367  0.91792228  0.04512231  1
  Se  Se225  1  0.51108861  0.59316633  0.04512231  1
  Se  Se226  1  0.08207772  0.48891139  0.04512231  1
  Se  Se227  1  0.54017808  0.81349920  0.48466879  1
  Se  Se228  1  0.18650080  0.72667888  0.48466879  1
  Se  Se229  1  0.27332112  0.45982192  0.48466879  1
  Se  Se230  1  0.18650080  0.45982192  0.51533121  1
  Se  Se231  1  0.27332112  0.81349920  0.51533121  1
  Se  Se232  1  0.54017808  0.72667888  0.51533121  1
  Se  Se233  1  0.02906045  0.12565412  0.93610526  1
  Se  Se234  1  0.87434588  0.90340633  0.93610526  1
  Se  Se235  1  0.09659367  0.97093955  0.93610526  1
  Se  Se236  1  0.87434588  0.97093955  0.06389474  1
  Se  Se237  1  0.09659367  0.12565412  0.06389474  1
  Se  Se238  1  0.02906045  0.90340633  0.06389474  1
  Se  Se239  1  0.98131711  0.29310948  0.05330617  1
  Se  Se240  1  0.70689052  0.68820763  0.05330617  1
  Se  Se241  1  0.31179237  0.01868289  0.05330617  1
  Se  Se242  1  0.70689052  0.01868289  0.94669383  1
  Se  Se243  1  0.31179237  0.29310948  0.94669383  1
  Se  Se244  1  0.98131711  0.68820763  0.94669383  1
  Se  Se245  1  0.28894743  0.71105257  0.00000000  1
  Se  Se246  1  0.28894743  0.57789487  0.00000000  1
  Se  Se247  1  0.42210513  0.71105257  0.00000000  1
  Se  Se248  1  0.00000000  0.00000000  0.61745980  1
  Se  Se249  1  0.00000000  0.00000000  0.38254020  1
  Se  Se250  1  0.66666667  0.33333333  0.00000000  1
  Se  Se251  1  0.20979125  0.83443182  0.61120830  1
  Se  Se252  1  0.16556818  0.37535943  0.61120830  1
  Se  Se253  1  0.62464057  0.79020875  0.61120830  1
  Se  Se254  1  0.16556818  0.79020875  0.38879170  1
  Se  Se255  1  0.62464057  0.83443182  0.38879170  1
  Se  Se256  1  0.20979125  0.37535943  0.38879170  1
  Se  Se257  1  0.76529102  0.29262771  0.06425356  1
  Se  Se258  1  0.70737229  0.47266331  0.06425356  1
  Se  Se259  1  0.52733669  0.23470898  0.06425356  1
  Se  Se260  1  0.70737229  0.23470898  0.93574644  1
  Se  Se261  1  0.52733669  0.29262771  0.93574644  1
  Se  Se262  1  0.76529102  0.47266331  0.93574644  1
  Se  Se263  1  0.35330083  0.63030352  0.19551655  1
  Se  Se264  1  0.36969648  0.72299730  0.19551655  1
  Se  Se265  1  0.27700270  0.64669917  0.19551655  1
  Se  Se266  1  0.36969648  0.64669917  0.80448345  1
  Se  Se267  1  0.27700270  0.63030352  0.80448345  1
  Se  Se268  1  0.35330083  0.72299730  0.80448345  1
  Se  Se269  1  0.43815922  0.77885236  0.26689857  1
  Se  Se270  1  0.22114764  0.65930686  0.26689857  1
  Se  Se271  1  0.34069314  0.56184078  0.26689857  1
  Se  Se272  1  0.22114764  0.56184078  0.73310143  1
  Se  Se273  1  0.34069314  0.77885236  0.73310143  1
  Se  Se274  1  0.43815922  0.65930686  0.73310143  1
  Se  Se275  1  0.17369730  0.93448039  0.72745079  1
  Se  Se276  1  0.06551961  0.23921690  0.72745079  1
  Se  Se277  1  0.76078310  0.82630270  0.72745079  1
  Se  Se278  1  0.06551961  0.82630270  0.27254921  1
  Se  Se279  1  0.76078310  0.93448039  0.27254921  1
  Se  Se280  1  0.17369730  0.23921690  0.27254921  1
  Se  Se281  1  0.33333333  0.66666667  0.19417067  1
  Se  Se282  1  0.33333333  0.66666667  0.80582933  1
  Se  Se283  1  0.13963698  0.25877020  0.33939169  1
  Se  Se284  1  0.74122980  0.88086678  0.33939169  1
  Se  Se285  1  0.11913322  0.86036302  0.33939169  1
  Se  Se286  1  0.74122980  0.86036302  0.66060831  1
  Se  Se287  1  0.11913322  0.25877020  0.66060831  1
  Se  Se288  1  0.13963698  0.88086678  0.66060831  1
  Se  Se289  1  0.75835594  0.79815437  0.14796416  1
  Se  Se290  1  0.20184563  0.96020157  0.14796416  1
  Se  Se291  1  0.03979843  0.24164406  0.14796416  1
  Se  Se292  1  0.20184563  0.24164406  0.85203584  1
  Se  Se293  1  0.03979843  0.79815437  0.85203584  1
  Se  Se294  1  0.75835594  0.96020157  0.85203584  1
  Se  Se295  1  0.04998482  0.67390227  0.90000500  1
  Se  Se296  1  0.32609773  0.37608255  0.90000500  1
  Se  Se297  1  0.62391745  0.95001518  0.90000500  1
  Se  Se298  1  0.32609773  0.95001518  0.09999500  1
  Se  Se299  1  0.62391745  0.67390227  0.09999500  1
  Se  Se300  1  0.04998482  0.37608255  0.09999500  1
  Se  Se301  1  0.96587542  0.03412458  0.00000000  1
  Se  Se302  1  0.96587542  0.93175083  0.00000000  1
  Se  Se303  1  0.06824917  0.03412458  0.00000000  1
