# generated using pymatgen
data_LiF
_symmetry_space_group_name_H-M   'P 1'
_cell_length_a   19.15450172
_cell_length_b   12.83825509
_cell_length_c   9.94308174
_cell_angle_alpha   90.00000000
_cell_angle_beta   90.00000000
_cell_angle_gamma   90.00000000
_symmetry_Int_Tables_number   1
_chemical_formula_structural   LiF
_chemical_formula_sum   'Li60 F60'
_cell_volume   2445.10700212
_cell_formula_units_Z   60
loop_
 _symmetry_equiv_pos_site_id
 _symmetry_equiv_pos_as_xyz
  1  'x, y, z'
loop_
 _atom_site_type_symbol
 _atom_site_label
 _atom_site_symmetry_multiplicity
 _atom_site_fract_x
 _atom_site_fract_y
 _atom_site_fract_z
 _atom_site_occupancy
  F  F0  1  0.33448839  0.87959439  0.76326526  1
  F  F1  1  0.16551161  0.12040561  0.26326526  1
  F  F2  1  0.66551161  0.37959439  0.23673474  1
  F  F3  1  0.83448839  0.62040561  0.73673474  1
  F  F4  1  0.66551161  0.12040561  0.23673474  1
  F  F5  1  0.83448839  0.87959439  0.73673474  1
  F  F6  1  0.33448839  0.62040561  0.76326526  1
  F  F7  1  0.16551161  0.37959439  0.26326526  1
  F  F8  1  0.00000000  0.00000000  0.50000000  1
  F  F9  1  0.50000000  0.00000000  0.00000000  1
  F  F10  1  0.00000000  0.50000000  0.50000000  1
  F  F11  1  0.50000000  0.50000000  0.00000000  1
  F  F12  1  0.29493200  0.98356375  0.84104193  1
  F  F13  1  0.20506800  0.01643625  0.34104193  1
  F  F14  1  0.70506800  0.48356375  0.15895807  1
  F  F15  1  0.79493200  0.51643625  0.65895807  1
  F  F16  1  0.70506800  0.01643625  0.15895807  1
  F  F17  1  0.79493200  0.98356375  0.65895807  1
  F  F18  1  0.29493200  0.51643625  0.84104193  1
  F  F19  1  0.20506800  0.48356375  0.34104193  1
  F  F20  1  0.90455769  0.95102003  0.53643413  1
  F  F21  1  0.59544231  0.04897997  0.03643413  1
  F  F22  1  0.09544231  0.45102003  0.46356587  1
  F  F23  1  0.40455769  0.54897997  0.96356587  1
  F  F24  1  0.09544231  0.04897997  0.46356587  1
  F  F25  1  0.40455769  0.95102003  0.96356587  1
  F  F26  1  0.90455769  0.54897997  0.53643413  1
  F  F27  1  0.59544231  0.45102003  0.03643413  1
  F  F28  1  0.22375826  0.46799237  0.47526036  1
  F  F29  1  0.27624174  0.53200763  0.97526036  1
  F  F30  1  0.77624174  0.96799237  0.52473964  1
  F  F31  1  0.72375826  0.03200763  0.02473964  1
  F  F32  1  0.77624174  0.53200763  0.52473964  1
  F  F33  1  0.72375826  0.46799237  0.02473964  1
  F  F34  1  0.22375826  0.03200763  0.47526036  1
  F  F35  1  0.27624174  0.96799237  0.97526036  1
  F  F36  1  0.92153178  0.25000000  0.04266098  1
  F  F37  1  0.57846822  0.75000000  0.54266098  1
  F  F38  1  0.07846822  0.75000000  0.95733902  1
  F  F39  1  0.42153178  0.25000000  0.45733902  1
  F  F40  1  0.63921686  0.14435246  0.46621060  1
  F  F41  1  0.86078314  0.85564754  0.96621060  1
  F  F42  1  0.36078314  0.64435246  0.53378940  1
  F  F43  1  0.13921686  0.35564754  0.03378940  1
  F  F44  1  0.36078314  0.85564754  0.53378940  1
  F  F45  1  0.13921686  0.14435246  0.03378940  1
  F  F46  1  0.63921686  0.35564754  0.46621060  1
  F  F47  1  0.86078314  0.64435246  0.96621060  1
  F  F48  1  0.12779046  0.05404774  0.24660000  1
  F  F49  1  0.37220954  0.94595226  0.74660000  1
  F  F50  1  0.87220954  0.55404774  0.75340000  1
  F  F51  1  0.62779046  0.44595226  0.25340000  1
  F  F52  1  0.87220954  0.94595226  0.75340000  1
  F  F53  1  0.62779046  0.05404774  0.25340000  1
  F  F54  1  0.12779046  0.44595226  0.24660000  1
  F  F55  1  0.37220954  0.55404774  0.74660000  1
  F  F56  1  0.66281683  0.25000000  0.84960814  1
  F  F57  1  0.83718317  0.75000000  0.34960814  1
  F  F58  1  0.33718317  0.75000000  0.15039186  1
  F  F59  1  0.16281683  0.25000000  0.65039186  1
  Li  Li60  1  0.43116046  0.91190153  0.72083808  1
  Li  Li61  1  0.06883954  -0.91190153  1.22083808  1
  Li  Li62  1  -0.43116046  1.41190153  -0.72083808  1
  Li  Li63  1  0.93116046  -0.41190153  -0.22083808  1
  Li  Li64  1  -0.43116046  -0.91190153  -0.72083808  1
  Li  Li65  1  0.93116046  0.91190153  -0.22083808  1
  Li  Li66  1  0.43116046  -0.41190153  0.72083808  1
  Li  Li67  1  0.06883954  1.41190153  1.22083808  1
  Li  Li68  1  0.12950935  0.96342626  0.60669553  1
  Li  Li69  1  0.37049065  0.03657374  0.10669553  1
  Li  Li70  1  0.87049065  0.46342626  0.39330447  1
  Li  Li71  1  0.62950935  0.53657374  0.89330447  1
  Li  Li72  1  0.87049065  0.03657374  0.39330447  1
  Li  Li73  1  0.62950935  0.96342626  0.89330447  1
  Li  Li74  1  0.12950935  0.53657374  0.60669553  1
  Li  Li75  1  0.37049065  0.46342626  0.10669553  1
  Li  Li76  1  0.00000000  0.00000000  0.00000000  1
  Li  Li77  1  0.50000000  0.00000000  0.50000000  1
  Li  Li78  1  0.00000000  0.50000000  0.00000000  1
  Li  Li79  1  0.50000000  0.50000000  0.50000000  1
  Li  Li80  1  0.88055067  0.59648007  0.25092968  1
  Li  Li81  1  0.61944933  0.40351993  0.75092968  1
  Li  Li82  1  0.11944933  0.09648007  0.74907032  1
  Li  Li83  1  0.38055067  0.90351993  0.24907032  1
  Li  Li84  1  0.11944933  0.40351993  0.74907032  1
  Li  Li85  1  0.38055067  0.59648007  0.24907032  1
  Li  Li86  1  0.88055067  0.90351993  0.25092968  1
  Li  Li87  1  0.61944933  0.09648007  0.75092968  1
  Li  Li88  1  0.71942463  0.25000000  0.68638719  1
  Li  Li89  1  0.78057537  0.75000000  0.18638719  1
  Li  Li90  1  0.28057537  0.75000000  0.31361281  1
  Li  Li91  1  0.21942463  0.25000000  0.81361281  1
  Li  Li92  1  0.45260210  0.25000000  0.91260113  1
  Li  Li93  1  0.04739790  0.75000000  0.41260113  1
  Li  Li94  1  0.54739790  0.75000000  0.08739887  1
  Li  Li95  1  0.95260210  0.25000000  0.58739887  1
  Li  Li96  1  0.04319487  0.02825665  0.80676270  1
  Li  Li97  1  0.45680513  0.97174335  0.30676270  1
  Li  Li98  1  0.95680513  0.52825665  0.19323730  1
  Li  Li99  1  0.54319487  0.47174335  0.69323730  1
  Li  Li100  1  0.95680513  0.97174335  0.19323730  1
  Li  Li101  1  0.54319487  0.02825665  0.69323730  1
  Li  Li102  1  0.04319487  0.47174335  0.80676270  1
  Li  Li103  1  0.45680513  0.52825665  0.30676270  1
  Li  Li104  1  0.79636025  0.42400659  0.95585077  1
  Li  Li105  1  0.70363975  0.57599341  0.45585077  1
  Li  Li106  1  0.20363975  0.92400659  0.04414923  1
  Li  Li107  1  0.29636025  0.07599341  0.54414923  1
  Li  Li108  1  0.20363975  0.57599341  0.04414923  1
  Li  Li109  1  0.29636025  0.42400659  0.54414923  1
  Li  Li110  1  0.79636025  0.07599341  0.95585077  1
  Li  Li111  1  0.70363975  0.92400659  0.45585077  1
  Li  Li112  1  0.16988511  0.64703002  0.41176602  1
  Li  Li113  1  0.33011489  0.35296998  0.91176602  1
  Li  Li114  1  0.83011489  0.14703002  0.58823398  1
  Li  Li115  1  0.66988511  0.85296998  0.08823398  1
  Li  Li116  1  0.83011489  0.35296998  0.58823398  1
  Li  Li117  1  0.66988511  0.64703002  0.08823398  1
  Li  Li118  1  0.16988511  0.85296998  0.41176602  1
  Li  Li119  1  0.33011489  0.14703002  0.91176602  1
