# generated using pymatgen
data_LiF
_symmetry_space_group_name_H-M   'P 1'
_cell_length_a   17.69360917
_cell_length_b   7.45049401
_cell_length_c   9.54128323
_cell_angle_alpha   90.00000000
_cell_angle_beta   90.00000000
_cell_angle_gamma   90.00000000
_symmetry_Int_Tables_number   1
_chemical_formula_structural   LiF
_chemical_formula_sum   'Li38 F38'
_cell_volume   1257.79043605
_cell_formula_units_Z   38
loop_
 _symmetry_equiv_pos_site_id
 _symmetry_equiv_pos_as_xyz
  1  'x, y, z'
loop_
 _atom_site_type_symbol
 _atom_site_label
 _atom_site_symmetry_multiplicity
 _atom_site_fract_x
 _atom_site_fract_y
 _atom_site_fract_z
 _atom_site_occupancy
  F  F0  1  0.15654967  0.06672304  0.63793033  1
  F  F1  1  0.84345033  0.93327696  0.63793033  1
  F  F2  1  0.34345033  0.56672304  0.36206967  1
  F  F3  1  0.65654967  0.43327696  0.36206967  1
  F  F4  1  0.84345033  0.93327696  0.36206967  1
  F  F5  1  0.15654967  0.06672304  0.36206967  1
  F  F6  1  0.65654967  0.43327696  0.63793033  1
  F  F7  1  0.34345033  0.56672304  0.63793033  1
  F  F8  1  0.18030609  0.40962910  0.85524878  1
  F  F9  1  0.81969391  0.59037090  0.85524878  1
  F  F10  1  0.31969391  0.90962910  0.14475122  1
  F  F11  1  0.68030609  0.09037090  0.14475122  1
  F  F12  1  0.81969391  0.59037090  0.14475122  1
  F  F13  1  0.18030609  0.40962910  0.14475122  1
  F  F14  1  0.68030609  0.09037090  0.85524878  1
  F  F15  1  0.31969391  0.90962910  0.85524878  1
  F  F16  1  0.46689733  0.36346742  0.66575619  1
  F  F17  1  0.53310267  0.63653258  0.66575619  1
  F  F18  1  0.03310267  0.86346742  0.33424381  1
  F  F19  1  0.96689733  0.13653258  0.33424381  1
  F  F20  1  0.53310267  0.63653258  0.33424381  1
  F  F21  1  0.46689733  0.36346742  0.33424381  1
  F  F22  1  0.96689733  0.13653258  0.66575619  1
  F  F23  1  0.03310267  0.86346742  0.66575619  1
  F  F24  1  0.71088911  0.72826626  0.58935460  1
  F  F25  1  0.28911089  0.27173374  0.58935460  1
  F  F26  1  0.78911089  0.22826626  0.41064540  1
  F  F27  1  0.21088911  0.77173374  0.41064540  1
  F  F28  1  0.28911089  0.27173374  0.41064540  1
  F  F29  1  0.71088911  0.72826626  0.41064540  1
  F  F30  1  0.21088911  0.77173374  0.58935460  1
  F  F31  1  0.78911089  0.22826626  0.58935460  1
  F  F32  1  0.25277708  0.52596769  0.50000000  1
  F  F33  1  0.74722292  0.47403231  0.50000000  1
  F  F34  1  0.24722292  0.02596769  0.50000000  1
  F  F35  1  0.75277708  0.97403231  0.50000000  1
  F  F36  1  0.00000000  0.50000000  0.00000000  1
  F  F37  1  0.50000000  0.00000000  0.00000000  1
  Li  Li38  1  0.00000000  0.00000000  0.50000000  1
  Li  Li39  1  0.50000000  0.50000000  0.50000000  1
  Li  Li40  1  0.37415677  0.46043606  0.89945140  1
  Li  Li41  1  -0.37415677  -0.46043606  0.89945140  1
  Li  Li42  1  0.12584323  0.96043606  -0.89945140  1
  Li  Li43  1  0.87415677  0.03956394  -0.89945140  1
  Li  Li44  1  -0.37415677  -0.46043606  -0.89945140  1
  Li  Li45  1  0.37415677  0.46043606  -0.89945140  1
  Li  Li46  1  0.87415677  0.03956394  0.89945140  1
  Li  Li47  1  0.12584323  0.96043606  0.89945140  1
  Li  Li48  1  0.48579674  0.73231935  0.21691248  1
  Li  Li49  1  0.51420326  0.26768065  0.21691248  1
  Li  Li50  1  0.01420326  0.23231935  0.78308752  1
  Li  Li51  1  0.98579674  0.76768065  0.78308752  1
  Li  Li52  1  0.51420326  0.26768065  0.78308752  1
  Li  Li53  1  0.48579674  0.73231935  0.78308752  1
  Li  Li54  1  0.98579674  0.76768065  0.21691248  1
  Li  Li55  1  0.01420326  0.23231935  0.21691248  1
  Li  Li56  1  0.64761991  0.25093910  0.50000000  1
  Li  Li57  1  0.35238009  0.74906090  0.50000000  1
  Li  Li58  1  0.85238009  0.75093910  0.50000000  1
  Li  Li59  1  0.14761991  0.24906090  0.50000000  1
  Li  Li60  1  0.97956655  0.30205807  0.50000000  1
  Li  Li61  1  0.02043345  0.69794193  0.50000000  1
  Li  Li62  1  0.52043345  0.80205807  0.50000000  1
  Li  Li63  1  0.47956655  0.19794193  0.50000000  1
  Li  Li64  1  0.57461080  0.09218951  0.91235771  1
  Li  Li65  1  0.42538920  0.90781049  0.91235771  1
  Li  Li66  1  0.92538920  0.59218951  0.08764229  1
  Li  Li67  1  0.07461080  0.40781049  0.08764229  1
  Li  Li68  1  0.42538920  0.90781049  0.08764229  1
  Li  Li69  1  0.57461080  0.09218951  0.08764229  1
  Li  Li70  1  0.07461080  0.40781049  0.91235771  1
  Li  Li71  1  0.92538920  0.59218951  0.91235771  1
  Li  Li72  1  0.00000000  0.50000000  0.87281013  1
  Li  Li73  1  0.50000000  0.00000000  0.12718987  1
  Li  Li74  1  0.00000000  0.50000000  0.12718987  1
  Li  Li75  1  0.50000000  0.00000000  0.87281013  1
