# generated using pymatgen
data_LiYAs2P
_symmetry_space_group_name_H-M   'P 1'
_cell_length_a   4.97884328
_cell_length_b   5.06386428
_cell_length_c   6.89830839
_cell_angle_alpha   94.82697493
_cell_angle_beta   100.51214788
_cell_angle_gamma   109.38803983
_symmetry_Int_Tables_number   1
_chemical_formula_structural   LiYAs2P
_chemical_formula_sum   'Li2 Y2 As4 P2'
_cell_volume   159.32955419
_cell_formula_units_Z   2
loop_
 _symmetry_equiv_pos_site_id
 _symmetry_equiv_pos_as_xyz
  1  'x, y, z'
loop_
 _atom_site_type_symbol
 _atom_site_label
 _atom_site_symmetry_multiplicity
 _atom_site_fract_x
 _atom_site_fract_y
 _atom_site_fract_z
 _atom_site_occupancy
  P  P0  1  0.00000000  0.00000000  0.00000000  1
  P  P1  1  0.50000000  0.50000000  0.50000000  1
  As  As2  1  0.50000000  0.50000000  0.00000000  1
  As  As3  1  0.50000000  0.00000000  0.50000000  1
  As  As4  1  0.00000000  0.50000000  0.50000000  1
  As  As5  1  0.53091793  0.61397901  0.15737475  1
  Li  Li6  1  0.92541010  0.61614521  0.99605760  1
  Li  Li7  1  0.42188590  0.61945581  0.80214202  1
  Y  Y8  1  0.19431000  0.87214732  0.83570853  1
  Y  Y9  1  0.10397557  0.56520212  0.62997608  1
