# generated using pymatgen
data_LiY2Te4P3
_symmetry_space_group_name_H-M   'P 1'
_cell_length_a   4.30496242
_cell_length_b   4.42904921
_cell_length_c   6.86216031
_cell_angle_alpha   96.11859328
_cell_angle_beta   102.79853823
_cell_angle_gamma   112.01740656
_symmetry_Int_Tables_number   1
_chemical_formula_structural   LiY2Te4P3
_chemical_formula_sum   'Li1 Y2 Te4 P3'
_cell_volume   115.65269586
_cell_formula_units_Z   1
loop_
 _symmetry_equiv_pos_site_id
 _symmetry_equiv_pos_as_xyz
  1  'x, y, z'
loop_
 _atom_site_type_symbol
 _atom_site_label
 _atom_site_symmetry_multiplicity
 _atom_site_fract_x
 _atom_site_fract_y
 _atom_site_fract_z
 _atom_site_occupancy
  Te  Te0  1  0.12500000  0.12500000  0.12500000  1
  Te  Te1  1  0.50000000  0.50000000  0.50000000  1
  Te  Te2  1  0.25000000  0.25000000  0.25000000  1
  Te  Te3  1  0.75000000  0.75000000  0.75000000  1
  P  P4  1  0.10380005  0.08335586  0.09864233  1
  P  P5  1  0.73166858  0.05564394  0.20076461  1
  P  P6  1  0.83390875  0.06233834  0.18679784  1
  Li  Li7  1  0.27418484  0.85840442  0.22630858  1
  Y  Y8  1  0.81743970  0.17743947  0.88823752  1
  Y  Y9  1  0.46644438  0.76655258  0.71802409  1
