# generated using pymatgen
data_LiF
_symmetry_space_group_name_H-M   'P 1'
_cell_length_a   7.61305408
_cell_length_b   7.61305408
_cell_length_c   15.72608586
_cell_angle_alpha   90.00000000
_cell_angle_beta   90.00000000
_cell_angle_gamma   90.00000000
_symmetry_Int_Tables_number   1
_chemical_formula_structural   LiF
_chemical_formula_sum   'Li56 F56'
_cell_volume   911.46180089
_cell_formula_units_Z   56
loop_
 _symmetry_equiv_pos_site_id
 _symmetry_equiv_pos_as_xyz
  1  'x, y, z'
loop_
 _atom_site_type_symbol
 _atom_site_label
 _atom_site_symmetry_multiplicity
 _atom_site_fract_x
 _atom_site_fract_y
 _atom_site_fract_z
 _atom_site_occupancy
  F  F0  1  0.00000000  0.25000000  0.37500000  1
  F  F1  1  0.00000000  0.75000000  0.62500000  1
  F  F2  1  0.50000000  0.25000000  0.62500000  1
  F  F3  1  0.50000000  0.75000000  0.37500000  1
  F  F4  1  0.50000000  0.75000000  0.87500000  1
  F  F5  1  0.50000000  0.25000000  0.12500000  1
  F  F6  1  0.00000000  0.75000000  0.12500000  1
  F  F7  1  0.00000000  0.25000000  0.87500000  1
  F  F8  1  0.25742948  0.37519327  0.07300163  1
  F  F9  1  0.24257052  0.62480673  0.57300163  1
  F  F10  1  0.87480673  0.00742948  0.32300163  1
  F  F11  1  0.62519327  0.99257052  0.82300163  1
  F  F12  1  0.24257052  0.37519327  0.92699837  1
  F  F13  1  0.25742948  0.62480673  0.42699837  1
  F  F14  1  0.62519327  0.00742948  0.67699837  1
  F  F15  1  0.87480673  0.99257052  0.17699837  1
  F  F16  1  0.74257052  0.62480673  0.92699837  1
  F  F17  1  0.75742948  0.37519327  0.42699837  1
  F  F18  1  0.12519327  0.99257052  0.67699837  1
  F  F19  1  0.37480673  0.00742948  0.17699837  1
  F  F20  1  0.75742948  0.62480673  0.07300163  1
  F  F21  1  0.74257052  0.37519327  0.57300163  1
  F  F22  1  0.37480673  0.99257052  0.32300163  1
  F  F23  1  0.12519327  0.00742948  0.82300163  1
  F  F24  1  0.75742948  0.87519327  0.57300163  1
  F  F25  1  0.74257052  0.12480673  0.07300163  1
  F  F26  1  0.37480673  0.50742948  0.82300163  1
  F  F27  1  0.12519327  0.49257052  0.32300163  1
  F  F28  1  0.74257052  0.87519327  0.42699837  1
  F  F29  1  0.75742948  0.12480673  0.92699837  1
  F  F30  1  0.12519327  0.50742948  0.17699837  1
  F  F31  1  0.37480673  0.49257052  0.67699837  1
  F  F32  1  0.24257052  0.12480673  0.42699837  1
  F  F33  1  0.25742948  0.87519327  0.92699837  1
  F  F34  1  0.62519327  0.49257052  0.17699837  1
  F  F35  1  0.87480673  0.50742948  0.67699837  1
  F  F36  1  0.25742948  0.12480673  0.57300163  1
  F  F37  1  0.24257052  0.87519327  0.07300163  1
  F  F38  1  0.87480673  0.49257052  0.82300163  1
  F  F39  1  0.62519327  0.50742948  0.32300163  1
  F  F40  1  0.71691114  0.00000000  0.25000000  1
  F  F41  1  0.78308886  0.00000000  0.75000000  1
  F  F42  1  0.25000000  0.46691114  0.50000000  1
  F  F43  1  0.25000000  0.53308886  -0.00000000  1
  F  F44  1  0.28308886  0.00000000  0.75000000  1
  F  F45  1  0.21691114  0.00000000  0.25000000  1
  F  F46  1  0.75000000  0.53308886  0.50000000  1
  F  F47  1  0.75000000  0.46691114  -0.00000000  1
  F  F48  1  0.21691114  0.50000000  0.75000000  1
  F  F49  1  0.28308886  0.50000000  0.25000000  1
  F  F50  1  0.75000000  0.96691114  0.00000000  1
  F  F51  1  0.75000000  0.03308886  0.50000000  1
  F  F52  1  0.78308886  0.50000000  0.25000000  1
  F  F53  1  0.71691114  0.50000000  0.75000000  1
  F  F54  1  0.25000000  0.03308886  -0.00000000  1
  F  F55  1  0.25000000  0.96691114  0.50000000  1
  Li  Li56  1  0.54671894  0.55642293  0.97005769  1
  Li  Li57  1  -0.04671894  -0.55642293  1.47005769  1
  Li  Li58  1  -0.30642293  1.29671894  1.22005769  1
  Li  Li59  1  0.80642293  -0.29671894  1.72005769  1
  Li  Li60  1  -0.04671894  0.55642293  -0.97005769  1
  Li  Li61  1  0.54671894  -0.55642293  -0.47005769  1
  Li  Li62  1  0.80642293  1.29671894  -0.22005769  1
  Li  Li63  1  -0.30642293  -0.29671894  -0.72005769  1
  Li  Li64  1  -0.54671894  -0.55642293  -0.97005769  1
  Li  Li65  1  1.04671894  0.55642293  -0.47005769  1
  Li  Li66  1  1.30642293  -0.29671894  -0.22005769  1
  Li  Li67  1  0.19357707  1.29671894  -0.72005769  1
  Li  Li68  1  1.04671894  -0.55642293  0.97005769  1
  Li  Li69  1  -0.54671894  0.55642293  1.47005769  1
  Li  Li70  1  0.19357707  -0.29671894  1.22005769  1
  Li  Li71  1  1.30642293  1.29671894  1.72005769  1
  Li  Li72  1  1.04671894  1.05642293  1.47005769  1
  Li  Li73  1  0.45328106  -0.05642293  1.97005769  1
  Li  Li74  1  0.19357707  1.79671894  1.72005769  1
  Li  Li75  1  1.30642293  0.20328106  2.22005769  1
  Li  Li76  1  0.45328106  1.05642293  -0.47005769  1
  Li  Li77  1  1.04671894  -0.05642293  0.02994231  1
  Li  Li78  1  1.30642293  1.79671894  0.27994231  1
  Li  Li79  1  0.19357707  0.20328106  -0.22005769  1
  Li  Li80  1  -0.04671894  -0.05642293  -0.47005769  1
  Li  Li81  1  1.54671894  1.05642293  0.02994231  1
  Li  Li82  1  1.80642293  0.20328106  0.27994231  1
  Li  Li83  1  0.69357707  1.79671894  -0.22005769  1
  Li  Li84  1  1.54671894  -0.05642293  1.47005769  1
  Li  Li85  1  -0.04671894  1.05642293  1.97005769  1
  Li  Li86  1  0.69357707  0.20328106  1.72005769  1
  Li  Li87  1  1.80642293  1.79671894  2.22005769  1
  Li  Li88  1  0.00000000  0.25000000  0.12500000  1
  Li  Li89  1  0.00000000  0.75000000  0.37500000  1
  Li  Li90  1  0.00000000  0.75000000  0.87500000  1
  Li  Li91  1  0.00000000  0.25000000  0.62500000  1
  Li  Li92  1  0.50000000  0.75000000  0.62500000  1
  Li  Li93  1  0.50000000  0.25000000  0.87500000  1
  Li  Li94  1  0.50000000  0.25000000  0.37500000  1
  Li  Li95  1  0.50000000  0.75000000  0.12500000  1
  Li  Li96  1  0.18444267  0.43444267  0.12500000  1
  Li  Li97  1  0.31555733  0.56555733  0.62500000  1
  Li  Li98  1  0.81555733  0.93444267  0.37500000  1
  Li  Li99  1  0.68444267  0.06555733  0.87500000  1
  Li  Li100  1  0.81555733  0.56555733  0.87500000  1
  Li  Li101  1  0.68444267  0.43444267  0.37500000  1
  Li  Li102  1  0.18444267  0.06555733  0.62500000  1
  Li  Li103  1  0.31555733  0.93444267  0.12500000  1
  Li  Li104  1  0.68444267  0.93444267  0.62500000  1
  Li  Li105  1  0.81555733  0.06555733  0.12500000  1
  Li  Li106  1  0.31555733  0.43444267  0.87500000  1
  Li  Li107  1  0.18444267  0.56555733  0.37500000  1
  Li  Li108  1  0.31555733  0.06555733  0.37500000  1
  Li  Li109  1  0.18444267  0.93444267  0.87500000  1
  Li  Li110  1  0.68444267  0.56555733  0.12500000  1
  Li  Li111  1  0.81555733  0.43444267  0.62500000  1
