# generated using pymatgen
data_LiF
_symmetry_space_group_name_H-M   'P 1'
_cell_length_a   11.73509922
_cell_length_b   11.73509922
_cell_length_c   4.59599342
_cell_angle_alpha   90.00000000
_cell_angle_beta   90.00000000
_cell_angle_gamma   120.00000000
_symmetry_Int_Tables_number   1
_chemical_formula_structural   LiF
_chemical_formula_sum   'Li20 F20'
_cell_volume   548.12998658
_cell_formula_units_Z   20
loop_
 _symmetry_equiv_pos_site_id
 _symmetry_equiv_pos_as_xyz
  1  'x, y, z'
loop_
 _atom_site_type_symbol
 _atom_site_label
 _atom_site_symmetry_multiplicity
 _atom_site_fract_x
 _atom_site_fract_y
 _atom_site_fract_z
 _atom_site_occupancy
  F  F0  1  0.69131743  0.04829119  0.57614140  1
  F  F1  1  0.95170881  0.64302624  0.57614140  1
  F  F2  1  0.35697376  0.30868257  0.57614140  1
  F  F3  1  0.69131743  0.04829119  0.42385860  1
  F  F4  1  0.95170881  0.64302624  0.42385860  1
  F  F5  1  0.35697376  0.30868257  0.42385860  1
  F  F6  1  0.04829119  0.69131743  0.42385860  1
  F  F7  1  0.64302624  0.95170881  0.42385860  1
  F  F8  1  0.30868257  0.35697376  0.42385860  1
  F  F9  1  0.04829119  0.69131743  0.57614140  1
  F  F10  1  0.64302624  0.95170881  0.57614140  1
  F  F11  1  0.30868257  0.35697376  0.57614140  1
  F  F12  1  0.00000000  0.00000000  0.50000000  1
  F  F13  1  0.35927055  0.44070720  0.50000000  1
  F  F14  1  0.55929280  0.91856335  0.50000000  1
  F  F15  1  0.08143665  0.64072945  0.50000000  1
  F  F16  1  0.44070720  0.35927055  0.50000000  1
  F  F17  1  0.91856335  0.55929280  0.50000000  1
  F  F18  1  0.64072945  0.08143665  0.50000000  1
  F  F19  1  0.00000000  0.00000000  0.00000000  1
  Li  Li20  1  0.55537143  0.00000000  0.50000000  1
  Li  Li21  1  0.00000000  0.55537143  0.50000000  1
  Li  Li22  1  0.44462857  0.44462857  0.50000000  1
  Li  Li23  1  0.33333333  0.66666667  0.50000000  1
  Li  Li24  1  0.66666667  0.33333333  0.50000000  1
  Li  Li25  1  0.51042419  0.80736408  0.33142704  1
  Li  Li26  1  -0.80736408  -0.29693989  0.33142704  1
  Li  Li27  1  0.29693989  -0.51042419  0.33142704  1
  Li  Li28  1  0.51042419  0.80736408  -0.33142704  1
  Li  Li29  1  -0.80736408  -0.29693989  -0.33142704  1
  Li  Li30  1  0.29693989  -0.51042419  -0.33142704  1
  Li  Li31  1  0.80736408  0.51042419  -0.33142704  1
  Li  Li32  1  -0.29693989  -0.80736408  -0.33142704  1
  Li  Li33  1  -0.51042419  0.29693989  -0.33142704  1
  Li  Li34  1  0.80736408  0.51042419  0.33142704  1
  Li  Li35  1  -0.29693989  -0.80736408  0.33142704  1
  Li  Li36  1  -0.51042419  0.29693989  0.33142704  1
  Li  Li37  1  0.91944202  0.00000000  -0.00000000  1
  Li  Li38  1  0.00000000  0.91944202  0.00000000  1
  Li  Li39  1  0.08055798  0.08055798  0.00000000  1
