# generated using pymatgen
data_Li3LaOF
_symmetry_space_group_name_H-M   'P 1'
_cell_length_a   3.24689920
_cell_length_b   2.99911069
_cell_length_c   5.92887082
_cell_angle_alpha   114.07703344
_cell_angle_beta   106.65982621
_cell_angle_gamma   105.31358582
_symmetry_Int_Tables_number   1
_chemical_formula_structural   Li3LaOF
_chemical_formula_sum   'Li3 La1 O1 F1'
_cell_volume   45.45434527
_cell_formula_units_Z   1
loop_
 _symmetry_equiv_pos_site_id
 _symmetry_equiv_pos_as_xyz
  1  'x, y, z'
loop_
 _atom_site_type_symbol
 _atom_site_label
 _atom_site_symmetry_multiplicity
 _atom_site_fract_x
 _atom_site_fract_y
 _atom_site_fract_z
 _atom_site_occupancy
  F  F0  1  0.00000000  0.00000000  0.00000000  1
  Li  Li1  1  0.33300000  0.66700000  0.25000000  1
  Li  Li2  1  0.66700000  0.33300000  0.50000000  1
  Li  Li3  1  0.00000000  0.00000000  0.75000000  1
  O  O4  1  0.54509791  0.20159929  0.66786174  1
  La  La5  1  0.81159315  0.09109022  0.39082468  1
