# generated using pymatgen
data_LiF
_symmetry_space_group_name_H-M   'P 1'
_cell_length_a   10.19402345
_cell_length_b   10.19402345
_cell_length_c   8.43344078
_cell_angle_alpha   90.00000000
_cell_angle_beta   90.00000000
_cell_angle_gamma   120.00000000
_symmetry_Int_Tables_number   1
_chemical_formula_structural   LiF
_chemical_formula_sum   'Li42 F42'
_cell_volume   758.97363145
_cell_formula_units_Z   42
loop_
 _symmetry_equiv_pos_site_id
 _symmetry_equiv_pos_as_xyz
  1  'x, y, z'
loop_
 _atom_site_type_symbol
 _atom_site_label
 _atom_site_symmetry_multiplicity
 _atom_site_fract_x
 _atom_site_fract_y
 _atom_site_fract_z
 _atom_site_occupancy
  F  F0  1  0.79323786  0.76791891  0.60802055  1
  F  F1  1  0.23208109  0.02531894  0.60802055  1
  F  F2  1  0.97468106  0.20676214  0.60802055  1
  F  F3  1  0.23208109  0.20676214  0.39197945  1
  F  F4  1  0.97468106  0.76791891  0.39197945  1
  F  F5  1  0.79323786  0.02531894  0.39197945  1
  F  F6  1  0.50250310  0.94081886  0.02243079  1
  F  F7  1  0.05918114  0.56168423  0.02243079  1
  F  F8  1  0.43831577  0.49749690  0.02243079  1
  F  F9  1  0.05918114  0.49749690  0.97756921  1
  F  F10  1  0.43831577  0.94081886  0.97756921  1
  F  F11  1  0.50250310  0.56168423  0.97756921  1
  F  F12  1  0.66666667  0.33333333  0.50000000  1
  F  F13  1  0.66666667  0.33333333  0.00000000  1
  F  F14  1  0.57735628  0.35532573  0.64226447  1
  F  F15  1  0.64467427  0.22203055  0.64226447  1
  F  F16  1  0.77796945  0.42264372  0.64226447  1
  F  F17  1  0.64467427  0.42264372  0.35773553  1
  F  F18  1  0.77796945  0.35532573  0.35773553  1
  F  F19  1  0.57735628  0.22203055  0.35773553  1
  F  F20  1  0.89467306  0.71511180  0.95007000  1
  F  F21  1  0.28488820  0.17956125  0.95007000  1
  F  F22  1  0.82043875  0.10532694  0.95007000  1
  F  F23  1  0.28488820  0.10532694  0.04993000  1
  F  F24  1  0.82043875  0.71511180  0.04993000  1
  F  F25  1  0.89467306  0.17956125  0.04993000  1
  F  F26  1  0.49682902  0.63943236  0.30996375  1
  F  F27  1  0.36056764  0.85739666  0.30996375  1
  F  F28  1  0.14260334  0.50317098  0.30996375  1
  F  F29  1  0.36056764  0.50317098  0.69003625  1
  F  F30  1  0.14260334  0.63943236  0.69003625  1
  F  F31  1  0.49682902  0.85739666  0.69003625  1
  F  F32  1  0.33333333  0.66666667  0.78449814  1
  F  F33  1  0.33333333  0.66666667  0.21550186  1
  F  F34  1  0.91694230  0.22375001  0.99298924  1
  F  F35  1  0.77624999  0.69319229  0.99298924  1
  F  F36  1  0.30680771  0.08305770  0.99298924  1
  F  F37  1  0.77624999  0.08305770  0.00701076  1
  F  F38  1  0.30680771  0.22375001  0.00701076  1
  F  F39  1  0.91694230  0.69319229  0.00701076  1
  F  F40  1  0.00000000  0.00000000  0.15678258  1
  F  F41  1  0.00000000  0.00000000  0.84321742  1
  Li  Li42  1  0.23863002  0.88606826  0.62666755  1
  Li  Li43  1  -0.88606826  -0.64743824  0.62666755  1
  Li  Li44  1  0.64743824  -0.23863002  0.62666755  1
  Li  Li45  1  -0.88606826  -0.23863002  -0.62666755  1
  Li  Li46  1  0.64743824  0.88606826  -0.62666755  1
  Li  Li47  1  0.23863002  -0.64743824  -0.62666755  1
  Li  Li48  1  0.33333333  0.66666667  0.00000000  1
  Li  Li49  1  0.59411922  0.40588078  0.50000000  1
  Li  Li50  1  0.59411922  0.18823844  0.50000000  1
  Li  Li51  1  0.81176156  0.40588078  0.50000000  1
  Li  Li52  1  0.00000000  0.00000000  0.00000000  1
  Li  Li53  1  0.43474014  0.08962700  0.63877216  1
  Li  Li54  1  0.91037300  0.34511315  0.63877216  1
  Li  Li55  1  0.65488685  0.56525986  0.63877216  1
  Li  Li56  1  0.91037300  0.56525986  0.36122784  1
  Li  Li57  1  0.65488685  0.08962700  0.36122784  1
  Li  Li58  1  0.43474014  0.34511315  0.36122784  1
  Li  Li59  1  0.86257887  0.13715165  0.82812806  1
  Li  Li60  1  0.86284835  0.72542721  0.82812806  1
  Li  Li61  1  0.27457279  0.13742113  0.82812806  1
  Li  Li62  1  0.86284835  0.13742113  0.17187194  1
  Li  Li63  1  0.27457279  0.13715165  0.17187194  1
  Li  Li64  1  0.86257887  0.72542721  0.17187194  1
  Li  Li65  1  0.29470175  0.82558384  0.92888783  1
  Li  Li66  1  0.17441616  0.46911791  0.92888783  1
  Li  Li67  1  0.53088209  0.70529825  0.92888783  1
  Li  Li68  1  0.17441616  0.70529825  0.07111217  1
  Li  Li69  1  0.53088209  0.82558384  0.07111217  1
  Li  Li70  1  0.29470175  0.46911791  0.07111217  1
  Li  Li71  1  0.34540554  0.59935657  0.32636824  1
  Li  Li72  1  0.40064343  0.74604896  0.32636824  1
  Li  Li73  1  0.25395104  0.65459446  0.32636824  1
  Li  Li74  1  0.40064343  0.65459446  0.67363176  1
  Li  Li75  1  0.25395104  0.59935657  0.67363176  1
  Li  Li76  1  0.34540554  0.74604896  0.67363176  1
  Li  Li77  1  0.35649424  0.86853043  0.77874047  1
  Li  Li78  1  0.13146957  0.48796381  0.77874047  1
  Li  Li79  1  0.51203619  0.64350576  0.77874047  1
  Li  Li80  1  0.13146957  0.64350576  0.22125953  1
  Li  Li81  1  0.51203619  0.86853043  0.22125953  1
  Li  Li82  1  0.35649424  0.48796381  0.22125953  1
  Li  Li83  1  0.33333333  0.66666667  0.50000000  1
