# generated using pymatgen
data_LiCaF3
_symmetry_space_group_name_H-M   'P 1'
_cell_length_a   11.27281100
_cell_length_b   11.27281100
_cell_length_c   15.73405558
_cell_angle_alpha   90.00000000
_cell_angle_beta   90.00000000
_cell_angle_gamma   120.00000000
_symmetry_Int_Tables_number   1
_chemical_formula_structural   LiCaF3
_chemical_formula_sum   'Li18 Ca18 F54'
_cell_volume   1731.55289598
_cell_formula_units_Z   18
loop_
 _symmetry_equiv_pos_site_id
 _symmetry_equiv_pos_as_xyz
  1  'x, y, z'
loop_
 _atom_site_type_symbol
 _atom_site_label
 _atom_site_symmetry_multiplicity
 _atom_site_fract_x
 _atom_site_fract_y
 _atom_site_fract_z
 _atom_site_occupancy
  Ca  Ca0  1  0.50000000  0.00000000  0.00000000  1
  Ca  Ca1  1  0.00000000  0.50000000  -0.00000000  1
  Ca  Ca2  1  0.50000000  0.50000000  0.00000000  1
  Ca  Ca3  1  0.00000000  0.50000000  0.50000000  1
  Ca  Ca4  1  0.50000000  0.00000000  0.50000000  1
  Ca  Ca5  1  0.50000000  0.50000000  0.50000000  1
  Ca  Ca6  1  0.16666667  0.33333333  0.33333333  1
  Ca  Ca7  1  0.66666667  0.83333333  0.33333333  1
  Ca  Ca8  1  0.16666667  0.83333333  0.33333333  1
  Ca  Ca9  1  0.66666667  0.83333333  0.83333333  1
  Ca  Ca10  1  0.16666667  0.33333333  0.83333333  1
  Ca  Ca11  1  0.16666667  0.83333333  0.83333333  1
  Ca  Ca12  1  0.83333333  0.66666667  0.66666667  1
  Ca  Ca13  1  0.33333333  0.16666667  0.66666667  1
  Ca  Ca14  1  0.83333333  0.16666667  0.66666667  1
  Ca  Ca15  1  0.33333333  0.16666667  0.16666667  1
  Ca  Ca16  1  0.83333333  0.66666667  0.16666667  1
  Ca  Ca17  1  0.83333333  0.16666667  0.16666667  1
  F  F18  1  0.25660265  0.49235066  0.42268580  1
  F  F19  1  -0.49235066  -0.23574801  0.42268580  1
  F  F20  1  0.23574801  -0.25660265  0.42268580  1
  F  F21  1  0.49235066  0.25660265  0.07731420  1
  F  F22  1  -0.23574801  -0.49235066  0.07731420  1
  F  F23  1  -0.25660265  0.23574801  0.07731420  1
  F  F24  1  -0.25660265  -0.49235066  -0.42268580  1
  F  F25  1  0.49235066  0.23574801  -0.42268580  1
  F  F26  1  -0.23574801  0.25660265  -0.42268580  1
  F  F27  1  -0.49235066  -0.25660265  0.92268580  1
  F  F28  1  0.23574801  0.49235066  0.92268580  1
  F  F29  1  0.25660265  -0.23574801  0.92268580  1
  F  F30  1  0.92326932  0.82568399  0.75601913  1
  F  F31  1  0.17431601  0.09758533  0.75601913  1
  F  F32  1  0.90241467  0.07673068  0.75601913  1
  F  F33  1  1.15901733  0.58993599  0.41064753  1
  F  F34  1  0.43091866  -0.15901733  0.41064753  1
  F  F35  1  0.41006401  0.56908134  0.41064753  1
  F  F36  1  0.41006401  -0.15901733  -0.08935247  1
  F  F37  1  1.15901733  0.56908134  -0.08935247  1
  F  F38  1  0.43091866  0.58993599  -0.08935247  1
  F  F39  1  0.17431601  0.07673068  1.25601913  1
  F  F40  1  0.90241467  0.82568399  1.25601913  1
  F  F41  1  0.92326932  0.09758533  1.25601913  1
  F  F42  1  0.58993599  1.15901733  1.08935247  1
  F  F43  1  -0.15901733  0.43091866  1.08935247  1
  F  F44  1  0.56908134  0.41006401  1.08935247  1
  F  F45  1  0.82568399  0.92326932  0.74398087  1
  F  F46  1  0.09758533  0.17431601  0.74398087  1
  F  F47  1  0.07673068  0.90241467  0.74398087  1
  F  F48  1  0.07673068  0.17431601  0.24398087  1
  F  F49  1  0.82568399  0.90241467  0.24398087  1
  F  F50  1  0.09758533  0.92326932  0.24398087  1
  F  F51  1  -0.15901733  0.41006401  1.58935247  1
  F  F52  1  0.56908134  1.15901733  1.58935247  1
  F  F53  1  0.58993599  0.43091866  1.58935247  1
  F  F54  1  0.27688296  0.00000000  0.25000000  1
  F  F55  1  0.00000000  0.27688296  0.25000000  1
  F  F56  1  0.72311704  0.72311704  0.25000000  1
  F  F57  1  0.72311704  0.00000000  0.75000000  1
  F  F58  1  0.00000000  0.72311704  0.75000000  1
  F  F59  1  0.27688296  0.27688296  0.75000000  1
  F  F60  1  0.94354963  0.33333333  0.58333333  1
  F  F61  1  0.66666667  0.61021630  0.58333333  1
  F  F62  1  0.38978370  0.05645037  0.58333333  1
  F  F63  1  0.38978370  0.33333333  0.08333333  1
  F  F64  1  0.66666667  0.05645037  0.08333333  1
  F  F65  1  0.94354963  0.61021630  0.08333333  1
  F  F66  1  0.61021630  0.66666667  0.91666667  1
  F  F67  1  0.33333333  0.94354963  0.91666667  1
  F  F68  1  0.05645037  0.38978370  0.91666667  1
  F  F69  1  0.05645037  0.66666667  0.41666667  1
  F  F70  1  0.33333333  0.38978370  0.41666667  1
  F  F71  1  0.61021630  0.94354963  0.41666667  1
  Li  Li72  1  0.66361096  0.00000000  0.25000000  1
  Li  Li73  1  0.00000000  0.66361096  0.25000000  1
  Li  Li74  1  0.33638904  0.33638904  0.25000000  1
  Li  Li75  1  0.33638904  0.00000000  0.75000000  1
  Li  Li76  1  0.00000000  0.33638904  0.75000000  1
  Li  Li77  1  0.66361096  0.66361096  0.75000000  1
  Li  Li78  1  0.33027763  0.33333333  0.58333333  1
  Li  Li79  1  0.66666667  0.99694430  0.58333333  1
  Li  Li80  1  0.00305570  0.66972237  0.58333333  1
  Li  Li81  1  0.00305570  0.33333333  0.08333333  1
  Li  Li82  1  0.66666667  0.66972237  0.08333333  1
  Li  Li83  1  0.33027763  0.99694430  0.08333333  1
  Li  Li84  1  0.99694430  0.66666667  0.91666667  1
  Li  Li85  1  0.33333333  0.33027763  0.91666667  1
  Li  Li86  1  0.66972237  0.00305570  0.91666667  1
  Li  Li87  1  0.66972237  0.66666667  0.41666667  1
  Li  Li88  1  0.33333333  0.00305570  0.41666667  1
  Li  Li89  1  0.99694430  0.33027763  0.41666667  1
