# generated using pymatgen
data_LiF
_symmetry_space_group_name_H-M   'P 1'
_cell_length_a   11.53603676
_cell_length_b   11.53603676
_cell_length_c   11.54133883
_cell_angle_alpha   90.00000000
_cell_angle_beta   90.00000000
_cell_angle_gamma   90.00000000
_symmetry_Int_Tables_number   1
_chemical_formula_structural   LiF
_chemical_formula_sum   'Li64 F64'
_cell_volume   1535.92303474
_cell_formula_units_Z   64
loop_
 _symmetry_equiv_pos_site_id
 _symmetry_equiv_pos_as_xyz
  1  'x, y, z'
loop_
 _atom_site_type_symbol
 _atom_site_label
 _atom_site_symmetry_multiplicity
 _atom_site_fract_x
 _atom_site_fract_y
 _atom_site_fract_z
 _atom_site_occupancy
  F  F0  1  0.00000000  0.25000000  0.12500000  1
  F  F1  1  0.00000000  0.75000000  0.37500000  1
  F  F2  1  0.00000000  0.75000000  0.87500000  1
  F  F3  1  0.00000000  0.25000000  0.62500000  1
  F  F4  1  0.50000000  0.75000000  0.62500000  1
  F  F5  1  0.50000000  0.25000000  0.87500000  1
  F  F6  1  0.50000000  0.25000000  0.37500000  1
  F  F7  1  0.50000000  0.75000000  0.12500000  1
  F  F8  1  0.16558506  0.41558506  0.12500000  1
  F  F9  1  0.33441494  0.58441494  0.62500000  1
  F  F10  1  0.83441494  0.91558506  0.37500000  1
  F  F11  1  0.66558506  0.08441494  0.87500000  1
  F  F12  1  0.83441494  0.58441494  0.87500000  1
  F  F13  1  0.66558506  0.41558506  0.37500000  1
  F  F14  1  0.16558506  0.08441494  0.62500000  1
  F  F15  1  0.33441494  0.91558506  0.12500000  1
  F  F16  1  0.66558506  0.91558506  0.62500000  1
  F  F17  1  0.83441494  0.08441494  0.12500000  1
  F  F18  1  0.33441494  0.41558506  0.87500000  1
  F  F19  1  0.16558506  0.58441494  0.37500000  1
  F  F20  1  0.33441494  0.08441494  0.37500000  1
  F  F21  1  0.16558506  0.91558506  0.87500000  1
  F  F22  1  0.66558506  0.58441494  0.12500000  1
  F  F23  1  0.83441494  0.41558506  0.62500000  1
  F  F24  1  0.32497524  0.58368913  0.25602066  1
  F  F25  1  0.17502476  0.41631087  0.75602066  1
  F  F26  1  0.66631087  0.07497524  0.50602066  1
  F  F27  1  0.83368913  0.92502476  0.00602066  1
  F  F28  1  0.17502476  0.58368913  0.74397934  1
  F  F29  1  0.32497524  0.41631087  0.24397934  1
  F  F30  1  0.83368913  0.07497524  0.49397934  1
  F  F31  1  0.66631087  0.92502476  0.99397934  1
  F  F32  1  0.67502476  0.41631087  0.74397934  1
  F  F33  1  0.82497524  0.58368913  0.24397934  1
  F  F34  1  0.33368913  0.92502476  0.49397934  1
  F  F35  1  0.16631087  0.07497524  0.99397934  1
  F  F36  1  0.82497524  0.41631087  0.25602066  1
  F  F37  1  0.67502476  0.58368913  0.75602066  1
  F  F38  1  0.16631087  0.92502476  0.50602066  1
  F  F39  1  0.33368913  0.07497524  0.00602066  1
  F  F40  1  0.82497524  0.08368913  0.75602066  1
  F  F41  1  0.67502476  0.91631087  0.25602066  1
  F  F42  1  0.16631087  0.57497524  0.00602066  1
  F  F43  1  0.33368913  0.42502476  0.50602066  1
  F  F44  1  0.67502476  0.08368913  0.24397934  1
  F  F45  1  0.82497524  0.91631087  0.74397934  1
  F  F46  1  0.33368913  0.57497524  0.99397934  1
  F  F47  1  0.16631087  0.42502476  0.49397934  1
  F  F48  1  0.17502476  0.91631087  0.24397934  1
  F  F49  1  0.32497524  0.08368913  0.74397934  1
  F  F50  1  0.83368913  0.42502476  0.99397934  1
  F  F51  1  0.66631087  0.57497524  0.49397934  1
  F  F52  1  0.32497524  0.91631087  0.75602066  1
  F  F53  1  0.17502476  0.08368913  0.25602066  1
  F  F54  1  0.66631087  0.42502476  0.00602066  1
  F  F55  1  0.83368913  0.57497524  0.50602066  1
  F  F56  1  0.00000000  0.25000000  0.37500000  1
  F  F57  1  0.00000000  0.75000000  0.62500000  1
  F  F58  1  0.50000000  0.25000000  0.62500000  1
  F  F59  1  0.50000000  0.75000000  0.37500000  1
  F  F60  1  0.50000000  0.75000000  0.87500000  1
  F  F61  1  0.50000000  0.25000000  0.12500000  1
  F  F62  1  0.00000000  0.75000000  0.12500000  1
  F  F63  1  0.00000000  0.25000000  0.87500000  1
  Li  Li64  1  0.73440438  0.98440438  0.12500000  1
  Li  Li65  1  0.76559562  0.01559562  0.62500000  1
  Li  Li66  1  0.26559562  0.48440438  0.37500000  1
  Li  Li67  1  0.23440438  0.51559562  0.87500000  1
  Li  Li68  1  0.26559562  0.01559562  0.87500000  1
  Li  Li69  1  0.23440438  0.98440438  0.37500000  1
  Li  Li70  1  0.73440438  0.51559562  0.62500000  1
  Li  Li71  1  0.76559562  0.48440438  0.12500000  1
  Li  Li72  1  0.23440438  0.48440438  0.62500000  1
  Li  Li73  1  0.26559562  0.51559562  0.12500000  1
  Li  Li74  1  0.76559562  0.98440438  0.87500000  1
  Li  Li75  1  0.73440438  0.01559562  0.37500000  1
  Li  Li76  1  0.76559562  0.51559562  0.37500000  1
  Li  Li77  1  0.73440438  0.48440438  0.87500000  1
  Li  Li78  1  0.23440438  0.01559562  0.12500000  1
  Li  Li79  1  0.26559562  0.98440438  0.62500000  1
  Li  Li80  1  0.14716526  0.32739409  0.72709092  1
  Li  Li81  1  0.35283474  -0.32739409  1.22709092  1
  Li  Li82  1  -0.07739409  0.89716526  0.97709092  1
  Li  Li83  1  0.57739409  0.10283474  1.47709092  1
  Li  Li84  1  0.35283474  0.32739409  -0.72709092  1
  Li  Li85  1  0.14716526  -0.32739409  -0.22709092  1
  Li  Li86  1  0.57739409  0.89716526  0.02290908  1
  Li  Li87  1  -0.07739409  0.10283474  -0.47709092  1
  Li  Li88  1  -0.14716526  -0.32739409  -0.72709092  1
  Li  Li89  1  0.64716526  0.32739409  -0.22709092  1
  Li  Li90  1  1.07739409  0.10283474  0.02290908  1
  Li  Li91  1  0.42260591  0.89716526  -0.47709092  1
  Li  Li92  1  0.64716526  -0.32739409  0.72709092  1
  Li  Li93  1  -0.14716526  0.32739409  1.22709092  1
  Li  Li94  1  0.42260591  0.10283474  0.97709092  1
  Li  Li95  1  1.07739409  0.89716526  1.47709092  1
  Li  Li96  1  0.64716526  0.82739409  1.22709092  1
  Li  Li97  1  0.85283474  0.17260591  1.72709092  1
  Li  Li98  1  0.42260591  1.39716526  1.47709092  1
  Li  Li99  1  1.07739409  0.60283474  1.97709092  1
  Li  Li100  1  0.85283474  0.82739409  -0.22709092  1
  Li  Li101  1  0.64716526  0.17260591  0.27290908  1
  Li  Li102  1  1.07739409  1.39716526  0.52290908  1
  Li  Li103  1  0.42260591  0.60283474  0.02290908  1
  Li  Li104  1  0.35283474  0.17260591  -0.22709092  1
  Li  Li105  1  1.14716526  0.82739409  0.27290908  1
  Li  Li106  1  1.57739409  0.60283474  0.52290908  1
  Li  Li107  1  0.92260591  1.39716526  0.02290908  1
  Li  Li108  1  1.14716526  0.17260591  1.22709092  1
  Li  Li109  1  0.35283474  0.82739409  1.72709092  1
  Li  Li110  1  0.92260591  0.60283474  1.47709092  1
  Li  Li111  1  1.57739409  1.39716526  1.97709092  1
  Li  Li112  1  0.00000000  0.00000000  0.00000000  1
  Li  Li113  1  0.50000000  0.00000000  0.50000000  1
  Li  Li114  1  0.25000000  0.75000000  0.25000000  1
  Li  Li115  1  0.25000000  0.25000000  0.75000000  1
  Li  Li116  1  0.50000000  0.00000000  0.00000000  1
  Li  Li117  1  0.00000000  0.00000000  0.50000000  1
  Li  Li118  1  0.25000000  0.75000000  0.75000000  1
  Li  Li119  1  0.25000000  0.25000000  0.25000000  1
  Li  Li120  1  0.50000000  0.50000000  0.50000000  1
  Li  Li121  1  0.00000000  0.50000000  0.00000000  1
  Li  Li122  1  0.75000000  0.25000000  0.75000000  1
  Li  Li123  1  0.75000000  0.75000000  0.25000000  1
  Li  Li124  1  0.00000000  0.50000000  0.50000000  1
  Li  Li125  1  0.50000000  0.50000000  0.00000000  1
  Li  Li126  1  0.75000000  0.25000000  0.25000000  1
  Li  Li127  1  0.75000000  0.75000000  0.75000000  1
