# generated using pymatgen
data_LiYAs2PSe
_symmetry_space_group_name_H-M   'P 1'
_cell_length_a   4.82517549
_cell_length_b   5.04599242
_cell_length_c   7.00640351
_cell_angle_alpha   95.06216423
_cell_angle_beta   101.02434128
_cell_angle_gamma   110.33270177
_symmetry_Int_Tables_number   1
_chemical_formula_structural   LiYAs2PSe
_chemical_formula_sum   'Li2 Y2 As4 P2 Se2'
_cell_volume   154.77599130
_cell_formula_units_Z   2
loop_
 _symmetry_equiv_pos_site_id
 _symmetry_equiv_pos_as_xyz
  1  'x, y, z'
loop_
 _atom_site_type_symbol
 _atom_site_label
 _atom_site_symmetry_multiplicity
 _atom_site_fract_x
 _atom_site_fract_y
 _atom_site_fract_z
 _atom_site_occupancy
  Se  Se0  1  0.12500000  0.00000000  0.25000000  1
  Se  Se1  1  0.00000000  0.00000000  0.00000000  1
  P  P2  1  0.37500000  0.00000000  0.25000000  1
  P  P3  1  0.25000000  0.25000000  0.25000000  1
  As  As4  1  0.00000000  0.25000000  0.12500000  1
  As  As5  1  0.42298544  0.51290485  0.27322234  1
  As  As6  1  0.34057901  0.91121483  0.84620052  1
  As  As7  1  0.62309456  0.91637267  0.07155073  1
  Li  Li8  1  0.30610068  0.11825325  0.55086169  1
  Li  Li9  1  0.96112262  0.19319149  0.79322353  1
  Y  Y10  1  0.70334147  0.21492597  0.23950050  1
  Y  Y11  1  0.27179936  0.34363391  0.79355072  1
