# generated using pymatgen
data_Li2Y2MoP3Se
_symmetry_space_group_name_H-M   'P 1'
_cell_length_a   4.86586138
_cell_length_b   5.05549096
_cell_length_c   7.13902057
_cell_angle_alpha   95.03201936
_cell_angle_beta   100.70675392
_cell_angle_gamma   108.98728429
_symmetry_Int_Tables_number   1
_chemical_formula_structural   Li2Y2MoP3Se
_chemical_formula_sum   'Li2 Y2 Mo1 P3 Se1'
_cell_volume   161.08118230
_cell_formula_units_Z   1
loop_
 _symmetry_equiv_pos_site_id
 _symmetry_equiv_pos_as_xyz
  1  'x, y, z'
loop_
 _atom_site_type_symbol
 _atom_site_label
 _atom_site_symmetry_multiplicity
 _atom_site_fract_x
 _atom_site_fract_y
 _atom_site_fract_z
 _atom_site_occupancy
  Se  Se0  1  0.00000000  0.00000000  0.00000000  1
  P  P1  1  0.50000000  0.50000000  0.50000000  1
  P  P2  1  0.25000000  0.25000000  0.25000000  1
  P  P3  1  0.75000000  0.25000000  0.00000000  1
  Mo  Mo4  1  0.25000000  0.75000000  0.50000000  1
  Li  Li5  1  0.54669140  0.29921925  0.78439771  1
  Li  Li6  1  0.62464991  0.85944305  0.47186996  1
  Y  Y7  1  0.62850895  0.34537151  0.65399274  1
  Y  Y8  1  0.96471324  0.77528642  0.04689761  1
