# generated using pymatgen
data_LiF
_symmetry_space_group_name_H-M   'P 1'
_cell_length_a   5.11225051
_cell_length_b   11.16003289
_cell_length_c   9.49130971
_cell_angle_alpha   90.00000000
_cell_angle_beta   90.00000000
_cell_angle_gamma   90.00000000
_symmetry_Int_Tables_number   1
_chemical_formula_structural   LiF
_chemical_formula_sum   'Li24 F24'
_cell_volume   541.50659014
_cell_formula_units_Z   24
loop_
 _symmetry_equiv_pos_site_id
 _symmetry_equiv_pos_as_xyz
  1  'x, y, z'
loop_
 _atom_site_type_symbol
 _atom_site_label
 _atom_site_symmetry_multiplicity
 _atom_site_fract_x
 _atom_site_fract_y
 _atom_site_fract_z
 _atom_site_occupancy
  F  F0  1  0.82789932  0.25000000  0.06331616  1
  F  F1  1  0.67210068  0.75000000  0.56331616  1
  F  F2  1  0.17210068  0.75000000  0.93668384  1
  F  F3  1  0.32789932  0.25000000  0.43668384  1
  F  F4  1  0.01787172  0.25000000  0.31901202  1
  F  F5  1  0.48212828  0.75000000  0.81901202  1
  F  F6  1  0.98212828  0.75000000  0.68098798  1
  F  F7  1  0.51787172  0.25000000  0.18098798  1
  F  F8  1  0.00000000  0.00000000  0.00000000  1
  F  F9  1  0.50000000  0.00000000  0.50000000  1
  F  F10  1  0.00000000  0.50000000  -0.00000000  1
  F  F11  1  0.50000000  0.50000000  0.50000000  1
  F  F12  1  0.33690568  0.68365343  0.20883078  1
  F  F13  1  0.16309432  0.31634657  0.70883078  1
  F  F14  1  0.66309432  0.18365343  0.79116922  1
  F  F15  1  0.83690568  0.81634657  0.29116922  1
  F  F16  1  0.66309432  0.31634657  0.79116922  1
  F  F17  1  0.83690568  0.68365343  0.29116922  1
  F  F18  1  0.33690568  0.81634657  0.20883078  1
  F  F19  1  0.16309432  0.18365343  0.70883078  1
  F  F20  1  0.57111177  0.25000000  0.68908724  1
  F  F21  1  0.92888823  0.75000000  0.18908724  1
  F  F22  1  0.42888823  0.75000000  0.31091276  1
  F  F23  1  0.07111177  0.25000000  0.81091276  1
  Li  Li24  1  0.69377409  0.25000000  0.13760109  1
  Li  Li25  1  0.80622591  0.75000000  0.63760109  1
  Li  Li26  1  0.30622591  0.75000000  0.86239891  1
  Li  Li27  1  0.19377409  0.25000000  0.36239891  1
  Li  Li28  1  0.51986448  0.46201284  0.81825793  1
  Li  Li29  1  -0.01986448  -0.46201284  1.31825793  1
  Li  Li30  1  -0.51986448  0.96201284  -0.81825793  1
  Li  Li31  1  1.01986448  0.03798716  -0.31825793  1
  Li  Li32  1  -0.51986448  -0.46201284  -0.81825793  1
  Li  Li33  1  1.01986448  0.46201284  -0.31825793  1
  Li  Li34  1  0.51986448  0.03798716  0.81825793  1
  Li  Li35  1  -0.01986448  0.96201284  1.31825793  1
  Li  Li36  1  0.41197951  0.25000000  0.85167564  1
  Li  Li37  1  0.08802049  0.75000000  0.35167564  1
  Li  Li38  1  0.58802049  0.75000000  0.14832436  1
  Li  Li39  1  0.91197951  0.25000000  0.64832436  1
  Li  Li40  1  0.84859183  0.85176923  0.79406284  1
  Li  Li41  1  0.65140817  0.14823077  0.29406284  1
  Li  Li42  1  0.15140817  0.35176923  0.20593716  1
  Li  Li43  1  0.34859183  0.64823077  0.70593716  1
  Li  Li44  1  0.15140817  0.14823077  0.20593716  1
  Li  Li45  1  0.34859183  0.85176923  0.70593716  1
  Li  Li46  1  0.84859183  0.64823077  0.79406284  1
  Li  Li47  1  0.65140817  0.35176923  0.29406284  1
