# generated using pymatgen
data_Sr4Li9Zr4Te12F9
_symmetry_space_group_name_H-M   'P 1'
_cell_length_a   15.38316594
_cell_length_b   15.38316594
_cell_length_c   7.63190413
_cell_angle_alpha   90.00000000
_cell_angle_beta   90.00000000
_cell_angle_gamma   120.00000000
_symmetry_Int_Tables_number   1
_chemical_formula_structural   Sr4Li9Zr4Te12F9
_chemical_formula_sum   'Sr8 Li18 Zr8 Te24 F18'
_cell_volume   1564.06568306
_cell_formula_units_Z   2
loop_
 _symmetry_equiv_pos_site_id
 _symmetry_equiv_pos_as_xyz
  1  'x, y, z'
loop_
 _atom_site_type_symbol
 _atom_site_label
 _atom_site_symmetry_multiplicity
 _atom_site_fract_x
 _atom_site_fract_y
 _atom_site_fract_z
 _atom_site_occupancy
  F  F0  1  0.24438470  0.04432295  0.46014394  1
  F  F1  1  0.95567705  0.20006175  0.46014394  1
  F  F2  1  0.79993825  0.75561530  0.46014394  1
  F  F3  1  0.75561530  0.95567705  0.96014394  1
  F  F4  1  0.04432295  0.79993825  0.96014394  1
  F  F5  1  0.20006175  0.24438470  0.96014394  1
  F  F6  1  0.75561530  0.95567705  0.53985606  1
  F  F7  1  0.04432295  0.79993825  0.53985606  1
  F  F8  1  0.20006175  0.24438470  0.53985606  1
  F  F9  1  0.24438470  0.04432295  0.03985606  1
  F  F10  1  0.95567705  0.20006175  0.03985606  1
  F  F11  1  0.79993825  0.75561530  0.03985606  1
  F  F12  1  0.50000000  0.00000000  0.00000000  1
  F  F13  1  0.00000000  0.50000000  0.00000000  1
  F  F14  1  0.50000000  0.50000000  0.00000000  1
  F  F15  1  0.50000000  0.00000000  0.50000000  1
  F  F16  1  0.00000000  0.50000000  0.50000000  1
  F  F17  1  0.50000000  0.50000000  0.50000000  1
  Li  Li18  1  0.36567045  0.40735275  0.25000000  1
  Li  Li19  1  0.59264725  0.95831769  0.25000000  1
  Li  Li20  1  0.04168231  0.63432955  0.25000000  1
  Li  Li21  1  0.63432955  0.59264725  0.75000000  1
  Li  Li22  1  0.40735275  0.04168231  0.75000000  1
  Li  Li23  1  0.95831769  0.36567045  0.75000000  1
  Li  Li24  1  0.00000000  0.00000000  0.00000000  1
  Li  Li25  1  0.00000000  0.00000000  0.50000000  1
  Li  Li26  1  0.25012362  0.72088070  0.25000000  1
  Li  Li27  1  0.27911930  0.52924292  0.25000000  1
  Li  Li28  1  0.47075708  0.74987638  0.25000000  1
  Li  Li29  1  0.74987638  0.27911930  0.75000000  1
  Li  Li30  1  0.72088070  0.47075708  0.75000000  1
  Li  Li31  1  0.52924292  0.25012362  0.75000000  1
  Li  Li32  1  0.33333333  0.66666667  0.98586331  1
  Li  Li33  1  0.66666667  0.33333333  0.48586331  1
  Li  Li34  1  0.66666667  0.33333333  0.01413669  1
  Li  Li35  1  0.33333333  0.66666667  0.51413669  1
  Sr  Sr36  1  0.81789365  0.90747443  0.25000000  1
  Sr  Sr37  1  0.09252557  0.91041922  0.25000000  1
  Sr  Sr38  1  0.08958078  0.18210635  0.25000000  1
  Sr  Sr39  1  0.18210635  0.09252557  0.75000000  1
  Sr  Sr40  1  0.90747443  0.08958078  0.75000000  1
  Sr  Sr41  1  0.91041922  0.81789365  0.75000000  1
  Sr  Sr42  1  0.33333333  0.66666667  0.25000000  1
  Sr  Sr43  1  0.66666667  0.33333333  0.75000000  1
  Te  Te44  1  0.77798295  0.70819221  0.25000000  1
  Te  Te45  1  0.29180779  0.06979074  0.25000000  1
  Te  Te46  1  0.93020926  0.22201705  0.25000000  1
  Te  Te47  1  0.22201705  0.29180779  0.75000000  1
  Te  Te48  1  0.70819221  0.93020926  0.75000000  1
  Te  Te49  1  0.06979074  0.77798295  0.75000000  1
  Te  Te50  1  0.69755938  0.81845740  0.58535277  1
  Te  Te51  1  -0.81845740  -0.12089802  0.58535277  1
  Te  Te52  1  0.12089802  -0.69755938  0.58535277  1
  Te  Te53  1  -0.69755938  -0.81845740  1.08535277  1
  Te  Te54  1  0.81845740  0.12089802  1.08535277  1
  Te  Te55  1  -0.12089802  0.69755938  1.08535277  1
  Te  Te56  1  -0.69755938  -0.81845740  -0.58535277  1
  Te  Te57  1  0.81845740  0.12089802  -0.58535277  1
  Te  Te58  1  -0.12089802  0.69755938  -0.58535277  1
  Te  Te59  1  0.69755938  0.81845740  -0.08535277  1
  Te  Te60  1  -0.81845740  -0.12089802  -0.08535277  1
  Te  Te61  1  0.12089802  -0.69755938  -0.08535277  1
  Te  Te62  1  0.52434156  0.03975626  0.25000000  1
  Te  Te63  1  0.96024374  0.48458530  0.25000000  1
  Te  Te64  1  0.51541470  0.47565844  0.25000000  1
  Te  Te65  1  0.47565844  0.96024374  0.75000000  1
  Te  Te66  1  0.03975626  0.51541470  0.75000000  1
  Te  Te67  1  0.48458530  0.52434156  0.75000000  1
  Zr  Zr68  1  0.46272092  0.14474768  0.25000000  1
  Zr  Zr69  1  0.85525232  0.31797323  0.25000000  1
  Zr  Zr70  1  0.68202677  0.53727908  0.25000000  1
  Zr  Zr71  1  0.53727908  0.85525232  0.75000000  1
  Zr  Zr72  1  0.14474768  0.68202677  0.75000000  1
  Zr  Zr73  1  0.31797323  0.46272092  0.75000000  1
  Zr  Zr74  1  0.00000000  0.00000000  0.25000000  1
  Zr  Zr75  1  0.00000000  0.00000000  0.75000000  1
