# generated using pymatgen
data_Li3Y2Sb2P2Se
_symmetry_space_group_name_H-M   'P 1'
_cell_length_a   5.40627269
_cell_length_b   5.59932092
_cell_length_c   7.12116149
_cell_angle_alpha   93.54396475
_cell_angle_beta   97.95772401
_cell_angle_gamma   104.52412863
_symmetry_Int_Tables_number   1
_chemical_formula_structural   Li3Y2Sb2P2Se
_chemical_formula_sum   'Li3 Y2 Sb2 P2 Se1'
_cell_volume   205.61901819
_cell_formula_units_Z   1
loop_
 _symmetry_equiv_pos_site_id
 _symmetry_equiv_pos_as_xyz
  1  'x, y, z'
loop_
 _atom_site_type_symbol
 _atom_site_label
 _atom_site_symmetry_multiplicity
 _atom_site_fract_x
 _atom_site_fract_y
 _atom_site_fract_z
 _atom_site_occupancy
  Y  Y0  1  0.12500000  0.00000000  0.25000000  1
  Y  Y1  1  0.00000000  0.00000000  0.00000000  1
  P  P2  1  0.37500000  0.00000000  0.25000000  1
  P  P3  1  0.25000000  0.25000000  0.25000000  1
  Se  Se4  1  0.00000000  0.25000000  0.12500000  1
  Li  Li5  1  0.61706734  0.50831819  0.71571831  1
  Li  Li6  1  0.94481050  0.86729243  0.74986129  1
  Li  Li7  1  0.51490555  0.04158351  0.05060343  1
  Sb  Sb8  1  0.98715557  0.65681606  0.48709768  1
  Sb  Sb9  1  0.86835692  0.24447169  0.40459347  1
