# generated using pymatgen
data_Li2MoP3Se
_symmetry_space_group_name_H-M   'P 1'
_cell_length_a   4.81823709
_cell_length_b   5.14409370
_cell_length_c   6.88198502
_cell_angle_alpha   94.57220775
_cell_angle_beta   100.30053283
_cell_angle_gamma   108.77915371
_symmetry_Int_Tables_number   1
_chemical_formula_structural   Li2MoP3Se
_chemical_formula_sum   'Li2 Mo1 P3 Se1'
_cell_volume   157.15533584
_cell_formula_units_Z   1
loop_
 _symmetry_equiv_pos_site_id
 _symmetry_equiv_pos_as_xyz
  1  'x, y, z'
loop_
 _atom_site_type_symbol
 _atom_site_label
 _atom_site_symmetry_multiplicity
 _atom_site_fract_x
 _atom_site_fract_y
 _atom_site_fract_z
 _atom_site_occupancy
  P  P0  1  0.00000000  0.00000000  0.00000000  1
  P  P1  1  0.50000000  0.50000000  0.50000000  1
  P  P2  1  0.25000000  0.25000000  0.25000000  1
  Mo  Mo3  1  0.75000000  0.25000000  0.00000000  1
  Se  Se4  1  0.25000000  0.75000000  0.50000000  1
  Li  Li5  1  0.82818151  0.81260243  0.30987599  1
  Li  Li6  1  0.17105442  0.86288596  0.13806872  1
