# generated using pymatgen
data_Li2Y(AsP)2
_symmetry_space_group_name_H-M   'P 1'
_cell_length_a   5.02630474
_cell_length_b   5.06134975
_cell_length_c   7.03312722
_cell_angle_alpha   95.21633334
_cell_angle_beta   101.01989907
_cell_angle_gamma   109.29872229
_symmetry_Int_Tables_number   1
_chemical_formula_structural   Li2Y(AsP)2
_chemical_formula_sum   'Li2 Y1 As2 P2'
_cell_volume   163.44527895
_cell_formula_units_Z   1
loop_
 _symmetry_equiv_pos_site_id
 _symmetry_equiv_pos_as_xyz
  1  'x, y, z'
loop_
 _atom_site_type_symbol
 _atom_site_label
 _atom_site_symmetry_multiplicity
 _atom_site_fract_x
 _atom_site_fract_y
 _atom_site_fract_z
 _atom_site_occupancy
  P  P0  1  0.00000000  0.00000000  0.00000000  1
  P  P1  1  0.50000000  0.50000000  0.50000000  1
  As  As2  1  0.50000000  0.50000000  0.00000000  1
  As  As3  1  0.50000000  0.00000000  0.50000000  1
  Li  Li4  1  0.00000000  0.50000000  0.50000000  1
  Li  Li5  1  0.85642400  0.48213129  0.97533565  1
  Y  Y6  1  0.65388932  0.83104930  0.57375404  1
