# generated using pymatgen
data_Li5AlSb2P3Se2
_symmetry_space_group_name_H-M   'P 1'
_cell_length_a   7.61258366
_cell_length_b   7.68526254
_cell_length_c   8.08238277
_cell_angle_alpha   90.00000000
_cell_angle_beta   90.00000000
_cell_angle_gamma   90.00000000
_symmetry_Int_Tables_number   1
_chemical_formula_structural   Li5AlSb2P3Se2
_chemical_formula_sum   'Li5 Al1 Sb2 P3 Se2'
_cell_volume   472.85741241
_cell_formula_units_Z   1
loop_
 _symmetry_equiv_pos_site_id
 _symmetry_equiv_pos_as_xyz
  1  'x, y, z'
loop_
 _atom_site_type_symbol
 _atom_site_label
 _atom_site_symmetry_multiplicity
 _atom_site_fract_x
 _atom_site_fract_y
 _atom_site_fract_z
 _atom_site_occupancy
  Al  Al0  1  0.00000000  0.00000000  0.00000000  1
  Se  Se1  1  0.50000000  0.50000000  0.50000000  1
  Se  Se2  1  0.50000000  0.50000000  0.00000000  1
  P  P3  1  0.50000000  0.00000000  0.50000000  1
  P  P4  1  0.00000000  0.50000000  0.50000000  1
  P  P5  1  0.27469339  0.36139394  0.70155136  1
  Li  Li6  1  0.54091930  0.84834917  0.64477589  1
  Li  Li7  1  0.97281824  0.48518009  0.38977764  1
  Li  Li8  1  0.85055836  0.18080181  0.68352721  1
  Li  Li9  1  0.61553102  0.37707115  0.95815588  1
  Li  Li10  1  0.08841701  0.70237875  0.33806635  1
  Sb  Sb11  1  0.67371909  0.36433825  0.73389963  1
  Sb  Sb12  1  0.93041649  0.83183621  0.28690577  1
