# generated using pymatgen
data_Li2Y2As4P2Se
_symmetry_space_group_name_H-M   'P 1'
_cell_length_a   5.21029313
_cell_length_b   5.30008892
_cell_length_c   6.76761270
_cell_angle_alpha   94.09822266
_cell_angle_beta   97.93763834
_cell_angle_gamma   104.91236655
_symmetry_Int_Tables_number   1
_chemical_formula_structural   Li2Y2As4P2Se
_chemical_formula_sum   'Li2 Y2 As4 P2 Se1'
_cell_volume   177.74175314
_cell_formula_units_Z   1
loop_
 _symmetry_equiv_pos_site_id
 _symmetry_equiv_pos_as_xyz
  1  'x, y, z'
loop_
 _atom_site_type_symbol
 _atom_site_label
 _atom_site_symmetry_multiplicity
 _atom_site_fract_x
 _atom_site_fract_y
 _atom_site_fract_z
 _atom_site_occupancy
  Se  Se0  1  0.12500000  0.00000000  0.25000000  1
  Y  Y1  1  0.00000000  0.00000000  0.00000000  1
  Y  Y2  1  0.37500000  0.00000000  0.25000000  1
  P  P3  1  0.25000000  0.25000000  0.25000000  1
  P  P4  1  0.00000000  0.25000000  0.12500000  1
  As  As5  1  0.80334803  0.01984218  0.16508328  1
  As  As6  1  0.01372645  0.35075215  0.20484947  1
  As  As7  1  0.57055630  0.46529658  0.26605198  1
  As  As8  1  0.78586185  0.38956691  0.13740481  1
  Li  Li9  1  0.39100083  0.53450662  0.52821025  1
  Li  Li10  1  0.42768822  0.70406603  0.34590120  1
