# generated using pymatgen
data_Li3Y2(PSe)2
_symmetry_space_group_name_H-M   'P 1'
_cell_length_a   5.42853837
_cell_length_b   5.68877180
_cell_length_c   7.32946625
_cell_angle_alpha   93.93660459
_cell_angle_beta   98.57310640
_cell_angle_gamma   105.81177608
_symmetry_Int_Tables_number   1
_chemical_formula_structural   Li3Y2(PSe)2
_chemical_formula_sum   'Li3 Y2 P2 Se2'
_cell_volume   213.92356352
_cell_formula_units_Z   1
loop_
 _symmetry_equiv_pos_site_id
 _symmetry_equiv_pos_as_xyz
  1  'x, y, z'
loop_
 _atom_site_type_symbol
 _atom_site_label
 _atom_site_symmetry_multiplicity
 _atom_site_fract_x
 _atom_site_fract_y
 _atom_site_fract_z
 _atom_site_occupancy
  Y  Y0  1  0.12500000  0.00000000  0.25000000  1
  Y  Y1  1  0.00000000  0.00000000  0.00000000  1
  P  P2  1  0.37500000  0.00000000  0.25000000  1
  P  P3  1  0.25000000  0.25000000  0.25000000  1
  Se  Se4  1  0.00000000  0.25000000  0.12500000  1
  Se  Se5  1  0.28395037  0.80224843  0.15192882  1
  Li  Li6  1  0.83892296  0.65261118  0.58705177  1
  Li  Li7  1  0.33845200  0.03635861  0.54254700  1
  Li  Li8  1  0.78582644  0.57533401  0.69836554  1
