# generated using pymatgen
data_Li2Y2As2P3
_symmetry_space_group_name_H-M   'P 1'
_cell_length_a   4.53532916
_cell_length_b   4.79934796
_cell_length_c   6.78765930
_cell_angle_alpha   95.48200978
_cell_angle_beta   101.27667781
_cell_angle_gamma   109.57185237
_symmetry_Int_Tables_number   1
_chemical_formula_structural   Li2Y2As2P3
_chemical_formula_sum   'Li2 Y2 As2 P3'
_cell_volume   134.43129367
_cell_formula_units_Z   1
loop_
 _symmetry_equiv_pos_site_id
 _symmetry_equiv_pos_as_xyz
  1  'x, y, z'
loop_
 _atom_site_type_symbol
 _atom_site_label
 _atom_site_symmetry_multiplicity
 _atom_site_fract_x
 _atom_site_fract_y
 _atom_site_fract_z
 _atom_site_occupancy
  P  P0  1  0.00000000  0.00000000  0.00000000  1
  P  P1  1  0.33300000  0.66700000  0.25000000  1
  P  P2  1  0.66700000  0.33300000  0.50000000  1
  As  As3  1  0.00000000  0.00000000  0.75000000  1
  As  As4  1  0.10066830  0.83191333  0.41812734  1
  Li  Li5  1  0.08230638  0.42520521  0.21949027  1
  Li  Li6  1  0.81596161  0.55351510  0.54026465  1
  Y  Y7  1  0.37074106  0.20599100  0.33245102  1
  Y  Y8  1  0.21748648  0.17278718  0.50296436  1
