# generated using pymatgen
data_Na3Li2Se2F
_symmetry_space_group_name_H-M   'P 1'
_cell_length_a   7.97408585
_cell_length_b   12.63336899
_cell_length_c   8.16687258
_cell_angle_alpha   90.00000000
_cell_angle_beta   90.00000000
_cell_angle_gamma   90.00000000
_symmetry_Int_Tables_number   1
_chemical_formula_structural   Na3Li2Se2F
_chemical_formula_sum   'Na12 Li8 Se8 F4'
_cell_volume   822.72722302
_cell_formula_units_Z   4
loop_
 _symmetry_equiv_pos_site_id
 _symmetry_equiv_pos_as_xyz
  1  'x, y, z'
loop_
 _atom_site_type_symbol
 _atom_site_label
 _atom_site_symmetry_multiplicity
 _atom_site_fract_x
 _atom_site_fract_y
 _atom_site_fract_z
 _atom_site_occupancy
  F  F0  1  0.62014951  0.25000000  0.39139096  1
  F  F1  1  0.87985049  0.75000000  0.89139096  1
  F  F2  1  0.37985049  0.75000000  0.60860904  1
  F  F3  1  0.12014951  0.25000000  0.10860904  1
  Li  Li4  1  0.85499062  0.87028694  0.15085246  1
  Li  Li5  1  0.64500938  0.12971306  0.65085246  1
  Li  Li6  1  0.14500938  0.37028694  0.84914754  1
  Li  Li7  1  0.35499062  0.62971306  0.34914754  1
  Li  Li8  1  0.14500938  0.12971306  0.84914754  1
  Li  Li9  1  0.35499062  0.87028694  0.34914754  1
  Li  Li10  1  0.85499062  0.62971306  0.15085246  1
  Li  Li11  1  0.64500938  0.37028694  0.65085246  1
  Na  Na12  1  0.00000000  0.00000000  0.50000000  1
  Na  Na13  1  0.50000000  0.00000000  0.00000000  1
  Na  Na14  1  0.00000000  0.50000000  0.50000000  1
  Na  Na15  1  0.50000000  0.50000000  -0.00000000  1
  Na  Na16  1  0.27483991  0.58323809  0.95042365  1
  Na  Na17  1  0.22516009  0.41676191  0.45042365  1
  Na  Na18  1  0.72516009  0.08323809  0.04957635  1
  Na  Na19  1  0.77483991  0.91676191  0.54957635  1
  Na  Na20  1  0.72516009  0.41676191  0.04957635  1
  Na  Na21  1  0.77483991  0.58323809  0.54957635  1
  Na  Na22  1  0.27483991  0.91676191  0.95042365  1
  Na  Na23  1  0.22516009  0.08323809  0.45042365  1
  Se  Se24  1  0.71534744  0.00907534  0.72628883  1
  Se  Se25  1  -0.21534744  -0.00907534  1.22628883  1
  Se  Se26  1  -0.71534744  0.50907534  -0.72628883  1
  Se  Se27  1  1.21534744  0.49092466  -0.22628883  1
  Se  Se28  1  -0.71534744  -0.00907534  -0.72628883  1
  Se  Se29  1  1.21534744  0.00907534  -0.22628883  1
  Se  Se30  1  0.71534744  0.49092466  0.72628883  1
  Se  Se31  1  -0.21534744  0.50907534  1.22628883  1
