# generated using pymatgen
data_LiCaF3
_symmetry_space_group_name_H-M   'P 1'
_cell_length_a   10.37250211
_cell_length_b   10.37250211
_cell_length_c   21.17628688
_cell_angle_alpha   90.00000000
_cell_angle_beta   90.00000000
_cell_angle_gamma   120.00000000
_symmetry_Int_Tables_number   1
_chemical_formula_structural   LiCaF3
_chemical_formula_sum   'Li18 Ca18 F54'
_cell_volume   1973.09277752
_cell_formula_units_Z   18
loop_
 _symmetry_equiv_pos_site_id
 _symmetry_equiv_pos_as_xyz
  1  'x, y, z'
loop_
 _atom_site_type_symbol
 _atom_site_label
 _atom_site_symmetry_multiplicity
 _atom_site_fract_x
 _atom_site_fract_y
 _atom_site_fract_z
 _atom_site_occupancy
  Ca  Ca0  1  0.75095712  -0.00000000  0.25000000  1
  Ca  Ca1  1  0.00000000  0.75095712  0.25000000  1
  Ca  Ca2  1  0.24904288  0.24904288  0.25000000  1
  Ca  Ca3  1  0.24904288  -0.00000000  0.75000000  1
  Ca  Ca4  1  0.00000000  0.24904288  0.75000000  1
  Ca  Ca5  1  0.75095712  0.75095712  0.75000000  1
  Ca  Ca6  1  0.41762379  0.33333333  0.58333333  1
  Ca  Ca7  1  0.66666667  0.08429045  0.58333333  1
  Ca  Ca8  1  0.91570955  0.58237621  0.58333333  1
  Ca  Ca9  1  0.91570955  0.33333333  0.08333333  1
  Ca  Ca10  1  0.66666667  0.58237621  0.08333333  1
  Ca  Ca11  1  0.41762379  0.08429045  0.08333333  1
  Ca  Ca12  1  0.08429045  0.66666667  0.91666667  1
  Ca  Ca13  1  0.33333333  0.41762379  0.91666667  1
  Ca  Ca14  1  0.58237621  0.91570955  0.91666667  1
  Ca  Ca15  1  0.58237621  0.66666667  0.41666667  1
  Ca  Ca16  1  0.33333333  0.91570955  0.41666667  1
  Ca  Ca17  1  0.08429045  0.41762379  0.41666667  1
  F  F18  1  0.00000000  0.00000000  0.35485973  1
  F  F19  1  0.00000000  0.00000000  0.14514027  1
  F  F20  1  0.00000000  0.00000000  0.64514027  1
  F  F21  1  0.00000000  0.00000000  0.85485973  1
  F  F22  1  0.66666667  0.33333333  0.68819306  1
  F  F23  1  0.66666667  0.33333333  0.47847360  1
  F  F24  1  0.66666667  0.33333333  0.97847360  1
  F  F25  1  0.66666667  0.33333333  0.18819306  1
  F  F26  1  0.33333333  0.66666667  0.02152640  1
  F  F27  1  0.33333333  0.66666667  0.81180694  1
  F  F28  1  0.33333333  0.66666667  0.31180694  1
  F  F29  1  0.33333333  0.66666667  0.52152640  1
  F  F30  1  0.15814673  0.98328133  0.33015979  1
  F  F31  1  -0.98328133  -0.82513459  0.33015979  1
  F  F32  1  0.82513459  -0.15814673  0.33015979  1
  F  F33  1  0.98328133  0.15814673  0.16984021  1
  F  F34  1  -0.82513459  -0.98328133  0.16984021  1
  F  F35  1  -0.15814673  0.82513459  0.16984021  1
  F  F36  1  -0.15814673  -0.98328133  -0.33015979  1
  F  F37  1  0.98328133  0.82513459  -0.33015979  1
  F  F38  1  -0.82513459  0.15814673  -0.33015979  1
  F  F39  1  -0.98328133  -0.15814673  0.83015979  1
  F  F40  1  0.82513459  0.98328133  0.83015979  1
  F  F41  1  0.15814673  -0.82513459  0.83015979  1
  F  F42  1  0.82481340  1.31661466  0.66349312  1
  F  F43  1  -0.31661466  -0.49180126  0.66349312  1
  F  F44  1  1.49180126  0.17518660  0.66349312  1
  F  F45  1  1.64994799  0.49148007  0.50317355  1
  F  F46  1  -0.15846793  -0.64994799  0.50317355  1
  F  F47  1  0.50851993  1.15846793  0.50317355  1
  F  F48  1  0.50851993  -0.64994799  0.00317355  1
  F  F49  1  1.64994799  1.15846793  0.00317355  1
  F  F50  1  -0.15846793  0.49148007  0.00317355  1
  F  F51  1  -0.31661466  0.17518660  1.16349312  1
  F  F52  1  1.49180126  1.31661466  1.16349312  1
  F  F53  1  0.82481340  -0.49180126  1.16349312  1
  F  F54  1  0.49148007  1.64994799  0.99682645  1
  F  F55  1  -0.64994799  -0.15846793  0.99682645  1
  F  F56  1  1.15846793  0.50851993  0.99682645  1
  F  F57  1  1.31661466  0.82481340  0.83650688  1
  F  F58  1  -0.49180126  -0.31661466  0.83650688  1
  F  F59  1  0.17518660  1.49180126  0.83650688  1
  F  F60  1  0.17518660  -0.31661466  0.33650688  1
  F  F61  1  1.31661466  1.49180126  0.33650688  1
  F  F62  1  -0.49180126  0.82481340  0.33650688  1
  F  F63  1  -0.64994799  0.50851993  1.49682645  1
  F  F64  1  1.15846793  1.64994799  1.49682645  1
  F  F65  1  0.49148007  -0.15846793  1.49682645  1
  F  F66  1  0.00000000  0.00000000  0.25000000  1
  F  F67  1  0.00000000  0.00000000  0.75000000  1
  F  F68  1  0.66666667  0.33333333  0.58333333  1
  F  F69  1  0.66666667  0.33333333  0.08333333  1
  F  F70  1  0.33333333  0.66666667  0.91666667  1
  F  F71  1  0.33333333  0.66666667  0.41666667  1
  Li  Li72  1  0.50000000  -0.00000000  0.00000000  1
  Li  Li73  1  0.00000000  0.50000000  0.00000000  1
  Li  Li74  1  0.50000000  0.50000000  0.00000000  1
  Li  Li75  1  0.00000000  0.50000000  0.50000000  1
  Li  Li76  1  0.50000000  -0.00000000  0.50000000  1
  Li  Li77  1  0.50000000  0.50000000  0.50000000  1
  Li  Li78  1  0.16666667  0.33333333  0.33333333  1
  Li  Li79  1  0.66666667  0.83333333  0.33333333  1
  Li  Li80  1  0.16666667  0.83333333  0.33333333  1
  Li  Li81  1  0.66666667  0.83333333  0.83333333  1
  Li  Li82  1  0.16666667  0.33333333  0.83333333  1
  Li  Li83  1  0.16666667  0.83333333  0.83333333  1
  Li  Li84  1  0.83333333  0.66666667  0.66666667  1
  Li  Li85  1  0.33333333  0.16666667  0.66666667  1
  Li  Li86  1  0.83333333  0.16666667  0.66666667  1
  Li  Li87  1  0.33333333  0.16666667  0.16666667  1
  Li  Li88  1  0.83333333  0.66666667  0.16666667  1
  Li  Li89  1  0.83333333  0.16666667  0.16666667  1
