# generated using pymatgen
data_LiCaF3
_symmetry_space_group_name_H-M   'P 1'
_cell_length_a   18.01485555
_cell_length_b   18.01485555
_cell_length_c   6.32074895
_cell_angle_alpha   90.00000000
_cell_angle_beta   90.00000000
_cell_angle_gamma   120.00000000
_symmetry_Int_Tables_number   1
_chemical_formula_structural   LiCaF3
_chemical_formula_sum   'Li18 Ca18 F54'
_cell_volume   1776.48171115
_cell_formula_units_Z   18
loop_
 _symmetry_equiv_pos_site_id
 _symmetry_equiv_pos_as_xyz
  1  'x, y, z'
loop_
 _atom_site_type_symbol
 _atom_site_label
 _atom_site_symmetry_multiplicity
 _atom_site_fract_x
 _atom_site_fract_y
 _atom_site_fract_z
 _atom_site_occupancy
  Ca  Ca0  1  0.50000000  -0.00000000  0.00000000  1
  Ca  Ca1  1  0.00000000  0.50000000  0.00000000  1
  Ca  Ca2  1  0.50000000  0.50000000  0.00000000  1
  Ca  Ca3  1  0.00000000  0.50000000  0.50000000  1
  Ca  Ca4  1  0.50000000  -0.00000000  0.50000000  1
  Ca  Ca5  1  0.50000000  0.50000000  0.50000000  1
  Ca  Ca6  1  0.16666667  0.33333333  0.33333333  1
  Ca  Ca7  1  0.66666667  0.83333333  0.33333333  1
  Ca  Ca8  1  0.16666667  0.83333333  0.33333333  1
  Ca  Ca9  1  0.66666667  0.83333333  0.83333333  1
  Ca  Ca10  1  0.16666667  0.33333333  0.83333333  1
  Ca  Ca11  1  0.16666667  0.83333333  0.83333333  1
  Ca  Ca12  1  0.83333333  0.66666667  0.66666667  1
  Ca  Ca13  1  0.33333333  0.16666667  0.66666667  1
  Ca  Ca14  1  0.83333333  0.16666667  0.66666667  1
  Ca  Ca15  1  0.33333333  0.16666667  0.16666667  1
  Ca  Ca16  1  0.83333333  0.66666667  0.16666667  1
  Ca  Ca17  1  0.83333333  0.16666667  0.16666667  1
  F  F18  1  0.85159398  0.82328972  0.47354209  1
  F  F19  1  -0.82328972  0.02830426  0.47354209  1
  F  F20  1  -0.02830426  -0.85159398  0.47354209  1
  F  F21  1  0.82328972  0.85159398  0.02645791  1
  F  F22  1  0.02830426  -0.82328972  0.02645791  1
  F  F23  1  -0.85159398  -0.02830426  0.02645791  1
  F  F24  1  -0.85159398  -0.82328972  -0.47354209  1
  F  F25  1  0.82328972  -0.02830426  -0.47354209  1
  F  F26  1  0.02830426  0.85159398  -0.47354209  1
  F  F27  1  -0.82328972  -0.85159398  0.97354209  1
  F  F28  1  -0.02830426  0.82328972  0.97354209  1
  F  F29  1  0.85159398  0.02830426  0.97354209  1
  F  F30  1  1.51826065  1.15662305  0.80687542  1
  F  F31  1  -0.15662305  0.36163759  0.80687542  1
  F  F32  1  0.63836241  -0.51826065  0.80687542  1
  F  F33  1  1.48995639  1.18492731  0.35979124  1
  F  F34  1  0.69497092  -0.48995639  0.35979124  1
  F  F35  1  -0.18492731  0.30502908  0.35979124  1
  F  F36  1  -0.18492731  -0.48995639  -0.14020876  1
  F  F37  1  1.48995639  0.30502908  -0.14020876  1
  F  F38  1  0.69497092  1.18492731  -0.14020876  1
  F  F39  1  -0.15662305  -0.51826065  1.30687542  1
  F  F40  1  0.63836241  1.15662305  1.30687542  1
  F  F41  1  1.51826065  0.36163759  1.30687542  1
  F  F42  1  1.18492731  1.48995639  1.14020876  1
  F  F43  1  -0.48995639  0.69497092  1.14020876  1
  F  F44  1  0.30502908  -0.18492731  1.14020876  1
  F  F45  1  1.15662305  1.51826065  0.69312458  1
  F  F46  1  0.36163759  -0.15662305  0.69312458  1
  F  F47  1  -0.51826065  0.63836241  0.69312458  1
  F  F48  1  -0.51826065  -0.15662305  0.19312458  1
  F  F49  1  1.15662305  0.63836241  0.19312458  1
  F  F50  1  0.36163759  1.51826065  0.19312458  1
  F  F51  1  -0.48995639  -0.18492731  1.64020876  1
  F  F52  1  0.30502908  1.48995639  1.64020876  1
  F  F53  1  1.18492731  0.69497092  1.64020876  1
  F  F54  1  0.00000000  0.00000000  0.25000000  1
  F  F55  1  0.00000000  0.00000000  0.75000000  1
  F  F56  1  0.66666667  0.33333333  0.58333333  1
  F  F57  1  0.66666667  0.33333333  0.08333333  1
  F  F58  1  0.33333333  0.66666667  0.91666667  1
  F  F59  1  0.33333333  0.66666667  0.41666667  1
  F  F60  1  0.00000000  0.00000000  0.36033510  1
  F  F61  1  0.00000000  0.00000000  0.13966490  1
  F  F62  1  0.00000000  0.00000000  0.63966490  1
  F  F63  1  0.00000000  0.00000000  0.86033510  1
  F  F64  1  0.66666667  0.33333333  0.69366843  1
  F  F65  1  0.66666667  0.33333333  0.47299824  1
  F  F66  1  0.66666667  0.33333333  0.97299824  1
  F  F67  1  0.66666667  0.33333333  0.19366843  1
  F  F68  1  0.33333333  0.66666667  0.02700176  1
  F  F69  1  0.33333333  0.66666667  0.80633157  1
  F  F70  1  0.33333333  0.66666667  0.30633157  1
  F  F71  1  0.33333333  0.66666667  0.52700176  1
  Li  Li72  1  0.76905395  -0.00000000  0.25000000  1
  Li  Li73  1  0.00000000  0.76905395  0.25000000  1
  Li  Li74  1  0.23094605  0.23094605  0.25000000  1
  Li  Li75  1  0.23094605  -0.00000000  0.75000000  1
  Li  Li76  1  0.00000000  0.23094605  0.75000000  1
  Li  Li77  1  0.76905395  0.76905395  0.75000000  1
  Li  Li78  1  0.43572062  0.33333333  0.58333333  1
  Li  Li79  1  0.66666667  0.10238729  0.58333333  1
  Li  Li80  1  0.89761271  0.56427938  0.58333333  1
  Li  Li81  1  0.89761271  0.33333333  0.08333333  1
  Li  Li82  1  0.66666667  0.56427938  0.08333333  1
  Li  Li83  1  0.43572062  0.10238729  0.08333333  1
  Li  Li84  1  0.10238729  0.66666667  0.91666667  1
  Li  Li85  1  0.33333333  0.43572062  0.91666667  1
  Li  Li86  1  0.56427938  0.89761271  0.91666667  1
  Li  Li87  1  0.56427938  0.66666667  0.41666667  1
  Li  Li88  1  0.33333333  0.89761271  0.41666667  1
  Li  Li89  1  0.10238729  0.43572062  0.41666667  1
