# generated using pymatgen
data_LiCaF3
_symmetry_space_group_name_H-M   'P 1'
_cell_length_a   10.40422990
_cell_length_b   10.40422990
_cell_length_c   17.63166506
_cell_angle_alpha   90.00000000
_cell_angle_beta   90.00000000
_cell_angle_gamma   120.00000000
_symmetry_Int_Tables_number   1
_chemical_formula_structural   LiCaF3
_chemical_formula_sum   'Li18 Ca18 F54'
_cell_volume   1652.88956898
_cell_formula_units_Z   18
loop_
 _symmetry_equiv_pos_site_id
 _symmetry_equiv_pos_as_xyz
  1  'x, y, z'
loop_
 _atom_site_type_symbol
 _atom_site_label
 _atom_site_symmetry_multiplicity
 _atom_site_fract_x
 _atom_site_fract_y
 _atom_site_fract_z
 _atom_site_occupancy
  Ca  Ca0  1  0.59907295  0.40092705  0.00000000  1
  Ca  Ca1  1  0.59907295  0.19814591  0.00000000  1
  Ca  Ca2  1  0.80185409  0.40092705  0.00000000  1
  Ca  Ca3  1  0.92106368  0.57979319  0.17086530  1
  Ca  Ca4  1  -0.57979319  0.34127048  0.17086530  1
  Ca  Ca5  1  -0.34127048  -0.92106368  0.17086530  1
  Ca  Ca6  1  -0.57979319  -0.92106368  -0.17086530  1
  Ca  Ca7  1  -0.34127048  0.57979319  -0.17086530  1
  Ca  Ca8  1  0.92106368  0.34127048  -0.17086530  1
  Ca  Ca9  1  0.33333333  0.66666667  0.00000000  1
  Ca  Ca10  1  0.71692673  0.86886972  0.40174825  1
  Ca  Ca11  1  0.13113028  0.84805702  0.40174825  1
  Ca  Ca12  1  0.15194298  0.28307327  0.40174825  1
  Ca  Ca13  1  0.13113028  0.28307327  0.59825175  1
  Ca  Ca14  1  0.15194298  0.86886972  0.59825175  1
  Ca  Ca15  1  0.71692673  0.84805702  0.59825175  1
  Ca  Ca16  1  0.00000000  0.00000000  0.00000000  1
  Ca  Ca17  1  0.66666667  0.33333333  0.50000000  1
  F  F18  1  0.09986613  0.90013387  0.50000000  1
  F  F19  1  0.09986613  0.19973226  0.50000000  1
  F  F20  1  0.80026774  0.90013387  0.50000000  1
  F  F21  1  0.17549544  0.58318525  0.97399887  1
  F  F22  1  0.41681475  0.59231018  0.97399887  1
  F  F23  1  0.40768982  0.82450456  0.97399887  1
  F  F24  1  0.41681475  0.82450456  0.02600113  1
  F  F25  1  0.40768982  0.58318525  0.02600113  1
  F  F26  1  0.17549544  0.59231018  0.02600113  1
  F  F27  1  0.09919109  0.69513260  0.78839371  1
  F  F28  1  0.30486740  0.40405849  0.78839371  1
  F  F29  1  0.59594151  0.90080891  0.78839371  1
  F  F30  1  0.30486740  0.90080891  0.21160629  1
  F  F31  1  0.59594151  0.69513260  0.21160629  1
  F  F32  1  0.09919109  0.40405849  0.21160629  1
  F  F33  1  0.00000000  0.00000000  0.38903562  1
  F  F34  1  0.00000000  0.00000000  0.61096438  1
  F  F35  1  0.06267406  0.64766826  0.72307906  1
  F  F36  1  0.35233174  0.41500581  0.72307906  1
  F  F37  1  0.58499419  0.93732594  0.72307906  1
  F  F38  1  0.35233174  0.93732594  0.27692094  1
  F  F39  1  0.58499419  0.64766826  0.27692094  1
  F  F40  1  0.06267406  0.41500581  0.27692094  1
  F  F41  1  0.41218306  0.11558564  0.22200131  1
  F  F42  1  0.88441436  0.29659742  0.22200131  1
  F  F43  1  0.70340258  0.58781694  0.22200131  1
  F  F44  1  0.88441436  0.58781694  0.77799869  1
  F  F45  1  0.70340258  0.11558564  0.77799869  1
  F  F46  1  0.41218306  0.29659742  0.77799869  1
  F  F47  1  0.74037123  0.88647645  0.52445864  1
  F  F48  1  0.11352355  0.85389478  0.52445864  1
  F  F49  1  0.14610522  0.25962877  0.52445864  1
  F  F50  1  0.11352355  0.25962877  0.47554136  1
  F  F51  1  0.14610522  0.88647645  0.47554136  1
  F  F52  1  0.74037123  0.85389478  0.47554136  1
  F  F53  1  0.49902476  0.44469326  0.93422988  1
  F  F54  1  0.55530674  0.05433150  0.93422988  1
  F  F55  1  0.94566850  0.50097524  0.93422988  1
  F  F56  1  0.55530674  0.50097524  0.06577012  1
  F  F57  1  0.94566850  0.44469326  0.06577012  1
  F  F58  1  0.49902476  0.05433150  0.06577012  1
  F  F59  1  0.33333333  0.66666667  0.50000000  1
  F  F60  1  0.10476919  0.11527897  0.28364987  1
  F  F61  1  0.88472103  0.98949023  0.28364987  1
  F  F62  1  0.01050977  0.89523081  0.28364987  1
  F  F63  1  0.88472103  0.89523081  0.71635013  1
  F  F64  1  0.01050977  0.11527897  0.71635013  1
  F  F65  1  0.10476919  0.98949023  0.71635013  1
  F  F66  1  0.89632558  0.66631181  0.22567583  1
  F  F67  1  0.33368819  0.23001377  0.22567583  1
  F  F68  1  0.76998623  0.10367442  0.22567583  1
  F  F69  1  0.33368819  0.10367442  0.77432417  1
  F  F70  1  0.76998623  0.66631181  0.77432417  1
  F  F71  1  0.89632558  0.23001377  0.77432417  1
  Li  Li72  1  0.39947286  0.27955243  0.88533179  1
  Li  Li73  1  0.72044757  0.11992044  0.88533179  1
  Li  Li74  1  0.88007956  0.60052714  0.88533179  1
  Li  Li75  1  0.72044757  0.60052714  0.11466821  1
  Li  Li76  1  0.88007956  0.27955243  0.11466821  1
  Li  Li77  1  0.39947286  0.11992044  0.11466821  1
  Li  Li78  1  0.11577860  0.51643941  0.86620559  1
  Li  Li79  1  0.48356059  0.59933919  0.86620559  1
  Li  Li80  1  0.40066081  0.88422140  0.86620559  1
  Li  Li81  1  0.48356059  0.88422140  0.13379441  1
  Li  Li82  1  0.40066081  0.51643941  0.13379441  1
  Li  Li83  1  0.11577860  0.59933919  0.13379441  1
  Li  Li84  1  0.05387623  0.83321085  0.74475760  1
  Li  Li85  1  0.16678915  0.22066538  0.74475760  1
  Li  Li86  1  0.77933462  0.94612377  0.74475760  1
  Li  Li87  1  0.16678915  0.94612377  0.25524240  1
  Li  Li88  1  0.77933462  0.83321085  0.25524240  1
  Li  Li89  1  0.05387623  0.22066538  0.25524240  1
