# generated using pymatgen
data_Li2Y2(CuP)3
_symmetry_space_group_name_H-M   'P 1'
_cell_length_a   4.25359818
_cell_length_b   4.56578695
_cell_length_c   6.60651509
_cell_angle_alpha   96.00707248
_cell_angle_beta   101.97447523
_cell_angle_gamma   111.46169716
_symmetry_Int_Tables_number   1
_chemical_formula_structural   Li2Y2(CuP)3
_chemical_formula_sum   'Li2 Y2 Cu3 P3'
_cell_volume   114.49015624
_cell_formula_units_Z   1
loop_
 _symmetry_equiv_pos_site_id
 _symmetry_equiv_pos_as_xyz
  1  'x, y, z'
loop_
 _atom_site_type_symbol
 _atom_site_label
 _atom_site_symmetry_multiplicity
 _atom_site_fract_x
 _atom_site_fract_y
 _atom_site_fract_z
 _atom_site_occupancy
  Cu  Cu0  1  0.00000000  0.00000000  0.00000000  1
  Cu  Cu1  1  0.50000000  0.50000000  0.50000000  1
  Cu  Cu2  1  0.50000000  0.50000000  0.00000000  1
  P  P3  1  0.50000000  0.00000000  0.50000000  1
  P  P4  1  0.00000000  0.50000000  0.50000000  1
  P  P5  1  0.16859004  0.41592885  0.12635558  1
  Li  Li6  1  0.50564146  0.62733640  0.16128697  1
  Li  Li7  1  0.44840125  0.16883814  0.42858512  1
  Y  Y8  1  0.63416921  0.73677682  0.77508869  1
  Y  Y9  1  0.19088427  0.51004126  0.22211032  1
