# generated using pymatgen
data_LiF
_symmetry_space_group_name_H-M   'P 1'
_cell_length_a   10.76260483
_cell_length_b   10.76260483
_cell_length_c   10.81966878
_cell_angle_alpha   90.00000000
_cell_angle_beta   90.00000000
_cell_angle_gamma   90.00000000
_symmetry_Int_Tables_number   1
_chemical_formula_structural   LiF
_chemical_formula_sum   'Li44 F44'
_cell_volume   1253.28186347
_cell_formula_units_Z   44
loop_
 _symmetry_equiv_pos_site_id
 _symmetry_equiv_pos_as_xyz
  1  'x, y, z'
loop_
 _atom_site_type_symbol
 _atom_site_label
 _atom_site_symmetry_multiplicity
 _atom_site_fract_x
 _atom_site_fract_y
 _atom_site_fract_z
 _atom_site_occupancy
  F  F0  1  0.87229525  0.80017446  0.50000000  1
  F  F1  1  0.12770475  0.19982554  0.50000000  1
  F  F2  1  0.19982554  0.87229525  0.50000000  1
  F  F3  1  0.80017446  0.12770475  0.50000000  1
  F  F4  1  0.12770475  0.80017446  0.50000000  1
  F  F5  1  0.87229525  0.19982554  0.50000000  1
  F  F6  1  0.80017446  0.87229525  0.50000000  1
  F  F7  1  0.19982554  0.12770475  0.50000000  1
  F  F8  1  0.57405157  -0.00000000  0.50000000  1
  F  F9  1  0.42594843  0.00000000  0.50000000  1
  F  F10  1  0.00000000  0.57405157  0.50000000  1
  F  F11  1  0.00000000  0.42594843  0.50000000  1
  F  F12  1  0.50000000  0.50000000  0.00000000  1
  F  F13  1  0.92453635  0.92453635  0.00000000  1
  F  F14  1  0.07546365  0.07546365  0.00000000  1
  F  F15  1  0.07546365  0.92453635  0.00000000  1
  F  F16  1  0.92453635  0.07546365  0.00000000  1
  F  F17  1  0.60261730  0.16284147  0.68919835  1
  F  F18  1  0.39738270  0.83715853  0.68919835  1
  F  F19  1  0.83715853  0.60261730  0.68919835  1
  F  F20  1  0.16284147  0.39738270  0.68919835  1
  F  F21  1  0.39738270  0.16284147  0.31080165  1
  F  F22  1  0.60261730  0.83715853  0.31080165  1
  F  F23  1  0.16284147  0.60261730  0.31080165  1
  F  F24  1  0.83715853  0.39738270  0.31080165  1
  F  F25  1  0.39738270  0.83715853  0.31080165  1
  F  F26  1  0.60261730  0.16284147  0.31080165  1
  F  F27  1  0.16284147  0.39738270  0.31080165  1
  F  F28  1  0.83715853  0.60261730  0.31080165  1
  F  F29  1  0.60261730  0.83715853  0.68919835  1
  F  F30  1  0.39738270  0.16284147  0.68919835  1
  F  F31  1  0.83715853  0.39738270  0.68919835  1
  F  F32  1  0.16284147  0.60261730  0.68919835  1
  F  F33  1  0.50000000  0.50000000  0.50000000  1
  F  F34  1  0.60328496  0.66561067  0.50000000  1
  F  F35  1  0.39671504  0.33438933  0.50000000  1
  F  F36  1  0.33438933  0.60328496  0.50000000  1
  F  F37  1  0.66561067  0.39671504  0.50000000  1
  F  F38  1  0.39671504  0.66561067  0.50000000  1
  F  F39  1  0.60328496  0.33438933  0.50000000  1
  F  F40  1  0.66561067  0.60328496  0.50000000  1
  F  F41  1  0.33438933  0.39671504  0.50000000  1
  F  F42  1  0.00000000  0.00000000  0.75091967  1
  F  F43  1  0.00000000  0.00000000  0.24908033  1
  Li  Li44  1  0.50000000  0.50000000  0.14849104  1
  Li  Li45  1  0.50000000  0.50000000  0.85150896  1
  Li  Li46  1  0.92042152  0.50000000  0.19470125  1
  Li  Li47  1  0.07957848  0.50000000  0.19470125  1
  Li  Li48  1  0.50000000  0.92042152  0.19470125  1
  Li  Li49  1  0.50000000  0.07957848  0.19470125  1
  Li  Li50  1  0.07957848  0.50000000  0.80529875  1
  Li  Li51  1  0.92042152  0.50000000  0.80529875  1
  Li  Li52  1  0.50000000  0.92042152  0.80529875  1
  Li  Li53  1  0.50000000  0.07957848  0.80529875  1
  Li  Li54  1  0.00000000  0.50000000  0.00000000  1
  Li  Li55  1  0.50000000  0.00000000  0.00000000  1
  Li  Li56  1  0.81418757  0.81418757  0.79158298  1
  Li  Li57  1  0.18581243  0.18581243  0.79158298  1
  Li  Li58  1  0.18581243  0.81418757  0.79158298  1
  Li  Li59  1  0.81418757  0.18581243  0.79158298  1
  Li  Li60  1  0.18581243  0.81418757  0.20841702  1
  Li  Li61  1  0.81418757  0.18581243  0.20841702  1
  Li  Li62  1  0.81418757  0.81418757  0.20841702  1
  Li  Li63  1  0.18581243  0.18581243  0.20841702  1
  Li  Li64  1  0.89661621  0.89661621  0.50000000  1
  Li  Li65  1  0.10338379  0.10338379  0.50000000  1
  Li  Li66  1  0.10338379  0.89661621  0.50000000  1
  Li  Li67  1  0.89661621  0.10338379  0.50000000  1
  Li  Li68  1  0.63104139  0.74276537  0.67806605  1
  Li  Li69  1  -0.63104139  -0.74276537  0.67806605  1
  Li  Li70  1  -0.74276537  0.63104139  0.67806605  1
  Li  Li71  1  0.74276537  -0.63104139  0.67806605  1
  Li  Li72  1  -0.63104139  0.74276537  -0.67806605  1
  Li  Li73  1  0.63104139  -0.74276537  -0.67806605  1
  Li  Li74  1  0.74276537  0.63104139  -0.67806605  1
  Li  Li75  1  -0.74276537  -0.63104139  -0.67806605  1
  Li  Li76  1  -0.63104139  -0.74276537  -0.67806605  1
  Li  Li77  1  0.63104139  0.74276537  -0.67806605  1
  Li  Li78  1  0.74276537  -0.63104139  -0.67806605  1
  Li  Li79  1  -0.74276537  0.63104139  -0.67806605  1
  Li  Li80  1  0.63104139  -0.74276537  0.67806605  1
  Li  Li81  1  -0.63104139  0.74276537  0.67806605  1
  Li  Li82  1  -0.74276537  -0.63104139  0.67806605  1
  Li  Li83  1  0.74276537  0.63104139  0.67806605  1
  Li  Li84  1  0.24472403  0.50000000  0.00000000  1
  Li  Li85  1  0.75527597  0.50000000  0.00000000  1
  Li  Li86  1  0.50000000  0.24472403  0.00000000  1
  Li  Li87  1  0.50000000  0.75527597  0.00000000  1
