# generated using pymatgen
data_LiF
_symmetry_space_group_name_H-M   'P 1'
_cell_length_a   7.45557861
_cell_length_b   7.55994494
_cell_length_c   13.69260680
_cell_angle_alpha   90.00000000
_cell_angle_beta   90.00000000
_cell_angle_gamma   90.00000000
_symmetry_Int_Tables_number   1
_chemical_formula_structural   LiF
_chemical_formula_sum   'Li24 F24'
_cell_volume   771.76685557
_cell_formula_units_Z   24
loop_
 _symmetry_equiv_pos_site_id
 _symmetry_equiv_pos_as_xyz
  1  'x, y, z'
loop_
 _atom_site_type_symbol
 _atom_site_label
 _atom_site_symmetry_multiplicity
 _atom_site_fract_x
 _atom_site_fract_y
 _atom_site_fract_z
 _atom_site_occupancy
  F  F0  1  0.26188660  0.53316513  0.55094303  1
  F  F1  1  0.23811340  0.46683487  0.05094303  1
  F  F2  1  0.73811340  0.03316513  0.44905697  1
  F  F3  1  0.76188660  0.96683487  0.94905697  1
  F  F4  1  0.73811340  0.46683487  0.44905697  1
  F  F5  1  0.76188660  0.53316513  0.94905697  1
  F  F6  1  0.26188660  0.96683487  0.55094303  1
  F  F7  1  0.23811340  0.03316513  0.05094303  1
  F  F8  1  0.01490965  0.25000000  0.08564849  1
  F  F9  1  0.48509035  0.75000000  0.58564849  1
  F  F10  1  0.98509035  0.75000000  0.91435151  1
  F  F11  1  0.51490965  0.25000000  0.41435151  1
  F  F12  1  0.00000000  0.00000000  0.00000000  1
  F  F13  1  0.50000000  0.00000000  0.50000000  1
  F  F14  1  0.00000000  0.50000000  0.00000000  1
  F  F15  1  0.50000000  0.50000000  0.50000000  1
  F  F16  1  0.34760288  0.00655380  0.49703465  1
  F  F17  1  0.15239712  0.99344620  0.99703465  1
  F  F18  1  0.65239712  0.50655380  0.50296535  1
  F  F19  1  0.84760288  0.49344620  0.00296535  1
  F  F20  1  0.65239712  0.99344620  0.50296535  1
  F  F21  1  0.84760288  0.00655380  0.00296535  1
  F  F22  1  0.34760288  0.49344620  0.49703465  1
  F  F23  1  0.15239712  0.50655380  0.99703465  1
  Li  Li24  1  0.27118190  0.50543157  0.16883803  1
  Li  Li25  1  0.22881810  -0.50543157  0.66883803  1
  Li  Li26  1  -0.27118190  1.00543157  -0.16883803  1
  Li  Li27  1  0.77118190  -0.00543157  0.33116197  1
  Li  Li28  1  -0.27118190  -0.50543157  -0.16883803  1
  Li  Li29  1  0.77118190  0.50543157  0.33116197  1
  Li  Li30  1  0.27118190  -0.00543157  0.16883803  1
  Li  Li31  1  0.22881810  1.00543157  0.66883803  1
  Li  Li32  1  0.98159244  0.25000000  0.51044129  1
  Li  Li33  1  0.51840756  0.75000000  0.01044129  1
  Li  Li34  1  0.01840756  0.75000000  0.48955871  1
  Li  Li35  1  0.48159244  0.25000000  0.98955871  1
  Li  Li36  1  0.28792490  0.25000000  0.01752711  1
  Li  Li37  1  0.21207510  0.75000000  0.51752711  1
  Li  Li38  1  0.71207510  0.75000000  0.98247289  1
  Li  Li39  1  0.78792490  0.25000000  0.48247289  1
  Li  Li40  1  0.81879345  0.42405365  0.14022769  1
  Li  Li41  1  0.68120655  0.57594635  0.64022769  1
  Li  Li42  1  0.18120655  0.92405365  0.85977231  1
  Li  Li43  1  0.31879345  0.07594635  0.35977231  1
  Li  Li44  1  0.18120655  0.57594635  0.85977231  1
  Li  Li45  1  0.31879345  0.42405365  0.35977231  1
  Li  Li46  1  0.81879345  0.07594635  0.14022769  1
  Li  Li47  1  0.68120655  0.92405365  0.64022769  1
