# generated using pymatgen
data_Li4TeF2
_symmetry_space_group_name_H-M   'P 1'
_cell_length_a   11.57606583
_cell_length_b   11.57606583
_cell_length_c   15.39606209
_cell_angle_alpha   90.00000000
_cell_angle_beta   90.00000000
_cell_angle_gamma   90.00000000
_symmetry_Int_Tables_number   1
_chemical_formula_structural   Li4TeF2
_chemical_formula_sum   'Li96 Te24 F48'
_cell_volume   2063.15392230
_cell_formula_units_Z   24
loop_
 _symmetry_equiv_pos_site_id
 _symmetry_equiv_pos_as_xyz
  1  'x, y, z'
loop_
 _atom_site_type_symbol
 _atom_site_label
 _atom_site_symmetry_multiplicity
 _atom_site_fract_x
 _atom_site_fract_y
 _atom_site_fract_z
 _atom_site_occupancy
  F  F0  1  0.97459251  0.97459251  0.50000000  1
  F  F1  1  0.02540749  0.02540749  0.50000000  1
  F  F2  1  0.02540749  0.97459251  0.50000000  1
  F  F3  1  0.97459251  0.02540749  0.50000000  1
  F  F4  1  0.09815427  0.50000000  0.75601749  1
  F  F5  1  0.90184573  0.50000000  0.75601749  1
  F  F6  1  0.50000000  0.09815427  0.75601749  1
  F  F7  1  0.50000000  0.90184573  0.75601749  1
  F  F8  1  0.90184573  0.50000000  0.24398251  1
  F  F9  1  0.09815427  0.50000000  0.24398251  1
  F  F10  1  0.50000000  0.09815427  0.24398251  1
  F  F11  1  0.50000000  0.90184573  0.24398251  1
  F  F12  1  0.96342988  0.72801899  0.60471123  1
  F  F13  1  -0.96342988  -0.72801899  0.60471123  1
  F  F14  1  -0.72801899  0.96342988  0.60471123  1
  F  F15  1  0.72801899  -0.96342988  0.60471123  1
  F  F16  1  -0.96342988  0.72801899  -0.60471123  1
  F  F17  1  0.96342988  -0.72801899  -0.60471123  1
  F  F18  1  0.72801899  0.96342988  -0.60471123  1
  F  F19  1  -0.72801899  -0.96342988  -0.60471123  1
  F  F20  1  -0.96342988  -0.72801899  -0.60471123  1
  F  F21  1  0.96342988  0.72801899  -0.60471123  1
  F  F22  1  0.72801899  -0.96342988  -0.60471123  1
  F  F23  1  -0.72801899  0.96342988  -0.60471123  1
  F  F24  1  0.96342988  -0.72801899  0.60471123  1
  F  F25  1  -0.96342988  0.72801899  0.60471123  1
  F  F26  1  -0.72801899  -0.96342988  0.60471123  1
  F  F27  1  0.72801899  0.96342988  0.60471123  1
  F  F28  1  0.00000000  0.50000000  0.74640495  1
  F  F29  1  0.50000000  0.00000000  0.74640495  1
  F  F30  1  0.00000000  0.50000000  0.25359505  1
  F  F31  1  0.50000000  0.00000000  0.25359505  1
  F  F32  1  0.18685620  0.93660723  0.46852399  1
  F  F33  1  0.81314380  0.06339277  0.46852399  1
  F  F34  1  0.06339277  0.18685620  0.46852399  1
  F  F35  1  0.93660723  0.81314380  0.46852399  1
  F  F36  1  0.81314380  0.93660723  0.53147601  1
  F  F37  1  0.18685620  0.06339277  0.53147601  1
  F  F38  1  0.93660723  0.18685620  0.53147601  1
  F  F39  1  0.06339277  0.81314380  0.53147601  1
  F  F40  1  0.81314380  0.06339277  0.53147601  1
  F  F41  1  0.18685620  0.93660723  0.53147601  1
  F  F42  1  0.93660723  0.81314380  0.53147601  1
  F  F43  1  0.06339277  0.18685620  0.53147601  1
  F  F44  1  0.18685620  0.06339277  0.46852399  1
  F  F45  1  0.81314380  0.93660723  0.46852399  1
  F  F46  1  0.06339277  0.81314380  0.46852399  1
  F  F47  1  0.93660723  0.18685620  0.46852399  1
  Li  Li48  1  0.13658577  0.13658577  0.42660128  1
  Li  Li49  1  0.86341423  0.86341423  0.42660128  1
  Li  Li50  1  0.86341423  0.13658577  0.42660128  1
  Li  Li51  1  0.13658577  0.86341423  0.42660128  1
  Li  Li52  1  0.86341423  0.13658577  0.57339872  1
  Li  Li53  1  0.13658577  0.86341423  0.57339872  1
  Li  Li54  1  0.13658577  0.13658577  0.57339872  1
  Li  Li55  1  0.86341423  0.86341423  0.57339872  1
  Li  Li56  1  0.42884676  0.89101541  0.86660429  1
  Li  Li57  1  0.57115324  0.10898459  0.86660429  1
  Li  Li58  1  0.10898459  0.42884676  0.86660429  1
  Li  Li59  1  0.89101541  0.57115324  0.86660429  1
  Li  Li60  1  0.57115324  0.89101541  0.13339571  1
  Li  Li61  1  0.42884676  0.10898459  0.13339571  1
  Li  Li62  1  0.89101541  0.42884676  0.13339571  1
  Li  Li63  1  0.10898459  0.57115324  0.13339571  1
  Li  Li64  1  0.57115324  0.10898459  0.13339571  1
  Li  Li65  1  0.42884676  0.89101541  0.13339571  1
  Li  Li66  1  0.89101541  0.57115324  0.13339571  1
  Li  Li67  1  0.10898459  0.42884676  0.13339571  1
  Li  Li68  1  0.42884676  0.10898459  0.86660429  1
  Li  Li69  1  0.57115324  0.89101541  0.86660429  1
  Li  Li70  1  0.10898459  0.57115324  0.86660429  1
  Li  Li71  1  0.89101541  0.42884676  0.86660429  1
  Li  Li72  1  0.34998561  0.50000000  0.88407332  1
  Li  Li73  1  0.65001439  0.50000000  0.88407332  1
  Li  Li74  1  0.50000000  0.34998561  0.88407332  1
  Li  Li75  1  0.50000000  0.65001439  0.88407332  1
  Li  Li76  1  0.65001439  0.50000000  0.11592668  1
  Li  Li77  1  0.34998561  0.50000000  0.11592668  1
  Li  Li78  1  0.50000000  0.34998561  0.11592668  1
  Li  Li79  1  0.50000000  0.65001439  0.11592668  1
  Li  Li80  1  0.35566116  0.83436442  0.17920679  1
  Li  Li81  1  0.64433884  0.16563558  0.17920679  1
  Li  Li82  1  0.16563558  0.35566116  0.17920679  1
  Li  Li83  1  0.83436442  0.64433884  0.17920679  1
  Li  Li84  1  0.64433884  0.83436442  0.82079321  1
  Li  Li85  1  0.35566116  0.16563558  0.82079321  1
  Li  Li86  1  0.83436442  0.35566116  0.82079321  1
  Li  Li87  1  0.16563558  0.64433884  0.82079321  1
  Li  Li88  1  0.64433884  0.16563558  0.82079321  1
  Li  Li89  1  0.35566116  0.83436442  0.82079321  1
  Li  Li90  1  0.83436442  0.64433884  0.82079321  1
  Li  Li91  1  0.16563558  0.35566116  0.82079321  1
  Li  Li92  1  0.35566116  0.16563558  0.17920679  1
  Li  Li93  1  0.64433884  0.83436442  0.17920679  1
  Li  Li94  1  0.16563558  0.64433884  0.17920679  1
  Li  Li95  1  0.83436442  0.35566116  0.17920679  1
  Li  Li96  1  0.58550059  0.58550059  0.69570958  1
  Li  Li97  1  0.41449941  0.41449941  0.69570958  1
  Li  Li98  1  0.41449941  0.58550059  0.69570958  1
  Li  Li99  1  0.58550059  0.41449941  0.69570958  1
  Li  Li100  1  0.41449941  0.58550059  0.30429042  1
  Li  Li101  1  0.58550059  0.41449941  0.30429042  1
  Li  Li102  1  0.58550059  0.58550059  0.30429042  1
  Li  Li103  1  0.41449941  0.41449941  0.30429042  1
  Li  Li104  1  0.11662706  0.11662706  0.32221389  1
  Li  Li105  1  0.88337294  0.88337294  0.32221389  1
  Li  Li106  1  0.88337294  0.11662706  0.32221389  1
  Li  Li107  1  0.11662706  0.88337294  0.32221389  1
  Li  Li108  1  0.88337294  0.11662706  0.67778611  1
  Li  Li109  1  0.11662706  0.88337294  0.67778611  1
  Li  Li110  1  0.11662706  0.11662706  0.67778611  1
  Li  Li111  1  0.88337294  0.88337294  0.67778611  1
  Li  Li112  1  0.70892671  0.08907143  0.77499939  1
  Li  Li113  1  0.29107329  0.91092857  0.77499939  1
  Li  Li114  1  0.91092857  0.70892671  0.77499939  1
  Li  Li115  1  0.08907143  0.29107329  0.77499939  1
  Li  Li116  1  0.29107329  0.08907143  0.22500061  1
  Li  Li117  1  0.70892671  0.91092857  0.22500061  1
  Li  Li118  1  0.08907143  0.70892671  0.22500061  1
  Li  Li119  1  0.91092857  0.29107329  0.22500061  1
  Li  Li120  1  0.29107329  0.91092857  0.22500061  1
  Li  Li121  1  0.70892671  0.08907143  0.22500061  1
  Li  Li122  1  0.08907143  0.29107329  0.22500061  1
  Li  Li123  1  0.91092857  0.70892671  0.22500061  1
  Li  Li124  1  0.70892671  0.91092857  0.77499939  1
  Li  Li125  1  0.29107329  0.08907143  0.77499939  1
  Li  Li126  1  0.91092857  0.29107329  0.77499939  1
  Li  Li127  1  0.08907143  0.70892671  0.77499939  1
  Li  Li128  1  0.64750906  0.00000000  0.66968291  1
  Li  Li129  1  0.35249094  0.00000000  0.66968291  1
  Li  Li130  1  0.00000000  0.64750906  0.66968291  1
  Li  Li131  1  0.00000000  0.35249094  0.66968291  1
  Li  Li132  1  0.35249094  0.00000000  0.33031709  1
  Li  Li133  1  0.64750906  0.00000000  0.33031709  1
  Li  Li134  1  0.00000000  0.64750906  0.33031709  1
  Li  Li135  1  0.00000000  0.35249094  0.33031709  1
  Li  Li136  1  0.77947114  0.77947114  0.94101235  1
  Li  Li137  1  0.22052886  0.22052886  0.94101235  1
  Li  Li138  1  0.22052886  0.77947114  0.94101235  1
  Li  Li139  1  0.77947114  0.22052886  0.94101235  1
  Li  Li140  1  0.22052886  0.77947114  0.05898765  1
  Li  Li141  1  0.77947114  0.22052886  0.05898765  1
  Li  Li142  1  0.77947114  0.77947114  0.05898765  1
  Li  Li143  1  0.22052886  0.22052886  0.05898765  1
  Te  Te144  1  0.00000000  0.50000000  0.00000000  1
  Te  Te145  1  0.50000000  0.00000000  0.00000000  1
  Te  Te146  1  0.19035690  0.50000000  0.05958568  1
  Te  Te147  1  0.80964310  0.50000000  0.05958568  1
  Te  Te148  1  0.50000000  0.19035690  0.05958568  1
  Te  Te149  1  0.50000000  0.80964310  0.05958568  1
  Te  Te150  1  0.80964310  0.50000000  0.94041432  1
  Te  Te151  1  0.19035690  0.50000000  0.94041432  1
  Te  Te152  1  0.50000000  0.19035690  0.94041432  1
  Te  Te153  1  0.50000000  0.80964310  0.94041432  1
  Te  Te154  1  0.89553608  0.68084558  -0.00000000  1
  Te  Te155  1  0.10446392  0.31915442  0.00000000  1
  Te  Te156  1  0.31915442  0.89553608  0.00000000  1
  Te  Te157  1  0.68084558  0.10446392  0.00000000  1
  Te  Te158  1  0.10446392  0.68084558  0.00000000  1
  Te  Te159  1  0.89553608  0.31915442  0.00000000  1
  Te  Te160  1  0.68084558  0.89553608  0.00000000  1
  Te  Te161  1  0.31915442  0.10446392  0.00000000  1
  Te  Te162  1  0.07252242  0.50000000  0.50000000  1
  Te  Te163  1  0.92747758  0.50000000  0.50000000  1
  Te  Te164  1  0.50000000  0.07252242  0.50000000  1
  Te  Te165  1  0.50000000  0.92747758  0.50000000  1
  Te  Te166  1  0.00000000  0.00000000  0.66938892  1
  Te  Te167  1  0.00000000  0.00000000  0.33061108  1
