# generated using pymatgen
data_Li3Y2AsP3Se2
_symmetry_space_group_name_H-M   'P 1'
_cell_length_a   5.40450787
_cell_length_b   5.62352272
_cell_length_c   7.15162530
_cell_angle_alpha   94.30789366
_cell_angle_beta   98.47433524
_cell_angle_gamma   104.32591264
_symmetry_Int_Tables_number   1
_chemical_formula_structural   Li3Y2AsP3Se2
_chemical_formula_sum   'Li3 Y2 As1 P3 Se2'
_cell_volume   206.87998355
_cell_formula_units_Z   1
loop_
 _symmetry_equiv_pos_site_id
 _symmetry_equiv_pos_as_xyz
  1  'x, y, z'
loop_
 _atom_site_type_symbol
 _atom_site_label
 _atom_site_symmetry_multiplicity
 _atom_site_fract_x
 _atom_site_fract_y
 _atom_site_fract_z
 _atom_site_occupancy
  Se  Se0  1  0.12500000  0.00000000  0.25000000  1
  Se  Se1  1  0.00000000  0.00000000  0.00000000  1
  Y  Y2  1  0.37500000  0.00000000  0.25000000  1
  Y  Y3  1  0.25000000  0.25000000  0.25000000  1
  P  P4  1  0.00000000  0.25000000  0.12500000  1
  P  P5  1  0.33866777  0.73225742  0.87574022  1
  P  P6  1  0.74722956  0.05295025  0.90470493  1
  As  As7  1  0.78947258  0.29403811  0.99865453  1
  Li  Li8  1  0.97784112  0.36366815  0.90748622  1
  Li  Li9  1  0.21988620  0.64713827  0.90323085  1
  Li  Li10  1  0.95612802  0.48408601  0.27888161  1
