# generated using pymatgen
data_LiF
_symmetry_space_group_name_H-M   'P 1'
_cell_length_a   11.98291658
_cell_length_b   11.98291658
_cell_length_c   5.32123125
_cell_angle_alpha   90.00000000
_cell_angle_beta   90.00000000
_cell_angle_gamma   120.00000000
_symmetry_Int_Tables_number   1
_chemical_formula_structural   LiF
_chemical_formula_sum   'Li26 F26'
_cell_volume   661.71021161
_cell_formula_units_Z   26
loop_
 _symmetry_equiv_pos_site_id
 _symmetry_equiv_pos_as_xyz
  1  'x, y, z'
loop_
 _atom_site_type_symbol
 _atom_site_label
 _atom_site_symmetry_multiplicity
 _atom_site_fract_x
 _atom_site_fract_y
 _atom_site_fract_z
 _atom_site_occupancy
  F  F0  1  0.08791156  0.81185526  0.07745378  1
  F  F1  1  -0.81185526  -0.72394369  0.07745378  1
  F  F2  1  0.72394369  -0.08791156  0.07745378  1
  F  F3  1  0.08791156  0.81185526  -0.07745378  1
  F  F4  1  -0.81185526  -0.72394369  -0.07745378  1
  F  F5  1  0.72394369  -0.08791156  -0.07745378  1
  F  F6  1  0.81185526  0.08791156  -0.07745378  1
  F  F7  1  -0.72394369  -0.81185526  -0.07745378  1
  F  F8  1  -0.08791156  0.72394369  -0.07745378  1
  F  F9  1  0.81185526  0.08791156  0.07745378  1
  F  F10  1  -0.72394369  -0.81185526  0.07745378  1
  F  F11  1  -0.08791156  0.72394369  0.07745378  1
  F  F12  1  0.04473880  0.69662847  0.78530336  1
  F  F13  1  0.30337153  0.34811034  0.78530336  1
  F  F14  1  0.65188966  0.95526120  0.78530336  1
  F  F15  1  0.04473880  0.69662847  0.21469664  1
  F  F16  1  0.30337153  0.34811034  0.21469664  1
  F  F17  1  0.65188966  0.95526120  0.21469664  1
  F  F18  1  0.69662847  0.04473880  0.21469664  1
  F  F19  1  0.34811034  0.30337153  0.21469664  1
  F  F20  1  0.95526120  0.65188966  0.21469664  1
  F  F21  1  0.69662847  0.04473880  0.78530336  1
  F  F22  1  0.34811034  0.30337153  0.78530336  1
  F  F23  1  0.95526120  0.65188966  0.78530336  1
  F  F24  1  0.33333333  0.66666667  0.50000000  1
  F  F25  1  0.66666667  0.33333333  0.50000000  1
  Li  Li26  1  0.64692759  0.13521622  0.50000000  1
  Li  Li27  1  0.86478378  0.51171137  0.50000000  1
  Li  Li28  1  0.48828863  0.35307241  0.50000000  1
  Li  Li29  1  0.13521622  0.64692759  0.50000000  1
  Li  Li30  1  0.51171137  0.86478378  0.50000000  1
  Li  Li31  1  0.35307241  0.48828863  0.50000000  1
  Li  Li32  1  0.00000000  0.00000000  0.50000000  1
  Li  Li33  1  0.00000000  0.00000000  0.00000000  1
  Li  Li34  1  0.71487776  0.00000000  0.50000000  1
  Li  Li35  1  0.00000000  0.71487776  0.50000000  1
  Li  Li36  1  0.28512224  0.28512224  0.50000000  1
  Li  Li37  1  0.51610319  0.83952923  -0.00000000  1
  Li  Li38  1  0.16047077  0.67657396  0.00000000  1
  Li  Li39  1  0.32342604  0.48389681  -0.00000000  1
  Li  Li40  1  0.83952923  0.51610319  0.00000000  1
  Li  Li41  1  0.67657396  0.16047077  0.00000000  1
  Li  Li42  1  0.48389681  0.32342604  -0.00000000  1
  Li  Li43  1  0.33845395  0.00000000  0.27442501  1
  Li  Li44  1  0.00000000  0.33845395  0.27442501  1
  Li  Li45  1  0.66154605  0.66154605  0.27442501  1
  Li  Li46  1  0.33845395  0.00000000  0.72557499  1
  Li  Li47  1  0.00000000  0.33845395  0.72557499  1
  Li  Li48  1  0.66154605  0.66154605  0.72557499  1
  Li  Li49  1  0.52264718  0.00000000  0.50000000  1
  Li  Li50  1  0.00000000  0.52264718  0.50000000  1
  Li  Li51  1  0.47735282  0.47735282  0.50000000  1
