# generated using pymatgen
data_Li2YP2Se
_symmetry_space_group_name_H-M   'P 1'
_cell_length_a   6.14634529
_cell_length_b   6.50889400
_cell_length_c   7.64871005
_cell_angle_alpha   92.65223978
_cell_angle_beta   95.77602686
_cell_angle_gamma   100.65299310
_symmetry_Int_Tables_number   1
_chemical_formula_structural   Li2YP2Se
_chemical_formula_sum   'Li4 Y2 P4 Se2'
_cell_volume   298.53360483
_cell_formula_units_Z   2
loop_
 _symmetry_equiv_pos_site_id
 _symmetry_equiv_pos_as_xyz
  1  'x, y, z'
loop_
 _atom_site_type_symbol
 _atom_site_label
 _atom_site_symmetry_multiplicity
 _atom_site_fract_x
 _atom_site_fract_y
 _atom_site_fract_z
 _atom_site_occupancy
  Se  Se0  1  0.00000000  0.00000000  0.00000000  1
  Se  Se1  1  0.50000000  0.50000000  0.50000000  1
  P  P2  1  0.25000000  0.25000000  0.25000000  1
  P  P3  1  0.75000000  0.25000000  0.00000000  1
  P  P4  1  0.25000000  0.75000000  0.50000000  1
  P  P5  1  0.48975352  0.09351864  0.36493251  1
  Li  Li6  1  0.43200078  0.67907820  0.22925328  1
  Li  Li7  1  0.10852718  0.04446413  0.87917010  1
  Li  Li8  1  0.42521225  0.48076352  0.98317006  1
  Li  Li9  1  0.84534272  0.97589199  0.86264865  1
  Y  Y10  1  0.25272433  0.04214064  0.21901392  1
  Y  Y11  1  0.69645235  0.04592479  0.51451225  1
