# generated using pymatgen
data_LiAl3Cu3P2Se
_symmetry_space_group_name_H-M   'P 1'
_cell_length_a   4.56594997
_cell_length_b   4.50767603
_cell_length_c   6.72722432
_cell_angle_alpha   95.27049578
_cell_angle_beta   99.83012577
_cell_angle_gamma   108.58511477
_symmetry_Int_Tables_number   1
_chemical_formula_structural   LiAl3Cu3P2Se
_chemical_formula_sum   'Li1 Al3 Cu3 P2 Se1'
_cell_volume   127.71550265
_cell_formula_units_Z   1
loop_
 _symmetry_equiv_pos_site_id
 _symmetry_equiv_pos_as_xyz
  1  'x, y, z'
loop_
 _atom_site_type_symbol
 _atom_site_label
 _atom_site_symmetry_multiplicity
 _atom_site_fract_x
 _atom_site_fract_y
 _atom_site_fract_z
 _atom_site_occupancy
  Al  Al0  1  0.00000000  0.00000000  0.00000000  1
  Al  Al1  1  0.50000000  0.50000000  0.50000000  1
  Al  Al2  1  0.25000000  0.25000000  0.25000000  1
  Se  Se3  1  0.75000000  0.25000000  0.00000000  1
  Cu  Cu4  1  0.25000000  0.75000000  0.50000000  1
  Cu  Cu5  1  0.06974602  0.66416540  0.70160366  1
  Cu  Cu6  1  0.02292867  0.67296810  0.72370248  1
  P  P7  1  0.51596035  0.46182841  0.81012279  1
  P  P8  1  0.27480989  0.36405788  0.93783714  1
  Li  Li9  1  0.37529996  0.80452368  0.24424885  1
