# generated using pymatgen
data_Li4TeF2
_symmetry_space_group_name_H-M   'P 1'
_cell_length_a   19.33649288
_cell_length_b   19.33649288
_cell_length_c   4.42935222
_cell_angle_alpha   90.00000000
_cell_angle_beta   90.00000000
_cell_angle_gamma   90.00000000
_symmetry_Int_Tables_number   1
_chemical_formula_structural   Li4TeF2
_chemical_formula_sum   'Li96 Te24 F48'
_cell_volume   1656.13460477
_cell_formula_units_Z   24
loop_
 _symmetry_equiv_pos_site_id
 _symmetry_equiv_pos_as_xyz
  1  'x, y, z'
loop_
 _atom_site_type_symbol
 _atom_site_label
 _atom_site_symmetry_multiplicity
 _atom_site_fract_x
 _atom_site_fract_y
 _atom_site_fract_z
 _atom_site_occupancy
  F  F0  1  0.37975801  0.50000000  0.22023455  1
  F  F1  1  0.62024199  0.50000000  0.22023455  1
  F  F2  1  0.50000000  0.37975801  0.22023455  1
  F  F3  1  0.50000000  0.62024199  0.22023455  1
  F  F4  1  0.62024199  0.50000000  0.77976545  1
  F  F5  1  0.37975801  0.50000000  0.77976545  1
  F  F6  1  0.50000000  0.37975801  0.77976545  1
  F  F7  1  0.50000000  0.62024199  0.77976545  1
  F  F8  1  0.13637152  0.13637152  0.88453716  1
  F  F9  1  0.86362848  0.86362848  0.88453716  1
  F  F10  1  0.86362848  0.13637152  0.88453716  1
  F  F11  1  0.13637152  0.86362848  0.88453716  1
  F  F12  1  0.86362848  0.13637152  0.11546284  1
  F  F13  1  0.13637152  0.86362848  0.11546284  1
  F  F14  1  0.13637152  0.13637152  0.11546284  1
  F  F15  1  0.86362848  0.86362848  0.11546284  1
  F  F16  1  0.43238393  0.30653129  0.50000000  1
  F  F17  1  0.56761607  0.69346871  0.50000000  1
  F  F18  1  0.69346871  0.43238393  0.50000000  1
  F  F19  1  0.30653129  0.56761607  0.50000000  1
  F  F20  1  0.56761607  0.30653129  0.50000000  1
  F  F21  1  0.43238393  0.69346871  0.50000000  1
  F  F22  1  0.30653129  0.43238393  0.50000000  1
  F  F23  1  0.69346871  0.56761607  0.50000000  1
  F  F24  1  0.00000000  0.50000000  0.10099406  1
  F  F25  1  0.50000000  -0.00000000  0.10099406  1
  F  F26  1  0.00000000  0.50000000  0.89900594  1
  F  F27  1  0.50000000  -0.00000000  0.89900594  1
  F  F28  1  0.75081194  0.22026669  0.75134082  1
  F  F29  1  -0.75081194  -0.22026669  0.75134082  1
  F  F30  1  -0.22026669  0.75081194  0.75134082  1
  F  F31  1  0.22026669  -0.75081194  0.75134082  1
  F  F32  1  -0.75081194  0.22026669  -0.75134082  1
  F  F33  1  0.75081194  -0.22026669  -0.75134082  1
  F  F34  1  0.22026669  0.75081194  -0.75134082  1
  F  F35  1  -0.22026669  -0.75081194  -0.75134082  1
  F  F36  1  -0.75081194  -0.22026669  -0.75134082  1
  F  F37  1  0.75081194  0.22026669  -0.75134082  1
  F  F38  1  0.22026669  -0.75081194  -0.75134082  1
  F  F39  1  -0.22026669  0.75081194  -0.75134082  1
  F  F40  1  0.75081194  -0.22026669  0.75134082  1
  F  F41  1  -0.75081194  0.22026669  0.75134082  1
  F  F42  1  -0.22026669  -0.75081194  0.75134082  1
  F  F43  1  0.22026669  0.75081194  0.75134082  1
  F  F44  1  0.00000000  0.00000000  0.00000000  1
  F  F45  1  0.00000000  0.00000000  0.80480550  1
  F  F46  1  0.00000000  0.00000000  0.19519450  1
  F  F47  1  0.00000000  0.00000000  0.50000000  1
  Li  Li48  1  0.90194598  0.61118484  0.66819857  1
  Li  Li49  1  0.09805402  0.38881516  0.66819857  1
  Li  Li50  1  0.38881516  0.90194598  0.66819857  1
  Li  Li51  1  0.61118484  0.09805402  0.66819857  1
  Li  Li52  1  0.09805402  0.61118484  0.33180143  1
  Li  Li53  1  0.90194598  0.38881516  0.33180143  1
  Li  Li54  1  0.61118484  0.90194598  0.33180143  1
  Li  Li55  1  0.38881516  0.09805402  0.33180143  1
  Li  Li56  1  0.09805402  0.38881516  0.33180143  1
  Li  Li57  1  0.90194598  0.61118484  0.33180143  1
  Li  Li58  1  0.61118484  0.09805402  0.33180143  1
  Li  Li59  1  0.38881516  0.90194598  0.33180143  1
  Li  Li60  1  0.90194598  0.38881516  0.66819857  1
  Li  Li61  1  0.09805402  0.61118484  0.66819857  1
  Li  Li62  1  0.38881516  0.09805402  0.66819857  1
  Li  Li63  1  0.61118484  0.90194598  0.66819857  1
  Li  Li64  1  0.84042560  0.50000000  0.69156246  1
  Li  Li65  1  0.15957440  0.50000000  0.69156246  1
  Li  Li66  1  0.50000000  0.84042560  0.69156246  1
  Li  Li67  1  0.50000000  0.15957440  0.69156246  1
  Li  Li68  1  0.15957440  0.50000000  0.30843754  1
  Li  Li69  1  0.84042560  0.50000000  0.30843754  1
  Li  Li70  1  0.50000000  0.84042560  0.30843754  1
  Li  Li71  1  0.50000000  0.15957440  0.30843754  1
  Li  Li72  1  0.16907525  0.67059468  0.70704307  1
  Li  Li73  1  0.83092475  0.32940532  0.70704307  1
  Li  Li74  1  0.32940532  0.16907525  0.70704307  1
  Li  Li75  1  0.67059468  0.83092475  0.70704307  1
  Li  Li76  1  0.83092475  0.67059468  0.29295693  1
  Li  Li77  1  0.16907525  0.32940532  0.29295693  1
  Li  Li78  1  0.67059468  0.16907525  0.29295693  1
  Li  Li79  1  0.32940532  0.83092475  0.29295693  1
  Li  Li80  1  0.83092475  0.32940532  0.29295693  1
  Li  Li81  1  0.16907525  0.67059468  0.29295693  1
  Li  Li82  1  0.67059468  0.83092475  0.29295693  1
  Li  Li83  1  0.32940532  0.16907525  0.29295693  1
  Li  Li84  1  0.16907525  0.32940532  0.70704307  1
  Li  Li85  1  0.83092475  0.67059468  0.70704307  1
  Li  Li86  1  0.32940532  0.83092475  0.70704307  1
  Li  Li87  1  0.67059468  0.16907525  0.70704307  1
  Li  Li88  1  0.64108977  0.23284577  0.69010534  1
  Li  Li89  1  0.35891023  0.76715423  0.69010534  1
  Li  Li90  1  0.76715423  0.64108977  0.69010534  1
  Li  Li91  1  0.23284577  0.35891023  0.69010534  1
  Li  Li92  1  0.35891023  0.23284577  0.30989466  1
  Li  Li93  1  0.64108977  0.76715423  0.30989466  1
  Li  Li94  1  0.23284577  0.64108977  0.30989466  1
  Li  Li95  1  0.76715423  0.35891023  0.30989466  1
  Li  Li96  1  0.35891023  0.76715423  0.30989466  1
  Li  Li97  1  0.64108977  0.23284577  0.30989466  1
  Li  Li98  1  0.23284577  0.35891023  0.30989466  1
  Li  Li99  1  0.76715423  0.64108977  0.30989466  1
  Li  Li100  1  0.64108977  0.76715423  0.69010534  1
  Li  Li101  1  0.35891023  0.23284577  0.69010534  1
  Li  Li102  1  0.76715423  0.35891023  0.69010534  1
  Li  Li103  1  0.23284577  0.64108977  0.69010534  1
  Li  Li104  1  0.06121300  0.65585961  0.50000000  1
  Li  Li105  1  0.93878700  0.34414039  0.50000000  1
  Li  Li106  1  0.34414039  0.06121300  0.50000000  1
  Li  Li107  1  0.65585961  0.93878700  0.50000000  1
  Li  Li108  1  0.93878700  0.65585961  0.50000000  1
  Li  Li109  1  0.06121300  0.34414039  0.50000000  1
  Li  Li110  1  0.65585961  0.06121300  0.50000000  1
  Li  Li111  1  0.34414039  0.93878700  0.50000000  1
  Li  Li112  1  0.73728891  0.91020174  0.50000000  1
  Li  Li113  1  0.26271109  0.08979826  0.50000000  1
  Li  Li114  1  0.08979826  0.73728891  0.50000000  1
  Li  Li115  1  0.91020174  0.26271109  0.50000000  1
  Li  Li116  1  0.26271109  0.91020174  0.50000000  1
  Li  Li117  1  0.73728891  0.08979826  0.50000000  1
  Li  Li118  1  0.91020174  0.73728891  0.50000000  1
  Li  Li119  1  0.08979826  0.26271109  0.50000000  1
  Li  Li120  1  0.36939698  0.36939698  0.50000000  1
  Li  Li121  1  0.63060302  0.63060302  0.50000000  1
  Li  Li122  1  0.63060302  0.36939698  0.50000000  1
  Li  Li123  1  0.36939698  0.63060302  0.50000000  1
  Li  Li124  1  0.62148358  0.81810678  -0.00000000  1
  Li  Li125  1  0.37851642  0.18189322  0.00000000  1
  Li  Li126  1  0.18189322  0.62148358  -0.00000000  1
  Li  Li127  1  0.81810678  0.37851642  0.00000000  1
  Li  Li128  1  0.37851642  0.81810678  0.00000000  1
  Li  Li129  1  0.62148358  0.18189322  -0.00000000  1
  Li  Li130  1  0.81810678  0.62148358  -0.00000000  1
  Li  Li131  1  0.18189322  0.37851642  0.00000000  1
  Li  Li132  1  0.06456072  0.06456072  0.32466632  1
  Li  Li133  1  0.93543928  0.93543928  0.32466632  1
  Li  Li134  1  0.93543928  0.06456072  0.32466632  1
  Li  Li135  1  0.06456072  0.93543928  0.32466632  1
  Li  Li136  1  0.93543928  0.06456072  0.67533368  1
  Li  Li137  1  0.06456072  0.93543928  0.67533368  1
  Li  Li138  1  0.06456072  0.06456072  0.67533368  1
  Li  Li139  1  0.93543928  0.93543928  0.67533368  1
  Li  Li140  1  0.84191668  -0.00000000  0.00000000  1
  Li  Li141  1  0.15808332  -0.00000000  0.00000000  1
  Li  Li142  1  0.00000000  0.84191668  0.00000000  1
  Li  Li143  1  0.00000000  0.15808332  0.00000000  1
  Te  Te144  1  0.58539276  0.50000000  0.50000000  1
  Te  Te145  1  0.41460724  0.50000000  0.50000000  1
  Te  Te146  1  0.50000000  0.58539276  0.50000000  1
  Te  Te147  1  0.50000000  0.41460724  0.50000000  1
  Te  Te148  1  0.13509763  -0.00000000  0.50000000  1
  Te  Te149  1  0.86490237  -0.00000000  0.50000000  1
  Te  Te150  1  0.00000000  0.13509763  0.50000000  1
  Te  Te151  1  0.00000000  0.86490237  0.50000000  1
  Te  Te152  1  0.50000000  0.50000000  0.00000000  1
  Te  Te153  1  0.50000000  0.50000000  0.50000000  1
  Te  Te154  1  0.39786193  0.39786193  0.00000000  1
  Te  Te155  1  0.60213807  0.60213807  0.00000000  1
  Te  Te156  1  0.60213807  0.39786193  0.00000000  1
  Te  Te157  1  0.39786193  0.60213807  0.00000000  1
  Te  Te158  1  0.76835648  0.50000000  0.77380730  1
  Te  Te159  1  0.23164352  0.50000000  0.77380730  1
  Te  Te160  1  0.50000000  0.76835648  0.77380730  1
  Te  Te161  1  0.50000000  0.23164352  0.77380730  1
  Te  Te162  1  0.23164352  0.50000000  0.22619270  1
  Te  Te163  1  0.76835648  0.50000000  0.22619270  1
  Te  Te164  1  0.50000000  0.76835648  0.22619270  1
  Te  Te165  1  0.50000000  0.23164352  0.22619270  1
  Te  Te166  1  0.00000000  0.50000000  0.50000000  1
  Te  Te167  1  0.50000000  -0.00000000  0.50000000  1
