# generated using pymatgen
data_LiF
_symmetry_space_group_name_H-M   'P 1'
_cell_length_a   8.08320906
_cell_length_b   13.04678651
_cell_length_c   6.61484028
_cell_angle_alpha   90.00000000
_cell_angle_beta   90.00000000
_cell_angle_gamma   90.00000000
_symmetry_Int_Tables_number   1
_chemical_formula_structural   LiF
_chemical_formula_sum   'Li26 F26'
_cell_volume   697.60041351
_cell_formula_units_Z   26
loop_
 _symmetry_equiv_pos_site_id
 _symmetry_equiv_pos_as_xyz
  1  'x, y, z'
loop_
 _atom_site_type_symbol
 _atom_site_label
 _atom_site_symmetry_multiplicity
 _atom_site_fract_x
 _atom_site_fract_y
 _atom_site_fract_z
 _atom_site_occupancy
  F  F0  1  0.65234891  0.24045210  0.63610462  1
  F  F1  1  -0.65234891  -0.24045210  0.63610462  1
  F  F2  1  -0.15234891  0.74045210  -0.13610462  1
  F  F3  1  1.15234891  0.25954790  -0.13610462  1
  F  F4  1  -0.65234891  -0.24045210  -0.63610462  1
  F  F5  1  0.65234891  0.24045210  -0.63610462  1
  F  F6  1  1.15234891  0.25954790  1.13610462  1
  F  F7  1  -0.15234891  0.74045210  1.13610462  1
  F  F8  1  0.00000000  0.50000000  0.00000000  1
  F  F9  1  0.50000000  0.00000000  0.50000000  1
  F  F10  1  0.85143161  0.99358657  0.14026321  1
  F  F11  1  0.14856839  0.00641343  0.14026321  1
  F  F12  1  0.64856839  0.49358657  0.35973679  1
  F  F13  1  0.35143161  0.50641343  0.35973679  1
  F  F14  1  0.14856839  0.00641343  0.85973679  1
  F  F15  1  0.85143161  0.99358657  0.85973679  1
  F  F16  1  0.35143161  0.50641343  0.64026321  1
  F  F17  1  0.64856839  0.49358657  0.64026321  1
  F  F18  1  0.85181010  0.27696048  0.56441173  1
  F  F19  1  0.14818990  0.72303952  0.56441173  1
  F  F20  1  0.64818990  0.77696048  0.93558827  1
  F  F21  1  0.35181010  0.22303952  0.93558827  1
  F  F22  1  0.14818990  0.72303952  0.43558827  1
  F  F23  1  0.85181010  0.27696048  0.43558827  1
  F  F24  1  0.35181010  0.22303952  0.06441173  1
  F  F25  1  0.64818990  0.77696048  0.06441173  1
  Li  Li26  1  0.23056620  0.69190102  0.00000000  1
  Li  Li27  1  0.76943380  0.30809898  0.00000000  1
  Li  Li28  1  0.26943380  0.19190102  0.50000000  1
  Li  Li29  1  0.73056620  0.80809898  0.50000000  1
  Li  Li30  1  0.59244098  0.06450049  0.00000000  1
  Li  Li31  1  0.40755902  0.93549951  -0.00000000  1
  Li  Li32  1  0.90755902  0.56450049  0.50000000  1
  Li  Li33  1  0.09244098  0.43549951  0.50000000  1
  Li  Li34  1  0.42646409  0.77780751  0.80989752  1
  Li  Li35  1  0.57353591  0.22219249  0.80989752  1
  Li  Li36  1  0.07353591  0.27780751  0.69010248  1
  Li  Li37  1  0.92646409  0.72219249  0.69010248  1
  Li  Li38  1  0.57353591  0.22219249  0.19010248  1
  Li  Li39  1  0.42646409  0.77780751  0.19010248  1
  Li  Li40  1  0.92646409  0.72219249  0.30989752  1
  Li  Li41  1  0.07353591  0.27780751  0.30989752  1
  Li  Li42  1  0.15528503  0.13442880  0.00000000  1
  Li  Li43  1  0.84471497  0.86557120  0.00000000  1
  Li  Li44  1  0.34471497  0.63442880  0.50000000  1
  Li  Li45  1  0.65528503  0.36557120  0.50000000  1
  Li  Li46  1  0.00000000  0.00000000  0.50000000  1
  Li  Li47  1  0.50000000  0.50000000  0.00000000  1
  Li  Li48  1  0.00000000  0.50000000  0.62119289  1
  Li  Li49  1  0.50000000  0.00000000  0.87880711  1
  Li  Li50  1  0.00000000  0.50000000  0.37880711  1
  Li  Li51  1  0.50000000  0.00000000  0.12119289  1
