# generated using pymatgen
data_Li2YP3Se
_symmetry_space_group_name_H-M   'P 1'
_cell_length_a   5.49626892
_cell_length_b   5.53895583
_cell_length_c   7.01580162
_cell_angle_alpha   94.22546137
_cell_angle_beta   97.53730015
_cell_angle_gamma   104.36103236
_symmetry_Int_Tables_number   1
_chemical_formula_structural   Li2YP3Se
_chemical_formula_sum   'Li2 Y1 P3 Se1'
_cell_volume   203.86589592
_cell_formula_units_Z   1
loop_
 _symmetry_equiv_pos_site_id
 _symmetry_equiv_pos_as_xyz
  1  'x, y, z'
loop_
 _atom_site_type_symbol
 _atom_site_label
 _atom_site_symmetry_multiplicity
 _atom_site_fract_x
 _atom_site_fract_y
 _atom_site_fract_z
 _atom_site_occupancy
  Y  Y0  1  0.00000000  0.00000000  0.00000000  1
  P  P1  1  0.50000000  0.50000000  0.50000000  1
  P  P2  1  0.50000000  0.50000000  0.00000000  1
  P  P3  1  0.50000000  0.00000000  0.50000000  1
  Se  Se4  1  0.00000000  0.50000000  0.50000000  1
  Li  Li5  1  0.95492961  0.64309500  0.96972682  1
  Li  Li6  1  0.61176876  0.51128285  0.33791562  1
