# generated using pymatgen
data_Li2Y2MoP3Se2
_symmetry_space_group_name_H-M   'P 1'
_cell_length_a   4.55856459
_cell_length_b   4.80715680
_cell_length_c   6.94846528
_cell_angle_alpha   95.52180288
_cell_angle_beta   102.02533871
_cell_angle_gamma   112.17888758
_symmetry_Int_Tables_number   1
_chemical_formula_structural   Li2Y2MoP3Se2
_chemical_formula_sum   'Li2 Y2 Mo1 P3 Se2'
_cell_volume   135.31128489
_cell_formula_units_Z   1
loop_
 _symmetry_equiv_pos_site_id
 _symmetry_equiv_pos_as_xyz
  1  'x, y, z'
loop_
 _atom_site_type_symbol
 _atom_site_label
 _atom_site_symmetry_multiplicity
 _atom_site_fract_x
 _atom_site_fract_y
 _atom_site_fract_z
 _atom_site_occupancy
  Se  Se0  1  0.00000000  0.00000000  0.00000000  1
  Se  Se1  1  0.50000000  0.50000000  0.50000000  1
  P  P2  1  0.25000000  0.25000000  0.25000000  1
  P  P3  1  0.75000000  0.25000000  0.00000000  1
  P  P4  1  0.25000000  0.75000000  0.50000000  1
  Mo  Mo5  1  0.97972186  0.99277510  0.91828188  1
  Li  Li6  1  0.40027949  0.97799353  0.32362106  1
  Li  Li7  1  0.87586305  0.76811266  0.27824168  1
  Y  Y8  1  0.89606510  0.83698840  0.35022811  1
  Y  Y9  1  0.96802128  0.53976583  0.79738678  1
