# generated using pymatgen
data_LiAl2Sb2F6
_symmetry_space_group_name_H-M   'P 1'
_cell_length_a   5.64450575
_cell_length_b   5.09496464
_cell_length_c   7.41582949
_cell_angle_alpha   94.74782275
_cell_angle_beta   97.40808210
_cell_angle_gamma   102.41548072
_symmetry_Int_Tables_number   1
_chemical_formula_structural   LiAl2Sb2F6
_chemical_formula_sum   'Li1 Al2 Sb2 F6'
_cell_volume   205.19395614
_cell_formula_units_Z   1
loop_
 _symmetry_equiv_pos_site_id
 _symmetry_equiv_pos_as_xyz
  1  'x, y, z'
loop_
 _atom_site_type_symbol
 _atom_site_label
 _atom_site_symmetry_multiplicity
 _atom_site_fract_x
 _atom_site_fract_y
 _atom_site_fract_z
 _atom_site_occupancy
  Al  Al0  1  0.00000000  0.00000000  0.00000000  1
  Al  Al1  1  0.50000000  0.50000000  0.50000000  1
  F  F2  1  0.50000000  0.50000000  0.00000000  1
  F  F3  1  0.50000000  0.00000000  0.50000000  1
  F  F4  1  0.00000000  0.50000000  0.50000000  1
  F  F5  1  0.96869873  0.76541086  0.77213150  1
  F  F6  1  0.75919298  0.51117379  0.44921152  1
  F  F7  1  0.93166523  0.00187309  0.99124294  1
  Li  Li8  1  0.08556003  0.97830836  0.56661479  1
  Sb  Sb9  1  0.11057616  0.06501490  0.75489397  1
  Sb  Sb10  1  0.03141100  0.51858492  0.93151919  1
