# generated using pymatgen
data_LiTe2PF
_symmetry_space_group_name_H-M   'P 1'
_cell_length_a   8.12461566
_cell_length_b   8.33534972
_cell_length_c   7.61226358
_cell_angle_alpha   90.00000000
_cell_angle_beta   90.00000000
_cell_angle_gamma   90.00000000
_symmetry_Int_Tables_number   1
_chemical_formula_structural   LiTe2PF
_chemical_formula_sum   'Li2 Te4 P2 F2'
_cell_volume   515.51400564
_cell_formula_units_Z   2
loop_
 _symmetry_equiv_pos_site_id
 _symmetry_equiv_pos_as_xyz
  1  'x, y, z'
loop_
 _atom_site_type_symbol
 _atom_site_label
 _atom_site_symmetry_multiplicity
 _atom_site_fract_x
 _atom_site_fract_y
 _atom_site_fract_z
 _atom_site_occupancy
  Te  Te0  1  0.00000000  0.00000000  0.00000000  1
  Te  Te1  1  0.50000000  0.50000000  0.50000000  1
  Te  Te2  1  0.50000000  0.50000000  0.00000000  1
  Te  Te3  1  0.50000000  0.00000000  0.50000000  1
  F  F4  1  0.00000000  0.50000000  0.50000000  1
  F  F5  1  0.43528633  0.95702977  0.02690130  1
  P  P6  1  0.53430381  0.81669168  0.94645250  1
  P  P7  1  0.26744177  0.73833937  0.38889647  1
  Li  Li8  1  0.38494157  0.23954381  0.24782505  1
  Li  Li9  1  0.91365677  0.00780364  0.67053526  1
