# generated using pymatgen
data_Li2YP4
_symmetry_space_group_name_H-M   'P 1'
_cell_length_a   4.27315312
_cell_length_b   4.42175931
_cell_length_c   7.01821097
_cell_angle_alpha   96.69575212
_cell_angle_beta   104.58195609
_cell_angle_gamma   116.89417508
_symmetry_Int_Tables_number   1
_chemical_formula_structural   Li2YP4
_chemical_formula_sum   'Li2 Y1 P4'
_cell_volume   110.29990553
_cell_formula_units_Z   1
loop_
 _symmetry_equiv_pos_site_id
 _symmetry_equiv_pos_as_xyz
  1  'x, y, z'
loop_
 _atom_site_type_symbol
 _atom_site_label
 _atom_site_symmetry_multiplicity
 _atom_site_fract_x
 _atom_site_fract_y
 _atom_site_fract_z
 _atom_site_occupancy
  P  P0  1  0.12500000  0.00000000  0.25000000  1
  P  P1  1  0.00000000  0.00000000  0.00000000  1
  P  P2  1  0.37500000  0.00000000  0.25000000  1
  P  P3  1  0.25000000  0.25000000  0.25000000  1
  Li  Li4  1  0.00000000  0.25000000  0.12500000  1
  Li  Li5  1  0.84127605  0.07060425  0.58430760  1
  Y  Y6  1  0.30179286  0.73352528  0.47158595  1
