# generated using pymatgen
data_LiYAs2P
_symmetry_space_group_name_H-M   'P 1'
_cell_length_a   5.06825053
_cell_length_b   5.20538237
_cell_length_c   6.94839554
_cell_angle_alpha   94.34418516
_cell_angle_beta   99.59233942
_cell_angle_gamma   107.60777349
_symmetry_Int_Tables_number   1
_chemical_formula_structural   LiYAs2P
_chemical_formula_sum   'Li2 Y2 As4 P2'
_cell_volume   170.72336843
_cell_formula_units_Z   2
loop_
 _symmetry_equiv_pos_site_id
 _symmetry_equiv_pos_as_xyz
  1  'x, y, z'
loop_
 _atom_site_type_symbol
 _atom_site_label
 _atom_site_symmetry_multiplicity
 _atom_site_fract_x
 _atom_site_fract_y
 _atom_site_fract_z
 _atom_site_occupancy
  P  P0  1  0.12500000  0.12500000  0.12500000  1
  P  P1  1  0.50000000  0.50000000  0.50000000  1
  As  As2  1  0.25000000  0.25000000  0.25000000  1
  As  As3  1  0.75000000  0.75000000  0.75000000  1
  As  As4  1  0.57504557  0.02179529  0.15123534  1
  As  As5  1  0.34645752  0.06939721  0.65471461  1
  Li  Li6  1  0.15853761  0.65259770  0.48927617  1
  Li  Li7  1  0.86463097  0.92187384  0.28924045  1
  Y  Y8  1  0.11855020  0.07578452  0.36074191  1
  Y  Y9  1  0.50792654  0.11144462  0.58003284  1
