# generated using pymatgen
data_LiF
_symmetry_space_group_name_H-M   'P 1'
_cell_length_a   7.60771738
_cell_length_b   7.60771738
_cell_length_c   7.19288048
_cell_angle_alpha   90.00000000
_cell_angle_beta   90.00000000
_cell_angle_gamma   120.00000000
_symmetry_Int_Tables_number   1
_chemical_formula_structural   LiF
_chemical_formula_sum   'Li15 F15'
_cell_volume   360.53067102
_cell_formula_units_Z   15
loop_
 _symmetry_equiv_pos_site_id
 _symmetry_equiv_pos_as_xyz
  1  'x, y, z'
loop_
 _atom_site_type_symbol
 _atom_site_label
 _atom_site_symmetry_multiplicity
 _atom_site_fract_x
 _atom_site_fract_y
 _atom_site_fract_z
 _atom_site_occupancy
  F  F0  1  0.33333333  0.66666667  0.50000000  1
  F  F1  1  0.51127727  0.60732848  0.50256380  1
  F  F2  1  0.39267152  0.90394879  0.50256380  1
  F  F3  1  0.09605121  0.48872273  0.50256380  1
  F  F4  1  0.39267152  0.48872273  0.49743620  1
  F  F5  1  0.09605121  0.60732848  0.49743620  1
  F  F6  1  0.51127727  0.90394879  0.49743620  1
  F  F7  1  0.66666667  0.33333333  0.50000000  1
  F  F8  1  0.64884745  0.90820100  0.64790178  1
  F  F9  1  0.09179900  0.74064645  0.64790178  1
  F  F10  1  0.25935355  0.35115255  0.64790178  1
  F  F11  1  0.09179900  0.35115255  0.35209822  1
  F  F12  1  0.25935355  0.90820100  0.35209822  1
  F  F13  1  0.64884745  0.74064645  0.35209822  1
  F  F14  1  0.00000000  0.00000000  0.00000000  1
  Li  Li15  1  0.07340661  0.46243295  0.65630739  1
  Li  Li16  1  -0.46243295  -0.38902634  0.65630739  1
  Li  Li17  1  0.38902634  -0.07340661  0.65630739  1
  Li  Li18  1  -0.46243295  -0.07340661  -0.65630739  1
  Li  Li19  1  0.38902634  0.46243295  -0.65630739  1
  Li  Li20  1  0.07340661  -0.38902634  -0.65630739  1
  Li  Li21  1  0.00000000  0.00000000  0.50000000  1
  Li  Li22  1  0.21676658  0.32303682  0.26010991  1
  Li  Li23  1  0.67696318  0.89372976  0.26010991  1
  Li  Li24  1  0.10627024  0.78323342  0.26010991  1
  Li  Li25  1  0.67696318  0.78323342  0.73989009  1
  Li  Li26  1  0.10627024  0.32303682  0.73989009  1
  Li  Li27  1  0.21676658  0.89372976  0.73989009  1
  Li  Li28  1  0.33333333  0.66666667  0.28568301  1
  Li  Li29  1  0.33333333  0.66666667  0.71431699  1
