# generated using pymatgen
data_Li4TeF2
_symmetry_space_group_name_H-M   'P 1'
_cell_length_a   17.68454555
_cell_length_b   17.68454555
_cell_length_c   10.80826469
_cell_angle_alpha   90.00000000
_cell_angle_beta   90.00000000
_cell_angle_gamma   90.00000000
_symmetry_Int_Tables_number   1
_chemical_formula_structural   Li4TeF2
_chemical_formula_sum   'Li96 Te24 F48'
_cell_volume   3380.21076130
_cell_formula_units_Z   24
loop_
 _symmetry_equiv_pos_site_id
 _symmetry_equiv_pos_as_xyz
  1  'x, y, z'
loop_
 _atom_site_type_symbol
 _atom_site_label
 _atom_site_symmetry_multiplicity
 _atom_site_fract_x
 _atom_site_fract_y
 _atom_site_fract_z
 _atom_site_occupancy
  F  F0  1  0.00000000  0.00000000  0.55465715  1
  F  F1  1  0.00000000  0.00000000  0.44534285  1
  F  F2  1  0.69577401  0.21635274  0.68692001  1
  F  F3  1  -0.69577401  -0.21635274  0.68692001  1
  F  F4  1  -0.21635274  0.69577401  0.68692001  1
  F  F5  1  0.21635274  -0.69577401  0.68692001  1
  F  F6  1  -0.69577401  0.21635274  -0.68692001  1
  F  F7  1  0.69577401  -0.21635274  -0.68692001  1
  F  F8  1  0.21635274  0.69577401  -0.68692001  1
  F  F9  1  -0.21635274  -0.69577401  -0.68692001  1
  F  F10  1  -0.69577401  -0.21635274  -0.68692001  1
  F  F11  1  0.69577401  0.21635274  -0.68692001  1
  F  F12  1  0.21635274  -0.69577401  -0.68692001  1
  F  F13  1  -0.21635274  0.69577401  -0.68692001  1
  F  F14  1  0.69577401  -0.21635274  0.68692001  1
  F  F15  1  -0.69577401  0.21635274  0.68692001  1
  F  F16  1  -0.21635274  -0.69577401  0.68692001  1
  F  F17  1  0.21635274  0.69577401  0.68692001  1
  F  F18  1  0.50000000  0.50000000  0.50000000  1
  F  F19  1  0.59080425  0.46574280  0.16735150  1
  F  F20  1  0.40919575  0.53425720  0.16735150  1
  F  F21  1  0.53425720  0.59080425  0.16735150  1
  F  F22  1  0.46574280  0.40919575  0.16735150  1
  F  F23  1  0.40919575  0.46574280  0.83264850  1
  F  F24  1  0.59080425  0.53425720  0.83264850  1
  F  F25  1  0.46574280  0.59080425  0.83264850  1
  F  F26  1  0.53425720  0.40919575  0.83264850  1
  F  F27  1  0.40919575  0.53425720  0.83264850  1
  F  F28  1  0.59080425  0.46574280  0.83264850  1
  F  F29  1  0.46574280  0.40919575  0.83264850  1
  F  F30  1  0.53425720  0.59080425  0.83264850  1
  F  F31  1  0.59080425  0.53425720  0.16735150  1
  F  F32  1  0.40919575  0.46574280  0.16735150  1
  F  F33  1  0.53425720  0.40919575  0.16735150  1
  F  F34  1  0.46574280  0.59080425  0.16735150  1
  F  F35  1  0.14958653  0.14958653  0.07465237  1
  F  F36  1  0.85041347  0.85041347  0.07465237  1
  F  F37  1  0.85041347  0.14958653  0.07465237  1
  F  F38  1  0.14958653  0.85041347  0.07465237  1
  F  F39  1  0.85041347  0.14958653  0.92534763  1
  F  F40  1  0.14958653  0.85041347  0.92534763  1
  F  F41  1  0.14958653  0.14958653  0.92534763  1
  F  F42  1  0.85041347  0.85041347  0.92534763  1
  F  F43  1  0.96507231  -0.00000000  0.50000000  1
  F  F44  1  0.03492769  0.00000000  0.50000000  1
  F  F45  1  0.00000000  0.96507231  0.50000000  1
  F  F46  1  0.00000000  0.03492769  0.50000000  1
  F  F47  1  0.00000000  0.00000000  0.50000000  1
  Li  Li48  1  0.07593176  0.50000000  0.90639099  1
  Li  Li49  1  0.92406824  0.50000000  0.90639099  1
  Li  Li50  1  0.50000000  0.07593176  0.90639099  1
  Li  Li51  1  0.50000000  0.92406824  0.90639099  1
  Li  Li52  1  0.92406824  0.50000000  0.09360901  1
  Li  Li53  1  0.07593176  0.50000000  0.09360901  1
  Li  Li54  1  0.50000000  0.07593176  0.09360901  1
  Li  Li55  1  0.50000000  0.92406824  0.09360901  1
  Li  Li56  1  0.42602933  -0.00000000  0.21064790  1
  Li  Li57  1  0.57397067  -0.00000000  0.21064790  1
  Li  Li58  1  0.00000000  0.42602933  0.21064790  1
  Li  Li59  1  0.00000000  0.57397067  0.21064790  1
  Li  Li60  1  0.57397067  -0.00000000  0.78935210  1
  Li  Li61  1  0.42602933  -0.00000000  0.78935210  1
  Li  Li62  1  0.00000000  0.42602933  0.78935210  1
  Li  Li63  1  0.00000000  0.57397067  0.78935210  1
  Li  Li64  1  0.14832033  -0.00000000  0.81478991  1
  Li  Li65  1  0.85167967  -0.00000000  0.81478991  1
  Li  Li66  1  0.00000000  0.14832033  0.81478991  1
  Li  Li67  1  0.00000000  0.85167967  0.81478991  1
  Li  Li68  1  0.85167967  -0.00000000  0.18521009  1
  Li  Li69  1  0.14832033  -0.00000000  0.18521009  1
  Li  Li70  1  0.00000000  0.14832033  0.18521009  1
  Li  Li71  1  0.00000000  0.85167967  0.18521009  1
  Li  Li72  1  0.06976380  0.36691552  0.72345364  1
  Li  Li73  1  0.93023620  0.63308448  0.72345364  1
  Li  Li74  1  0.63308448  0.06976380  0.72345364  1
  Li  Li75  1  0.36691552  0.93023620  0.72345364  1
  Li  Li76  1  0.93023620  0.36691552  0.27654636  1
  Li  Li77  1  0.06976380  0.63308448  0.27654636  1
  Li  Li78  1  0.36691552  0.06976380  0.27654636  1
  Li  Li79  1  0.63308448  0.93023620  0.27654636  1
  Li  Li80  1  0.93023620  0.63308448  0.27654636  1
  Li  Li81  1  0.06976380  0.36691552  0.27654636  1
  Li  Li82  1  0.36691552  0.93023620  0.27654636  1
  Li  Li83  1  0.63308448  0.06976380  0.27654636  1
  Li  Li84  1  0.06976380  0.63308448  0.72345364  1
  Li  Li85  1  0.93023620  0.36691552  0.72345364  1
  Li  Li86  1  0.63308448  0.93023620  0.72345364  1
  Li  Li87  1  0.36691552  0.06976380  0.72345364  1
  Li  Li88  1  0.37701338  0.37701338  0.38137130  1
  Li  Li89  1  0.62298662  0.62298662  0.38137130  1
  Li  Li90  1  0.62298662  0.37701338  0.38137130  1
  Li  Li91  1  0.37701338  0.62298662  0.38137130  1
  Li  Li92  1  0.62298662  0.37701338  0.61862870  1
  Li  Li93  1  0.37701338  0.62298662  0.61862870  1
  Li  Li94  1  0.37701338  0.37701338  0.61862870  1
  Li  Li95  1  0.62298662  0.62298662  0.61862870  1
  Li  Li96  1  0.40271222  0.74530359  0.08715476  1
  Li  Li97  1  0.59728778  0.25469641  0.08715476  1
  Li  Li98  1  0.25469641  0.40271222  0.08715476  1
  Li  Li99  1  0.74530359  0.59728778  0.08715476  1
  Li  Li100  1  0.59728778  0.74530359  0.91284524  1
  Li  Li101  1  0.40271222  0.25469641  0.91284524  1
  Li  Li102  1  0.74530359  0.40271222  0.91284524  1
  Li  Li103  1  0.25469641  0.59728778  0.91284524  1
  Li  Li104  1  0.59728778  0.25469641  0.91284524  1
  Li  Li105  1  0.40271222  0.74530359  0.91284524  1
  Li  Li106  1  0.74530359  0.59728778  0.91284524  1
  Li  Li107  1  0.25469641  0.40271222  0.91284524  1
  Li  Li108  1  0.40271222  0.25469641  0.08715476  1
  Li  Li109  1  0.59728778  0.74530359  0.08715476  1
  Li  Li110  1  0.25469641  0.59728778  0.08715476  1
  Li  Li111  1  0.74530359  0.40271222  0.08715476  1
  Li  Li112  1  0.41764223  0.82110641  0.16944574  1
  Li  Li113  1  0.58235777  0.17889359  0.16944574  1
  Li  Li114  1  0.17889359  0.41764223  0.16944574  1
  Li  Li115  1  0.82110641  0.58235777  0.16944574  1
  Li  Li116  1  0.58235777  0.82110641  0.83055426  1
  Li  Li117  1  0.41764223  0.17889359  0.83055426  1
  Li  Li118  1  0.82110641  0.41764223  0.83055426  1
  Li  Li119  1  0.17889359  0.58235777  0.83055426  1
  Li  Li120  1  0.58235777  0.17889359  0.83055426  1
  Li  Li121  1  0.41764223  0.82110641  0.83055426  1
  Li  Li122  1  0.82110641  0.58235777  0.83055426  1
  Li  Li123  1  0.17889359  0.41764223  0.83055426  1
  Li  Li124  1  0.41764223  0.17889359  0.16944574  1
  Li  Li125  1  0.58235777  0.82110641  0.16944574  1
  Li  Li126  1  0.17889359  0.58235777  0.16944574  1
  Li  Li127  1  0.82110641  0.41764223  0.16944574  1
  Li  Li128  1  0.76206182  0.76206182  0.20488697  1
  Li  Li129  1  0.23793818  0.23793818  0.20488697  1
  Li  Li130  1  0.23793818  0.76206182  0.20488697  1
  Li  Li131  1  0.76206182  0.23793818  0.20488697  1
  Li  Li132  1  0.23793818  0.76206182  0.79511303  1
  Li  Li133  1  0.76206182  0.23793818  0.79511303  1
  Li  Li134  1  0.76206182  0.76206182  0.79511303  1
  Li  Li135  1  0.23793818  0.23793818  0.79511303  1
  Li  Li136  1  0.05088175  0.05088175  0.17602677  1
  Li  Li137  1  0.94911825  0.94911825  0.17602677  1
  Li  Li138  1  0.94911825  0.05088175  0.17602677  1
  Li  Li139  1  0.05088175  0.94911825  0.17602677  1
  Li  Li140  1  0.94911825  0.05088175  0.82397323  1
  Li  Li141  1  0.05088175  0.94911825  0.82397323  1
  Li  Li142  1  0.05088175  0.05088175  0.82397323  1
  Li  Li143  1  0.94911825  0.94911825  0.82397323  1
  Te  Te144  1  0.45857666  0.00000000  0.50000000  1
  Te  Te145  1  0.54142334  0.00000000  0.50000000  1
  Te  Te146  1  0.00000000  0.45857666  0.50000000  1
  Te  Te147  1  0.00000000  0.54142334  0.50000000  1
  Te  Te148  1  0.28559343  0.50000000  0.25971607  1
  Te  Te149  1  0.71440657  0.50000000  0.25971607  1
  Te  Te150  1  0.50000000  0.28559343  0.25971607  1
  Te  Te151  1  0.50000000  0.71440657  0.25971607  1
  Te  Te152  1  0.71440657  0.50000000  0.74028393  1
  Te  Te153  1  0.28559343  0.50000000  0.74028393  1
  Te  Te154  1  0.50000000  0.28559343  0.74028393  1
  Te  Te155  1  0.50000000  0.71440657  0.74028393  1
  Te  Te156  1  0.00000000  0.50000000  0.17497065  1
  Te  Te157  1  0.50000000  0.00000000  0.17497065  1
  Te  Te158  1  0.00000000  0.50000000  0.82502935  1
  Te  Te159  1  0.50000000  0.00000000  0.82502935  1
  Te  Te160  1  0.80576800  0.00000000  0.00000000  1
  Te  Te161  1  0.19423200  0.00000000  0.00000000  1
  Te  Te162  1  0.00000000  0.80576800  0.00000000  1
  Te  Te163  1  0.00000000  0.19423200  0.00000000  1
  Te  Te164  1  0.50000000  0.50000000  0.00000000  1
  Te  Te165  1  0.00000000  0.00000000  0.00000000  1
  Te  Te166  1  0.00000000  0.00000000  0.75931359  1
  Te  Te167  1  0.00000000  0.00000000  0.24068641  1
