# generated using pymatgen
data_LiSbP
_symmetry_space_group_name_H-M   'P 1'
_cell_length_a   4.75230279
_cell_length_b   4.86199040
_cell_length_c   6.81422668
_cell_angle_alpha   95.03266216
_cell_angle_beta   100.49663421
_cell_angle_gamma   109.48737937
_symmetry_Int_Tables_number   1
_chemical_formula_structural   LiSbP
_chemical_formula_sum   'Li2 Sb2 P2'
_cell_volume   144.05894513
_cell_formula_units_Z   2
loop_
 _symmetry_equiv_pos_site_id
 _symmetry_equiv_pos_as_xyz
  1  'x, y, z'
loop_
 _atom_site_type_symbol
 _atom_site_label
 _atom_site_symmetry_multiplicity
 _atom_site_fract_x
 _atom_site_fract_y
 _atom_site_fract_z
 _atom_site_occupancy
  P  P0  1  0.00000000  0.00000000  0.00000000  1
  P  P1  1  0.50000000  0.50000000  0.50000000  1
  Li  Li2  1  0.25000000  0.25000000  0.25000000  1
  Li  Li3  1  0.75000000  0.25000000  0.00000000  1
  Sb  Sb4  1  0.25000000  0.75000000  0.50000000  1
  Sb  Sb5  1  0.08225842  0.72448751  0.79837899  1
