# generated using pymatgen
data_LiF
_symmetry_space_group_name_H-M   'P 1'
_cell_length_a   9.50888697
_cell_length_b   9.50888697
_cell_length_c   15.26288268
_cell_angle_alpha   90.00000000
_cell_angle_beta   90.00000000
_cell_angle_gamma   90.00000000
_symmetry_Int_Tables_number   1
_chemical_formula_structural   LiF
_chemical_formula_sum   'Li64 F64'
_cell_volume   1380.05354184
_cell_formula_units_Z   64
loop_
 _symmetry_equiv_pos_site_id
 _symmetry_equiv_pos_as_xyz
  1  'x, y, z'
loop_
 _atom_site_type_symbol
 _atom_site_label
 _atom_site_symmetry_multiplicity
 _atom_site_fract_x
 _atom_site_fract_y
 _atom_site_fract_z
 _atom_site_occupancy
  F  F0  1  0.18457262  0.48805375  0.39963323  1
  F  F1  1  0.31542738  -0.48805375  0.89963323  1
  F  F2  1  -0.23805375  0.93457262  0.64963323  1
  F  F3  1  0.73805375  0.06542738  1.14963323  1
  F  F4  1  0.31542738  0.48805375  -0.39963323  1
  F  F5  1  0.18457262  -0.48805375  0.10036677  1
  F  F6  1  0.73805375  0.93457262  0.35036677  1
  F  F7  1  -0.23805375  0.06542738  -0.14963323  1
  F  F8  1  -0.18457262  -0.48805375  -0.39963323  1
  F  F9  1  0.68457262  0.48805375  0.10036677  1
  F  F10  1  1.23805375  0.06542738  0.35036677  1
  F  F11  1  0.26194625  0.93457262  -0.14963323  1
  F  F12  1  0.68457262  -0.48805375  0.39963323  1
  F  F13  1  -0.18457262  0.48805375  0.89963323  1
  F  F14  1  0.26194625  0.06542738  0.64963323  1
  F  F15  1  1.23805375  0.93457262  1.14963323  1
  F  F16  1  0.68457262  0.98805375  0.89963323  1
  F  F17  1  0.81542738  0.01194625  1.39963323  1
  F  F18  1  0.26194625  1.43457262  1.14963323  1
  F  F19  1  1.23805375  0.56542738  1.64963323  1
  F  F20  1  0.81542738  0.98805375  0.10036677  1
  F  F21  1  0.68457262  0.01194625  0.60036677  1
  F  F22  1  1.23805375  1.43457262  0.85036677  1
  F  F23  1  0.26194625  0.56542738  0.35036677  1
  F  F24  1  0.31542738  0.01194625  0.10036677  1
  F  F25  1  1.18457262  0.98805375  0.60036677  1
  F  F26  1  1.73805375  0.56542738  0.85036677  1
  F  F27  1  0.76194625  1.43457262  0.35036677  1
  F  F28  1  1.18457262  0.01194625  0.89963323  1
  F  F29  1  0.31542738  0.98805375  1.39963323  1
  F  F30  1  0.76194625  0.56542738  1.14963323  1
  F  F31  1  1.73805375  1.43457262  1.64963323  1
  F  F32  1  0.76177822  0.71264323  0.31974218  1
  F  F33  1  0.73822178  0.28735677  0.81974218  1
  F  F34  1  0.53735677  0.51177822  0.56974218  1
  F  F35  1  0.96264323  0.48822178  0.06974218  1
  F  F36  1  0.73822178  0.71264323  0.68025782  1
  F  F37  1  0.76177822  0.28735677  0.18025782  1
  F  F38  1  0.96264323  0.51177822  0.43025782  1
  F  F39  1  0.53735677  0.48822178  0.93025782  1
  F  F40  1  0.23822178  0.28735677  0.68025782  1
  F  F41  1  0.26177822  0.71264323  0.18025782  1
  F  F42  1  0.46264323  0.48822178  0.43025782  1
  F  F43  1  0.03735677  0.51177822  0.93025782  1
  F  F44  1  0.26177822  0.28735677  0.31974218  1
  F  F45  1  0.23822178  0.71264323  0.81974218  1
  F  F46  1  0.03735677  0.48822178  0.56974218  1
  F  F47  1  0.46264323  0.51177822  0.06974218  1
  F  F48  1  0.26177822  0.21264323  0.81974218  1
  F  F49  1  0.23822178  0.78735677  0.31974218  1
  F  F50  1  0.03735677  0.01177822  0.06974218  1
  F  F51  1  0.46264323  0.98822178  0.56974218  1
  F  F52  1  0.23822178  0.21264323  0.18025782  1
  F  F53  1  0.26177822  0.78735677  0.68025782  1
  F  F54  1  0.46264323  0.01177822  0.93025782  1
  F  F55  1  0.03735677  0.98822178  0.43025782  1
  F  F56  1  0.73822178  0.78735677  0.18025782  1
  F  F57  1  0.76177822  0.21264323  0.68025782  1
  F  F58  1  0.96264323  0.98822178  0.93025782  1
  F  F59  1  0.53735677  0.01177822  0.43025782  1
  F  F60  1  0.76177822  0.78735677  0.81974218  1
  F  F61  1  0.73822178  0.21264323  0.31974218  1
  F  F62  1  0.53735677  0.98822178  0.06974218  1
  F  F63  1  0.96264323  0.01177822  0.56974218  1
  Li  Li64  1  0.65369353  0.14945326  0.69276468  1
  Li  Li65  1  0.84630647  0.85054674  0.19276468  1
  Li  Li66  1  0.10054674  0.40369353  0.94276468  1
  Li  Li67  1  0.39945326  0.59630647  0.44276468  1
  Li  Li68  1  0.84630647  0.14945326  0.30723532  1
  Li  Li69  1  0.65369353  0.85054674  0.80723532  1
  Li  Li70  1  0.39945326  0.40369353  0.05723532  1
  Li  Li71  1  0.10054674  0.59630647  0.55723532  1
  Li  Li72  1  0.34630647  0.85054674  0.30723532  1
  Li  Li73  1  0.15369353  0.14945326  0.80723532  1
  Li  Li74  1  0.89945326  0.59630647  0.05723532  1
  Li  Li75  1  0.60054674  0.40369353  0.55723532  1
  Li  Li76  1  0.15369353  0.85054674  0.69276468  1
  Li  Li77  1  0.34630647  0.14945326  0.19276468  1
  Li  Li78  1  0.60054674  0.59630647  0.94276468  1
  Li  Li79  1  0.89945326  0.40369353  0.44276468  1
  Li  Li80  1  0.15369353  0.64945326  0.19276468  1
  Li  Li81  1  0.34630647  0.35054674  0.69276468  1
  Li  Li82  1  0.60054674  0.90369353  0.44276468  1
  Li  Li83  1  0.89945326  0.09630647  0.94276468  1
  Li  Li84  1  0.34630647  0.64945326  0.80723532  1
  Li  Li85  1  0.15369353  0.35054674  0.30723532  1
  Li  Li86  1  0.89945326  0.90369353  0.55723532  1
  Li  Li87  1  0.60054674  0.09630647  0.05723532  1
  Li  Li88  1  0.84630647  0.35054674  0.80723532  1
  Li  Li89  1  0.65369353  0.64945326  0.30723532  1
  Li  Li90  1  0.39945326  0.09630647  0.55723532  1
  Li  Li91  1  0.10054674  0.90369353  0.05723532  1
  Li  Li92  1  0.65369353  0.35054674  0.19276468  1
  Li  Li93  1  0.84630647  0.64945326  0.69276468  1
  Li  Li94  1  0.10054674  0.09630647  0.44276468  1
  Li  Li95  1  0.39945326  0.90369353  0.94276468  1
  Li  Li96  1  0.04930339  0.03298981  0.19912881  1
  Li  Li97  1  0.45069661  0.96701019  0.69912881  1
  Li  Li98  1  0.21701019  0.79930339  0.44912881  1
  Li  Li99  1  0.28298981  0.20069661  0.94912881  1
  Li  Li100  1  0.45069661  0.03298981  0.80087119  1
  Li  Li101  1  0.04930339  0.96701019  0.30087119  1
  Li  Li102  1  0.28298981  0.79930339  0.55087119  1
  Li  Li103  1  0.21701019  0.20069661  0.05087119  1
  Li  Li104  1  0.95069661  0.96701019  0.80087119  1
  Li  Li105  1  0.54930339  0.03298981  0.30087119  1
  Li  Li106  1  0.78298981  0.20069661  0.55087119  1
  Li  Li107  1  0.71701019  0.79930339  0.05087119  1
  Li  Li108  1  0.54930339  0.96701019  0.19912881  1
  Li  Li109  1  0.95069661  0.03298981  0.69912881  1
  Li  Li110  1  0.71701019  0.20069661  0.44912881  1
  Li  Li111  1  0.78298981  0.79930339  0.94912881  1
  Li  Li112  1  0.54930339  0.53298981  0.69912881  1
  Li  Li113  1  0.95069661  0.46701019  0.19912881  1
  Li  Li114  1  0.71701019  0.29930339  0.94912881  1
  Li  Li115  1  0.78298981  0.70069661  0.44912881  1
  Li  Li116  1  0.95069661  0.53298981  0.30087119  1
  Li  Li117  1  0.54930339  0.46701019  0.80087119  1
  Li  Li118  1  0.78298981  0.29930339  0.05087119  1
  Li  Li119  1  0.71701019  0.70069661  0.55087119  1
  Li  Li120  1  0.45069661  0.46701019  0.30087119  1
  Li  Li121  1  0.04930339  0.53298981  0.80087119  1
  Li  Li122  1  0.28298981  0.70069661  0.05087119  1
  Li  Li123  1  0.21701019  0.29930339  0.55087119  1
  Li  Li124  1  0.04930339  0.46701019  0.69912881  1
  Li  Li125  1  0.45069661  0.53298981  0.19912881  1
  Li  Li126  1  0.21701019  0.70069661  0.94912881  1
  Li  Li127  1  0.28298981  0.29930339  0.44912881  1
