# generated using pymatgen
data_LiF
_symmetry_space_group_name_H-M   'P 1'
_cell_length_a   13.60373521
_cell_length_b   13.60373521
_cell_length_c   13.34296876
_cell_angle_alpha   90.00000000
_cell_angle_beta   90.00000000
_cell_angle_gamma   120.00000000
_symmetry_Int_Tables_number   1
_chemical_formula_structural   LiF
_chemical_formula_sum   'Li71 F71'
_cell_volume   2138.45167826
_cell_formula_units_Z   71
loop_
 _symmetry_equiv_pos_site_id
 _symmetry_equiv_pos_as_xyz
  1  'x, y, z'
loop_
 _atom_site_type_symbol
 _atom_site_label
 _atom_site_symmetry_multiplicity
 _atom_site_fract_x
 _atom_site_fract_y
 _atom_site_fract_z
 _atom_site_occupancy
  F  F0  1  0.00000000  0.00000000  0.00000000  1
  F  F1  1  0.53025943  0.27101369  0.24295508  1
  F  F2  1  0.72898631  0.25924575  0.24295508  1
  F  F3  1  0.74075425  0.46974057  0.24295508  1
  F  F4  1  0.72898631  0.46974057  0.75704492  1
  F  F5  1  0.74075425  0.27101369  0.75704492  1
  F  F6  1  0.53025943  0.25924575  0.75704492  1
  F  F7  1  0.33333333  0.66666667  0.85245105  1
  F  F8  1  0.33333333  0.66666667  0.14754895  1
  F  F9  1  0.94757046  0.93815667  0.05787290  1
  F  F10  1  0.06184333  0.00941379  0.05787290  1
  F  F11  1  0.99058621  0.05242954  0.05787290  1
  F  F12  1  0.06184333  0.05242954  0.94212710  1
  F  F13  1  0.99058621  0.93815667  0.94212710  1
  F  F14  1  0.94757046  0.00941379  0.94212710  1
  F  F15  1  0.84717266  0.96297936  0.24793656  1
  F  F16  1  0.03702064  0.88419330  0.24793656  1
  F  F17  1  0.11580670  0.15282734  0.24793656  1
  F  F18  1  0.03702064  0.15282734  0.75206344  1
  F  F19  1  0.11580670  0.96297936  0.75206344  1
  F  F20  1  0.84717266  0.88419330  0.75206344  1
  F  F21  1  0.84707660  0.15487396  0.09564590  1
  F  F22  1  0.84512604  0.69220264  0.09564590  1
  F  F23  1  0.30779736  0.15292340  0.09564590  1
  F  F24  1  0.84512604  0.15292340  0.90435410  1
  F  F25  1  0.30779736  0.15487396  0.90435410  1
  F  F26  1  0.84707660  0.69220264  0.90435410  1
  F  F27  1  0.45941285  0.99036747  0.27512630  1
  F  F28  1  0.00963253  0.46904538  0.27512630  1
  F  F29  1  0.53095462  0.54058715  0.27512630  1
  F  F30  1  0.00963253  0.54058715  0.72487370  1
  F  F31  1  0.53095462  0.99036747  0.72487370  1
  F  F32  1  0.45941285  0.46904538  0.72487370  1
  F  F33  1  0.88990267  0.70649076  0.74377938  1
  F  F34  1  0.29350924  0.18341191  0.74377938  1
  F  F35  1  0.81658809  0.11009733  0.74377938  1
  F  F36  1  0.29350924  0.11009733  0.25622062  1
  F  F37  1  0.81658809  0.70649076  0.25622062  1
  F  F38  1  0.88990267  0.18341191  0.25622062  1
  F  F39  1  0.93091058  0.59313088  0.45956477  1
  F  F40  1  0.40686912  0.33777970  0.45956477  1
  F  F41  1  0.66222030  0.06908942  0.45956477  1
  F  F42  1  0.40686912  0.06908942  0.54043523  1
  F  F43  1  0.66222030  0.59313088  0.54043523  1
  F  F44  1  0.93091058  0.33777970  0.54043523  1
  F  F45  1  0.67247522  0.55594552  0.11614516  1
  F  F46  1  0.44405448  0.11652970  0.11614516  1
  F  F47  1  0.88347030  0.32752478  0.11614516  1
  F  F48  1  0.44405448  0.32752478  0.88385484  1
  F  F49  1  0.88347030  0.55594552  0.88385484  1
  F  F50  1  0.67247522  0.11652970  0.88385484  1
  F  F51  1  0.64012193  0.43836629  0.21676293  1
  F  F52  1  0.56163371  0.20175564  0.21676293  1
  F  F53  1  0.79824436  0.35987807  0.21676293  1
  F  F54  1  0.56163371  0.35987807  0.78323707  1
  F  F55  1  0.79824436  0.43836629  0.78323707  1
  F  F56  1  0.64012193  0.20175564  0.78323707  1
  F  F57  1  0.17297402  0.51745387  0.18524781  1
  F  F58  1  0.48254613  0.65552016  0.18524781  1
  F  F59  1  0.34447984  0.82702598  0.18524781  1
  F  F60  1  0.48254613  0.82702598  0.81475219  1
  F  F61  1  0.34447984  0.51745387  0.81475219  1
  F  F62  1  0.17297402  0.65552016  0.81475219  1
  F  F63  1  0.18987557  0.81012443  0.00000000  1
  F  F64  1  0.18987557  0.37975113  0.00000000  1
  F  F65  1  0.62024887  0.81012443  0.00000000  1
  F  F66  1  0.45438521  0.54561479  0.00000000  1
  F  F67  1  0.45438521  0.90877042  0.00000000  1
  F  F68  1  0.09122958  0.54561479  0.00000000  1
  F  F69  1  0.66666667  0.33333333  0.31962797  1
  F  F70  1  0.66666667  0.33333333  0.68037203  1
  Li  Li71  1  0.00000000  0.00000000  0.32850362  1
  Li  Li72  1  0.00000000  0.00000000  0.67149638  1
  Li  Li73  1  0.00000000  0.00000000  0.50000000  1
  Li  Li74  1  0.66666667  0.33333333  0.50000000  1
  Li  Li75  1  0.14711941  0.94635393  0.94353960  1
  Li  Li76  1  -0.94635393  -0.79923453  0.94353960  1
  Li  Li77  1  0.79923453  -0.14711941  0.94353960  1
  Li  Li78  1  -0.94635393  -0.14711941  -0.94353960  1
  Li  Li79  1  0.79923453  0.94635393  -0.94353960  1
  Li  Li80  1  0.14711941  -0.79923453  -0.94353960  1
  Li  Li81  1  0.91468514  0.69903443  0.97267551  1
  Li  Li82  1  0.30096557  0.21565071  0.97267551  1
  Li  Li83  1  0.78434929  0.08531486  0.97267551  1
  Li  Li84  1  0.30096557  0.08531486  0.02732449  1
  Li  Li85  1  0.78434929  0.69903443  0.02732449  1
  Li  Li86  1  0.91468514  0.21565071  0.02732449  1
  Li  Li87  1  0.89464865  0.23570964  0.93066010  1
  Li  Li88  1  0.76429036  0.65893901  0.93066010  1
  Li  Li89  1  0.34106099  0.10535135  0.93066010  1
  Li  Li90  1  0.76429036  0.10535135  0.06933990  1
  Li  Li91  1  0.34106099  0.23570964  0.06933990  1
  Li  Li92  1  0.89464865  0.65893901  0.06933990  1
  Li  Li93  1  0.33333333  0.66666667  0.00000000  1
  Li  Li94  1  0.56371590  0.75348271  0.94191453  1
  Li  Li95  1  0.24651729  0.81023318  0.94191453  1
  Li  Li96  1  0.18976682  0.43628410  0.94191453  1
  Li  Li97  1  0.24651729  0.43628410  0.05808547  1
  Li  Li98  1  0.18976682  0.75348271  0.05808547  1
  Li  Li99  1  0.56371590  0.81023318  0.05808547  1
  Li  Li100  1  0.20208219  0.87256890  0.09500986  1
  Li  Li101  1  0.12743110  0.32951329  0.09500986  1
  Li  Li102  1  0.67048671  0.79791781  0.09500986  1
  Li  Li103  1  0.12743110  0.79791781  0.90499014  1
  Li  Li104  1  0.67048671  0.87256890  0.90499014  1
  Li  Li105  1  0.20208219  0.32951329  0.90499014  1
  Li  Li106  1  0.51609717  0.06420807  0.16021165  1
  Li  Li107  1  0.93579193  0.45188910  0.16021165  1
  Li  Li108  1  0.54811090  0.48390283  0.16021165  1
  Li  Li109  1  0.93579193  0.48390283  0.83978835  1
  Li  Li110  1  0.54811090  0.06420807  0.83978835  1
  Li  Li111  1  0.51609717  0.45188910  0.83978835  1
  Li  Li112  1  0.73160296  0.56958352  0.30536692  1
  Li  Li113  1  0.43041648  0.16201944  0.30536692  1
  Li  Li114  1  0.83798056  0.26839704  0.30536692  1
  Li  Li115  1  0.43041648  0.26839704  0.69463308  1
  Li  Li116  1  0.83798056  0.56958352  0.69463308  1
  Li  Li117  1  0.73160296  0.16201944  0.69463308  1
  Li  Li118  1  0.59687897  0.40312103  0.00000000  1
  Li  Li119  1  0.59687897  0.19375794  0.00000000  1
  Li  Li120  1  0.80624206  0.40312103  0.00000000  1
  Li  Li121  1  0.94497075  0.12342820  0.75600893  1
  Li  Li122  1  0.87657180  0.82154255  0.75600893  1
  Li  Li123  1  0.17845745  0.05502925  0.75600893  1
  Li  Li124  1  0.87657180  0.05502925  0.24399107  1
  Li  Li125  1  0.17845745  0.12342820  0.24399107  1
  Li  Li126  1  0.94497075  0.82154255  0.24399107  1
  Li  Li127  1  0.38604181  0.01549794  0.83204093  1
  Li  Li128  1  0.98450206  0.37054388  0.83204093  1
  Li  Li129  1  0.62945612  0.61395819  0.83204093  1
  Li  Li130  1  0.98450206  0.61395819  0.16795907  1
  Li  Li131  1  0.62945612  0.01549794  0.16795907  1
  Li  Li132  1  0.38604181  0.37054388  0.16795907  1
  Li  Li133  1  0.07782844  0.34977762  0.36976973  1
  Li  Li134  1  0.65022238  0.72805082  0.36976973  1
  Li  Li135  1  0.27194918  0.92217156  0.36976973  1
  Li  Li136  1  0.65022238  0.92217156  0.63023027  1
  Li  Li137  1  0.27194918  0.34977762  0.63023027  1
  Li  Li138  1  0.07782844  0.72805082  0.63023027  1
  Li  Li139  1  0.33333333  0.66666667  0.50000000  1
  Li  Li140  1  0.00000000  0.00000000  0.10758278  1
  Li  Li141  1  0.00000000  0.00000000  0.89241722  1
