# generated using pymatgen
data_LiF
_symmetry_space_group_name_H-M   'P 1'
_cell_length_a   9.22776671
_cell_length_b   9.22776671
_cell_length_c   8.80904891
_cell_angle_alpha   90.00000000
_cell_angle_beta   90.00000000
_cell_angle_gamma   120.00000000
_symmetry_Int_Tables_number   1
_chemical_formula_structural   LiF
_chemical_formula_sum   'Li25 F25'
_cell_volume   649.61024568
_cell_formula_units_Z   25
loop_
 _symmetry_equiv_pos_site_id
 _symmetry_equiv_pos_as_xyz
  1  'x, y, z'
loop_
 _atom_site_type_symbol
 _atom_site_label
 _atom_site_symmetry_multiplicity
 _atom_site_fract_x
 _atom_site_fract_y
 _atom_site_fract_z
 _atom_site_occupancy
  F  F0  1  0.40417433  -0.00000000  0.00000000  1
  F  F1  1  0.00000000  0.40417433  0.00000000  1
  F  F2  1  0.59582567  0.59582567  0.00000000  1
  F  F3  1  0.26427778  0.00000000  0.36198253  1
  F  F4  1  0.00000000  0.26427778  0.36198253  1
  F  F5  1  0.73572222  0.73572222  0.36198253  1
  F  F6  1  0.26427778  0.00000000  0.63801747  1
  F  F7  1  0.00000000  0.26427778  0.63801747  1
  F  F8  1  0.73572222  0.73572222  0.63801747  1
  F  F9  1  0.42355235  0.47265405  0.25763633  1
  F  F10  1  0.52734595  0.95089830  0.25763633  1
  F  F11  1  0.04910170  0.57644765  0.25763633  1
  F  F12  1  0.42355235  0.47265405  0.74236367  1
  F  F13  1  0.52734595  0.95089830  0.74236367  1
  F  F14  1  0.04910170  0.57644765  0.74236367  1
  F  F15  1  0.47265405  0.42355235  0.74236367  1
  F  F16  1  0.95089830  0.52734595  0.74236367  1
  F  F17  1  0.57644765  0.04910170  0.74236367  1
  F  F18  1  0.47265405  0.42355235  0.25763633  1
  F  F19  1  0.95089830  0.52734595  0.25763633  1
  F  F20  1  0.57644765  0.04910170  0.25763633  1
  F  F21  1  0.33333333  0.66666667  0.63755532  1
  F  F22  1  0.33333333  0.66666667  0.36244468  1
  F  F23  1  0.66666667  0.33333333  0.36244468  1
  F  F24  1  0.66666667  0.33333333  0.63755532  1
  Li  Li25  1  0.33333333  0.66666667  0.00000000  1
  Li  Li26  1  0.66666667  0.33333333  0.00000000  1
  Li  Li27  1  0.87820625  0.66635301  0.61474306  1
  Li  Li28  1  -0.66635301  0.21185323  0.61474306  1
  Li  Li29  1  -0.21185323  -0.87820625  0.61474306  1
  Li  Li30  1  0.87820625  0.66635301  -0.61474306  1
  Li  Li31  1  -0.66635301  0.21185323  -0.61474306  1
  Li  Li32  1  -0.21185323  -0.87820625  -0.61474306  1
  Li  Li33  1  0.66635301  0.87820625  -0.61474306  1
  Li  Li34  1  0.21185323  -0.66635301  -0.61474306  1
  Li  Li35  1  -0.87820625  -0.21185323  -0.61474306  1
  Li  Li36  1  0.66635301  0.87820625  0.61474306  1
  Li  Li37  1  0.21185323  -0.66635301  0.61474306  1
  Li  Li38  1  -0.87820625  -0.21185323  0.61474306  1
  Li  Li39  1  0.71601135  -0.00000000  0.00000000  1
  Li  Li40  1  0.00000000  0.71601135  0.00000000  1
  Li  Li41  1  0.28398865  0.28398865  0.00000000  1
  Li  Li42  1  0.00000000  0.00000000  0.81297008  1
  Li  Li43  1  0.00000000  0.00000000  0.18702992  1
  Li  Li44  1  0.23779624  0.00000000  0.00000000  1
  Li  Li45  1  0.00000000  0.23779624  0.00000000  1
  Li  Li46  1  0.76220376  0.76220376  0.00000000  1
  Li  Li47  1  0.00000000  0.00000000  0.50000000  1
  Li  Li48  1  0.33333333  0.66666667  0.50000000  1
  Li  Li49  1  0.66666667  0.33333333  0.50000000  1
