# generated using pymatgen
data_LiYAs2P
_symmetry_space_group_name_H-M   'P 1'
_cell_length_a   5.00950393
_cell_length_b   5.10781901
_cell_length_c   6.82522701
_cell_angle_alpha   94.56300094
_cell_angle_beta   99.38154619
_cell_angle_gamma   107.45624330
_symmetry_Int_Tables_number   1
_chemical_formula_structural   LiYAs2P
_chemical_formula_sum   'Li2 Y2 As4 P2'
_cell_volume   162.83220265
_cell_formula_units_Z   2
loop_
 _symmetry_equiv_pos_site_id
 _symmetry_equiv_pos_as_xyz
  1  'x, y, z'
loop_
 _atom_site_type_symbol
 _atom_site_label
 _atom_site_symmetry_multiplicity
 _atom_site_fract_x
 _atom_site_fract_y
 _atom_site_fract_z
 _atom_site_occupancy
  P  P0  1  0.12500000  0.00000000  0.25000000  1
  P  P1  1  0.00000000  0.00000000  0.00000000  1
  As  As2  1  0.37500000  0.00000000  0.25000000  1
  As  As3  1  0.25000000  0.25000000  0.25000000  1
  As  As4  1  0.00000000  0.25000000  0.12500000  1
  As  As5  1  0.36390126  0.82488627  0.18930560  1
  Li  Li6  1  0.11438971  0.53826038  0.07283213  1
  Li  Li7  1  0.74033664  0.52696377  0.54378514  1
  Y  Y8  1  0.91337688  0.77307688  0.92069393  1
  Y  Y9  1  0.14053175  0.03096133  0.21688405  1
