# generated using pymatgen
data_LiYSbPSe
_symmetry_space_group_name_H-M   'P 1'
_cell_length_a   4.42098099
_cell_length_b   4.62932002
_cell_length_c   6.92151779
_cell_angle_alpha   95.74469641
_cell_angle_beta   102.51075448
_cell_angle_gamma   113.07416230
_symmetry_Int_Tables_number   1
_chemical_formula_structural   LiYSbPSe
_chemical_formula_sum   'Li2 Y2 Sb2 P2 Se2'
_cell_volume   124.50135983
_cell_formula_units_Z   2
loop_
 _symmetry_equiv_pos_site_id
 _symmetry_equiv_pos_as_xyz
  1  'x, y, z'
loop_
 _atom_site_type_symbol
 _atom_site_label
 _atom_site_symmetry_multiplicity
 _atom_site_fract_x
 _atom_site_fract_y
 _atom_site_fract_z
 _atom_site_occupancy
  Y  Y0  1  0.00000000  0.00000000  0.00000000  1
  Y  Y1  1  0.50000000  0.50000000  0.50000000  1
  P  P2  1  0.50000000  0.50000000  0.00000000  1
  P  P3  1  0.50000000  0.00000000  0.50000000  1
  Se  Se4  1  0.00000000  0.50000000  0.50000000  1
  Se  Se5  1  0.14521836  0.74436215  0.67489804  1
  Li  Li6  1  0.92756746  0.53351651  0.10026421  1
  Li  Li7  1  0.63579949  0.47269060  0.51550571  1
  Sb  Sb8  1  0.88558806  0.44057528  0.80232804  1
  Sb  Sb9  1  0.35497047  0.40198669  0.83252895  1
