# generated using pymatgen
data_LiF
_symmetry_space_group_name_H-M   'P 1'
_cell_length_a   4.33119676
_cell_length_b   4.33119676
_cell_length_c   5.94862301
_cell_angle_alpha   90.00000000
_cell_angle_beta   90.00000000
_cell_angle_gamma   120.00000000
_symmetry_Int_Tables_number   1
_chemical_formula_structural   LiF
_chemical_formula_sum   'Li5 F5'
_cell_volume   96.64133164
_cell_formula_units_Z   5
loop_
 _symmetry_equiv_pos_site_id
 _symmetry_equiv_pos_as_xyz
  1  'x, y, z'
loop_
 _atom_site_type_symbol
 _atom_site_label
 _atom_site_symmetry_multiplicity
 _atom_site_fract_x
 _atom_site_fract_y
 _atom_site_fract_z
 _atom_site_occupancy
  F  F0  1  0.54586565  -0.54586565  0.00000000  1
  F  F1  1  0.54586565  1.09173130  -0.00000000  1
  F  F2  1  -1.09173130  -0.54586565  0.00000000  1
  F  F3  1  0.66666667  0.33333333  0.00000000  1
  F  F4  1  0.33333333  0.66666667  0.00000000  1
  Li  Li5  1  0.33333333  0.66666667  0.50000000  1
  Li  Li6  1  0.00000000  0.00000000  0.00000000  1
  Li  Li7  1  0.66666667  0.33333333  0.38276678  1
  Li  Li8  1  0.66666667  0.33333333  0.61723322  1
  Li  Li9  1  0.00000000  0.00000000  0.50000000  1
