# generated using pymatgen
data_Li2Y2As4P2Se
_symmetry_space_group_name_H-M   'P 1'
_cell_length_a   5.35841414
_cell_length_b   5.50007916
_cell_length_c   7.05213134
_cell_angle_alpha   93.98802061
_cell_angle_beta   98.35965023
_cell_angle_gamma   105.50793410
_symmetry_Int_Tables_number   1
_chemical_formula_structural   Li2Y2As4P2Se
_chemical_formula_sum   'Li2 Y2 As4 P2 Se1'
_cell_volume   196.85824315
_cell_formula_units_Z   1
loop_
 _symmetry_equiv_pos_site_id
 _symmetry_equiv_pos_as_xyz
  1  'x, y, z'
loop_
 _atom_site_type_symbol
 _atom_site_label
 _atom_site_symmetry_multiplicity
 _atom_site_fract_x
 _atom_site_fract_y
 _atom_site_fract_z
 _atom_site_occupancy
  Se  Se0  1  0.00000000  0.00000000  0.00000000  1
  P  P1  1  0.50000000  0.50000000  0.50000000  1
  P  P2  1  0.50000000  0.50000000  0.00000000  1
  As  As3  1  0.50000000  0.00000000  0.50000000  1
  As  As4  1  0.00000000  0.50000000  0.50000000  1
  As  As5  1  0.52028284  0.27547322  0.52195860  1
  As  As6  1  0.77889474  0.10119950  0.04960351  1
  Li  Li7  1  0.99280899  0.48436694  0.08071469  1
  Li  Li8  1  0.37683327  0.12088089  0.92390043  1
  Y  Y9  1  0.54574519  0.99583154  0.58500150  1
  Y  Y10  1  0.85046688  0.43065398  0.96715154  1
