# generated using pymatgen
data_Li2CaSeF2
_symmetry_space_group_name_H-M   'P 1'
_cell_length_a   7.15442513
_cell_length_b   7.51135407
_cell_length_c   7.97519158
_cell_angle_alpha   90.00000000
_cell_angle_beta   90.00000000
_cell_angle_gamma   90.00000000
_symmetry_Int_Tables_number   1
_chemical_formula_structural   Li2CaSeF2
_chemical_formula_sum   'Li8 Ca4 Se4 F8'
_cell_volume   428.58217276
_cell_formula_units_Z   4
loop_
 _symmetry_equiv_pos_site_id
 _symmetry_equiv_pos_as_xyz
  1  'x, y, z'
loop_
 _atom_site_type_symbol
 _atom_site_label
 _atom_site_symmetry_multiplicity
 _atom_site_fract_x
 _atom_site_fract_y
 _atom_site_fract_z
 _atom_site_occupancy
  Ca  Ca0  1  0.00000000  0.50000000  0.50000000  1
  Ca  Ca1  1  0.50000000  0.00000000  0.50000000  1
  Ca  Ca2  1  0.00000000  0.50000000  0.00000000  1
  Ca  Ca3  1  0.50000000  0.00000000  -0.00000000  1
  F  F4  1  0.12369107  0.98372723  0.44138151  1
  F  F5  1  -0.12369107  -0.98372723  0.44138151  1
  F  F6  1  0.37630893  1.48372723  -0.44138151  1
  F  F7  1  0.62369107  -0.48372723  -0.44138151  1
  F  F8  1  -0.12369107  -0.98372723  -0.44138151  1
  F  F9  1  0.12369107  0.98372723  -0.44138151  1
  F  F10  1  0.62369107  -0.48372723  0.44138151  1
  F  F11  1  0.37630893  1.48372723  0.44138151  1
  Li  Li12  1  0.80272960  0.58567284  0.31903354  1
  Li  Li13  1  0.19727040  0.41432716  0.31903354  1
  Li  Li14  1  0.69727040  0.08567284  0.68096646  1
  Li  Li15  1  0.30272960  0.91432716  0.68096646  1
  Li  Li16  1  0.19727040  0.41432716  0.68096646  1
  Li  Li17  1  0.80272960  0.58567284  0.68096646  1
  Li  Li18  1  0.30272960  0.91432716  0.31903354  1
  Li  Li19  1  0.69727040  0.08567284  0.31903354  1
  Se  Se20  1  0.73527133  0.60909728  0.50000000  1
  Se  Se21  1  0.26472867  0.39090272  0.50000000  1
  Se  Se22  1  0.76472867  0.10909728  0.50000000  1
  Se  Se23  1  0.23527133  0.89090272  0.50000000  1
