# generated using pymatgen
data_LiCu3Sb2PSe
_symmetry_space_group_name_H-M   'P 1'
_cell_length_a   4.46164188
_cell_length_b   4.57510471
_cell_length_c   5.39505877
_cell_angle_alpha   94.64609391
_cell_angle_beta   94.63693803
_cell_angle_gamma   98.78234997
_symmetry_Int_Tables_number   1
_chemical_formula_structural   LiCu3Sb2PSe
_chemical_formula_sum   'Li1 Cu3 Sb2 P1 Se1'
_cell_volume   107.99096451
_cell_formula_units_Z   1
loop_
 _symmetry_equiv_pos_site_id
 _symmetry_equiv_pos_as_xyz
  1  'x, y, z'
loop_
 _atom_site_type_symbol
 _atom_site_label
 _atom_site_symmetry_multiplicity
 _atom_site_fract_x
 _atom_site_fract_y
 _atom_site_fract_z
 _atom_site_occupancy
  Se  Se0  1  0.00000000  0.00000000  0.00000000  1
  Cu  Cu1  1  0.50000000  0.50000000  0.50000000  1
  Cu  Cu2  1  0.50000000  0.50000000  0.00000000  1
  Cu  Cu3  1  0.50000000  0.00000000  0.50000000  1
  P  P4  1  0.00000000  0.50000000  0.50000000  1
  Li  Li5  1  0.40895907  0.22532207  0.47222020  1
  Sb  Sb6  1  0.23938615  0.94579116  0.58268096  1
  Sb  Sb7  1  0.39882319  0.49143071  0.38058837  1
