# generated using pymatgen
data_Li4TeF2
_symmetry_space_group_name_H-M   'P 1'
_cell_length_a   12.81099543
_cell_length_b   12.81099543
_cell_length_c   12.81099543
_cell_angle_alpha   90.00000000
_cell_angle_beta   90.00000000
_cell_angle_gamma   90.00000000
_symmetry_Int_Tables_number   1
_chemical_formula_structural   Li4TeF2
_chemical_formula_sum   'Li96 Te24 F48'
_cell_volume   2102.56111548
_cell_formula_units_Z   24
loop_
 _symmetry_equiv_pos_site_id
 _symmetry_equiv_pos_as_xyz
  1  'x, y, z'
loop_
 _atom_site_type_symbol
 _atom_site_label
 _atom_site_symmetry_multiplicity
 _atom_site_fract_x
 _atom_site_fract_y
 _atom_site_fract_z
 _atom_site_occupancy
  F  F0  1  0.12500000  0.55176723  0.69823277  1
  F  F1  1  0.37500000  0.44823277  0.19823277  1
  F  F2  1  0.87500000  0.05176723  0.80176723  1
  F  F3  1  0.62500000  0.94823277  0.30176723  1
  F  F4  1  0.69823277  0.12500000  0.55176723  1
  F  F5  1  0.19823277  0.37500000  0.44823277  1
  F  F6  1  0.80176723  0.87500000  0.05176723  1
  F  F7  1  0.30176723  0.62500000  0.94823277  1
  F  F8  1  0.55176723  0.69823277  0.12500000  1
  F  F9  1  0.44823277  0.19823277  0.37500000  1
  F  F10  1  0.05176723  0.80176723  0.87500000  1
  F  F11  1  0.94823277  0.30176723  0.62500000  1
  F  F12  1  0.62500000  0.05176723  0.19823277  1
  F  F13  1  0.87500000  0.94823277  0.69823277  1
  F  F14  1  0.37500000  0.55176723  0.30176723  1
  F  F15  1  0.12500000  0.44823277  0.80176723  1
  F  F16  1  0.19823277  0.62500000  0.05176723  1
  F  F17  1  0.69823277  0.87500000  0.94823277  1
  F  F18  1  0.30176723  0.37500000  0.55176723  1
  F  F19  1  0.80176723  0.12500000  0.44823277  1
  F  F20  1  0.05176723  0.19823277  0.62500000  1
  F  F21  1  0.94823277  0.69823277  0.87500000  1
  F  F22  1  0.55176723  0.30176723  0.37500000  1
  F  F23  1  0.44823277  0.80176723  0.12500000  1
  F  F24  1  0.93095155  0.00000000  0.25000000  1
  F  F25  1  0.56904845  0.00000000  0.75000000  1
  F  F26  1  0.25000000  0.93095155  0.00000000  1
  F  F27  1  0.75000000  0.56904845  -0.00000000  1
  F  F28  1  0.00000000  0.25000000  0.93095155  1
  F  F29  1  0.00000000  0.75000000  0.56904845  1
  F  F30  1  0.75000000  0.18095155  0.00000000  1
  F  F31  1  0.75000000  0.81904845  0.50000000  1
  F  F32  1  0.68095155  0.50000000  0.25000000  1
  F  F33  1  0.31904845  0.00000000  0.25000000  1
  F  F34  1  0.00000000  0.25000000  0.31904845  1
  F  F35  1  0.50000000  0.25000000  0.68095155  1
  F  F36  1  0.43095155  0.50000000  0.75000000  1
  F  F37  1  0.06904845  0.50000000  0.25000000  1
  F  F38  1  0.75000000  0.43095155  0.50000000  1
  F  F39  1  0.25000000  0.06904845  0.50000000  1
  F  F40  1  0.50000000  0.75000000  0.43095155  1
  F  F41  1  0.50000000  0.25000000  0.06904845  1
  F  F42  1  0.25000000  0.68095155  0.50000000  1
  F  F43  1  0.25000000  0.31904845  0.00000000  1
  F  F44  1  0.18095155  -0.00000000  0.75000000  1
  F  F45  1  0.81904845  0.50000000  0.75000000  1
  F  F46  1  0.50000000  0.75000000  0.81904845  1
  F  F47  1  0.00000000  0.75000000  0.18095155  1
  Li  Li48  1  0.81794866  0.52336517  0.60169530  1
  Li  Li49  1  -0.31794866  -0.52336517  1.10169530  1
  Li  Li50  1  -0.81794866  1.02336517  -0.10169530  1
  Li  Li51  1  1.31794866  -0.02336517  -0.60169530  1
  Li  Li52  1  0.60169530  0.81794866  0.52336517  1
  Li  Li53  1  1.10169530  -0.31794866  -0.52336517  1
  Li  Li54  1  -0.10169530  -0.81794866  1.02336517  1
  Li  Li55  1  -0.60169530  1.31794866  -0.02336517  1
  Li  Li56  1  0.52336517  0.60169530  0.81794866  1
  Li  Li57  1  -0.52336517  1.10169530  -0.31794866  1
  Li  Li58  1  1.02336517  -0.10169530  -0.81794866  1
  Li  Li59  1  -0.02336517  -0.60169530  1.31794866  1
  Li  Li60  1  1.27336517  1.06794866  -0.35169530  1
  Li  Li61  1  0.22663483  -0.06794866  0.14830470  1
  Li  Li62  1  0.77336517  -0.56794866  1.35169530  1
  Li  Li63  1  -0.27336517  1.56794866  0.85169530  1
  Li  Li64  1  1.56794866  0.85169530  -0.27336517  1
  Li  Li65  1  -0.56794866  1.35169530  0.77336517  1
  Li  Li66  1  -0.06794866  0.14830470  0.22663483  1
  Li  Li67  1  1.06794866  -0.35169530  1.27336517  1
  Li  Li68  1  1.35169530  0.77336517  -0.56794866  1
  Li  Li69  1  0.85169530  -0.27336517  1.56794866  1
  Li  Li70  1  -0.35169530  1.27336517  1.06794866  1
  Li  Li71  1  0.14830470  0.22663483  -0.06794866  1
  Li  Li72  1  1.31794866  1.02336517  1.10169530  1
  Li  Li73  1  0.18205134  -0.02336517  1.60169530  1
  Li  Li74  1  -0.31794866  1.52336517  0.39830470  1
  Li  Li75  1  1.81794866  0.47663483  -0.10169530  1
  Li  Li76  1  1.10169530  1.31794866  1.02336517  1
  Li  Li77  1  1.60169530  0.18205134  -0.02336517  1
  Li  Li78  1  0.39830470  -0.31794866  1.52336517  1
  Li  Li79  1  -0.10169530  1.81794866  0.47663483  1
  Li  Li80  1  1.02336517  1.10169530  1.31794866  1
  Li  Li81  1  -0.02336517  1.60169530  0.18205134  1
  Li  Li82  1  1.52336517  0.39830470  -0.31794866  1
  Li  Li83  1  0.47663483  -0.10169530  1.81794866  1
  Li  Li84  1  1.77336517  1.56794866  0.14830470  1
  Li  Li85  1  0.72663483  0.43205134  0.64830470  1
  Li  Li86  1  1.27336517  -0.06794866  1.85169530  1
  Li  Li87  1  0.22663483  2.06794866  1.35169530  1
  Li  Li88  1  2.06794866  1.35169530  0.22663483  1
  Li  Li89  1  -0.06794866  1.85169530  1.27336517  1
  Li  Li90  1  0.43205134  0.64830470  0.72663483  1
  Li  Li91  1  1.56794866  0.14830470  1.77336517  1
  Li  Li92  1  1.85169530  1.27336517  -0.06794866  1
  Li  Li93  1  1.35169530  0.22663483  2.06794866  1
  Li  Li94  1  0.14830470  1.77336517  1.56794866  1
  Li  Li95  1  0.64830470  0.72663483  0.43205134  1
  Li  Li96  1  0.49710974  0.65597528  0.47773071  1
  Li  Li97  1  0.00289026  0.34402472  0.97773071  1
  Li  Li98  1  0.50289026  0.15597528  0.02226929  1
  Li  Li99  1  0.99710974  0.84402472  0.52226929  1
  Li  Li100  1  0.47773071  0.49710974  0.65597528  1
  Li  Li101  1  0.97773071  0.00289026  0.34402472  1
  Li  Li102  1  0.02226929  0.50289026  0.15597528  1
  Li  Li103  1  0.52226929  0.99710974  0.84402472  1
  Li  Li104  1  0.65597528  0.47773071  0.49710974  1
  Li  Li105  1  0.34402472  0.97773071  0.00289026  1
  Li  Li106  1  0.15597528  0.02226929  0.50289026  1
  Li  Li107  1  0.84402472  0.52226929  0.99710974  1
  Li  Li108  1  0.40597528  0.74710974  0.77226929  1
  Li  Li109  1  0.09402472  0.25289026  0.27226929  1
  Li  Li110  1  0.90597528  0.75289026  0.22773071  1
  Li  Li111  1  0.59402472  0.24710974  0.72773071  1
  Li  Li112  1  0.24710974  0.72773071  0.59402472  1
  Li  Li113  1  0.75289026  0.22773071  0.90597528  1
  Li  Li114  1  0.25289026  0.27226929  0.09402472  1
  Li  Li115  1  0.74710974  0.77226929  0.40597528  1
  Li  Li116  1  0.22773071  0.90597528  0.75289026  1
  Li  Li117  1  0.72773071  0.59402472  0.24710974  1
  Li  Li118  1  0.77226929  0.40597528  0.74710974  1
  Li  Li119  1  0.27226929  0.09402472  0.25289026  1
  Li  Li120  1  0.99710974  0.15597528  0.97773071  1
  Li  Li121  1  0.50289026  0.84402472  0.47773071  1
  Li  Li122  1  0.00289026  0.65597528  0.52226929  1
  Li  Li123  1  0.49710974  0.34402472  0.02226929  1
  Li  Li124  1  0.97773071  0.99710974  0.15597528  1
  Li  Li125  1  0.47773071  0.50289026  0.84402472  1
  Li  Li126  1  0.52226929  0.00289026  0.65597528  1
  Li  Li127  1  0.02226929  0.49710974  0.34402472  1
  Li  Li128  1  0.15597528  0.97773071  0.99710974  1
  Li  Li129  1  0.84402472  0.47773071  0.50289026  1
  Li  Li130  1  0.65597528  0.52226929  0.00289026  1
  Li  Li131  1  0.34402472  0.02226929  0.49710974  1
  Li  Li132  1  0.90597528  0.24710974  0.27226929  1
  Li  Li133  1  0.59402472  0.75289026  0.77226929  1
  Li  Li134  1  0.40597528  0.25289026  0.72773071  1
  Li  Li135  1  0.09402472  0.74710974  0.22773071  1
  Li  Li136  1  0.74710974  0.22773071  0.09402472  1
  Li  Li137  1  0.25289026  0.72773071  0.40597528  1
  Li  Li138  1  0.75289026  0.77226929  0.59402472  1
  Li  Li139  1  0.24710974  0.27226929  0.90597528  1
  Li  Li140  1  0.72773071  0.40597528  0.25289026  1
  Li  Li141  1  0.22773071  0.09402472  0.74710974  1
  Li  Li142  1  0.27226929  0.90597528  0.24710974  1
  Li  Li143  1  0.77226929  0.59402472  0.75289026  1
  Te  Te144  1  0.12500000  0.15204320  0.40204320  1
  Te  Te145  1  0.37500000  0.84795680  0.90204320  1
  Te  Te146  1  0.87500000  0.65204320  0.09795680  1
  Te  Te147  1  0.62500000  0.34795680  0.59795680  1
  Te  Te148  1  0.40204320  0.12500000  0.15204320  1
  Te  Te149  1  0.90204320  0.37500000  0.84795680  1
  Te  Te150  1  0.09795680  0.87500000  0.65204320  1
  Te  Te151  1  0.59795680  0.62500000  0.34795680  1
  Te  Te152  1  0.15204320  0.40204320  0.12500000  1
  Te  Te153  1  0.84795680  0.90204320  0.37500000  1
  Te  Te154  1  0.65204320  0.09795680  0.87500000  1
  Te  Te155  1  0.34795680  0.59795680  0.62500000  1
  Te  Te156  1  0.62500000  0.65204320  0.90204320  1
  Te  Te157  1  0.87500000  0.34795680  0.40204320  1
  Te  Te158  1  0.37500000  0.15204320  0.59795680  1
  Te  Te159  1  0.12500000  0.84795680  0.09795680  1
  Te  Te160  1  0.90204320  0.62500000  0.65204320  1
  Te  Te161  1  0.40204320  0.87500000  0.34795680  1
  Te  Te162  1  0.59795680  0.37500000  0.15204320  1
  Te  Te163  1  0.09795680  0.12500000  0.84795680  1
  Te  Te164  1  0.65204320  0.90204320  0.62500000  1
  Te  Te165  1  0.34795680  0.40204320  0.87500000  1
  Te  Te166  1  0.15204320  0.59795680  0.37500000  1
  Te  Te167  1  0.84795680  0.09795680  0.12500000  1
