# generated using pymatgen
data_LiCaF3
_symmetry_space_group_name_H-M   'P 1'
_cell_length_a   10.49907927
_cell_length_b   10.49907927
_cell_length_c   13.87123586
_cell_angle_alpha   90.00000000
_cell_angle_beta   90.00000000
_cell_angle_gamma   120.00000000
_symmetry_Int_Tables_number   1
_chemical_formula_structural   LiCaF3
_chemical_formula_sum   'Li18 Ca18 F54'
_cell_volume   1324.18363836
_cell_formula_units_Z   18
loop_
 _symmetry_equiv_pos_site_id
 _symmetry_equiv_pos_as_xyz
  1  'x, y, z'
loop_
 _atom_site_type_symbol
 _atom_site_label
 _atom_site_symmetry_multiplicity
 _atom_site_fract_x
 _atom_site_fract_y
 _atom_site_fract_z
 _atom_site_occupancy
  Ca  Ca0  1  0.50000000  0.00000000  -0.00000000  1
  Ca  Ca1  1  0.00000000  0.50000000  0.00000000  1
  Ca  Ca2  1  0.50000000  0.50000000  0.00000000  1
  Ca  Ca3  1  0.00000000  0.50000000  0.50000000  1
  Ca  Ca4  1  0.50000000  0.00000000  0.50000000  1
  Ca  Ca5  1  0.50000000  0.50000000  0.50000000  1
  Ca  Ca6  1  0.16666667  0.33333333  0.33333333  1
  Ca  Ca7  1  0.66666667  0.83333333  0.33333333  1
  Ca  Ca8  1  0.16666667  0.83333333  0.33333333  1
  Ca  Ca9  1  0.66666667  0.83333333  0.83333333  1
  Ca  Ca10  1  0.16666667  0.33333333  0.83333333  1
  Ca  Ca11  1  0.16666667  0.83333333  0.83333333  1
  Ca  Ca12  1  0.83333333  0.66666667  0.66666667  1
  Ca  Ca13  1  0.33333333  0.16666667  0.66666667  1
  Ca  Ca14  1  0.83333333  0.16666667  0.66666667  1
  Ca  Ca15  1  0.33333333  0.16666667  0.16666667  1
  Ca  Ca16  1  0.83333333  0.66666667  0.16666667  1
  Ca  Ca17  1  0.83333333  0.16666667  0.16666667  1
  F  F18  1  0.71716416  0.03562087  0.00616974  1
  F  F19  1  -0.03562087  0.68154329  0.00616974  1
  F  F20  1  -0.68154329  -0.71716416  0.00616974  1
  F  F21  1  0.03562087  0.71716416  0.49383026  1
  F  F22  1  0.68154329  -0.03562087  0.49383026  1
  F  F23  1  -0.71716416  -0.68154329  0.49383026  1
  F  F24  1  -0.71716416  -0.03562087  -0.00616974  1
  F  F25  1  0.03562087  -0.68154329  -0.00616974  1
  F  F26  1  0.68154329  0.71716416  -0.00616974  1
  F  F27  1  -0.03562087  -0.71716416  0.50616974  1
  F  F28  1  -0.68154329  0.03562087  0.50616974  1
  F  F29  1  0.71716416  0.68154329  0.50616974  1
  F  F30  1  1.38383083  0.36895420  0.33950308  1
  F  F31  1  0.63104580  1.01487663  0.33950308  1
  F  F32  1  -0.01487663  -0.38383083  0.33950308  1
  F  F33  1  0.70228754  1.05049750  0.82716359  1
  F  F34  1  1.34820996  0.29771246  0.82716359  1
  F  F35  1  -0.05049750  -0.34820996  0.82716359  1
  F  F36  1  -0.05049750  0.29771246  0.32716359  1
  F  F37  1  0.70228754  -0.34820996  0.32716359  1
  F  F38  1  1.34820996  1.05049750  0.32716359  1
  F  F39  1  0.63104580  -0.38383083  0.83950308  1
  F  F40  1  -0.01487663  0.36895420  0.83950308  1
  F  F41  1  1.38383083  1.01487663  0.83950308  1
  F  F42  1  1.05049750  0.70228754  0.67283641  1
  F  F43  1  0.29771246  1.34820996  0.67283641  1
  F  F44  1  -0.34820996  -0.05049750  0.67283641  1
  F  F45  1  0.36895420  1.38383083  1.16049692  1
  F  F46  1  1.01487663  0.63104580  1.16049692  1
  F  F47  1  -0.38383083  -0.01487663  1.16049692  1
  F  F48  1  -0.38383083  0.63104580  0.66049692  1
  F  F49  1  0.36895420  -0.01487663  0.66049692  1
  F  F50  1  1.01487663  1.38383083  0.66049692  1
  F  F51  1  0.29771246  -0.05049750  1.17283641  1
  F  F52  1  -0.34820996  0.70228754  1.17283641  1
  F  F53  1  1.05049750  1.34820996  1.17283641  1
  F  F54  1  0.93849981  0.00000000  0.25000000  1
  F  F55  1  0.00000000  0.93849981  0.25000000  1
  F  F56  1  0.06150019  0.06150019  0.25000000  1
  F  F57  1  0.06150019  0.00000000  0.75000000  1
  F  F58  1  0.00000000  0.06150019  0.75000000  1
  F  F59  1  0.93849981  0.93849981  0.75000000  1
  F  F60  1  0.60516648  0.33333333  0.58333333  1
  F  F61  1  0.66666667  0.27183314  0.58333333  1
  F  F62  1  0.72816686  0.39483352  0.58333333  1
  F  F63  1  0.72816686  0.33333333  0.08333333  1
  F  F64  1  0.66666667  0.39483352  0.08333333  1
  F  F65  1  0.60516648  0.27183314  0.08333333  1
  F  F66  1  0.27183314  0.66666667  0.91666667  1
  F  F67  1  0.33333333  0.60516648  0.91666667  1
  F  F68  1  0.39483352  0.72816686  0.91666667  1
  F  F69  1  0.39483352  0.66666667  0.41666667  1
  F  F70  1  0.33333333  0.72816686  0.41666667  1
  F  F71  1  0.27183314  0.60516648  0.41666667  1
  Li  Li72  1  0.00000000  0.00000000  0.00000000  1
  Li  Li73  1  0.00000000  0.00000000  0.50000000  1
  Li  Li74  1  0.66666667  0.33333333  0.33333333  1
  Li  Li75  1  0.66666667  0.33333333  0.83333333  1
  Li  Li76  1  0.33333333  0.66666667  0.66666667  1
  Li  Li77  1  0.33333333  0.66666667  0.16666667  1
  Li  Li78  1  0.00000000  0.00000000  0.35024283  1
  Li  Li79  1  0.00000000  0.00000000  0.14975717  1
  Li  Li80  1  0.00000000  0.00000000  0.64975717  1
  Li  Li81  1  0.00000000  0.00000000  0.85024283  1
  Li  Li82  1  0.66666667  0.33333333  0.68357616  1
  Li  Li83  1  0.66666667  0.33333333  0.48309050  1
  Li  Li84  1  0.66666667  0.33333333  0.98309050  1
  Li  Li85  1  0.66666667  0.33333333  0.18357616  1
  Li  Li86  1  0.33333333  0.66666667  0.01690950  1
  Li  Li87  1  0.33333333  0.66666667  0.81642384  1
  Li  Li88  1  0.33333333  0.66666667  0.31642384  1
  Li  Li89  1  0.33333333  0.66666667  0.51690950  1
