# generated using pymatgen
data_LiF
_symmetry_space_group_name_H-M   'P 1'
_cell_length_a   14.83290560
_cell_length_b   14.83290560
_cell_length_c   4.39291705
_cell_angle_alpha   90.00000000
_cell_angle_beta   90.00000000
_cell_angle_gamma   90.00000000
_symmetry_Int_Tables_number   1
_chemical_formula_structural   LiF
_chemical_formula_sum   'Li37 F37'
_cell_volume   966.50803378
_cell_formula_units_Z   37
loop_
 _symmetry_equiv_pos_site_id
 _symmetry_equiv_pos_as_xyz
  1  'x, y, z'
loop_
 _atom_site_type_symbol
 _atom_site_label
 _atom_site_symmetry_multiplicity
 _atom_site_fract_x
 _atom_site_fract_y
 _atom_site_fract_z
 _atom_site_occupancy
  F  F0  1  0.17119066  0.44505845  0.15311113  1
  F  F1  1  -0.17119066  -0.44505845  0.15311113  1
  F  F2  1  -0.44505845  0.17119066  0.15311113  1
  F  F3  1  0.44505845  -0.17119066  0.15311113  1
  F  F4  1  -0.17119066  0.44505845  -0.15311113  1
  F  F5  1  0.17119066  -0.44505845  -0.15311113  1
  F  F6  1  0.44505845  0.17119066  -0.15311113  1
  F  F7  1  -0.44505845  -0.17119066  -0.15311113  1
  F  F8  1  -0.17119066  -0.44505845  -0.15311113  1
  F  F9  1  0.17119066  0.44505845  -0.15311113  1
  F  F10  1  0.44505845  -0.17119066  -0.15311113  1
  F  F11  1  -0.44505845  0.17119066  -0.15311113  1
  F  F12  1  0.17119066  -0.44505845  0.15311113  1
  F  F13  1  -0.17119066  0.44505845  0.15311113  1
  F  F14  1  -0.44505845  -0.17119066  0.15311113  1
  F  F15  1  0.44505845  0.17119066  0.15311113  1
  F  F16  1  0.81678573  0.31472140  0.50000000  1
  F  F17  1  0.18321427  0.68527860  0.50000000  1
  F  F18  1  0.68527860  0.81678573  0.50000000  1
  F  F19  1  0.31472140  0.18321427  0.50000000  1
  F  F20  1  0.18321427  0.31472140  0.50000000  1
  F  F21  1  0.81678573  0.68527860  0.50000000  1
  F  F22  1  0.31472140  0.81678573  0.50000000  1
  F  F23  1  0.68527860  0.18321427  0.50000000  1
  F  F24  1  0.17777128  0.35700792  0.50000000  1
  F  F25  1  0.82222872  0.64299208  0.50000000  1
  F  F26  1  0.64299208  0.17777128  0.50000000  1
  F  F27  1  0.35700792  0.82222872  0.50000000  1
  F  F28  1  0.82222872  0.35700792  0.50000000  1
  F  F29  1  0.17777128  0.64299208  0.50000000  1
  F  F30  1  0.35700792  0.17777128  0.50000000  1
  F  F31  1  0.64299208  0.82222872  0.50000000  1
  F  F32  1  0.62153985  0.62153985  0.00000000  1
  F  F33  1  0.37846015  0.37846015  0.00000000  1
  F  F34  1  0.37846015  0.62153985  0.00000000  1
  F  F35  1  0.62153985  0.37846015  0.00000000  1
  F  F36  1  0.00000000  0.00000000  0.00000000  1
  Li  Li37  1  0.94622143  0.94622143  0.00000000  1
  Li  Li38  1  0.05377857  0.05377857  0.00000000  1
  Li  Li39  1  0.05377857  0.94622143  0.00000000  1
  Li  Li40  1  0.94622143  0.05377857  0.00000000  1
  Li  Li41  1  0.67862380  0.87512455  0.00000000  1
  Li  Li42  1  0.32137620  0.12487545  0.00000000  1
  Li  Li43  1  0.12487545  0.67862380  -0.00000000  1
  Li  Li44  1  0.87512455  0.32137620  0.00000000  1
  Li  Li45  1  0.32137620  0.87512455  0.00000000  1
  Li  Li46  1  0.67862380  0.12487545  0.00000000  1
  Li  Li47  1  0.87512455  0.67862380  0.00000000  1
  Li  Li48  1  0.12487545  0.32137620  0.00000000  1
  Li  Li49  1  0.62588760  0.62588760  0.50000000  1
  Li  Li50  1  0.37411240  0.37411240  0.50000000  1
  Li  Li51  1  0.37411240  0.62588760  0.50000000  1
  Li  Li52  1  0.62588760  0.37411240  0.50000000  1
  Li  Li53  1  0.31921368  0.50000000  0.34174193  1
  Li  Li54  1  0.68078632  0.50000000  0.34174193  1
  Li  Li55  1  0.50000000  0.31921368  0.34174193  1
  Li  Li56  1  0.50000000  0.68078632  0.34174193  1
  Li  Li57  1  0.68078632  0.50000000  0.65825807  1
  Li  Li58  1  0.31921368  0.50000000  0.65825807  1
  Li  Li59  1  0.50000000  0.31921368  0.65825807  1
  Li  Li60  1  0.50000000  0.68078632  0.65825807  1
  Li  Li61  1  0.68003336  0.00000000  0.50000000  1
  Li  Li62  1  0.31996664  0.00000000  0.50000000  1
  Li  Li63  1  0.00000000  0.68003336  0.50000000  1
  Li  Li64  1  0.00000000  0.31996664  0.50000000  1
  Li  Li65  1  0.06025174  0.06025174  0.50000000  1
  Li  Li66  1  0.93974826  0.93974826  0.50000000  1
  Li  Li67  1  0.93974826  0.06025174  0.50000000  1
  Li  Li68  1  0.06025174  0.93974826  0.50000000  1
  Li  Li69  1  0.30858531  0.30858531  0.00000000  1
  Li  Li70  1  0.69141469  0.69141469  0.00000000  1
  Li  Li71  1  0.69141469  0.30858531  0.00000000  1
  Li  Li72  1  0.30858531  0.69141469  0.00000000  1
  Li  Li73  1  0.50000000  0.50000000  0.00000000  1
