# generated using pymatgen
data_LiF
_symmetry_space_group_name_H-M   'P 1'
_cell_length_a   15.80372577
_cell_length_b   15.80372577
_cell_length_c   5.50185255
_cell_angle_alpha   90.00000000
_cell_angle_beta   90.00000000
_cell_angle_gamma   120.00000000
_symmetry_Int_Tables_number   1
_chemical_formula_structural   LiF
_chemical_formula_sum   'Li42 F42'
_cell_volume   1190.03175082
_cell_formula_units_Z   42
loop_
 _symmetry_equiv_pos_site_id
 _symmetry_equiv_pos_as_xyz
  1  'x, y, z'
loop_
 _atom_site_type_symbol
 _atom_site_label
 _atom_site_symmetry_multiplicity
 _atom_site_fract_x
 _atom_site_fract_y
 _atom_site_fract_z
 _atom_site_occupancy
  F  F0  1  0.00000000  0.00000000  0.00000000  1
  F  F1  1  0.00000000  0.00000000  0.50000000  1
  F  F2  1  0.66666667  0.33333333  0.33333333  1
  F  F3  1  0.66666667  0.33333333  0.83333333  1
  F  F4  1  0.33333333  0.66666667  0.66666667  1
  F  F5  1  0.33333333  0.66666667  0.16666667  1
  F  F6  1  0.60965791  0.12508752  0.36939248  1
  F  F7  1  -0.12508752  0.48457039  0.36939248  1
  F  F8  1  -0.48457039  -0.60965791  0.36939248  1
  F  F9  1  0.12508752  0.60965791  0.13060752  1
  F  F10  1  0.48457039  -0.12508752  0.13060752  1
  F  F11  1  -0.60965791  -0.48457039  0.13060752  1
  F  F12  1  -0.60965791  -0.12508752  -0.36939248  1
  F  F13  1  0.12508752  -0.48457039  -0.36939248  1
  F  F14  1  0.48457039  0.60965791  -0.36939248  1
  F  F15  1  -0.12508752  -0.60965791  0.86939248  1
  F  F16  1  -0.48457039  0.12508752  0.86939248  1
  F  F17  1  0.60965791  0.48457039  0.86939248  1
  F  F18  1  1.27632457  0.45842085  0.70272581  1
  F  F19  1  0.54157915  0.81790373  0.70272581  1
  F  F20  1  0.18209627  -0.27632457  0.70272581  1
  F  F21  1  0.79175418  0.94299124  0.46394085  1
  F  F22  1  1.15123706  0.20824582  0.46394085  1
  F  F23  1  0.05700876  -0.15123706  0.46394085  1
  F  F24  1  0.05700876  0.20824582  -0.03605915  1
  F  F25  1  0.79175418  -0.15123706  -0.03605915  1
  F  F26  1  1.15123706  0.94299124  -0.03605915  1
  F  F27  1  0.54157915  -0.27632457  1.20272581  1
  F  F28  1  0.18209627  0.45842085  1.20272581  1
  F  F29  1  1.27632457  0.81790373  1.20272581  1
  F  F30  1  0.94299124  0.79175418  1.03605915  1
  F  F31  1  0.20824582  1.15123706  1.03605915  1
  F  F32  1  -0.15123706  0.05700876  1.03605915  1
  F  F33  1  0.45842085  1.27632457  0.79727419  1
  F  F34  1  0.81790373  0.54157915  0.79727419  1
  F  F35  1  -0.27632457  0.18209627  0.79727419  1
  F  F36  1  -0.27632457  0.54157915  0.29727419  1
  F  F37  1  0.45842085  0.18209627  0.29727419  1
  F  F38  1  0.81790373  1.27632457  0.29727419  1
  F  F39  1  0.20824582  0.05700876  1.53605915  1
  F  F40  1  -0.15123706  0.79175418  1.53605915  1
  F  F41  1  0.94299124  1.15123706  1.53605915  1
  Li  Li42  1  0.14566709  -0.00000000  0.25000000  1
  Li  Li43  1  0.00000000  0.14566709  0.25000000  1
  Li  Li44  1  0.85433291  0.85433291  0.25000000  1
  Li  Li45  1  0.85433291  -0.00000000  0.75000000  1
  Li  Li46  1  0.00000000  0.85433291  0.75000000  1
  Li  Li47  1  0.14566709  0.14566709  0.75000000  1
  Li  Li48  1  0.81233376  0.33333333  0.58333333  1
  Li  Li49  1  0.66666667  0.47900043  0.58333333  1
  Li  Li50  1  0.52099957  0.18766624  0.58333333  1
  Li  Li51  1  0.52099957  0.33333333  0.08333333  1
  Li  Li52  1  0.66666667  0.18766624  0.08333333  1
  Li  Li53  1  0.81233376  0.47900043  0.08333333  1
  Li  Li54  1  0.47900043  0.66666667  0.91666667  1
  Li  Li55  1  0.33333333  0.81233376  0.91666667  1
  Li  Li56  1  0.18766624  0.52099957  0.91666667  1
  Li  Li57  1  0.18766624  0.66666667  0.41666667  1
  Li  Li58  1  0.33333333  0.52099957  0.41666667  1
  Li  Li59  1  0.47900043  0.81233376  0.41666667  1
  Li  Li60  1  0.74038525  0.00000000  0.25000000  1
  Li  Li61  1  0.00000000  0.74038525  0.25000000  1
  Li  Li62  1  0.25961475  0.25961475  0.25000000  1
  Li  Li63  1  0.25961475  -0.00000000  0.75000000  1
  Li  Li64  1  0.00000000  0.25961475  0.75000000  1
  Li  Li65  1  0.74038525  0.74038525  0.75000000  1
  Li  Li66  1  0.40705191  0.33333333  0.58333333  1
  Li  Li67  1  0.66666667  0.07371858  0.58333333  1
  Li  Li68  1  0.92628142  0.59294809  0.58333333  1
  Li  Li69  1  0.92628142  0.33333333  0.08333333  1
  Li  Li70  1  0.66666667  0.59294809  0.08333333  1
  Li  Li71  1  0.40705191  0.07371858  0.08333333  1
  Li  Li72  1  0.07371858  0.66666667  0.91666667  1
  Li  Li73  1  0.33333333  0.40705191  0.91666667  1
  Li  Li74  1  0.59294809  0.92628142  0.91666667  1
  Li  Li75  1  0.59294809  0.66666667  0.41666667  1
  Li  Li76  1  0.33333333  0.92628142  0.41666667  1
  Li  Li77  1  0.07371858  0.40705191  0.41666667  1
  Li  Li78  1  0.00000000  0.00000000  0.25000000  1
  Li  Li79  1  0.00000000  0.00000000  0.75000000  1
  Li  Li80  1  0.66666667  0.33333333  0.58333333  1
  Li  Li81  1  0.66666667  0.33333333  0.08333333  1
  Li  Li82  1  0.33333333  0.66666667  0.91666667  1
  Li  Li83  1  0.33333333  0.66666667  0.41666667  1
