# generated using pymatgen
data_LiY2MoP3Se
_symmetry_space_group_name_H-M   'P 1'
_cell_length_a   5.10426389
_cell_length_b   5.30203943
_cell_length_c   7.05337748
_cell_angle_alpha   94.44270258
_cell_angle_beta   98.88925407
_cell_angle_gamma   106.61186979
_symmetry_Int_Tables_number   1
_chemical_formula_structural   LiY2MoP3Se
_chemical_formula_sum   'Li1 Y2 Mo1 P3 Se1'
_cell_volume   179.22382960
_cell_formula_units_Z   1
loop_
 _symmetry_equiv_pos_site_id
 _symmetry_equiv_pos_as_xyz
  1  'x, y, z'
loop_
 _atom_site_type_symbol
 _atom_site_label
 _atom_site_symmetry_multiplicity
 _atom_site_fract_x
 _atom_site_fract_y
 _atom_site_fract_z
 _atom_site_occupancy
  Se  Se0  1  0.00000000  0.00000000  0.00000000  1
  P  P1  1  0.50000000  0.50000000  0.50000000  1
  P  P2  1  0.25000000  0.25000000  0.25000000  1
  P  P3  1  0.75000000  0.25000000  0.00000000  1
  Mo  Mo4  1  0.25000000  0.75000000  0.50000000  1
  Li  Li5  1  0.82227907  0.32013511  0.16306992  1
  Y  Y6  1  0.16196016  0.83371284  0.29331432  1
  Y  Y7  1  0.65806215  0.91417666  0.25545206  1
