# generated using pymatgen
data_LiF
_symmetry_space_group_name_H-M   'P 1'
_cell_length_a   14.30291394
_cell_length_b   14.30291394
_cell_length_c   8.64434691
_cell_angle_alpha   90.00000000
_cell_angle_beta   90.00000000
_cell_angle_gamma   120.00000000
_symmetry_Int_Tables_number   1
_chemical_formula_structural   LiF
_chemical_formula_sum   'Li48 F48'
_cell_volume   1531.48190495
_cell_formula_units_Z   48
loop_
 _symmetry_equiv_pos_site_id
 _symmetry_equiv_pos_as_xyz
  1  'x, y, z'
loop_
 _atom_site_type_symbol
 _atom_site_label
 _atom_site_symmetry_multiplicity
 _atom_site_fract_x
 _atom_site_fract_y
 _atom_site_fract_z
 _atom_site_occupancy
  F  F0  1  0.20703901  0.90047740  0.49651978  1
  F  F1  1  -0.90047740  -0.69343838  0.49651978  1
  F  F2  1  0.69343838  -0.20703901  0.49651978  1
  F  F3  1  -0.20703901  -0.90047740  0.99651978  1
  F  F4  1  0.90047740  0.69343838  0.99651978  1
  F  F5  1  -0.69343838  0.20703901  0.99651978  1
  F  F6  1  -0.20703901  -0.90047740  -0.49651978  1
  F  F7  1  0.90047740  0.69343838  -0.49651978  1
  F  F8  1  -0.69343838  0.20703901  -0.49651978  1
  F  F9  1  0.20703901  0.90047740  0.00348022  1
  F  F10  1  -0.90047740  -0.69343838  0.00348022  1
  F  F11  1  0.69343838  -0.20703901  0.00348022  1
  F  F12  1  0.80899315  0.95500069  0.44093551  1
  F  F13  1  0.04499931  0.85399246  0.44093551  1
  F  F14  1  0.14600754  0.19100685  0.44093551  1
  F  F15  1  0.19100685  0.04499931  0.94093551  1
  F  F16  1  0.95500069  0.14600754  0.94093551  1
  F  F17  1  0.85399246  0.80899315  0.94093551  1
  F  F18  1  0.19100685  0.04499931  0.55906449  1
  F  F19  1  0.95500069  0.14600754  0.55906449  1
  F  F20  1  0.85399246  0.80899315  0.55906449  1
  F  F21  1  0.80899315  0.95500069  0.05906449  1
  F  F22  1  0.04499931  0.85399246  0.05906449  1
  F  F23  1  0.14600754  0.19100685  0.05906449  1
  F  F24  1  0.00000000  0.00000000  0.04362112  1
  F  F25  1  0.00000000  0.00000000  0.54362112  1
  F  F26  1  0.00000000  0.00000000  0.95637888  1
  F  F27  1  0.00000000  0.00000000  0.45637888  1
  F  F28  1  0.68248241  0.08280347  0.98615251  1
  F  F29  1  0.91719653  0.59967894  0.98615251  1
  F  F30  1  0.40032106  0.31751759  0.98615251  1
  F  F31  1  0.31751759  0.91719653  0.48615251  1
  F  F32  1  0.08280347  0.40032106  0.48615251  1
  F  F33  1  0.59967894  0.68248241  0.48615251  1
  F  F34  1  0.31751759  0.91719653  0.01384749  1
  F  F35  1  0.08280347  0.40032106  0.01384749  1
  F  F36  1  0.59967894  0.68248241  0.01384749  1
  F  F37  1  0.68248241  0.08280347  0.51384749  1
  F  F38  1  0.91719653  0.59967894  0.51384749  1
  F  F39  1  0.40032106  0.31751759  0.51384749  1
  F  F40  1  0.53169511  0.36884613  0.25000000  1
  F  F41  1  0.63115387  0.16284898  0.25000000  1
  F  F42  1  0.83715102  0.46830489  0.25000000  1
  F  F43  1  0.46830489  0.63115387  0.75000000  1
  F  F44  1  0.36884613  0.83715102  0.75000000  1
  F  F45  1  0.16284898  0.53169511  0.75000000  1
  F  F46  1  0.00000000  0.00000000  0.25000000  1
  F  F47  1  0.00000000  0.00000000  0.75000000  1
  Li  Li48  1  0.11404638  0.77939573  0.13079570  1
  Li  Li49  1  0.22060427  0.33465065  0.13079570  1
  Li  Li50  1  0.66534935  0.88595362  0.13079570  1
  Li  Li51  1  0.88595362  0.22060427  0.63079570  1
  Li  Li52  1  0.77939573  0.66534935  0.63079570  1
  Li  Li53  1  0.33465065  0.11404638  0.63079570  1
  Li  Li54  1  0.88595362  0.22060427  0.86920430  1
  Li  Li55  1  0.77939573  0.66534935  0.86920430  1
  Li  Li56  1  0.33465065  0.11404638  0.86920430  1
  Li  Li57  1  0.11404638  0.77939573  0.36920430  1
  Li  Li58  1  0.22060427  0.33465065  0.36920430  1
  Li  Li59  1  0.66534935  0.88595362  0.36920430  1
  Li  Li60  1  0.33333333  0.66666667  0.45263683  1
  Li  Li61  1  0.66666667  0.33333333  0.95263683  1
  Li  Li62  1  0.66666667  0.33333333  0.54736317  1
  Li  Li63  1  0.33333333  0.66666667  0.04736317  1
  Li  Li64  1  0.63637094  0.61654631  0.56127521  1
  Li  Li65  1  0.38345369  0.01982463  0.56127521  1
  Li  Li66  1  0.98017537  0.36362906  0.56127521  1
  Li  Li67  1  0.36362906  0.38345369  0.06127521  1
  Li  Li68  1  0.61654631  0.98017537  0.06127521  1
  Li  Li69  1  0.01982463  0.63637094  0.06127521  1
  Li  Li70  1  0.36362906  0.38345369  0.43872479  1
  Li  Li71  1  0.61654631  0.98017537  0.43872479  1
  Li  Li72  1  0.01982463  0.63637094  0.43872479  1
  Li  Li73  1  0.63637094  0.61654631  0.93872479  1
  Li  Li74  1  0.38345369  0.01982463  0.93872479  1
  Li  Li75  1  0.98017537  0.36362906  0.93872479  1
  Li  Li76  1  0.22837609  0.51198503  0.46751795  1
  Li  Li77  1  0.48801497  0.71639106  0.46751795  1
  Li  Li78  1  0.28360894  0.77162391  0.46751795  1
  Li  Li79  1  0.77162391  0.48801497  0.96751795  1
  Li  Li80  1  0.51198503  0.28360894  0.96751795  1
  Li  Li81  1  0.71639106  0.22837609  0.96751795  1
  Li  Li82  1  0.77162391  0.48801497  0.53248205  1
  Li  Li83  1  0.51198503  0.28360894  0.53248205  1
  Li  Li84  1  0.71639106  0.22837609  0.53248205  1
  Li  Li85  1  0.22837609  0.51198503  0.03248205  1
  Li  Li86  1  0.48801497  0.71639106  0.03248205  1
  Li  Li87  1  0.28360894  0.77162391  0.03248205  1
  Li  Li88  1  0.50000000  0.00000000  -0.00000000  1
  Li  Li89  1  0.00000000  0.50000000  -0.00000000  1
  Li  Li90  1  0.50000000  0.50000000  -0.00000000  1
  Li  Li91  1  0.50000000  0.00000000  0.50000000  1
  Li  Li92  1  0.00000000  0.50000000  0.50000000  1
  Li  Li93  1  0.50000000  0.50000000  0.50000000  1
  Li  Li94  1  0.33333333  0.66666667  0.25000000  1
  Li  Li95  1  0.66666667  0.33333333  0.75000000  1
