# generated using pymatgen
data_Li2Y2P3Se2
_symmetry_space_group_name_H-M   'P 1'
_cell_length_a   3.83670709
_cell_length_b   4.13825109
_cell_length_c   6.63707251
_cell_angle_alpha   96.82302185
_cell_angle_beta   104.45022032
_cell_angle_gamma   115.41823194
_symmetry_Int_Tables_number   1
_chemical_formula_structural   Li2Y2P3Se2
_chemical_formula_sum   'Li2 Y2 P3 Se2'
_cell_volume   89.03921786
_cell_formula_units_Z   1
loop_
 _symmetry_equiv_pos_site_id
 _symmetry_equiv_pos_as_xyz
  1  'x, y, z'
loop_
 _atom_site_type_symbol
 _atom_site_label
 _atom_site_symmetry_multiplicity
 _atom_site_fract_x
 _atom_site_fract_y
 _atom_site_fract_z
 _atom_site_occupancy
  Y  Y0  1  0.12500000  0.00000000  0.25000000  1
  Y  Y1  1  0.00000000  0.00000000  0.00000000  1
  P  P2  1  0.37500000  0.00000000  0.25000000  1
  P  P3  1  0.25000000  0.25000000  0.25000000  1
  P  P4  1  0.00000000  0.25000000  0.12500000  1
  Se  Se5  1  0.12306064  0.49961688  0.06478120  1
  Se  Se6  1  0.16272108  0.50748546  0.74169049  1
  Li  Li7  1  0.11329216  0.47743777  0.10429352  1
  Li  Li8  1  0.19498032  0.82595057  0.20990588  1
