# generated using pymatgen
data_Li2YAs(P2Pb)2
_symmetry_space_group_name_H-M   'P 1'
_cell_length_a   4.78283770
_cell_length_b   4.88841040
_cell_length_c   7.16858059
_cell_angle_alpha   96.27274138
_cell_angle_beta   102.94966318
_cell_angle_gamma   111.73957105
_symmetry_Int_Tables_number   1
_chemical_formula_structural   Li2YAs(P2Pb)2
_chemical_formula_sum   'Li2 Y1 As1 P4 Pb2'
_cell_volume   148.26329244
_cell_formula_units_Z   1
loop_
 _symmetry_equiv_pos_site_id
 _symmetry_equiv_pos_as_xyz
  1  'x, y, z'
loop_
 _atom_site_type_symbol
 _atom_site_label
 _atom_site_symmetry_multiplicity
 _atom_site_fract_x
 _atom_site_fract_y
 _atom_site_fract_z
 _atom_site_occupancy
  P  P0  1  0.12500000  0.00000000  0.25000000  1
  P  P1  1  0.00000000  0.00000000  0.00000000  1
  P  P2  1  0.37500000  0.00000000  0.25000000  1
  P  P3  1  0.25000000  0.25000000  0.25000000  1
  Pb  Pb4  1  0.00000000  0.25000000  0.12500000  1
  Pb  Pb5  1  0.44162304  0.75513909  0.88728635  1
  As  As6  1  0.92352580  0.97945714  0.81576825  1
  Li  Li7  1  0.96366463  0.26049417  0.21039765  1
  Li  Li8  1  0.70380077  0.15999138  0.12603707  1
  Y  Y9  1  0.54603558  0.86550468  0.25989796  1
