# generated using pymatgen
data_Li2Y2As2P3Se
_symmetry_space_group_name_H-M   'P 1'
_cell_length_a   5.33233415
_cell_length_b   5.34233962
_cell_length_c   7.35057851
_cell_angle_alpha   94.22887131
_cell_angle_beta   99.20960255
_cell_angle_gamma   106.98569533
_symmetry_Int_Tables_number   1
_chemical_formula_structural   Li2Y2As2P3Se
_chemical_formula_sum   'Li2 Y2 As2 P3 Se1'
_cell_volume   196.06424981
_cell_formula_units_Z   1
loop_
 _symmetry_equiv_pos_site_id
 _symmetry_equiv_pos_as_xyz
  1  'x, y, z'
loop_
 _atom_site_type_symbol
 _atom_site_label
 _atom_site_symmetry_multiplicity
 _atom_site_fract_x
 _atom_site_fract_y
 _atom_site_fract_z
 _atom_site_occupancy
  Se  Se0  1  0.00000000  0.00000000  0.00000000  1
  P  P1  1  0.50000000  0.50000000  0.50000000  1
  P  P2  1  0.50000000  0.50000000  0.00000000  1
  P  P3  1  0.50000000  0.00000000  0.50000000  1
  As  As4  1  0.00000000  0.50000000  0.50000000  1
  As  As5  1  0.30493298  0.11065071  0.30835494  1
  Li  Li6  1  0.86616808  0.24775962  0.04994216  1
  Li  Li7  1  0.94925644  0.90386980  0.22685203  1
  Y  Y8  1  0.90336786  0.02197698  0.65431928  1
  Y  Y9  1  0.33097969  0.20708676  0.47931561  1
