# generated using pymatgen
data_Li2P3Se
_symmetry_space_group_name_H-M   'P 1'
_cell_length_a   5.44225448
_cell_length_b   5.78677313
_cell_length_c   7.21464142
_cell_angle_alpha   93.61614242
_cell_angle_beta   98.09703240
_cell_angle_gamma   104.79244910
_symmetry_Int_Tables_number   1
_chemical_formula_structural   Li2P3Se
_chemical_formula_sum   'Li2 P3 Se1'
_cell_volume   216.32377364
_cell_formula_units_Z   1
loop_
 _symmetry_equiv_pos_site_id
 _symmetry_equiv_pos_as_xyz
  1  'x, y, z'
loop_
 _atom_site_type_symbol
 _atom_site_label
 _atom_site_symmetry_multiplicity
 _atom_site_fract_x
 _atom_site_fract_y
 _atom_site_fract_z
 _atom_site_occupancy
  Se  Se0  1  0.12500000  0.00000000  0.25000000  1
  P  P1  1  0.00000000  0.00000000  0.00000000  1
  P  P2  1  0.37500000  0.00000000  0.25000000  1
  P  P3  1  0.25000000  0.25000000  0.25000000  1
  Li  Li4  1  0.00000000  0.25000000  0.12500000  1
  Li  Li5  1  0.90450221  0.78424952  0.60879542  1
