# generated using pymatgen
data_Li2Y2P3Se
_symmetry_space_group_name_H-M   'P 1'
_cell_length_a   4.87058477
_cell_length_b   5.09998081
_cell_length_c   6.89939230
_cell_angle_alpha   94.47709129
_cell_angle_beta   100.01287979
_cell_angle_gamma   108.29989848
_symmetry_Int_Tables_number   1
_chemical_formula_structural   Li2Y2P3Se
_chemical_formula_sum   'Li2 Y2 P3 Se1'
_cell_volume   158.61345655
_cell_formula_units_Z   1
loop_
 _symmetry_equiv_pos_site_id
 _symmetry_equiv_pos_as_xyz
  1  'x, y, z'
loop_
 _atom_site_type_symbol
 _atom_site_label
 _atom_site_symmetry_multiplicity
 _atom_site_fract_x
 _atom_site_fract_y
 _atom_site_fract_z
 _atom_site_occupancy
  Se  Se0  1  0.12500000  0.12500000  0.12500000  1
  P  P1  1  0.50000000  0.50000000  0.50000000  1
  P  P2  1  0.25000000  0.25000000  0.25000000  1
  P  P3  1  0.75000000  0.75000000  0.75000000  1
  Li  Li4  1  0.68929243  0.09389242  0.22964517  1
  Li  Li5  1  0.46673839  0.81418431  0.38150924  1
  Y  Y6  1  0.37013379  0.13735409  0.48411674  1
  Y  Y7  1  0.25197290  0.68296638  0.66907167  1
