# generated using pymatgen
data_LiF
_symmetry_space_group_name_H-M   'P 1'
_cell_length_a   15.28546279
_cell_length_b   15.28546279
_cell_length_c   3.74079402
_cell_angle_alpha   90.00000000
_cell_angle_beta   90.00000000
_cell_angle_gamma   120.00000000
_symmetry_Int_Tables_number   1
_chemical_formula_structural   LiF
_chemical_formula_sum   'Li26 F26'
_cell_volume   756.92284067
_cell_formula_units_Z   26
loop_
 _symmetry_equiv_pos_site_id
 _symmetry_equiv_pos_as_xyz
  1  'x, y, z'
loop_
 _atom_site_type_symbol
 _atom_site_label
 _atom_site_symmetry_multiplicity
 _atom_site_fract_x
 _atom_site_fract_y
 _atom_site_fract_z
 _atom_site_occupancy
  F  F0  1  0.96357926  0.13230042  0.93297594  1
  F  F1  1  0.86769958  0.83127884  0.93297594  1
  F  F2  1  0.16872116  0.03642074  0.93297594  1
  F  F3  1  0.86769958  0.03642074  0.06702406  1
  F  F4  1  0.16872116  0.13230042  0.06702406  1
  F  F5  1  0.96357926  0.83127884  0.06702406  1
  F  F6  1  0.21652404  0.34736236  0.67707158  1
  F  F7  1  0.65263764  0.86916168  0.67707158  1
  F  F8  1  0.13083832  0.78347596  0.67707158  1
  F  F9  1  0.65263764  0.78347596  0.32292842  1
  F  F10  1  0.13083832  0.34736236  0.32292842  1
  F  F11  1  0.21652404  0.86916168  0.32292842  1
  F  F12  1  0.85943338  0.33174148  0.63507402  1
  F  F13  1  0.66825852  0.52769190  0.63507402  1
  F  F14  1  0.47230810  0.14056662  0.63507402  1
  F  F15  1  0.66825852  0.14056662  0.36492598  1
  F  F16  1  0.47230810  0.33174148  0.36492598  1
  F  F17  1  0.85943338  0.52769190  0.36492598  1
  F  F18  1  0.00000000  0.00000000  0.50000000  1
  F  F19  1  0.44747576  0.68260777  0.37358331  1
  F  F20  1  0.31739223  0.76486799  0.37358331  1
  F  F21  1  0.23513201  0.55252424  0.37358331  1
  F  F22  1  0.31739223  0.55252424  0.62641669  1
  F  F23  1  0.23513201  0.68260777  0.62641669  1
  F  F24  1  0.44747576  0.76486799  0.62641669  1
  F  F25  1  0.33333333  0.66666667  0.50000000  1
  Li  Li26  1  0.19099924  0.80900076  0.50000000  1
  Li  Li27  1  0.19099924  0.38199849  0.50000000  1
  Li  Li28  1  0.61800151  0.80900076  0.50000000  1
  Li  Li29  1  0.07883887  0.32211853  0.58446451  1
  Li  Li30  1  -0.32211853  -0.24327966  0.58446451  1
  Li  Li31  1  0.24327966  -0.07883887  0.58446451  1
  Li  Li32  1  -0.32211853  -0.07883887  -0.58446451  1
  Li  Li33  1  0.24327966  0.32211853  -0.58446451  1
  Li  Li34  1  0.07883887  -0.24327966  -0.58446451  1
  Li  Li35  1  0.49019386  0.64796799  0.37079218  1
  Li  Li36  1  0.35203201  0.84222587  0.37079218  1
  Li  Li37  1  0.15777413  0.50980614  0.37079218  1
  Li  Li38  1  0.35203201  0.50980614  0.62920782  1
  Li  Li39  1  0.15777413  0.64796799  0.62920782  1
  Li  Li40  1  0.49019386  0.84222587  0.62920782  1
  Li  Li41  1  0.00000000  0.00000000  0.17269332  1
  Li  Li42  1  0.00000000  0.00000000  0.82730668  1
  Li  Li43  1  0.66666667  0.33333333  0.50000000  1
  Li  Li44  1  0.80200801  0.96256012  0.68748438  1
  Li  Li45  1  0.03743988  0.83944789  0.68748438  1
  Li  Li46  1  0.16055211  0.19799199  0.68748438  1
  Li  Li47  1  0.03743988  0.19799199  0.31251562  1
  Li  Li48  1  0.16055211  0.96256012  0.31251562  1
  Li  Li49  1  0.80200801  0.83944789  0.31251562  1
  Li  Li50  1  0.33333333  0.66666667  0.18248373  1
  Li  Li51  1  0.33333333  0.66666667  0.81751627  1
