# generated using pymatgen
data_LiF
_symmetry_space_group_name_H-M   'P 1'
_cell_length_a   7.42555935
_cell_length_b   4.84136082
_cell_length_c   9.60782679
_cell_angle_alpha   90.00000000
_cell_angle_beta   90.00000000
_cell_angle_gamma   90.00000000
_symmetry_Int_Tables_number   1
_chemical_formula_structural   LiF
_chemical_formula_sum   'Li20 F20'
_cell_volume   345.39956766
_cell_formula_units_Z   20
loop_
 _symmetry_equiv_pos_site_id
 _symmetry_equiv_pos_as_xyz
  1  'x, y, z'
loop_
 _atom_site_type_symbol
 _atom_site_label
 _atom_site_symmetry_multiplicity
 _atom_site_fract_x
 _atom_site_fract_y
 _atom_site_fract_z
 _atom_site_occupancy
  F  F0  1  0.00000000  0.00000000  0.00000000  1
  F  F1  1  0.50000000  0.50000000  0.00000000  1
  F  F2  1  0.47934220  0.81811691  0.16514016  1
  F  F3  1  -0.47934220  -0.81811691  0.16514016  1
  F  F4  1  0.02065780  1.31811691  -0.16514016  1
  F  F5  1  0.97934220  -0.31811691  -0.16514016  1
  F  F6  1  -0.47934220  -0.81811691  -0.16514016  1
  F  F7  1  0.47934220  0.81811691  -0.16514016  1
  F  F8  1  0.97934220  -0.31811691  0.16514016  1
  F  F9  1  0.02065780  1.31811691  0.16514016  1
  F  F10  1  0.00000000  0.00000000  0.08062799  1
  F  F11  1  0.50000000  0.50000000  0.91937201  1
  F  F12  1  0.00000000  0.00000000  0.91937201  1
  F  F13  1  0.50000000  0.50000000  0.08062799  1
  F  F14  1  0.00000000  0.50000000  0.74491435  1
  F  F15  1  0.50000000  0.00000000  0.25508565  1
  F  F16  1  0.00000000  0.50000000  0.25508565  1
  F  F17  1  0.50000000  0.00000000  0.74491435  1
  F  F18  1  0.00000000  0.50000000  0.00000000  1
  F  F19  1  0.50000000  0.00000000  0.00000000  1
  Li  Li20  1  0.54430817  0.80993074  0.38787159  1
  Li  Li21  1  0.45569183  0.19006926  0.38787159  1
  Li  Li22  1  0.95569183  0.30993074  0.61212841  1
  Li  Li23  1  0.04430817  0.69006926  0.61212841  1
  Li  Li24  1  0.45569183  0.19006926  0.61212841  1
  Li  Li25  1  0.54430817  0.80993074  0.61212841  1
  Li  Li26  1  0.04430817  0.69006926  0.38787159  1
  Li  Li27  1  0.95569183  0.30993074  0.38787159  1
  Li  Li28  1  0.22086856  0.32603852  0.50000000  1
  Li  Li29  1  0.77913144  0.67396148  0.50000000  1
  Li  Li30  1  0.27913144  0.82603852  0.50000000  1
  Li  Li31  1  0.72086856  0.17396148  0.50000000  1
  Li  Li32  1  0.37724098  0.03590263  0.89487397  1
  Li  Li33  1  0.62275902  0.96409737  0.89487397  1
  Li  Li34  1  0.12275902  0.53590263  0.10512603  1
  Li  Li35  1  0.87724098  0.46409737  0.10512603  1
  Li  Li36  1  0.62275902  0.96409737  0.10512603  1
  Li  Li37  1  0.37724098  0.03590263  0.10512603  1
  Li  Li38  1  0.87724098  0.46409737  0.89487397  1
  Li  Li39  1  0.12275902  0.53590263  0.89487397  1
