# generated using pymatgen
data_Li2YAs2P2Se
_symmetry_space_group_name_H-M   'P 1'
_cell_length_a   4.98400449
_cell_length_b   5.09902724
_cell_length_c   6.88171400
_cell_angle_alpha   94.90958055
_cell_angle_beta   99.81060168
_cell_angle_gamma   107.68749538
_symmetry_Int_Tables_number   1
_chemical_formula_structural   Li2YAs2P2Se
_chemical_formula_sum   'Li2 Y1 As2 P2 Se1'
_cell_volume   162.41819106
_cell_formula_units_Z   1
loop_
 _symmetry_equiv_pos_site_id
 _symmetry_equiv_pos_as_xyz
  1  'x, y, z'
loop_
 _atom_site_type_symbol
 _atom_site_label
 _atom_site_symmetry_multiplicity
 _atom_site_fract_x
 _atom_site_fract_y
 _atom_site_fract_z
 _atom_site_occupancy
  Se  Se0  1  0.12500000  0.00000000  0.25000000  1
  P  P1  1  0.00000000  0.00000000  0.00000000  1
  P  P2  1  0.37500000  0.00000000  0.25000000  1
  As  As3  1  0.25000000  0.25000000  0.25000000  1
  As  As4  1  0.00000000  0.25000000  0.12500000  1
  Li  Li5  1  0.54012560  0.02292363  0.42209293  1
  Li  Li6  1  0.89458818  0.10662579  0.69452743  1
  Y  Y7  1  0.40190991  0.98590909  0.10020166  1
