# generated using pymatgen
data_LiSb2As4P2Se
_symmetry_space_group_name_H-M   'P 1'
_cell_length_a   5.13618017
_cell_length_b   5.17684316
_cell_length_c   6.94286348
_cell_angle_alpha   94.40811732
_cell_angle_beta   99.05289023
_cell_angle_gamma   106.84770026
_symmetry_Int_Tables_number   1
_chemical_formula_structural   LiSb2As4P2Se
_chemical_formula_sum   'Li1 Sb2 As4 P2 Se1'
_cell_volume   173.01000449
_cell_formula_units_Z   1
loop_
 _symmetry_equiv_pos_site_id
 _symmetry_equiv_pos_as_xyz
  1  'x, y, z'
loop_
 _atom_site_type_symbol
 _atom_site_label
 _atom_site_symmetry_multiplicity
 _atom_site_fract_x
 _atom_site_fract_y
 _atom_site_fract_z
 _atom_site_occupancy
  Se  Se0  1  0.12500000  0.00000000  0.25000000  1
  P  P1  1  0.00000000  0.00000000  0.00000000  1
  P  P2  1  0.37500000  0.00000000  0.25000000  1
  As  As3  1  0.25000000  0.25000000  0.25000000  1
  As  As4  1  0.00000000  0.25000000  0.12500000  1
  As  As5  1  0.09627684  0.70646901  0.80098633  1
  As  As6  1  0.95539584  0.70647381  0.95560147  1
  Li  Li7  1  0.53288131  0.16679426  0.00660439  1
  Sb  Sb8  1  0.38078588  0.76426517  0.62165390  1
  Sb  Sb9  1  0.58965687  0.21936054  0.81999496  1
