# generated using pymatgen
data_Li4TeF2
_symmetry_space_group_name_H-M   'P 1'
_cell_length_a   16.25357276
_cell_length_b   16.25357276
_cell_length_c   8.34184531
_cell_angle_alpha   90.00000000
_cell_angle_beta   90.00000000
_cell_angle_gamma   90.00000000
_symmetry_Int_Tables_number   1
_chemical_formula_structural   Li4TeF2
_chemical_formula_sum   'Li96 Te24 F48'
_cell_volume   2203.73724271
_cell_formula_units_Z   24
loop_
 _symmetry_equiv_pos_site_id
 _symmetry_equiv_pos_as_xyz
  1  'x, y, z'
loop_
 _atom_site_type_symbol
 _atom_site_label
 _atom_site_symmetry_multiplicity
 _atom_site_fract_x
 _atom_site_fract_y
 _atom_site_fract_z
 _atom_site_occupancy
  F  F0  1  0.93187688  0.19120686  0.85230238  1
  F  F1  1  -0.93187688  -0.19120686  0.85230238  1
  F  F2  1  -0.19120686  0.93187688  0.85230238  1
  F  F3  1  0.19120686  -0.93187688  0.85230238  1
  F  F4  1  -0.93187688  0.19120686  -0.85230238  1
  F  F5  1  0.93187688  -0.19120686  -0.85230238  1
  F  F6  1  0.19120686  0.93187688  -0.85230238  1
  F  F7  1  -0.19120686  -0.93187688  -0.85230238  1
  F  F8  1  -0.93187688  -0.19120686  -0.85230238  1
  F  F9  1  0.93187688  0.19120686  -0.85230238  1
  F  F10  1  0.19120686  -0.93187688  -0.85230238  1
  F  F11  1  -0.19120686  0.93187688  -0.85230238  1
  F  F12  1  0.93187688  -0.19120686  0.85230238  1
  F  F13  1  -0.93187688  0.19120686  0.85230238  1
  F  F14  1  -0.19120686  -0.93187688  0.85230238  1
  F  F15  1  0.19120686  0.93187688  0.85230238  1
  F  F16  1  0.08601591  0.53648134  0.05217376  1
  F  F17  1  0.91398409  0.46351866  0.05217376  1
  F  F18  1  0.46351866  0.08601591  0.05217376  1
  F  F19  1  0.53648134  0.91398409  0.05217376  1
  F  F20  1  0.91398409  0.53648134  0.94782624  1
  F  F21  1  0.08601591  0.46351866  0.94782624  1
  F  F22  1  0.53648134  0.08601591  0.94782624  1
  F  F23  1  0.46351866  0.91398409  0.94782624  1
  F  F24  1  0.91398409  0.46351866  0.94782624  1
  F  F25  1  0.08601591  0.53648134  0.94782624  1
  F  F26  1  0.53648134  0.91398409  0.94782624  1
  F  F27  1  0.46351866  0.08601591  0.94782624  1
  F  F28  1  0.08601591  0.46351866  0.05217376  1
  F  F29  1  0.91398409  0.53648134  0.05217376  1
  F  F30  1  0.46351866  0.91398409  0.05217376  1
  F  F31  1  0.53648134  0.08601591  0.05217376  1
  F  F32  1  0.82959330  0.50000000  -0.00000000  1
  F  F33  1  0.17040670  0.50000000  -0.00000000  1
  F  F34  1  0.50000000  0.82959330  -0.00000000  1
  F  F35  1  0.50000000  0.17040670  -0.00000000  1
  F  F36  1  0.50000000  0.50000000  0.63915457  1
  F  F37  1  0.50000000  0.50000000  0.36084543  1
  F  F38  1  0.84187967  0.50000000  0.50000000  1
  F  F39  1  0.15812033  0.50000000  0.50000000  1
  F  F40  1  0.50000000  0.84187967  0.50000000  1
  F  F41  1  0.50000000  0.15812033  0.50000000  1
  F  F42  1  0.94201827  -0.00000000  -0.00000000  1
  F  F43  1  0.05798173  0.00000000  -0.00000000  1
  F  F44  1  0.00000000  0.94201827  -0.00000000  1
  F  F45  1  0.00000000  0.05798173  0.00000000  1
  F  F46  1  0.50000000  0.50000000  0.07294737  1
  F  F47  1  0.50000000  0.50000000  0.92705263  1
  Li  Li48  1  0.24804515  0.17155912  0.67592079  1
  Li  Li49  1  0.75195485  0.82844088  0.67592079  1
  Li  Li50  1  0.82844088  0.24804515  0.67592079  1
  Li  Li51  1  0.17155912  0.75195485  0.67592079  1
  Li  Li52  1  0.75195485  0.17155912  0.32407921  1
  Li  Li53  1  0.24804515  0.82844088  0.32407921  1
  Li  Li54  1  0.17155912  0.24804515  0.32407921  1
  Li  Li55  1  0.82844088  0.75195485  0.32407921  1
  Li  Li56  1  0.75195485  0.82844088  0.32407921  1
  Li  Li57  1  0.24804515  0.17155912  0.32407921  1
  Li  Li58  1  0.17155912  0.75195485  0.32407921  1
  Li  Li59  1  0.82844088  0.24804515  0.32407921  1
  Li  Li60  1  0.24804515  0.82844088  0.67592079  1
  Li  Li61  1  0.75195485  0.17155912  0.67592079  1
  Li  Li62  1  0.82844088  0.75195485  0.67592079  1
  Li  Li63  1  0.17155912  0.24804515  0.67592079  1
  Li  Li64  1  0.78480580  0.27449592  0.09237368  1
  Li  Li65  1  0.21519420  0.72550408  0.09237368  1
  Li  Li66  1  0.72550408  0.78480580  0.09237368  1
  Li  Li67  1  0.27449592  0.21519420  0.09237368  1
  Li  Li68  1  0.21519420  0.27449592  0.90762632  1
  Li  Li69  1  0.78480580  0.72550408  0.90762632  1
  Li  Li70  1  0.27449592  0.78480580  0.90762632  1
  Li  Li71  1  0.72550408  0.21519420  0.90762632  1
  Li  Li72  1  0.21519420  0.72550408  0.90762632  1
  Li  Li73  1  0.78480580  0.27449592  0.90762632  1
  Li  Li74  1  0.27449592  0.21519420  0.90762632  1
  Li  Li75  1  0.72550408  0.78480580  0.90762632  1
  Li  Li76  1  0.78480580  0.72550408  0.09237368  1
  Li  Li77  1  0.21519420  0.27449592  0.09237368  1
  Li  Li78  1  0.72550408  0.21519420  0.09237368  1
  Li  Li79  1  0.27449592  0.78480580  0.09237368  1
  Li  Li80  1  0.61646698  0.05365241  0.50000000  1
  Li  Li81  1  0.38353302  0.94634759  0.50000000  1
  Li  Li82  1  0.94634759  0.61646698  0.50000000  1
  Li  Li83  1  0.05365241  0.38353302  0.50000000  1
  Li  Li84  1  0.38353302  0.05365241  0.50000000  1
  Li  Li85  1  0.61646698  0.94634759  0.50000000  1
  Li  Li86  1  0.05365241  0.61646698  0.50000000  1
  Li  Li87  1  0.94634759  0.38353302  0.50000000  1
  Li  Li88  1  0.92171221  0.73897700  -0.00000000  1
  Li  Li89  1  0.07828779  0.26102300  -0.00000000  1
  Li  Li90  1  0.26102300  0.92171221  -0.00000000  1
  Li  Li91  1  0.73897700  0.07828779  -0.00000000  1
  Li  Li92  1  0.07828779  0.73897700  -0.00000000  1
  Li  Li93  1  0.92171221  0.26102300  -0.00000000  1
  Li  Li94  1  0.73897700  0.92171221  -0.00000000  1
  Li  Li95  1  0.26102300  0.07828779  -0.00000000  1
  Li  Li96  1  0.71854593  0.54850116  0.26977034  1
  Li  Li97  1  0.28145407  0.45149884  0.26977034  1
  Li  Li98  1  0.45149884  0.71854593  0.26977034  1
  Li  Li99  1  0.54850116  0.28145407  0.26977034  1
  Li  Li100  1  0.28145407  0.54850116  0.73022966  1
  Li  Li101  1  0.71854593  0.45149884  0.73022966  1
  Li  Li102  1  0.54850116  0.71854593  0.73022966  1
  Li  Li103  1  0.45149884  0.28145407  0.73022966  1
  Li  Li104  1  0.28145407  0.45149884  0.73022966  1
  Li  Li105  1  0.71854593  0.54850116  0.73022966  1
  Li  Li106  1  0.54850116  0.28145407  0.73022966  1
  Li  Li107  1  0.45149884  0.71854593  0.73022966  1
  Li  Li108  1  0.71854593  0.45149884  0.26977034  1
  Li  Li109  1  0.28145407  0.54850116  0.26977034  1
  Li  Li110  1  0.45149884  0.28145407  0.26977034  1
  Li  Li111  1  0.54850116  0.71854593  0.26977034  1
  Li  Li112  1  0.38218853  0.19558632  0.50000000  1
  Li  Li113  1  0.61781147  0.80441368  0.50000000  1
  Li  Li114  1  0.80441368  0.38218853  0.50000000  1
  Li  Li115  1  0.19558632  0.61781147  0.50000000  1
  Li  Li116  1  0.61781147  0.19558632  0.50000000  1
  Li  Li117  1  0.38218853  0.80441368  0.50000000  1
  Li  Li118  1  0.19558632  0.38218853  0.50000000  1
  Li  Li119  1  0.80441368  0.61781147  0.50000000  1
  Li  Li120  1  0.25947741  0.25947741  0.24589308  1
  Li  Li121  1  0.74052259  0.74052259  0.24589308  1
  Li  Li122  1  0.74052259  0.25947741  0.24589308  1
  Li  Li123  1  0.25947741  0.74052259  0.24589308  1
  Li  Li124  1  0.74052259  0.25947741  0.75410692  1
  Li  Li125  1  0.25947741  0.74052259  0.75410692  1
  Li  Li126  1  0.25947741  0.25947741  0.75410692  1
  Li  Li127  1  0.74052259  0.74052259  0.75410692  1
  Li  Li128  1  0.42044287  0.06620712  0.74183455  1
  Li  Li129  1  0.57955713  0.93379288  0.74183455  1
  Li  Li130  1  0.93379288  0.42044287  0.74183455  1
  Li  Li131  1  0.06620712  0.57955713  0.74183455  1
  Li  Li132  1  0.57955713  0.06620712  0.25816545  1
  Li  Li133  1  0.42044287  0.93379288  0.25816545  1
  Li  Li134  1  0.06620712  0.42044287  0.25816545  1
  Li  Li135  1  0.93379288  0.57955713  0.25816545  1
  Li  Li136  1  0.57955713  0.93379288  0.25816545  1
  Li  Li137  1  0.42044287  0.06620712  0.25816545  1
  Li  Li138  1  0.06620712  0.57955713  0.25816545  1
  Li  Li139  1  0.93379288  0.42044287  0.25816545  1
  Li  Li140  1  0.42044287  0.93379288  0.74183455  1
  Li  Li141  1  0.57955713  0.06620712  0.74183455  1
  Li  Li142  1  0.93379288  0.57955713  0.74183455  1
  Li  Li143  1  0.06620712  0.42044287  0.74183455  1
  Te  Te144  1  0.24565748  0.24565748  0.50000000  1
  Te  Te145  1  0.75434252  0.75434252  0.50000000  1
  Te  Te146  1  0.75434252  0.24565748  0.50000000  1
  Te  Te147  1  0.24565748  0.75434252  0.50000000  1
  Te  Te148  1  0.72195967  0.85056249  0.50000000  1
  Te  Te149  1  0.27804033  0.14943751  0.50000000  1
  Te  Te150  1  0.14943751  0.72195967  0.50000000  1
  Te  Te151  1  0.85056249  0.27804033  0.50000000  1
  Te  Te152  1  0.27804033  0.85056249  0.50000000  1
  Te  Te153  1  0.72195967  0.14943751  0.50000000  1
  Te  Te154  1  0.85056249  0.72195967  0.50000000  1
  Te  Te155  1  0.14943751  0.27804033  0.50000000  1
  Te  Te156  1  0.50000000  0.50000000  0.50000000  1
  Te  Te157  1  0.07821642  0.50000000  0.31627666  1
  Te  Te158  1  0.92178358  0.50000000  0.31627666  1
  Te  Te159  1  0.50000000  0.07821642  0.31627666  1
  Te  Te160  1  0.50000000  0.92178358  0.31627666  1
  Te  Te161  1  0.92178358  0.50000000  0.68372334  1
  Te  Te162  1  0.07821642  0.50000000  0.68372334  1
  Te  Te163  1  0.50000000  0.07821642  0.68372334  1
  Te  Te164  1  0.50000000  0.92178358  0.68372334  1
  Te  Te165  1  0.00000000  0.00000000  0.50000000  1
  Te  Te166  1  0.00000000  0.50000000  0.00000000  1
  Te  Te167  1  0.50000000  -0.00000000  0.00000000  1
