# generated using pymatgen
data_LiF
_symmetry_space_group_name_H-M   'P 1'
_cell_length_a   5.87021140
_cell_length_b   5.87021140
_cell_length_c   16.17399124
_cell_angle_alpha   90.00000000
_cell_angle_beta   90.00000000
_cell_angle_gamma   120.00000000
_symmetry_Int_Tables_number   1
_chemical_formula_structural   LiF
_chemical_formula_sum   'Li24 F24'
_cell_volume   482.67557033
_cell_formula_units_Z   24
loop_
 _symmetry_equiv_pos_site_id
 _symmetry_equiv_pos_as_xyz
  1  'x, y, z'
loop_
 _atom_site_type_symbol
 _atom_site_label
 _atom_site_symmetry_multiplicity
 _atom_site_fract_x
 _atom_site_fract_y
 _atom_site_fract_z
 _atom_site_occupancy
  F  F0  1  0.60409529  0.49775855  0.24233389  1
  F  F1  1  0.50224145  0.10633674  0.24233389  1
  F  F2  1  0.89366326  0.39590471  0.24233389  1
  F  F3  1  0.50224145  0.39590471  0.75766611  1
  F  F4  1  0.89366326  0.49775855  0.75766611  1
  F  F5  1  0.60409529  0.10633674  0.75766611  1
  F  F6  1  0.88952348  0.11047652  0.00000000  1
  F  F7  1  0.88952348  0.77904697  0.00000000  1
  F  F8  1  0.22095303  0.11047652  0.00000000  1
  F  F9  1  0.19858627  0.57441206  0.29710610  1
  F  F10  1  0.42558794  0.62417421  0.29710610  1
  F  F11  1  0.37582579  0.80141373  0.29710610  1
  F  F12  1  0.42558794  0.80141373  0.70289390  1
  F  F13  1  0.37582579  0.57441206  0.70289390  1
  F  F14  1  0.19858627  0.62417421  0.70289390  1
  F  F15  1  0.00000000  0.00000000  0.50000000  1
  F  F16  1  0.98542227  0.76082877  0.92980741  1
  F  F17  1  0.23917123  0.22459350  0.92980741  1
  F  F18  1  0.77540650  0.01457773  0.92980741  1
  F  F19  1  0.23917123  0.01457773  0.07019259  1
  F  F20  1  0.77540650  0.76082877  0.07019259  1
  F  F21  1  0.98542227  0.22459350  0.07019259  1
  F  F22  1  0.00000000  0.00000000  0.05626932  1
  F  F23  1  0.00000000  0.00000000  0.94373068  1
  Li  Li24  1  0.66666667  0.33333333  0.03990188  1
  Li  Li25  1  0.66666667  0.33333333  0.96009812  1
  Li  Li26  1  0.66666667  0.33333333  0.50000000  1
  Li  Li27  1  0.49660648  0.50339352  0.00000000  1
  Li  Li28  1  0.49660648  0.99321296  0.00000000  1
  Li  Li29  1  0.00678704  0.50339352  -0.00000000  1
  Li  Li30  1  0.33333333  0.66666667  -0.00000000  1
  Li  Li31  1  0.15699587  0.95878552  0.81112194  1
  Li  Li32  1  -0.95878552  -0.80178965  0.81112194  1
  Li  Li33  1  0.80178965  -0.15699587  0.81112194  1
  Li  Li34  1  -0.95878552  -0.15699587  -0.81112194  1
  Li  Li35  1  0.80178965  0.95878552  -0.81112194  1
  Li  Li36  1  0.15699587  -0.80178965  -0.81112194  1
  Li  Li37  1  0.55514163  0.64644998  0.93435659  1
  Li  Li38  1  0.35355002  0.90869165  0.93435659  1
  Li  Li39  1  0.09130835  0.44485837  0.93435659  1
  Li  Li40  1  0.35355002  0.44485837  0.06564341  1
  Li  Li41  1  0.09130835  0.64644998  0.06564341  1
  Li  Li42  1  0.55514163  0.90869165  0.06564341  1
  Li  Li43  1  0.10998561  0.89001439  0.50000000  1
  Li  Li44  1  0.10998561  0.21997122  0.50000000  1
  Li  Li45  1  0.78002878  0.89001439  0.50000000  1
  Li  Li46  1  0.66666667  0.33333333  0.39778224  1
  Li  Li47  1  0.66666667  0.33333333  0.60221776  1
