# generated using pymatgen
data_LiF
_symmetry_space_group_name_H-M   'P 1'
_cell_length_a   10.22035737
_cell_length_b   6.76999187
_cell_length_c   11.73714941
_cell_angle_alpha   90.00000000
_cell_angle_beta   90.00000000
_cell_angle_gamma   90.00000000
_symmetry_Int_Tables_number   1
_chemical_formula_structural   LiF
_chemical_formula_sum   'Li22 F22'
_cell_volume   812.11374707
_cell_formula_units_Z   22
loop_
 _symmetry_equiv_pos_site_id
 _symmetry_equiv_pos_as_xyz
  1  'x, y, z'
loop_
 _atom_site_type_symbol
 _atom_site_label
 _atom_site_symmetry_multiplicity
 _atom_site_fract_x
 _atom_site_fract_y
 _atom_site_fract_z
 _atom_site_occupancy
  F  F0  1  0.39640473  0.24391658  0.00000000  1
  F  F1  1  0.60359527  0.75608342  0.00000000  1
  F  F2  1  0.10359527  0.74391658  0.00000000  1
  F  F3  1  0.89640473  0.25608342  0.00000000  1
  F  F4  1  0.00000000  0.50000000  0.50000000  1
  F  F5  1  0.50000000  0.00000000  0.50000000  1
  F  F6  1  0.30186923  0.01918692  0.00000000  1
  F  F7  1  0.69813077  0.98081308  0.00000000  1
  F  F8  1  0.19813077  0.51918692  0.00000000  1
  F  F9  1  0.80186923  0.48081308  0.00000000  1
  F  F10  1  0.42075975  0.08230498  0.33256496  1
  F  F11  1  0.57924025  0.91769502  0.33256496  1
  F  F12  1  0.07924025  0.58230498  0.66743504  1
  F  F13  1  0.92075975  0.41769502  0.66743504  1
  F  F14  1  0.57924025  0.91769502  0.66743504  1
  F  F15  1  0.42075975  0.08230498  0.66743504  1
  F  F16  1  0.92075975  0.41769502  0.33256496  1
  F  F17  1  0.07924025  0.58230498  0.33256496  1
  F  F18  1  0.00000000  0.00000000  0.10963794  1
  F  F19  1  0.50000000  0.50000000  0.89036206  1
  F  F20  1  0.00000000  0.00000000  0.89036206  1
  F  F21  1  0.50000000  0.50000000  0.10963794  1
  Li  Li22  1  0.00000000  0.50000000  0.40306645  1
  Li  Li23  1  0.50000000  0.00000000  0.59693355  1
  Li  Li24  1  0.00000000  0.50000000  0.59693355  1
  Li  Li25  1  0.50000000  0.00000000  0.40306645  1
  Li  Li26  1  0.01661206  0.18193048  0.78092570  1
  Li  Li27  1  -0.01661206  -0.18193048  0.78092570  1
  Li  Li28  1  0.48338794  0.68193048  -0.78092570  1
  Li  Li29  1  0.51661206  0.31806952  -0.78092570  1
  Li  Li30  1  -0.01661206  -0.18193048  -0.78092570  1
  Li  Li31  1  0.01661206  0.18193048  -0.78092570  1
  Li  Li32  1  0.51661206  0.31806952  0.78092570  1
  Li  Li33  1  0.48338794  0.68193048  0.78092570  1
  Li  Li34  1  0.47488176  0.17410752  0.84658301  1
  Li  Li35  1  0.52511824  0.82589248  0.84658301  1
  Li  Li36  1  0.02511824  0.67410752  0.15341699  1
  Li  Li37  1  0.97488176  0.32589248  0.15341699  1
  Li  Li38  1  0.52511824  0.82589248  0.15341699  1
  Li  Li39  1  0.47488176  0.17410752  0.15341699  1
  Li  Li40  1  0.97488176  0.32589248  0.84658301  1
  Li  Li41  1  0.02511824  0.67410752  0.84658301  1
  Li  Li42  1  0.00000000  0.00000000  0.00000000  1
  Li  Li43  1  0.50000000  0.50000000  0.00000000  1
