# generated using pymatgen
data_Li3Y2P3Se2
_symmetry_space_group_name_H-M   'P 1'
_cell_length_a   6.24580655
_cell_length_b   6.56986192
_cell_length_c   7.59821411
_cell_angle_alpha   92.58470731
_cell_angle_beta   95.62895516
_cell_angle_gamma   100.38174197
_symmetry_Int_Tables_number   1
_chemical_formula_structural   Li3Y2P3Se2
_chemical_formula_sum   'Li3 Y2 P3 Se2'
_cell_volume   304.57451902
_cell_formula_units_Z   1
loop_
 _symmetry_equiv_pos_site_id
 _symmetry_equiv_pos_as_xyz
  1  'x, y, z'
loop_
 _atom_site_type_symbol
 _atom_site_label
 _atom_site_symmetry_multiplicity
 _atom_site_fract_x
 _atom_site_fract_y
 _atom_site_fract_z
 _atom_site_occupancy
  Se  Se0  1  0.12500000  0.00000000  0.25000000  1
  Se  Se1  1  0.00000000  0.00000000  0.00000000  1
  Y  Y2  1  0.37500000  0.00000000  0.25000000  1
  Y  Y3  1  0.25000000  0.25000000  0.25000000  1
  P  P4  1  0.00000000  0.25000000  0.12500000  1
  P  P5  1  0.76306392  0.36400610  0.84375160  1
  P  P6  1  0.74446801  0.50134011  0.49752566  1
  Li  Li7  1  0.54823034  0.71408376  0.70527718  1
  Li  Li8  1  0.70247607  0.25155837  0.74960202  1
  Li  Li9  1  0.25029499  0.21630553  0.92327895  1
