# generated using pymatgen
data_LiCaF3
_symmetry_space_group_name_H-M   'P 1'
_cell_length_a   8.72858712
_cell_length_b   8.72858712
_cell_length_c   19.66674772
_cell_angle_alpha   90.00000000
_cell_angle_beta   90.00000000
_cell_angle_gamma   120.00000000
_symmetry_Int_Tables_number   1
_chemical_formula_structural   LiCaF3
_chemical_formula_sum   'Li18 Ca18 F54'
_cell_volume   1297.63060661
_cell_formula_units_Z   18
loop_
 _symmetry_equiv_pos_site_id
 _symmetry_equiv_pos_as_xyz
  1  'x, y, z'
loop_
 _atom_site_type_symbol
 _atom_site_label
 _atom_site_symmetry_multiplicity
 _atom_site_fract_x
 _atom_site_fract_y
 _atom_site_fract_z
 _atom_site_occupancy
  Ca  Ca0  1  0.49527532  0.16599890  0.23763363  1
  Ca  Ca1  1  -0.16599890  0.32927642  0.23763363  1
  Ca  Ca2  1  -0.32927642  -0.49527532  0.23763363  1
  Ca  Ca3  1  -0.16599890  -0.49527532  -0.23763363  1
  Ca  Ca4  1  -0.32927642  0.16599890  -0.23763363  1
  Ca  Ca5  1  0.49527532  0.32927642  -0.23763363  1
  Ca  Ca6  1  0.22428437  0.77571563  0.50000000  1
  Ca  Ca7  1  0.22428437  0.44856875  0.50000000  1
  Ca  Ca8  1  0.55143125  0.77571563  0.50000000  1
  Ca  Ca9  1  0.66666667  0.33333333  0.50000000  1
  Ca  Ca10  1  0.23978633  0.75522318  0.67499531  1
  Ca  Ca11  1  0.24477682  0.48456315  0.67499531  1
  Ca  Ca12  1  0.51543685  0.76021367  0.67499531  1
  Ca  Ca13  1  0.24477682  0.76021367  0.32500469  1
  Ca  Ca14  1  0.51543685  0.75522318  0.32500469  1
  Ca  Ca15  1  0.23978633  0.48456315  0.32500469  1
  Ca  Ca16  1  0.00000000  0.00000000  0.07659768  1
  Ca  Ca17  1  0.00000000  0.00000000  0.92340232  1
  F  F18  1  0.61056336  0.73070397  0.58278973  1
  F  F19  1  0.26929603  0.87985939  0.58278973  1
  F  F20  1  0.12014061  0.38943664  0.58278973  1
  F  F21  1  0.26929603  0.38943664  0.41721027  1
  F  F22  1  0.12014061  0.73070397  0.41721027  1
  F  F23  1  0.61056336  0.87985939  0.41721027  1
  F  F24  1  0.06363854  0.12795109  0.41176102  1
  F  F25  1  0.87204891  0.93568744  0.41176102  1
  F  F26  1  0.06431256  0.93636146  0.41176102  1
  F  F27  1  0.87204891  0.93636146  0.58823898  1
  F  F28  1  0.06431256  0.12795109  0.58823898  1
  F  F29  1  0.06363854  0.93568744  0.58823898  1
  F  F30  1  0.00000000  0.00000000  0.50000000  1
  F  F31  1  0.75927480  0.83097550  0.89473395  1
  F  F32  1  0.16902450  0.92829930  0.89473395  1
  F  F33  1  0.07170070  0.24072520  0.89473395  1
  F  F34  1  0.16902450  0.24072520  0.10526605  1
  F  F35  1  0.07170070  0.83097550  0.10526605  1
  F  F36  1  0.75927480  0.92829930  0.10526605  1
  F  F37  1  0.33333333  0.66666667  0.63125564  1
  F  F38  1  0.33333333  0.66666667  0.36874436  1
  F  F39  1  0.49078209  0.04849065  0.46294124  1
  F  F40  1  0.95150935  0.44229144  0.46294124  1
  F  F41  1  0.55770856  0.50921791  0.46294124  1
  F  F42  1  0.95150935  0.50921791  0.53705876  1
  F  F43  1  0.55770856  0.04849065  0.53705876  1
  F  F44  1  0.49078209  0.44229144  0.53705876  1
  F  F45  1  0.33333333  0.66666667  0.50000000  1
  F  F46  1  0.45859063  0.13509253  0.76123798  1
  F  F47  1  0.86490747  0.32349810  0.76123798  1
  F  F48  1  0.67650190  0.54140937  0.76123798  1
  F  F49  1  0.86490747  0.54140937  0.23876202  1
  F  F50  1  0.67650190  0.13509253  0.23876202  1
  F  F51  1  0.45859063  0.32349810  0.23876202  1
  F  F52  1  0.66666667  0.33333333  0.31638288  1
  F  F53  1  0.66666667  0.33333333  0.68361712  1
  F  F54  1  0.76620960  0.19740866  0.61406119  1
  F  F55  1  0.80259134  0.56880094  0.61406119  1
  F  F56  1  0.43119906  0.23379040  0.61406119  1
  F  F57  1  0.80259134  0.23379040  0.38593881  1
  F  F58  1  0.43119906  0.19740866  0.38593881  1
  F  F59  1  0.76620960  0.56880094  0.38593881  1
  F  F60  1  0.00000000  0.00000000  0.00000000  1
  F  F61  1  0.33333333  0.66666667  0.75085439  1
  F  F62  1  0.33333333  0.66666667  0.24914561  1
  F  F63  1  0.86787658  0.98147111  0.54009109  1
  F  F64  1  0.01852889  0.88640547  0.54009109  1
  F  F65  1  0.11359453  0.13212342  0.54009109  1
  F  F66  1  0.01852889  0.13212342  0.45990891  1
  F  F67  1  0.11359453  0.98147111  0.45990891  1
  F  F68  1  0.86787658  0.88640547  0.45990891  1
  F  F69  1  0.84113016  0.15886984  0.00000000  1
  F  F70  1  0.84113016  0.68226031  0.00000000  1
  F  F71  1  0.31773969  0.15886984  0.00000000  1
  Li  Li72  1  0.76322900  0.13276485  0.82442406  1
  Li  Li73  1  0.86723515  0.63046416  0.82442406  1
  Li  Li74  1  0.36953584  0.23677100  0.82442406  1
  Li  Li75  1  0.86723515  0.23677100  0.17557594  1
  Li  Li76  1  0.36953584  0.13276485  0.17557594  1
  Li  Li77  1  0.76322900  0.63046416  0.17557594  1
  Li  Li78  1  0.45723601  0.16565281  0.11601591  1
  Li  Li79  1  0.83434719  0.29158321  0.11601591  1
  Li  Li80  1  0.70841679  0.54276399  0.11601591  1
  Li  Li81  1  0.83434719  0.54276399  0.88398409  1
  Li  Li82  1  0.70841679  0.16565281  0.88398409  1
  Li  Li83  1  0.45723601  0.29158321  0.88398409  1
  Li  Li84  1  0.27891629  0.17928595  0.65297860  1
  Li  Li85  1  0.82071405  0.09963034  0.65297860  1
  Li  Li86  1  0.90036966  0.72108371  0.65297860  1
  Li  Li87  1  0.82071405  0.72108371  0.34702140  1
  Li  Li88  1  0.90036966  0.17928595  0.34702140  1
  Li  Li89  1  0.27891629  0.09963034  0.34702140  1
