# generated using pymatgen
data_LiF
_symmetry_space_group_name_H-M   'P 1'
_cell_length_a   9.81502476
_cell_length_b   9.81502476
_cell_length_c   9.81502476
_cell_angle_alpha   90.00000000
_cell_angle_beta   90.00000000
_cell_angle_gamma   90.00000000
_symmetry_Int_Tables_number   1
_chemical_formula_structural   LiF
_chemical_formula_sum   'Li36 F36'
_cell_volume   945.52757285
_cell_formula_units_Z   36
loop_
 _symmetry_equiv_pos_site_id
 _symmetry_equiv_pos_as_xyz
  1  'x, y, z'
loop_
 _atom_site_type_symbol
 _atom_site_label
 _atom_site_symmetry_multiplicity
 _atom_site_fract_x
 _atom_site_fract_y
 _atom_site_fract_z
 _atom_site_occupancy
  F  F0  1  0.12500000  0.71411075  -0.46411075  1
  F  F1  1  0.37500000  -0.71411075  0.03588925  1
  F  F2  1  0.87500000  1.21411075  0.96411075  1
  F  F3  1  0.62500000  -0.21411075  1.46411075  1
  F  F4  1  -0.46411075  0.12500000  0.71411075  1
  F  F5  1  0.03588925  0.37500000  -0.71411075  1
  F  F6  1  0.96411075  0.87500000  1.21411075  1
  F  F7  1  1.46411075  0.62500000  -0.21411075  1
  F  F8  1  0.71411075  -0.46411075  0.12500000  1
  F  F9  1  -0.71411075  0.03588925  0.37500000  1
  F  F10  1  1.21411075  0.96411075  0.87500000  1
  F  F11  1  -0.21411075  1.46411075  0.62500000  1
  F  F12  1  0.62500000  1.21411075  0.03588925  1
  F  F13  1  0.87500000  -0.21411075  0.53588925  1
  F  F14  1  1.37500000  1.71411075  1.46411075  1
  F  F15  1  1.12500000  0.28588925  1.96411075  1
  F  F16  1  0.03588925  0.62500000  1.21411075  1
  F  F17  1  0.53588925  0.87500000  -0.21411075  1
  F  F18  1  1.46411075  1.37500000  1.71411075  1
  F  F19  1  1.96411075  1.12500000  0.28588925  1
  F  F20  1  1.21411075  0.03588925  0.62500000  1
  F  F21  1  -0.21411075  0.53588925  0.87500000  1
  F  F22  1  1.71411075  1.46411075  1.37500000  1
  F  F23  1  0.28588925  1.96411075  1.12500000  1
  F  F24  1  0.62500000  0.00000000  0.25000000  1
  F  F25  1  0.87500000  0.00000000  0.75000000  1
  F  F26  1  0.25000000  0.62500000  0.00000000  1
  F  F27  1  0.75000000  0.87500000  0.00000000  1
  F  F28  1  0.00000000  0.25000000  0.62500000  1
  F  F29  1  0.00000000  0.75000000  0.87500000  1
  F  F30  1  0.12500000  0.50000000  0.75000000  1
  F  F31  1  0.37500000  0.50000000  0.25000000  1
  F  F32  1  0.75000000  0.12500000  0.50000000  1
  F  F33  1  0.25000000  0.37500000  0.50000000  1
  F  F34  1  0.50000000  0.75000000  0.12500000  1
  F  F35  1  0.50000000  0.25000000  0.37500000  1
  Li  Li36  1  0.87500000  0.87500000  0.87500000  1
  Li  Li37  1  0.62500000  0.12500000  0.37500000  1
  Li  Li38  1  0.12500000  0.37500000  0.62500000  1
  Li  Li39  1  0.37500000  0.62500000  0.12500000  1
  Li  Li40  1  0.37500000  0.37500000  0.37500000  1
  Li  Li41  1  0.12500000  0.62500000  0.87500000  1
  Li  Li42  1  0.62500000  0.87500000  0.12500000  1
  Li  Li43  1  0.87500000  0.12500000  0.62500000  1
  Li  Li44  1  0.12500000  0.00000000  0.25000000  1
  Li  Li45  1  0.37500000  0.00000000  0.75000000  1
  Li  Li46  1  0.25000000  0.12500000  0.00000000  1
  Li  Li47  1  0.75000000  0.37500000  0.00000000  1
  Li  Li48  1  0.00000000  0.25000000  0.12500000  1
  Li  Li49  1  0.00000000  0.75000000  0.37500000  1
  Li  Li50  1  0.62500000  0.50000000  0.75000000  1
  Li  Li51  1  0.87500000  0.50000000  0.25000000  1
  Li  Li52  1  0.75000000  0.62500000  0.50000000  1
  Li  Li53  1  0.25000000  0.87500000  0.50000000  1
  Li  Li54  1  0.50000000  0.75000000  0.62500000  1
  Li  Li55  1  0.50000000  0.25000000  0.87500000  1
  Li  Li56  1  0.22605294  0.22605294  0.22605294  1
  Li  Li57  1  0.27394706  0.77394706  0.72605294  1
  Li  Li58  1  0.77394706  0.72605294  0.27394706  1
  Li  Li59  1  0.72605294  0.27394706  0.77394706  1
  Li  Li60  1  0.97605294  0.47605294  0.02394706  1
  Li  Li61  1  0.52394706  0.52394706  0.52394706  1
  Li  Li62  1  0.47605294  0.02394706  0.97605294  1
  Li  Li63  1  0.02394706  0.97605294  0.47605294  1
  Li  Li64  1  0.72605294  0.72605294  0.72605294  1
  Li  Li65  1  0.77394706  0.27394706  0.22605294  1
  Li  Li66  1  0.27394706  0.22605294  0.77394706  1
  Li  Li67  1  0.22605294  0.77394706  0.27394706  1
  Li  Li68  1  0.47605294  0.97605294  0.52394706  1
  Li  Li69  1  0.02394706  0.02394706  0.02394706  1
  Li  Li70  1  0.97605294  0.52394706  0.47605294  1
  Li  Li71  1  0.52394706  0.47605294  0.97605294  1
